Initialize SIGNATURE TABLE
ST_SET: 1
ST_WAY: 256
ST_TAG_BIT: 16
ST_TAG_MASK: ffff

Initialize PATTERN TABLE
PT_SET: 512
PT_WAY: 4
SIG_DELTA_BIT: 7
C_SIG_BIT: 4
C_DELTA_BIT: 4

Initialize PREFETCH FILTER
FILTER_SET: 1024

Initialize PERCEPTRON
PERC_ENTRIES: 4096
PERC_FEATURES: 9

*** ChampSim Multicore Out-of-Order Simulator ***

Warmup Instructions: 200000000
Simulation Instructions: 1000000000
Number of CPUs: 1
LLC sets: 2048
LLC ways: 16
Off-chip DRAM Size: 4096 MB Channels: 1 Width: 64-bit Data Rate: 1600 MT/s

CPU 0 runs /scratch/user/djimenez/champsim-traces/speccpu2017/xz/644.nab_s/644.nab_s-9322B.champsimtrace.xz
Heartbeat CPU 0 instructions: 10000001 cycles: 5495862 heartbeat IPC: 1.81955 cumulative IPC: 1.81955 (Simulation time: 0 hr 0 min 20 sec) 
Heartbeat CPU 0 instructions: 20000000 cycles: 10991405 heartbeat IPC: 1.81966 cumulative IPC: 1.8196 (Simulation time: 0 hr 0 min 40 sec) 
Heartbeat CPU 0 instructions: 30000003 cycles: 16488193 heartbeat IPC: 1.81924 cumulative IPC: 1.81948 (Simulation time: 0 hr 0 min 59 sec) 
Heartbeat CPU 0 instructions: 40000000 cycles: 21980296 heartbeat IPC: 1.8208 cumulative IPC: 1.81981 (Simulation time: 0 hr 1 min 19 sec) 
Heartbeat CPU 0 instructions: 50000002 cycles: 27470767 heartbeat IPC: 1.82134 cumulative IPC: 1.82012 (Simulation time: 0 hr 1 min 39 sec) 
Heartbeat CPU 0 instructions: 60000000 cycles: 32960852 heartbeat IPC: 1.82147 cumulative IPC: 1.82034 (Simulation time: 0 hr 1 min 58 sec) 
Heartbeat CPU 0 instructions: 70000000 cycles: 38451147 heartbeat IPC: 1.8214 cumulative IPC: 1.82049 (Simulation time: 0 hr 2 min 18 sec) 
Heartbeat CPU 0 instructions: 80000000 cycles: 43937109 heartbeat IPC: 1.82283 cumulative IPC: 1.82078 (Simulation time: 0 hr 2 min 38 sec) 
Heartbeat CPU 0 instructions: 90000003 cycles: 49428987 heartbeat IPC: 1.82087 cumulative IPC: 1.82079 (Simulation time: 0 hr 2 min 58 sec) 
Heartbeat CPU 0 instructions: 100000000 cycles: 54921682 heartbeat IPC: 1.8206 cumulative IPC: 1.82077 (Simulation time: 0 hr 3 min 18 sec) 
Heartbeat CPU 0 instructions: 110000002 cycles: 60408347 heartbeat IPC: 1.8226 cumulative IPC: 1.82094 (Simulation time: 0 hr 3 min 37 sec) 
Heartbeat CPU 0 instructions: 120000000 cycles: 65899223 heartbeat IPC: 1.8212 cumulative IPC: 1.82096 (Simulation time: 0 hr 3 min 57 sec) 
Heartbeat CPU 0 instructions: 130000001 cycles: 71386627 heartbeat IPC: 1.82236 cumulative IPC: 1.82107 (Simulation time: 0 hr 4 min 17 sec) 
Heartbeat CPU 0 instructions: 140000000 cycles: 76875055 heartbeat IPC: 1.82202 cumulative IPC: 1.82114 (Simulation time: 0 hr 4 min 37 sec) 
Heartbeat CPU 0 instructions: 150000000 cycles: 82372748 heartbeat IPC: 1.81894 cumulative IPC: 1.82099 (Simulation time: 0 hr 4 min 57 sec) 
Heartbeat CPU 0 instructions: 160000000 cycles: 87863745 heartbeat IPC: 1.82116 cumulative IPC: 1.821 (Simulation time: 0 hr 5 min 17 sec) 
Heartbeat CPU 0 instructions: 170000002 cycles: 93357093 heartbeat IPC: 1.82038 cumulative IPC: 1.82097 (Simulation time: 0 hr 5 min 36 sec) 
Heartbeat CPU 0 instructions: 180000000 cycles: 98852031 heartbeat IPC: 1.81986 cumulative IPC: 1.8209 (Simulation time: 0 hr 5 min 56 sec) 
Heartbeat CPU 0 instructions: 190000000 cycles: 104344805 heartbeat IPC: 1.82057 cumulative IPC: 1.82089 (Simulation time: 0 hr 6 min 16 sec) 
Heartbeat CPU 0 instructions: 200000000 cycles: 109840495 heartbeat IPC: 1.81961 cumulative IPC: 1.82082 (Simulation time: 0 hr 6 min 36 sec) 

Warmup complete CPU 0 instructions: 200000002 cycles: 109840496 (Simulation time: 0 hr 6 min 36 sec) 

Heartbeat CPU 0 instructions: 210000000 cycles: 127141772 heartbeat IPC: 0.577992 cumulative IPC: 0.577992 (Simulation time: 0 hr 7 min 6 sec) 
Heartbeat CPU 0 instructions: 220000000 cycles: 144420970 heartbeat IPC: 0.578731 cumulative IPC: 0.578361 (Simulation time: 0 hr 7 min 37 sec) 
Heartbeat CPU 0 instructions: 230000002 cycles: 161715376 heartbeat IPC: 0.578222 cumulative IPC: 0.578315 (Simulation time: 0 hr 8 min 8 sec) 
Heartbeat CPU 0 instructions: 240000000 cycles: 179026719 heartbeat IPC: 0.577656 cumulative IPC: 0.57815 (Simulation time: 0 hr 8 min 39 sec) 
Heartbeat CPU 0 instructions: 250000000 cycles: 196305166 heartbeat IPC: 0.578756 cumulative IPC: 0.578271 (Simulation time: 0 hr 9 min 9 sec) 
Heartbeat CPU 0 instructions: 260000000 cycles: 213551525 heartbeat IPC: 0.579833 cumulative IPC: 0.578531 (Simulation time: 0 hr 9 min 40 sec) 
Heartbeat CPU 0 instructions: 270000003 cycles: 230837828 heartbeat IPC: 0.578493 cumulative IPC: 0.578525 (Simulation time: 0 hr 10 min 10 sec) 
Heartbeat CPU 0 instructions: 280000000 cycles: 248095767 heartbeat IPC: 0.579443 cumulative IPC: 0.57864 (Simulation time: 0 hr 10 min 41 sec) 
Heartbeat CPU 0 instructions: 290000002 cycles: 265352722 heartbeat IPC: 0.579477 cumulative IPC: 0.578733 (Simulation time: 0 hr 11 min 11 sec) 
Heartbeat CPU 0 instructions: 300000000 cycles: 282586599 heartbeat IPC: 0.580252 cumulative IPC: 0.578884 (Simulation time: 0 hr 11 min 42 sec) 
Heartbeat CPU 0 instructions: 310000003 cycles: 299804947 heartbeat IPC: 0.580776 cumulative IPC: 0.579056 (Simulation time: 0 hr 12 min 13 sec) 
Heartbeat CPU 0 instructions: 320000000 cycles: 317053437 heartbeat IPC: 0.579761 cumulative IPC: 0.579114 (Simulation time: 0 hr 12 min 43 sec) 
Heartbeat CPU 0 instructions: 330000001 cycles: 334346005 heartbeat IPC: 0.578283 cumulative IPC: 0.57905 (Simulation time: 0 hr 13 min 14 sec) 
Heartbeat CPU 0 instructions: 340000000 cycles: 351612543 heartbeat IPC: 0.579155 cumulative IPC: 0.579058 (Simulation time: 0 hr 13 min 44 sec) 
Heartbeat CPU 0 instructions: 350000003 cycles: 368884635 heartbeat IPC: 0.578969 cumulative IPC: 0.579052 (Simulation time: 0 hr 14 min 15 sec) 
Heartbeat CPU 0 instructions: 360000000 cycles: 386159517 heartbeat IPC: 0.578875 cumulative IPC: 0.579041 (Simulation time: 0 hr 14 min 45 sec) 
Heartbeat CPU 0 instructions: 370000000 cycles: 403384493 heartbeat IPC: 0.580552 cumulative IPC: 0.57913 (Simulation time: 0 hr 15 min 16 sec) 
Heartbeat CPU 0 instructions: 380000000 cycles: 420648755 heartbeat IPC: 0.579231 cumulative IPC: 0.579135 (Simulation time: 0 hr 15 min 46 sec) 
Heartbeat CPU 0 instructions: 390000003 cycles: 437919199 heartbeat IPC: 0.579024 cumulative IPC: 0.579129 (Simulation time: 0 hr 16 min 17 sec) 
Heartbeat CPU 0 instructions: 400000000 cycles: 455216967 heartbeat IPC: 0.578109 cumulative IPC: 0.579078 (Simulation time: 0 hr 16 min 48 sec) 
Heartbeat CPU 0 instructions: 410000000 cycles: 472493157 heartbeat IPC: 0.578831 cumulative IPC: 0.579066 (Simulation time: 0 hr 17 min 18 sec) 
Heartbeat CPU 0 instructions: 420000000 cycles: 489746792 heartbeat IPC: 0.579588 cumulative IPC: 0.57909 (Simulation time: 0 hr 17 min 49 sec) 
Heartbeat CPU 0 instructions: 430000001 cycles: 506999263 heartbeat IPC: 0.579627 cumulative IPC: 0.579113 (Simulation time: 0 hr 18 min 19 sec) 
Heartbeat CPU 0 instructions: 440000000 cycles: 524248269 heartbeat IPC: 0.579744 cumulative IPC: 0.57914 (Simulation time: 0 hr 18 min 50 sec) 
Heartbeat CPU 0 instructions: 450000003 cycles: 541560298 heartbeat IPC: 0.577633 cumulative IPC: 0.579079 (Simulation time: 0 hr 19 min 20 sec) 
Heartbeat CPU 0 instructions: 460000000 cycles: 558852507 heartbeat IPC: 0.578295 cumulative IPC: 0.579049 (Simulation time: 0 hr 19 min 51 sec) 
Heartbeat CPU 0 instructions: 470000000 cycles: 576139851 heartbeat IPC: 0.578458 cumulative IPC: 0.579027 (Simulation time: 0 hr 20 min 22 sec) 
Heartbeat CPU 0 instructions: 480000000 cycles: 593442427 heartbeat IPC: 0.577949 cumulative IPC: 0.578989 (Simulation time: 0 hr 20 min 52 sec) 
Heartbeat CPU 0 instructions: 490000003 cycles: 610702456 heartbeat IPC: 0.579373 cumulative IPC: 0.579002 (Simulation time: 0 hr 21 min 23 sec) 
Heartbeat CPU 0 instructions: 500000000 cycles: 627971616 heartbeat IPC: 0.579067 cumulative IPC: 0.579004 (Simulation time: 0 hr 21 min 54 sec) 
Heartbeat CPU 0 instructions: 510000001 cycles: 645260011 heartbeat IPC: 0.578423 cumulative IPC: 0.578985 (Simulation time: 0 hr 22 min 24 sec) 
Heartbeat CPU 0 instructions: 520000000 cycles: 662548740 heartbeat IPC: 0.578411 cumulative IPC: 0.578967 (Simulation time: 0 hr 22 min 55 sec) 
Heartbeat CPU 0 instructions: 530000000 cycles: 679850674 heartbeat IPC: 0.57797 cumulative IPC: 0.578937 (Simulation time: 0 hr 23 min 26 sec) 
Heartbeat CPU 0 instructions: 540000000 cycles: 697129711 heartbeat IPC: 0.578736 cumulative IPC: 0.578931 (Simulation time: 0 hr 23 min 56 sec) 
Heartbeat CPU 0 instructions: 550000000 cycles: 714408865 heartbeat IPC: 0.578732 cumulative IPC: 0.578925 (Simulation time: 0 hr 24 min 27 sec) 
Heartbeat CPU 0 instructions: 560000000 cycles: 731683558 heartbeat IPC: 0.578882 cumulative IPC: 0.578924 (Simulation time: 0 hr 24 min 57 sec) 
Heartbeat CPU 0 instructions: 570000000 cycles: 748952736 heartbeat IPC: 0.579066 cumulative IPC: 0.578928 (Simulation time: 0 hr 25 min 28 sec) 
Heartbeat CPU 0 instructions: 580000000 cycles: 766273689 heartbeat IPC: 0.577335 cumulative IPC: 0.578886 (Simulation time: 0 hr 25 min 59 sec) 
Heartbeat CPU 0 instructions: 590000001 cycles: 783548512 heartbeat IPC: 0.578877 cumulative IPC: 0.578886 (Simulation time: 0 hr 26 min 29 sec) 
Heartbeat CPU 0 instructions: 600000000 cycles: 800856414 heartbeat IPC: 0.577771 cumulative IPC: 0.578858 (Simulation time: 0 hr 27 min 0 sec) 
Heartbeat CPU 0 instructions: 610000000 cycles: 818200546 heartbeat IPC: 0.576564 cumulative IPC: 0.578802 (Simulation time: 0 hr 27 min 31 sec) 
Heartbeat CPU 0 instructions: 620000000 cycles: 835530972 heartbeat IPC: 0.57702 cumulative IPC: 0.578759 (Simulation time: 0 hr 28 min 2 sec) 
Heartbeat CPU 0 instructions: 630000000 cycles: 852839036 heartbeat IPC: 0.577765 cumulative IPC: 0.578736 (Simulation time: 0 hr 28 min 32 sec) 
Heartbeat CPU 0 instructions: 640000000 cycles: 870127950 heartbeat IPC: 0.578405 cumulative IPC: 0.578728 (Simulation time: 0 hr 29 min 3 sec) 
Heartbeat CPU 0 instructions: 650000002 cycles: 887433788 heartbeat IPC: 0.57784 cumulative IPC: 0.578709 (Simulation time: 0 hr 29 min 33 sec) 
Heartbeat CPU 0 instructions: 660000000 cycles: 904730637 heartbeat IPC: 0.57814 cumulative IPC: 0.578696 (Simulation time: 0 hr 30 min 4 sec) 
Heartbeat CPU 0 instructions: 670000002 cycles: 922009321 heartbeat IPC: 0.578748 cumulative IPC: 0.578697 (Simulation time: 0 hr 30 min 35 sec) 
Heartbeat CPU 0 instructions: 680000000 cycles: 939270626 heartbeat IPC: 0.57933 cumulative IPC: 0.578711 (Simulation time: 0 hr 31 min 5 sec) 
Heartbeat CPU 0 instructions: 690000002 cycles: 956567177 heartbeat IPC: 0.57815 cumulative IPC: 0.578699 (Simulation time: 0 hr 31 min 36 sec) 
Heartbeat CPU 0 instructions: 700000000 cycles: 973841157 heartbeat IPC: 0.578905 cumulative IPC: 0.578703 (Simulation time: 0 hr 32 min 6 sec) 
Heartbeat CPU 0 instructions: 710000002 cycles: 991101919 heartbeat IPC: 0.579349 cumulative IPC: 0.578716 (Simulation time: 0 hr 32 min 37 sec) 
Heartbeat CPU 0 instructions: 720000000 cycles: 1008367028 heartbeat IPC: 0.579203 cumulative IPC: 0.578725 (Simulation time: 0 hr 33 min 8 sec) 
Heartbeat CPU 0 instructions: 730000000 cycles: 1025651180 heartbeat IPC: 0.578565 cumulative IPC: 0.578722 (Simulation time: 0 hr 33 min 38 sec) 
Heartbeat CPU 0 instructions: 740000000 cycles: 1042964821 heartbeat IPC: 0.577579 cumulative IPC: 0.578701 (Simulation time: 0 hr 34 min 9 sec) 
Heartbeat CPU 0 instructions: 750000003 cycles: 1060252504 heartbeat IPC: 0.578447 cumulative IPC: 0.578696 (Simulation time: 0 hr 34 min 40 sec) 
Heartbeat CPU 0 instructions: 760000000 cycles: 1077521825 heartbeat IPC: 0.579061 cumulative IPC: 0.578703 (Simulation time: 0 hr 35 min 10 sec) 
Heartbeat CPU 0 instructions: 770000002 cycles: 1094765856 heartbeat IPC: 0.579911 cumulative IPC: 0.578724 (Simulation time: 0 hr 35 min 41 sec) 
Heartbeat CPU 0 instructions: 780000000 cycles: 1112005295 heartbeat IPC: 0.580065 cumulative IPC: 0.578747 (Simulation time: 0 hr 36 min 11 sec) 
Heartbeat CPU 0 instructions: 790000003 cycles: 1129292298 heartbeat IPC: 0.578469 cumulative IPC: 0.578742 (Simulation time: 0 hr 36 min 42 sec) 
Heartbeat CPU 0 instructions: 800000000 cycles: 1146626793 heartbeat IPC: 0.576884 cumulative IPC: 0.578711 (Simulation time: 0 hr 37 min 13 sec) 
Heartbeat CPU 0 instructions: 810000001 cycles: 1163973236 heartbeat IPC: 0.576487 cumulative IPC: 0.578675 (Simulation time: 0 hr 37 min 44 sec) 
Heartbeat CPU 0 instructions: 820000000 cycles: 1181262902 heartbeat IPC: 0.57838 cumulative IPC: 0.57867 (Simulation time: 0 hr 38 min 14 sec) 
Heartbeat CPU 0 instructions: 830000003 cycles: 1198544028 heartbeat IPC: 0.578666 cumulative IPC: 0.57867 (Simulation time: 0 hr 38 min 45 sec) 
Heartbeat CPU 0 instructions: 840000000 cycles: 1215814848 heartbeat IPC: 0.579011 cumulative IPC: 0.578675 (Simulation time: 0 hr 39 min 16 sec) 
Heartbeat CPU 0 instructions: 850000002 cycles: 1233116267 heartbeat IPC: 0.577987 cumulative IPC: 0.578665 (Simulation time: 0 hr 39 min 46 sec) 
Heartbeat CPU 0 instructions: 860000000 cycles: 1250387224 heartbeat IPC: 0.579007 cumulative IPC: 0.57867 (Simulation time: 0 hr 40 min 17 sec) 
Heartbeat CPU 0 instructions: 870000000 cycles: 1267628269 heartbeat IPC: 0.580011 cumulative IPC: 0.57869 (Simulation time: 0 hr 40 min 48 sec) 
Heartbeat CPU 0 instructions: 880000000 cycles: 1284877002 heartbeat IPC: 0.579753 cumulative IPC: 0.578705 (Simulation time: 0 hr 41 min 18 sec) 
Heartbeat CPU 0 instructions: 890000001 cycles: 1302163756 heartbeat IPC: 0.578478 cumulative IPC: 0.578702 (Simulation time: 0 hr 41 min 49 sec) 
Heartbeat CPU 0 instructions: 900000000 cycles: 1319438788 heartbeat IPC: 0.57887 cumulative IPC: 0.578705 (Simulation time: 0 hr 42 min 19 sec) 
Heartbeat CPU 0 instructions: 910000002 cycles: 1336732601 heartbeat IPC: 0.578242 cumulative IPC: 0.578698 (Simulation time: 0 hr 42 min 50 sec) 
Heartbeat CPU 0 instructions: 920000000 cycles: 1354067590 heartbeat IPC: 0.576868 cumulative IPC: 0.578672 (Simulation time: 0 hr 43 min 21 sec) 
Heartbeat CPU 0 instructions: 930000001 cycles: 1371400645 heartbeat IPC: 0.576932 cumulative IPC: 0.578649 (Simulation time: 0 hr 43 min 52 sec) 
Heartbeat CPU 0 instructions: 940000000 cycles: 1388689492 heartbeat IPC: 0.578408 cumulative IPC: 0.578645 (Simulation time: 0 hr 44 min 23 sec) 
Heartbeat CPU 0 instructions: 950000002 cycles: 1406047105 heartbeat IPC: 0.576116 cumulative IPC: 0.578611 (Simulation time: 0 hr 44 min 54 sec) 
Heartbeat CPU 0 instructions: 960000000 cycles: 1423380381 heartbeat IPC: 0.576925 cumulative IPC: 0.578589 (Simulation time: 0 hr 45 min 24 sec) 
Heartbeat CPU 0 instructions: 970000003 cycles: 1440688019 heartbeat IPC: 0.57778 cumulative IPC: 0.578579 (Simulation time: 0 hr 45 min 55 sec) 
Heartbeat CPU 0 instructions: 980000000 cycles: 1458024482 heartbeat IPC: 0.576819 cumulative IPC: 0.578556 (Simulation time: 0 hr 46 min 26 sec) 
Heartbeat CPU 0 instructions: 990000002 cycles: 1475296259 heartbeat IPC: 0.578979 cumulative IPC: 0.578561 (Simulation time: 0 hr 46 min 57 sec) 
Heartbeat CPU 0 instructions: 1000000000 cycles: 1492579344 heartbeat IPC: 0.5786 cumulative IPC: 0.578562 (Simulation time: 0 hr 47 min 27 sec) 
Heartbeat CPU 0 instructions: 1010000001 cycles: 1509885810 heartbeat IPC: 0.577819 cumulative IPC: 0.578553 (Simulation time: 0 hr 47 min 58 sec) 
Heartbeat CPU 0 instructions: 1020000000 cycles: 1527157410 heartbeat IPC: 0.578985 cumulative IPC: 0.578558 (Simulation time: 0 hr 48 min 29 sec) 
Heartbeat CPU 0 instructions: 1030000000 cycles: 1544431006 heartbeat IPC: 0.578918 cumulative IPC: 0.578562 (Simulation time: 0 hr 48 min 59 sec) 
Heartbeat CPU 0 instructions: 1040000000 cycles: 1561701329 heartbeat IPC: 0.579028 cumulative IPC: 0.578568 (Simulation time: 0 hr 49 min 30 sec) 
Heartbeat CPU 0 instructions: 1050000000 cycles: 1579000161 heartbeat IPC: 0.578074 cumulative IPC: 0.578562 (Simulation time: 0 hr 50 min 0 sec) 
Heartbeat CPU 0 instructions: 1060000000 cycles: 1596274898 heartbeat IPC: 0.57888 cumulative IPC: 0.578566 (Simulation time: 0 hr 50 min 31 sec) 
Heartbeat CPU 0 instructions: 1070000002 cycles: 1613527221 heartbeat IPC: 0.579632 cumulative IPC: 0.578578 (Simulation time: 0 hr 51 min 1 sec) 
Heartbeat CPU 0 instructions: 1080000000 cycles: 1630772878 heartbeat IPC: 0.579856 cumulative IPC: 0.578592 (Simulation time: 0 hr 51 min 32 sec) 
Heartbeat CPU 0 instructions: 1090000003 cycles: 1648094376 heartbeat IPC: 0.577317 cumulative IPC: 0.578578 (Simulation time: 0 hr 52 min 3 sec) 
Heartbeat CPU 0 instructions: 1100000000 cycles: 1665414854 heartbeat IPC: 0.577351 cumulative IPC: 0.578564 (Simulation time: 0 hr 52 min 33 sec) 
Heartbeat CPU 0 instructions: 1110000001 cycles: 1682700168 heartbeat IPC: 0.578526 cumulative IPC: 0.578564 (Simulation time: 0 hr 53 min 4 sec) 
Heartbeat CPU 0 instructions: 1120000000 cycles: 1699995018 heartbeat IPC: 0.578207 cumulative IPC: 0.57856 (Simulation time: 0 hr 53 min 35 sec) 
Heartbeat CPU 0 instructions: 1130000000 cycles: 1717264730 heartbeat IPC: 0.579048 cumulative IPC: 0.578565 (Simulation time: 0 hr 54 min 5 sec) 
Heartbeat CPU 0 instructions: 1140000000 cycles: 1734515397 heartbeat IPC: 0.579688 cumulative IPC: 0.578577 (Simulation time: 0 hr 54 min 36 sec) 
Heartbeat CPU 0 instructions: 1150000000 cycles: 1751791434 heartbeat IPC: 0.578836 cumulative IPC: 0.57858 (Simulation time: 0 hr 55 min 6 sec) 
Heartbeat CPU 0 instructions: 1160000000 cycles: 1769080604 heartbeat IPC: 0.578397 cumulative IPC: 0.578578 (Simulation time: 0 hr 55 min 37 sec) 
Heartbeat CPU 0 instructions: 1170000000 cycles: 1786344855 heartbeat IPC: 0.579232 cumulative IPC: 0.578585 (Simulation time: 0 hr 56 min 7 sec) 
Heartbeat CPU 0 instructions: 1180000000 cycles: 1803618333 heartbeat IPC: 0.578922 cumulative IPC: 0.578588 (Simulation time: 0 hr 56 min 38 sec) 
Heartbeat CPU 0 instructions: 1190000000 cycles: 1820854046 heartbeat IPC: 0.580191 cumulative IPC: 0.578604 (Simulation time: 0 hr 57 min 8 sec) 
Heartbeat CPU 0 instructions: 1200000000 cycles: 1838083863 heartbeat IPC: 0.580389 cumulative IPC: 0.578622 (Simulation time: 0 hr 57 min 39 sec) 
Finished CPU 0 instructions: 1000000000 cycles: 1728243390 cumulative IPC: 0.578622 (Simulation time: 0 hr 57 min 39 sec) 

CPU 0 Branch Prediction Accuracy: 98.2459% MPKI: 2.19977

ChampSim completed all CPUs

Region of Interest Statistics

CPU 0 cumulative IPC: 0.578622 instructions: 1000000000 cycles: 1728243390
L1D TOTAL     ACCESS:  296989846  HIT:  287760109  MISS:    9229737
L1D LOAD      ACCESS:  278867691  HIT:  269643064  MISS:    9224627
L1D RFO       ACCESS:   18122155  HIT:   18117045  MISS:       5110
L1D PREFETCH  ACCESS:          0  HIT:          0  MISS:          0
L1D WRITEBACK ACCESS:          0  HIT:          0  MISS:          0
L1D PREFETCH  REQUESTED:          0  ISSUED:          0  USEFUL:          0  USELESS:          0
L1I TOTAL     ACCESS:  338705802  HIT:  338705802  MISS:          0
L1I LOAD      ACCESS:  338705802  HIT:  338705802  MISS:          0
L1I RFO       ACCESS:          0  HIT:          0  MISS:          0
L1I PREFETCH  ACCESS:          0  HIT:          0  MISS:          0
L1I WRITEBACK ACCESS:          0  HIT:          0  MISS:          0
L1I PREFETCH  REQUESTED:          0  ISSUED:          0  USEFUL:          0  USELESS:          0
L2C TOTAL     ACCESS:   20660273  HIT:   18839585  MISS:    1820688
L2C LOAD      ACCESS:    9224627  HIT:    9105790  MISS:     118837
L2C RFO       ACCESS:       5110  HIT:       4254  MISS:        856
L2C PREFETCH  ACCESS:   11425426  HIT:    9724432  MISS:    1700994
L2C WRITEBACK ACCESS:       5110  HIT:       5109  MISS:          1
L2C PREFETCH  REQUESTED:   13956560  ISSUED:   13956560  USEFUL:    1570746  USELESS:     446322
LLC TOTAL     ACCESS:    1968496  HIT:    1223572  MISS:     744924
LLC LOAD      ACCESS:     118340  HIT:      86853  MISS:      31487
LLC RFO       ACCESS:        856  HIT:        216  MISS:        640
LLC PREFETCH  ACCESS:    1848442  HIT:    1135646  MISS:     712796
LLC WRITEBACK ACCESS:        858  HIT:        857  MISS:          1
LLC PREFETCH  REQUESTED:          0  ISSUED:          0  USEFUL:      14965  USELESS:     812653
Major fault: 0 Minor fault: 14962

Avg Lookahead Depth:	5.89858
TOTAL: 1.39566e+07	L2C: 1.32932e+07	LLC: 663352	GOOD_L2C: 8.67424e+06
Printing all the perceptron weights to: perc_weights_0.csv

DRAM Statistics
 CHANNEL 0
 RQ ROW_BUFFER_HIT:     671655  ROW_BUFFER_MISS:      73268
 DBUS_CONGESTED:     165542
 WQ ROW_BUFFER_HIT:        440  ROW_BUFFER_MISS:        190  FULL:          0

 AVG_CONGESTED_CYCLE: 13
