Initialize SIGNATURE TABLE
ST_SET: 1
ST_WAY: 256
ST_TAG_BIT: 16
ST_TAG_MASK: ffff

Initialize PATTERN TABLE
PT_SET: 512
PT_WAY: 4
SIG_DELTA_BIT: 7
C_SIG_BIT: 4
C_DELTA_BIT: 4

Initialize PREFETCH FILTER
FILTER_SET: 1024

Initialize PERCEPTRON
PERC_ENTRIES: 4096
PERC_FEATURES: 9

*** ChampSim Multicore Out-of-Order Simulator ***

Warmup Instructions: 200000000
Simulation Instructions: 1000000000
Number of CPUs: 1
LLC sets: 2048
LLC ways: 16
Off-chip DRAM Size: 4096 MB Channels: 1 Width: 64-bit Data Rate: 1600 MT/s

CPU 0 runs /scratch/user/djimenez/champsim-traces/speccpu2017/xz/648.exchange2_s/648.exchange2_s-584B.champsimtrace.xz
Heartbeat CPU 0 instructions: 10000001 cycles: 4404181 heartbeat IPC: 2.27057 cumulative IPC: 2.27057 (Simulation time: 0 hr 0 min 14 sec) 
Heartbeat CPU 0 instructions: 20000000 cycles: 8824431 heartbeat IPC: 2.26232 cumulative IPC: 2.26644 (Simulation time: 0 hr 0 min 29 sec) 
Heartbeat CPU 0 instructions: 30000001 cycles: 13236817 heartbeat IPC: 2.26635 cumulative IPC: 2.26641 (Simulation time: 0 hr 0 min 44 sec) 
Heartbeat CPU 0 instructions: 40000000 cycles: 17687045 heartbeat IPC: 2.24708 cumulative IPC: 2.26154 (Simulation time: 0 hr 0 min 59 sec) 
Heartbeat CPU 0 instructions: 50000003 cycles: 22145551 heartbeat IPC: 2.2429 cumulative IPC: 2.25779 (Simulation time: 0 hr 1 min 14 sec) 
Heartbeat CPU 0 instructions: 60000000 cycles: 26580242 heartbeat IPC: 2.25495 cumulative IPC: 2.25732 (Simulation time: 0 hr 1 min 29 sec) 
Heartbeat CPU 0 instructions: 70000000 cycles: 31026591 heartbeat IPC: 2.24904 cumulative IPC: 2.25613 (Simulation time: 0 hr 1 min 44 sec) 
Heartbeat CPU 0 instructions: 80000000 cycles: 35480039 heartbeat IPC: 2.24545 cumulative IPC: 2.25479 (Simulation time: 0 hr 2 min 0 sec) 
Heartbeat CPU 0 instructions: 90000002 cycles: 39833911 heartbeat IPC: 2.29681 cumulative IPC: 2.25938 (Simulation time: 0 hr 2 min 13 sec) 
Heartbeat CPU 0 instructions: 100000000 cycles: 44165211 heartbeat IPC: 2.30878 cumulative IPC: 2.26423 (Simulation time: 0 hr 2 min 27 sec) 
Heartbeat CPU 0 instructions: 110000003 cycles: 48657187 heartbeat IPC: 2.22619 cumulative IPC: 2.26071 (Simulation time: 0 hr 2 min 42 sec) 
Heartbeat CPU 0 instructions: 120000000 cycles: 53124331 heartbeat IPC: 2.23857 cumulative IPC: 2.25885 (Simulation time: 0 hr 2 min 57 sec) 
Heartbeat CPU 0 instructions: 130000000 cycles: 57433326 heartbeat IPC: 2.32073 cumulative IPC: 2.26349 (Simulation time: 0 hr 3 min 11 sec) 
Heartbeat CPU 0 instructions: 140000000 cycles: 61820681 heartbeat IPC: 2.27928 cumulative IPC: 2.26461 (Simulation time: 0 hr 3 min 25 sec) 
Heartbeat CPU 0 instructions: 150000003 cycles: 66327543 heartbeat IPC: 2.21884 cumulative IPC: 2.2615 (Simulation time: 0 hr 3 min 40 sec) 
Heartbeat CPU 0 instructions: 160000000 cycles: 70798341 heartbeat IPC: 2.23674 cumulative IPC: 2.25994 (Simulation time: 0 hr 3 min 55 sec) 
Heartbeat CPU 0 instructions: 170000002 cycles: 75092292 heartbeat IPC: 2.32886 cumulative IPC: 2.26388 (Simulation time: 0 hr 4 min 8 sec) 
Heartbeat CPU 0 instructions: 180000000 cycles: 79519196 heartbeat IPC: 2.25891 cumulative IPC: 2.2636 (Simulation time: 0 hr 4 min 22 sec) 
Heartbeat CPU 0 instructions: 190000000 cycles: 84019825 heartbeat IPC: 2.22191 cumulative IPC: 2.26137 (Simulation time: 0 hr 4 min 37 sec) 
Heartbeat CPU 0 instructions: 200000000 cycles: 88443223 heartbeat IPC: 2.26071 cumulative IPC: 2.26134 (Simulation time: 0 hr 4 min 52 sec) 

Warmup complete CPU 0 instructions: 200000002 cycles: 88443224 (Simulation time: 0 hr 4 min 52 sec) 

Heartbeat CPU 0 instructions: 210000002 cycles: 95159690 heartbeat IPC: 1.48888 cumulative IPC: 1.48888 (Simulation time: 0 hr 5 min 11 sec) 
Heartbeat CPU 0 instructions: 220000000 cycles: 102070169 heartbeat IPC: 1.44708 cumulative IPC: 1.46768 (Simulation time: 0 hr 5 min 30 sec) 
Heartbeat CPU 0 instructions: 230000002 cycles: 108979593 heartbeat IPC: 1.4473 cumulative IPC: 1.46082 (Simulation time: 0 hr 5 min 50 sec) 
Heartbeat CPU 0 instructions: 240000000 cycles: 116618262 heartbeat IPC: 1.30913 cumulative IPC: 1.4197 (Simulation time: 0 hr 6 min 9 sec) 
Heartbeat CPU 0 instructions: 250000003 cycles: 123142048 heartbeat IPC: 1.53285 cumulative IPC: 1.44097 (Simulation time: 0 hr 6 min 28 sec) 
Heartbeat CPU 0 instructions: 260000000 cycles: 129526167 heartbeat IPC: 1.56639 cumulative IPC: 1.46046 (Simulation time: 0 hr 6 min 47 sec) 
Heartbeat CPU 0 instructions: 270000002 cycles: 135816408 heartbeat IPC: 1.58976 cumulative IPC: 1.47763 (Simulation time: 0 hr 7 min 6 sec) 
Heartbeat CPU 0 instructions: 280000000 cycles: 142822273 heartbeat IPC: 1.42738 cumulative IPC: 1.47115 (Simulation time: 0 hr 7 min 25 sec) 
Heartbeat CPU 0 instructions: 290000001 cycles: 149735509 heartbeat IPC: 1.4465 cumulative IPC: 1.46837 (Simulation time: 0 hr 7 min 44 sec) 
Heartbeat CPU 0 instructions: 300000000 cycles: 156815956 heartbeat IPC: 1.41234 cumulative IPC: 1.46257 (Simulation time: 0 hr 8 min 4 sec) 
Heartbeat CPU 0 instructions: 310000003 cycles: 163131141 heartbeat IPC: 1.58349 cumulative IPC: 1.4728 (Simulation time: 0 hr 8 min 22 sec) 
Heartbeat CPU 0 instructions: 320000000 cycles: 169574071 heartbeat IPC: 1.55209 cumulative IPC: 1.47909 (Simulation time: 0 hr 8 min 41 sec) 
Heartbeat CPU 0 instructions: 330000003 cycles: 175932098 heartbeat IPC: 1.57282 cumulative IPC: 1.4859 (Simulation time: 0 hr 9 min 0 sec) 
Heartbeat CPU 0 instructions: 340000000 cycles: 182341273 heartbeat IPC: 1.56026 cumulative IPC: 1.49098 (Simulation time: 0 hr 9 min 19 sec) 
Heartbeat CPU 0 instructions: 350000000 cycles: 188637146 heartbeat IPC: 1.58834 cumulative IPC: 1.4971 (Simulation time: 0 hr 9 min 38 sec) 
Heartbeat CPU 0 instructions: 360000000 cycles: 195595385 heartbeat IPC: 1.43715 cumulative IPC: 1.4932 (Simulation time: 0 hr 9 min 57 sec) 
Heartbeat CPU 0 instructions: 370000003 cycles: 201973049 heartbeat IPC: 1.56797 cumulative IPC: 1.4974 (Simulation time: 0 hr 10 min 16 sec) 
Heartbeat CPU 0 instructions: 380000000 cycles: 208317693 heartbeat IPC: 1.57613 cumulative IPC: 1.50157 (Simulation time: 0 hr 10 min 35 sec) 
Heartbeat CPU 0 instructions: 390000000 cycles: 214734350 heartbeat IPC: 1.55844 cumulative IPC: 1.50446 (Simulation time: 0 hr 10 min 54 sec) 
Heartbeat CPU 0 instructions: 400000000 cycles: 221179684 heartbeat IPC: 1.55151 cumulative IPC: 1.50674 (Simulation time: 0 hr 11 min 12 sec) 
Heartbeat CPU 0 instructions: 410000002 cycles: 228196561 heartbeat IPC: 1.42514 cumulative IPC: 1.50265 (Simulation time: 0 hr 11 min 32 sec) 
Heartbeat CPU 0 instructions: 420000000 cycles: 234564967 heartbeat IPC: 1.57025 cumulative IPC: 1.50559 (Simulation time: 0 hr 11 min 51 sec) 
Heartbeat CPU 0 instructions: 430000000 cycles: 240942963 heartbeat IPC: 1.56789 cumulative IPC: 1.5082 (Simulation time: 0 hr 12 min 9 sec) 
Heartbeat CPU 0 instructions: 440000000 cycles: 247404151 heartbeat IPC: 1.5477 cumulative IPC: 1.5098 (Simulation time: 0 hr 12 min 28 sec) 
Heartbeat CPU 0 instructions: 450000000 cycles: 253822870 heartbeat IPC: 1.55794 cumulative IPC: 1.51167 (Simulation time: 0 hr 12 min 47 sec) 
Heartbeat CPU 0 instructions: 460000000 cycles: 260194796 heartbeat IPC: 1.56938 cumulative IPC: 1.51381 (Simulation time: 0 hr 13 min 6 sec) 
Heartbeat CPU 0 instructions: 470000001 cycles: 266579172 heartbeat IPC: 1.56632 cumulative IPC: 1.5157 (Simulation time: 0 hr 13 min 25 sec) 
Heartbeat CPU 0 instructions: 480000000 cycles: 272978260 heartbeat IPC: 1.56272 cumulative IPC: 1.51733 (Simulation time: 0 hr 13 min 44 sec) 
Heartbeat CPU 0 instructions: 490000000 cycles: 279342002 heartbeat IPC: 1.5714 cumulative IPC: 1.51913 (Simulation time: 0 hr 14 min 3 sec) 
Heartbeat CPU 0 instructions: 500000000 cycles: 285854589 heartbeat IPC: 1.53549 cumulative IPC: 1.51967 (Simulation time: 0 hr 14 min 22 sec) 
Heartbeat CPU 0 instructions: 510000000 cycles: 292289096 heartbeat IPC: 1.55412 cumulative IPC: 1.52076 (Simulation time: 0 hr 14 min 41 sec) 
Heartbeat CPU 0 instructions: 520000000 cycles: 298730924 heartbeat IPC: 1.55235 cumulative IPC: 1.52172 (Simulation time: 0 hr 15 min 0 sec) 
Heartbeat CPU 0 instructions: 530000001 cycles: 305219398 heartbeat IPC: 1.54119 cumulative IPC: 1.52231 (Simulation time: 0 hr 15 min 19 sec) 
Heartbeat CPU 0 instructions: 540000000 cycles: 311761916 heartbeat IPC: 1.52846 cumulative IPC: 1.52249 (Simulation time: 0 hr 15 min 38 sec) 
Heartbeat CPU 0 instructions: 550000001 cycles: 318256654 heartbeat IPC: 1.53971 cumulative IPC: 1.52297 (Simulation time: 0 hr 15 min 57 sec) 
Heartbeat CPU 0 instructions: 560000000 cycles: 324703379 heartbeat IPC: 1.55117 cumulative IPC: 1.52374 (Simulation time: 0 hr 16 min 15 sec) 
Heartbeat CPU 0 instructions: 570000000 cycles: 331230424 heartbeat IPC: 1.53209 cumulative IPC: 1.52397 (Simulation time: 0 hr 16 min 34 sec) 
Heartbeat CPU 0 instructions: 580000000 cycles: 337691235 heartbeat IPC: 1.54779 cumulative IPC: 1.52459 (Simulation time: 0 hr 16 min 53 sec) 
Heartbeat CPU 0 instructions: 590000002 cycles: 344237721 heartbeat IPC: 1.52754 cumulative IPC: 1.52466 (Simulation time: 0 hr 17 min 12 sec) 
Heartbeat CPU 0 instructions: 600000000 cycles: 350762676 heartbeat IPC: 1.53258 cumulative IPC: 1.52486 (Simulation time: 0 hr 17 min 31 sec) 
Heartbeat CPU 0 instructions: 610000003 cycles: 357326648 heartbeat IPC: 1.52347 cumulative IPC: 1.52482 (Simulation time: 0 hr 17 min 50 sec) 
Heartbeat CPU 0 instructions: 620000000 cycles: 363774665 heartbeat IPC: 1.55086 cumulative IPC: 1.52543 (Simulation time: 0 hr 18 min 8 sec) 
Heartbeat CPU 0 instructions: 630000000 cycles: 370265147 heartbeat IPC: 1.54072 cumulative IPC: 1.52579 (Simulation time: 0 hr 18 min 27 sec) 
Heartbeat CPU 0 instructions: 640000000 cycles: 376716725 heartbeat IPC: 1.55001 cumulative IPC: 1.52633 (Simulation time: 0 hr 18 min 46 sec) 
Heartbeat CPU 0 instructions: 650000001 cycles: 383122755 heartbeat IPC: 1.56103 cumulative IPC: 1.52708 (Simulation time: 0 hr 19 min 5 sec) 
Heartbeat CPU 0 instructions: 660000000 cycles: 389608190 heartbeat IPC: 1.54192 cumulative IPC: 1.5274 (Simulation time: 0 hr 19 min 24 sec) 
Heartbeat CPU 0 instructions: 670000002 cycles: 396148205 heartbeat IPC: 1.52905 cumulative IPC: 1.52744 (Simulation time: 0 hr 19 min 43 sec) 
Heartbeat CPU 0 instructions: 680000000 cycles: 402683077 heartbeat IPC: 1.53025 cumulative IPC: 1.5275 (Simulation time: 0 hr 20 min 2 sec) 
Heartbeat CPU 0 instructions: 690000001 cycles: 409177106 heartbeat IPC: 1.53988 cumulative IPC: 1.52775 (Simulation time: 0 hr 20 min 21 sec) 
Heartbeat CPU 0 instructions: 700000000 cycles: 415608511 heartbeat IPC: 1.55487 cumulative IPC: 1.52828 (Simulation time: 0 hr 20 min 40 sec) 
Heartbeat CPU 0 instructions: 710000000 cycles: 422086732 heartbeat IPC: 1.54363 cumulative IPC: 1.52858 (Simulation time: 0 hr 20 min 59 sec) 
Heartbeat CPU 0 instructions: 720000000 cycles: 428492183 heartbeat IPC: 1.56117 cumulative IPC: 1.52919 (Simulation time: 0 hr 21 min 18 sec) 
Heartbeat CPU 0 instructions: 730000003 cycles: 434985891 heartbeat IPC: 1.53995 cumulative IPC: 1.52939 (Simulation time: 0 hr 21 min 36 sec) 
Heartbeat CPU 0 instructions: 740000000 cycles: 441391151 heartbeat IPC: 1.56122 cumulative IPC: 1.52997 (Simulation time: 0 hr 21 min 55 sec) 
Heartbeat CPU 0 instructions: 750000000 cycles: 447830084 heartbeat IPC: 1.55305 cumulative IPC: 1.53038 (Simulation time: 0 hr 22 min 14 sec) 
Heartbeat CPU 0 instructions: 760000000 cycles: 454239481 heartbeat IPC: 1.56021 cumulative IPC: 1.53091 (Simulation time: 0 hr 22 min 33 sec) 
Heartbeat CPU 0 instructions: 770000000 cycles: 460608733 heartbeat IPC: 1.57004 cumulative IPC: 1.53158 (Simulation time: 0 hr 22 min 52 sec) 
Heartbeat CPU 0 instructions: 780000000 cycles: 467064301 heartbeat IPC: 1.54905 cumulative IPC: 1.53187 (Simulation time: 0 hr 23 min 11 sec) 
Heartbeat CPU 0 instructions: 790000001 cycles: 473455700 heartbeat IPC: 1.5646 cumulative IPC: 1.53242 (Simulation time: 0 hr 23 min 30 sec) 
Heartbeat CPU 0 instructions: 800000000 cycles: 479899753 heartbeat IPC: 1.55182 cumulative IPC: 1.53274 (Simulation time: 0 hr 23 min 49 sec) 
Heartbeat CPU 0 instructions: 810000001 cycles: 486323953 heartbeat IPC: 1.55661 cumulative IPC: 1.53312 (Simulation time: 0 hr 24 min 8 sec) 
Heartbeat CPU 0 instructions: 820000000 cycles: 492764624 heartbeat IPC: 1.55263 cumulative IPC: 1.53343 (Simulation time: 0 hr 24 min 26 sec) 
Heartbeat CPU 0 instructions: 830000002 cycles: 499948226 heartbeat IPC: 1.39206 cumulative IPC: 1.53097 (Simulation time: 0 hr 24 min 46 sec) 
Heartbeat CPU 0 instructions: 840000000 cycles: 508772659 heartbeat IPC: 1.13322 cumulative IPC: 1.52262 (Simulation time: 0 hr 25 min 6 sec) 
Heartbeat CPU 0 instructions: 850000003 cycles: 516040411 heartbeat IPC: 1.37594 cumulative IPC: 1.52012 (Simulation time: 0 hr 25 min 26 sec) 
Heartbeat CPU 0 instructions: 860000000 cycles: 522872067 heartbeat IPC: 1.46377 cumulative IPC: 1.51924 (Simulation time: 0 hr 25 min 44 sec) 
Heartbeat CPU 0 instructions: 870000000 cycles: 529537278 heartbeat IPC: 1.50033 cumulative IPC: 1.51895 (Simulation time: 0 hr 26 min 3 sec) 
Heartbeat CPU 0 instructions: 880000000 cycles: 536182916 heartbeat IPC: 1.50475 cumulative IPC: 1.51874 (Simulation time: 0 hr 26 min 22 sec) 
Heartbeat CPU 0 instructions: 890000000 cycles: 543472896 heartbeat IPC: 1.37175 cumulative IPC: 1.51638 (Simulation time: 0 hr 26 min 41 sec) 
Heartbeat CPU 0 instructions: 900000000 cycles: 550184017 heartbeat IPC: 1.49006 cumulative IPC: 1.516 (Simulation time: 0 hr 27 min 0 sec) 
Heartbeat CPU 0 instructions: 910000003 cycles: 556951983 heartbeat IPC: 1.47755 cumulative IPC: 1.51545 (Simulation time: 0 hr 27 min 19 sec) 
Heartbeat CPU 0 instructions: 920000000 cycles: 563675245 heartbeat IPC: 1.48737 cumulative IPC: 1.51505 (Simulation time: 0 hr 27 min 38 sec) 
Heartbeat CPU 0 instructions: 930000002 cycles: 570461509 heartbeat IPC: 1.47357 cumulative IPC: 1.51447 (Simulation time: 0 hr 27 min 57 sec) 
Heartbeat CPU 0 instructions: 940000000 cycles: 577244686 heartbeat IPC: 1.47424 cumulative IPC: 1.51391 (Simulation time: 0 hr 28 min 16 sec) 
Heartbeat CPU 0 instructions: 950000003 cycles: 584046710 heartbeat IPC: 1.47015 cumulative IPC: 1.51331 (Simulation time: 0 hr 28 min 35 sec) 
Heartbeat CPU 0 instructions: 960000000 cycles: 590906582 heartbeat IPC: 1.45775 cumulative IPC: 1.51255 (Simulation time: 0 hr 28 min 54 sec) 
Heartbeat CPU 0 instructions: 970000000 cycles: 597728409 heartbeat IPC: 1.46588 cumulative IPC: 1.51192 (Simulation time: 0 hr 29 min 14 sec) 
Heartbeat CPU 0 instructions: 980000000 cycles: 604477314 heartbeat IPC: 1.48172 cumulative IPC: 1.51153 (Simulation time: 0 hr 29 min 33 sec) 
Heartbeat CPU 0 instructions: 990000001 cycles: 611265780 heartbeat IPC: 1.47309 cumulative IPC: 1.51103 (Simulation time: 0 hr 29 min 52 sec) 
Heartbeat CPU 0 instructions: 1000000000 cycles: 618070570 heartbeat IPC: 1.46955 cumulative IPC: 1.5105 (Simulation time: 0 hr 30 min 11 sec) 
Heartbeat CPU 0 instructions: 1010000003 cycles: 625518572 heartbeat IPC: 1.34264 cumulative IPC: 1.50817 (Simulation time: 0 hr 30 min 30 sec) 
Heartbeat CPU 0 instructions: 1020000000 cycles: 632487489 heartbeat IPC: 1.43494 cumulative IPC: 1.50723 (Simulation time: 0 hr 30 min 49 sec) 
Heartbeat CPU 0 instructions: 1030000001 cycles: 639496592 heartbeat IPC: 1.42672 cumulative IPC: 1.50621 (Simulation time: 0 hr 31 min 9 sec) 
Heartbeat CPU 0 instructions: 1040000000 cycles: 646527174 heartbeat IPC: 1.42236 cumulative IPC: 1.50515 (Simulation time: 0 hr 31 min 28 sec) 
Heartbeat CPU 0 instructions: 1050000000 cycles: 653625139 heartbeat IPC: 1.40885 cumulative IPC: 1.50394 (Simulation time: 0 hr 31 min 47 sec) 
Heartbeat CPU 0 instructions: 1060000000 cycles: 660137220 heartbeat IPC: 1.53561 cumulative IPC: 1.5043 (Simulation time: 0 hr 32 min 6 sec) 
Heartbeat CPU 0 instructions: 1070000001 cycles: 666716709 heartbeat IPC: 1.51988 cumulative IPC: 1.50448 (Simulation time: 0 hr 32 min 24 sec) 
Heartbeat CPU 0 instructions: 1080000000 cycles: 673288668 heartbeat IPC: 1.52162 cumulative IPC: 1.50467 (Simulation time: 0 hr 32 min 43 sec) 
Heartbeat CPU 0 instructions: 1090000002 cycles: 679997050 heartbeat IPC: 1.49067 cumulative IPC: 1.50451 (Simulation time: 0 hr 33 min 2 sec) 
Heartbeat CPU 0 instructions: 1100000000 cycles: 686596617 heartbeat IPC: 1.51525 cumulative IPC: 1.50463 (Simulation time: 0 hr 33 min 21 sec) 
Heartbeat CPU 0 instructions: 1110000003 cycles: 693271141 heartbeat IPC: 1.49823 cumulative IPC: 1.50456 (Simulation time: 0 hr 33 min 39 sec) 
Heartbeat CPU 0 instructions: 1120000000 cycles: 699926617 heartbeat IPC: 1.50252 cumulative IPC: 1.50454 (Simulation time: 0 hr 33 min 58 sec) 
Heartbeat CPU 0 instructions: 1130000000 cycles: 707048484 heartbeat IPC: 1.40413 cumulative IPC: 1.50338 (Simulation time: 0 hr 34 min 18 sec) 
Heartbeat CPU 0 instructions: 1140000000 cycles: 713712963 heartbeat IPC: 1.50049 cumulative IPC: 1.50335 (Simulation time: 0 hr 34 min 36 sec) 
Heartbeat CPU 0 instructions: 1150000000 cycles: 720396779 heartbeat IPC: 1.49615 cumulative IPC: 1.50328 (Simulation time: 0 hr 34 min 55 sec) 
Heartbeat CPU 0 instructions: 1160000000 cycles: 727010986 heartbeat IPC: 1.5119 cumulative IPC: 1.50336 (Simulation time: 0 hr 35 min 14 sec) 
Heartbeat CPU 0 instructions: 1170000000 cycles: 735128590 heartbeat IPC: 1.23189 cumulative IPC: 1.49996 (Simulation time: 0 hr 35 min 34 sec) 
Heartbeat CPU 0 instructions: 1180000000 cycles: 741688230 heartbeat IPC: 1.52447 cumulative IPC: 1.5002 (Simulation time: 0 hr 35 min 53 sec) 
Heartbeat CPU 0 instructions: 1190000001 cycles: 748292290 heartbeat IPC: 1.51422 cumulative IPC: 1.50034 (Simulation time: 0 hr 36 min 12 sec) 
Heartbeat CPU 0 instructions: 1200000000 cycles: 754998902 heartbeat IPC: 1.49107 cumulative IPC: 1.50025 (Simulation time: 0 hr 36 min 30 sec) 
Finished CPU 0 instructions: 1000000002 cycles: 666555692 cumulative IPC: 1.50025 (Simulation time: 0 hr 36 min 30 sec) 

CPU 0 Branch Prediction Accuracy: 96.7628% MPKI: 4.64389

ChampSim completed all CPUs

Region of Interest Statistics

CPU 0 cumulative IPC: 1.50025 instructions: 1000000002 cycles: 666555692
L1D TOTAL     ACCESS:  272016982  HIT:  272016952  MISS:         30
L1D LOAD      ACCESS:  119345140  HIT:  119345130  MISS:         10
L1D RFO       ACCESS:  152671842  HIT:  152671822  MISS:         20
L1D PREFETCH  ACCESS:          0  HIT:          0  MISS:          0
L1D WRITEBACK ACCESS:          0  HIT:          0  MISS:          0
L1D PREFETCH  REQUESTED:          0  ISSUED:          0  USEFUL:          0  USELESS:          0
L1I TOTAL     ACCESS:  217824988  HIT:  217802125  MISS:      22863
L1I LOAD      ACCESS:  217824988  HIT:  217802125  MISS:      22863
L1I RFO       ACCESS:          0  HIT:          0  MISS:          0
L1I PREFETCH  ACCESS:          0  HIT:          0  MISS:          0
L1I WRITEBACK ACCESS:          0  HIT:          0  MISS:          0
L1I PREFETCH  REQUESTED:          0  ISSUED:          0  USEFUL:          0  USELESS:          0
L2C TOTAL     ACCESS:      42658  HIT:      42484  MISS:        174
L2C LOAD      ACCESS:      22873  HIT:      22848  MISS:         25
L2C RFO       ACCESS:         20  HIT:          0  MISS:         20
L2C PREFETCH  ACCESS:      19765  HIT:      19636  MISS:        129
L2C WRITEBACK ACCESS:          0  HIT:          0  MISS:          0
L2C PREFETCH  REQUESTED:      22750  ISSUED:      22750  USEFUL:        991  USELESS:          0
LLC TOTAL     ACCESS:        174  HIT:          0  MISS:        174
LLC LOAD      ACCESS:         21  HIT:          0  MISS:         21
LLC RFO       ACCESS:         20  HIT:          0  MISS:         20
LLC PREFETCH  ACCESS:        133  HIT:          0  MISS:        133
LLC WRITEBACK ACCESS:          0  HIT:          0  MISS:          0
LLC PREFETCH  REQUESTED:          0  ISSUED:          0  USEFUL:          0  USELESS:          0
Major fault: 0 Minor fault: 48

Avg Lookahead Depth:	7.43121
TOTAL: 22750	L2C: 22750	LLC: 0	GOOD_L2C: 16847
Printing all the perceptron weights to: perc_weights_0.csv

DRAM Statistics
 CHANNEL 0
 RQ ROW_BUFFER_HIT:        130  ROW_BUFFER_MISS:         44
 DBUS_CONGESTED:         57
 WQ ROW_BUFFER_HIT:          0  ROW_BUFFER_MISS:          0  FULL:          0

 AVG_CONGESTED_CYCLE: 12
