Initialize SIGNATURE TABLE
ST_SET: 1
ST_WAY: 256
ST_TAG_BIT: 16
ST_TAG_MASK: ffff

Initialize PATTERN TABLE
PT_SET: 512
PT_WAY: 4
SIG_DELTA_BIT: 7
C_SIG_BIT: 4
C_DELTA_BIT: 4

Initialize PREFETCH FILTER
FILTER_SET: 1024

Initialize PERCEPTRON
PERC_ENTRIES: 4096
PERC_FEATURES: 9

*** ChampSim Multicore Out-of-Order Simulator ***

Warmup Instructions: 200000000
Simulation Instructions: 1000000000
Number of CPUs: 1
LLC sets: 2048
LLC ways: 16
Off-chip DRAM Size: 4096 MB Channels: 1 Width: 64-bit Data Rate: 1600 MT/s

CPU 0 runs /scratch/user/djimenez/champsim-traces/speccpu2017/xz/648.exchange2_s/648.exchange2_s-387B.champsimtrace.xz
Heartbeat CPU 0 instructions: 10000000 cycles: 4363979 heartbeat IPC: 2.29149 cumulative IPC: 2.29149 (Simulation time: 0 hr 0 min 20 sec) 
Heartbeat CPU 0 instructions: 20000000 cycles: 8782680 heartbeat IPC: 2.26311 cumulative IPC: 2.27721 (Simulation time: 0 hr 0 min 39 sec) 
Heartbeat CPU 0 instructions: 30000000 cycles: 13182694 heartbeat IPC: 2.27272 cumulative IPC: 2.27571 (Simulation time: 0 hr 0 min 59 sec) 
Heartbeat CPU 0 instructions: 40000000 cycles: 17589089 heartbeat IPC: 2.26943 cumulative IPC: 2.27414 (Simulation time: 0 hr 1 min 18 sec) 
Heartbeat CPU 0 instructions: 50000001 cycles: 21994170 heartbeat IPC: 2.27011 cumulative IPC: 2.27333 (Simulation time: 0 hr 1 min 37 sec) 
Heartbeat CPU 0 instructions: 60000000 cycles: 26449340 heartbeat IPC: 2.24458 cumulative IPC: 2.26849 (Simulation time: 0 hr 1 min 57 sec) 
Heartbeat CPU 0 instructions: 70000003 cycles: 30847364 heartbeat IPC: 2.27375 cumulative IPC: 2.26924 (Simulation time: 0 hr 2 min 16 sec) 
Heartbeat CPU 0 instructions: 80000000 cycles: 35283775 heartbeat IPC: 2.25407 cumulative IPC: 2.26733 (Simulation time: 0 hr 2 min 35 sec) 
Heartbeat CPU 0 instructions: 90000002 cycles: 39670431 heartbeat IPC: 2.27964 cumulative IPC: 2.26869 (Simulation time: 0 hr 2 min 54 sec) 
Heartbeat CPU 0 instructions: 100000000 cycles: 44083003 heartbeat IPC: 2.26625 cumulative IPC: 2.26845 (Simulation time: 0 hr 3 min 13 sec) 
Heartbeat CPU 0 instructions: 110000001 cycles: 48504533 heartbeat IPC: 2.26166 cumulative IPC: 2.26783 (Simulation time: 0 hr 3 min 33 sec) 
Heartbeat CPU 0 instructions: 120000000 cycles: 52890507 heartbeat IPC: 2.27999 cumulative IPC: 2.26884 (Simulation time: 0 hr 3 min 52 sec) 
Heartbeat CPU 0 instructions: 130000002 cycles: 57287320 heartbeat IPC: 2.27438 cumulative IPC: 2.26926 (Simulation time: 0 hr 4 min 11 sec) 
Heartbeat CPU 0 instructions: 140000000 cycles: 61704388 heartbeat IPC: 2.26394 cumulative IPC: 2.26888 (Simulation time: 0 hr 4 min 30 sec) 
Heartbeat CPU 0 instructions: 150000000 cycles: 66108010 heartbeat IPC: 2.27086 cumulative IPC: 2.26901 (Simulation time: 0 hr 4 min 50 sec) 
Heartbeat CPU 0 instructions: 160000000 cycles: 70466696 heartbeat IPC: 2.29427 cumulative IPC: 2.27058 (Simulation time: 0 hr 5 min 11 sec) 
Heartbeat CPU 0 instructions: 170000000 cycles: 74862627 heartbeat IPC: 2.27483 cumulative IPC: 2.27083 (Simulation time: 0 hr 5 min 29 sec) 
Heartbeat CPU 0 instructions: 180000000 cycles: 79273970 heartbeat IPC: 2.26688 cumulative IPC: 2.27061 (Simulation time: 0 hr 5 min 49 sec) 
Heartbeat CPU 0 instructions: 190000002 cycles: 83689412 heartbeat IPC: 2.26478 cumulative IPC: 2.2703 (Simulation time: 0 hr 6 min 8 sec) 
Heartbeat CPU 0 instructions: 200000000 cycles: 88080844 heartbeat IPC: 2.27716 cumulative IPC: 2.27064 (Simulation time: 0 hr 6 min 28 sec) 

Warmup complete CPU 0 instructions: 200000003 cycles: 88080846 (Simulation time: 0 hr 6 min 28 sec) 

Heartbeat CPU 0 instructions: 210000000 cycles: 95846681 heartbeat IPC: 1.28769 cumulative IPC: 1.28769 (Simulation time: 0 hr 6 min 57 sec) 
Heartbeat CPU 0 instructions: 220000000 cycles: 103414785 heartbeat IPC: 1.32133 cumulative IPC: 1.3043 (Simulation time: 0 hr 7 min 25 sec) 
Heartbeat CPU 0 instructions: 230000000 cycles: 110854443 heartbeat IPC: 1.34415 cumulative IPC: 1.31731 (Simulation time: 0 hr 7 min 53 sec) 
Heartbeat CPU 0 instructions: 240000000 cycles: 117174599 heartbeat IPC: 1.58224 cumulative IPC: 1.37487 (Simulation time: 0 hr 8 min 20 sec) 
Heartbeat CPU 0 instructions: 250000003 cycles: 126107216 heartbeat IPC: 1.11949 cumulative IPC: 1.31488 (Simulation time: 0 hr 8 min 50 sec) 
Heartbeat CPU 0 instructions: 260000000 cycles: 135940189 heartbeat IPC: 1.01699 cumulative IPC: 1.25367 (Simulation time: 0 hr 9 min 20 sec) 
Heartbeat CPU 0 instructions: 270000000 cycles: 145849070 heartbeat IPC: 1.0092 cumulative IPC: 1.21174 (Simulation time: 0 hr 9 min 51 sec) 
Heartbeat CPU 0 instructions: 280000000 cycles: 154788544 heartbeat IPC: 1.11863 cumulative IPC: 1.19926 (Simulation time: 0 hr 10 min 21 sec) 
Heartbeat CPU 0 instructions: 290000001 cycles: 163787099 heartbeat IPC: 1.11129 cumulative IPC: 1.18881 (Simulation time: 0 hr 10 min 50 sec) 
Heartbeat CPU 0 instructions: 300000000 cycles: 172570092 heartbeat IPC: 1.13856 cumulative IPC: 1.18358 (Simulation time: 0 hr 11 min 19 sec) 
Heartbeat CPU 0 instructions: 310000002 cycles: 180747540 heartbeat IPC: 1.22288 cumulative IPC: 1.18705 (Simulation time: 0 hr 11 min 48 sec) 
Heartbeat CPU 0 instructions: 320000000 cycles: 187321412 heartbeat IPC: 1.52117 cumulative IPC: 1.20918 (Simulation time: 0 hr 12 min 16 sec) 
Heartbeat CPU 0 instructions: 330000001 cycles: 194848113 heartbeat IPC: 1.3286 cumulative IPC: 1.2176 (Simulation time: 0 hr 12 min 44 sec) 
Heartbeat CPU 0 instructions: 340000000 cycles: 203182490 heartbeat IPC: 1.19985 cumulative IPC: 1.21632 (Simulation time: 0 hr 13 min 14 sec) 
Heartbeat CPU 0 instructions: 350000003 cycles: 211336763 heartbeat IPC: 1.22635 cumulative IPC: 1.21698 (Simulation time: 0 hr 13 min 43 sec) 
Heartbeat CPU 0 instructions: 360000000 cycles: 219484108 heartbeat IPC: 1.22739 cumulative IPC: 1.21763 (Simulation time: 0 hr 14 min 12 sec) 
Heartbeat CPU 0 instructions: 370000003 cycles: 228147213 heartbeat IPC: 1.15432 cumulative IPC: 1.21371 (Simulation time: 0 hr 14 min 41 sec) 
Heartbeat CPU 0 instructions: 380000000 cycles: 237114961 heartbeat IPC: 1.11511 cumulative IPC: 1.20778 (Simulation time: 0 hr 15 min 11 sec) 
Heartbeat CPU 0 instructions: 390000002 cycles: 246950636 heartbeat IPC: 1.01671 cumulative IPC: 1.19595 (Simulation time: 0 hr 15 min 42 sec) 
Heartbeat CPU 0 instructions: 400000000 cycles: 255977665 heartbeat IPC: 1.10778 cumulative IPC: 1.19121 (Simulation time: 0 hr 16 min 12 sec) 
Heartbeat CPU 0 instructions: 410000000 cycles: 264293313 heartbeat IPC: 1.20255 cumulative IPC: 1.19174 (Simulation time: 0 hr 16 min 41 sec) 
Heartbeat CPU 0 instructions: 420000000 cycles: 272776188 heartbeat IPC: 1.17885 cumulative IPC: 1.19115 (Simulation time: 0 hr 17 min 11 sec) 
Heartbeat CPU 0 instructions: 430000002 cycles: 279111393 heartbeat IPC: 1.57848 cumulative IPC: 1.204 (Simulation time: 0 hr 17 min 38 sec) 
Heartbeat CPU 0 instructions: 440000000 cycles: 285493187 heartbeat IPC: 1.56696 cumulative IPC: 1.21573 (Simulation time: 0 hr 18 min 5 sec) 
Heartbeat CPU 0 instructions: 450000000 cycles: 291881931 heartbeat IPC: 1.56525 cumulative IPC: 1.22669 (Simulation time: 0 hr 18 min 33 sec) 
Heartbeat CPU 0 instructions: 460000000 cycles: 298534282 heartbeat IPC: 1.50323 cumulative IPC: 1.23543 (Simulation time: 0 hr 19 min 0 sec) 
Heartbeat CPU 0 instructions: 470000001 cycles: 308211043 heartbeat IPC: 1.0334 cumulative IPC: 1.22655 (Simulation time: 0 hr 19 min 31 sec) 
Heartbeat CPU 0 instructions: 480000000 cycles: 315821345 heartbeat IPC: 1.31401 cumulative IPC: 1.22947 (Simulation time: 0 hr 19 min 58 sec) 
Heartbeat CPU 0 instructions: 490000001 cycles: 324875480 heartbeat IPC: 1.10447 cumulative IPC: 1.22469 (Simulation time: 0 hr 20 min 28 sec) 
Heartbeat CPU 0 instructions: 500000000 cycles: 334337686 heartbeat IPC: 1.05684 cumulative IPC: 1.21824 (Simulation time: 0 hr 20 min 58 sec) 
Heartbeat CPU 0 instructions: 510000002 cycles: 341603507 heartbeat IPC: 1.37631 cumulative IPC: 1.22277 (Simulation time: 0 hr 21 min 26 sec) 
Heartbeat CPU 0 instructions: 520000000 cycles: 350671983 heartbeat IPC: 1.10272 cumulative IPC: 1.21862 (Simulation time: 0 hr 21 min 55 sec) 
Heartbeat CPU 0 instructions: 530000000 cycles: 360074279 heartbeat IPC: 1.06357 cumulative IPC: 1.21326 (Simulation time: 0 hr 22 min 25 sec) 
Heartbeat CPU 0 instructions: 540000000 cycles: 369271958 heartbeat IPC: 1.08723 cumulative IPC: 1.20914 (Simulation time: 0 hr 22 min 55 sec) 
Heartbeat CPU 0 instructions: 550000000 cycles: 378284892 heartbeat IPC: 1.10952 cumulative IPC: 1.20605 (Simulation time: 0 hr 23 min 25 sec) 
Heartbeat CPU 0 instructions: 560000000 cycles: 386959710 heartbeat IPC: 1.15276 cumulative IPC: 1.2045 (Simulation time: 0 hr 23 min 54 sec) 
Heartbeat CPU 0 instructions: 570000000 cycles: 395196712 heartbeat IPC: 1.21403 cumulative IPC: 1.20476 (Simulation time: 0 hr 24 min 23 sec) 
Heartbeat CPU 0 instructions: 580000000 cycles: 403629893 heartbeat IPC: 1.18579 cumulative IPC: 1.20425 (Simulation time: 0 hr 24 min 51 sec) 
Heartbeat CPU 0 instructions: 590000001 cycles: 411337926 heartbeat IPC: 1.29735 cumulative IPC: 1.20647 (Simulation time: 0 hr 25 min 19 sec) 
Heartbeat CPU 0 instructions: 600000000 cycles: 418011078 heartbeat IPC: 1.49854 cumulative IPC: 1.21238 (Simulation time: 0 hr 25 min 46 sec) 
Heartbeat CPU 0 instructions: 610000000 cycles: 427345474 heartbeat IPC: 1.07131 cumulative IPC: 1.2085 (Simulation time: 0 hr 26 min 16 sec) 
Heartbeat CPU 0 instructions: 620000000 cycles: 434265305 heartbeat IPC: 1.44512 cumulative IPC: 1.21323 (Simulation time: 0 hr 26 min 44 sec) 
Heartbeat CPU 0 instructions: 630000001 cycles: 441824045 heartbeat IPC: 1.32297 cumulative IPC: 1.21557 (Simulation time: 0 hr 27 min 12 sec) 
Heartbeat CPU 0 instructions: 640000000 cycles: 449410203 heartbeat IPC: 1.31819 cumulative IPC: 1.21773 (Simulation time: 0 hr 27 min 41 sec) 
Heartbeat CPU 0 instructions: 650000001 cycles: 455823582 heartbeat IPC: 1.55924 cumulative IPC: 1.22368 (Simulation time: 0 hr 28 min 8 sec) 
Heartbeat CPU 0 instructions: 660000000 cycles: 465444161 heartbeat IPC: 1.03944 cumulative IPC: 1.21898 (Simulation time: 0 hr 28 min 37 sec) 
Heartbeat CPU 0 instructions: 670000002 cycles: 474503718 heartbeat IPC: 1.10381 cumulative IPC: 1.21628 (Simulation time: 0 hr 29 min 7 sec) 
Heartbeat CPU 0 instructions: 680000000 cycles: 484453345 heartbeat IPC: 1.00506 cumulative IPC: 1.21098 (Simulation time: 0 hr 29 min 38 sec) 
Heartbeat CPU 0 instructions: 690000003 cycles: 494502055 heartbeat IPC: 0.995153 cumulative IPC: 1.20565 (Simulation time: 0 hr 30 min 9 sec) 
Heartbeat CPU 0 instructions: 700000000 cycles: 504487210 heartbeat IPC: 1.00149 cumulative IPC: 1.20075 (Simulation time: 0 hr 30 min 41 sec) 
Heartbeat CPU 0 instructions: 710000000 cycles: 514308746 heartbeat IPC: 1.01817 cumulative IPC: 1.19654 (Simulation time: 0 hr 31 min 12 sec) 
Heartbeat CPU 0 instructions: 720000000 cycles: 521866708 heartbeat IPC: 1.32311 cumulative IPC: 1.19875 (Simulation time: 0 hr 31 min 40 sec) 
Heartbeat CPU 0 instructions: 730000002 cycles: 528206936 heartbeat IPC: 1.57723 cumulative IPC: 1.2042 (Simulation time: 0 hr 32 min 7 sec) 
Heartbeat CPU 0 instructions: 740000000 cycles: 534405185 heartbeat IPC: 1.61336 cumulative IPC: 1.20988 (Simulation time: 0 hr 32 min 35 sec) 
Heartbeat CPU 0 instructions: 750000000 cycles: 542862593 heartbeat IPC: 1.1824 cumulative IPC: 1.20937 (Simulation time: 0 hr 33 min 4 sec) 
Heartbeat CPU 0 instructions: 760000000 cycles: 552314288 heartbeat IPC: 1.05801 cumulative IPC: 1.20629 (Simulation time: 0 hr 33 min 35 sec) 
Heartbeat CPU 0 instructions: 770000000 cycles: 561673852 heartbeat IPC: 1.06843 cumulative IPC: 1.20357 (Simulation time: 0 hr 34 min 6 sec) 
Heartbeat CPU 0 instructions: 780000000 cycles: 571604258 heartbeat IPC: 1.00701 cumulative IPC: 1.19953 (Simulation time: 0 hr 34 min 37 sec) 
Heartbeat CPU 0 instructions: 790000000 cycles: 581608109 heartbeat IPC: 0.999615 cumulative IPC: 1.19548 (Simulation time: 0 hr 35 min 9 sec) 
Heartbeat CPU 0 instructions: 800000000 cycles: 591360718 heartbeat IPC: 1.02537 cumulative IPC: 1.19218 (Simulation time: 0 hr 35 min 40 sec) 
Heartbeat CPU 0 instructions: 810000000 cycles: 601362345 heartbeat IPC: 0.999837 cumulative IPC: 1.18843 (Simulation time: 0 hr 36 min 11 sec) 
Heartbeat CPU 0 instructions: 820000000 cycles: 611305435 heartbeat IPC: 1.00572 cumulative IPC: 1.18496 (Simulation time: 0 hr 36 min 42 sec) 
Heartbeat CPU 0 instructions: 830000003 cycles: 621364265 heartbeat IPC: 0.994152 cumulative IPC: 1.18136 (Simulation time: 0 hr 37 min 13 sec) 
Heartbeat CPU 0 instructions: 840000000 cycles: 631238599 heartbeat IPC: 1.01273 cumulative IPC: 1.17829 (Simulation time: 0 hr 37 min 44 sec) 
Heartbeat CPU 0 instructions: 850000003 cycles: 640929962 heartbeat IPC: 1.03185 cumulative IPC: 1.17573 (Simulation time: 0 hr 38 min 14 sec) 
Heartbeat CPU 0 instructions: 860000000 cycles: 650684779 heartbeat IPC: 1.02513 cumulative IPC: 1.17312 (Simulation time: 0 hr 38 min 45 sec) 
Heartbeat CPU 0 instructions: 870000001 cycles: 660722080 heartbeat IPC: 0.996284 cumulative IPC: 1.17002 (Simulation time: 0 hr 39 min 17 sec) 
Heartbeat CPU 0 instructions: 880000000 cycles: 670529865 heartbeat IPC: 1.0196 cumulative IPC: 1.16748 (Simulation time: 0 hr 39 min 47 sec) 
Heartbeat CPU 0 instructions: 890000003 cycles: 680443349 heartbeat IPC: 1.00873 cumulative IPC: 1.16483 (Simulation time: 0 hr 40 min 18 sec) 
Heartbeat CPU 0 instructions: 900000000 cycles: 689045886 heartbeat IPC: 1.16245 cumulative IPC: 1.16479 (Simulation time: 0 hr 40 min 47 sec) 
Heartbeat CPU 0 instructions: 910000000 cycles: 695868367 heartbeat IPC: 1.46574 cumulative IPC: 1.16817 (Simulation time: 0 hr 41 min 15 sec) 
Heartbeat CPU 0 instructions: 920000000 cycles: 705566898 heartbeat IPC: 1.03108 cumulative IPC: 1.16602 (Simulation time: 0 hr 41 min 44 sec) 
Heartbeat CPU 0 instructions: 930000002 cycles: 714895002 heartbeat IPC: 1.07203 cumulative IPC: 1.16462 (Simulation time: 0 hr 42 min 15 sec) 
Heartbeat CPU 0 instructions: 940000000 cycles: 724933298 heartbeat IPC: 0.996185 cumulative IPC: 1.16196 (Simulation time: 0 hr 42 min 45 sec) 
Heartbeat CPU 0 instructions: 950000001 cycles: 735044767 heartbeat IPC: 0.988976 cumulative IPC: 1.15926 (Simulation time: 0 hr 43 min 16 sec) 
Heartbeat CPU 0 instructions: 960000000 cycles: 744547577 heartbeat IPC: 1.05232 cumulative IPC: 1.15771 (Simulation time: 0 hr 43 min 46 sec) 
Heartbeat CPU 0 instructions: 970000003 cycles: 754630884 heartbeat IPC: 0.991738 cumulative IPC: 1.1552 (Simulation time: 0 hr 44 min 17 sec) 
Heartbeat CPU 0 instructions: 980000000 cycles: 764075129 heartbeat IPC: 1.05885 cumulative IPC: 1.15386 (Simulation time: 0 hr 44 min 46 sec) 
Heartbeat CPU 0 instructions: 990000000 cycles: 773268329 heartbeat IPC: 1.08776 cumulative IPC: 1.15297 (Simulation time: 0 hr 45 min 16 sec) 
Heartbeat CPU 0 instructions: 1000000000 cycles: 782707485 heartbeat IPC: 1.05942 cumulative IPC: 1.1517 (Simulation time: 0 hr 45 min 46 sec) 
Heartbeat CPU 0 instructions: 1010000002 cycles: 790794722 heartbeat IPC: 1.23652 cumulative IPC: 1.15267 (Simulation time: 0 hr 46 min 14 sec) 
Heartbeat CPU 0 instructions: 1020000000 cycles: 799193434 heartbeat IPC: 1.19066 cumulative IPC: 1.15312 (Simulation time: 0 hr 46 min 43 sec) 
Heartbeat CPU 0 instructions: 1030000000 cycles: 806905656 heartbeat IPC: 1.29664 cumulative IPC: 1.15466 (Simulation time: 0 hr 47 min 13 sec) 
Heartbeat CPU 0 instructions: 1040000000 cycles: 814628633 heartbeat IPC: 1.29484 cumulative IPC: 1.15615 (Simulation time: 0 hr 47 min 43 sec) 
Heartbeat CPU 0 instructions: 1050000000 cycles: 822575522 heartbeat IPC: 1.25835 cumulative IPC: 1.15726 (Simulation time: 0 hr 48 min 14 sec) 
Heartbeat CPU 0 instructions: 1060000000 cycles: 831044834 heartbeat IPC: 1.18073 cumulative IPC: 1.15753 (Simulation time: 0 hr 48 min 44 sec) 
Heartbeat CPU 0 instructions: 1070000001 cycles: 840548771 heartbeat IPC: 1.0522 cumulative IPC: 1.1562 (Simulation time: 0 hr 49 min 16 sec) 
Heartbeat CPU 0 instructions: 1080000000 cycles: 849822902 heartbeat IPC: 1.07827 cumulative IPC: 1.15525 (Simulation time: 0 hr 49 min 46 sec) 
Heartbeat CPU 0 instructions: 1090000003 cycles: 859180129 heartbeat IPC: 1.06869 cumulative IPC: 1.1542 (Simulation time: 0 hr 50 min 14 sec) 
Heartbeat CPU 0 instructions: 1100000000 cycles: 867951129 heartbeat IPC: 1.14012 cumulative IPC: 1.15404 (Simulation time: 0 hr 50 min 41 sec) 
Heartbeat CPU 0 instructions: 1110000000 cycles: 877775474 heartbeat IPC: 1.01788 cumulative IPC: 1.15234 (Simulation time: 0 hr 51 min 8 sec) 
Heartbeat CPU 0 instructions: 1120000000 cycles: 887595262 heartbeat IPC: 1.01835 cumulative IPC: 1.1507 (Simulation time: 0 hr 51 min 35 sec) 
Heartbeat CPU 0 instructions: 1130000003 cycles: 896798370 heartbeat IPC: 1.08659 cumulative IPC: 1.14997 (Simulation time: 0 hr 52 min 2 sec) 
Heartbeat CPU 0 instructions: 1140000000 cycles: 906321415 heartbeat IPC: 1.05008 cumulative IPC: 1.14881 (Simulation time: 0 hr 52 min 30 sec) 
Heartbeat CPU 0 instructions: 1150000002 cycles: 915362701 heartbeat IPC: 1.10604 cumulative IPC: 1.14834 (Simulation time: 0 hr 52 min 57 sec) 
Heartbeat CPU 0 instructions: 1160000000 cycles: 924284363 heartbeat IPC: 1.12087 cumulative IPC: 1.14805 (Simulation time: 0 hr 53 min 24 sec) 
Heartbeat CPU 0 instructions: 1170000001 cycles: 930931922 heartbeat IPC: 1.50431 cumulative IPC: 1.15086 (Simulation time: 0 hr 53 min 49 sec) 
Heartbeat CPU 0 instructions: 1180000000 cycles: 940667200 heartbeat IPC: 1.02719 cumulative IPC: 1.14944 (Simulation time: 0 hr 54 min 17 sec) 
Heartbeat CPU 0 instructions: 1190000001 cycles: 949287573 heartbeat IPC: 1.16004 cumulative IPC: 1.14955 (Simulation time: 0 hr 54 min 44 sec) 
Heartbeat CPU 0 instructions: 1200000000 cycles: 958357878 heartbeat IPC: 1.1025 cumulative IPC: 1.14906 (Simulation time: 0 hr 55 min 11 sec) 
Finished CPU 0 instructions: 1000000000 cycles: 870277042 cumulative IPC: 1.14906 (Simulation time: 0 hr 55 min 11 sec) 

CPU 0 Branch Prediction Accuracy: 96.6288% MPKI: 5.21538

ChampSim completed all CPUs

Region of Interest Statistics

CPU 0 cumulative IPC: 1.14906 instructions: 1000000000 cycles: 870277042
L1D TOTAL     ACCESS:  258418208  HIT:  258418208  MISS:          0
L1D LOAD      ACCESS:  129407335  HIT:  129407335  MISS:          0
L1D RFO       ACCESS:  129010873  HIT:  129010873  MISS:          0
L1D PREFETCH  ACCESS:          0  HIT:          0  MISS:          0
L1D WRITEBACK ACCESS:          0  HIT:          0  MISS:          0
L1D PREFETCH  REQUESTED:          0  ISSUED:          0  USEFUL:          0  USELESS:          0
L1I TOTAL     ACCESS:  239536259  HIT:  239191098  MISS:     345161
L1I LOAD      ACCESS:  239536259  HIT:  239191098  MISS:     345161
L1I RFO       ACCESS:          0  HIT:          0  MISS:          0
L1I PREFETCH  ACCESS:          0  HIT:          0  MISS:          0
L1I WRITEBACK ACCESS:          0  HIT:          0  MISS:          0
L1I PREFETCH  REQUESTED:          0  ISSUED:          0  USEFUL:          0  USELESS:          0
L2C TOTAL     ACCESS:     648569  HIT:     648469  MISS:        100
L2C LOAD      ACCESS:     345161  HIT:     345160  MISS:          1
L2C RFO       ACCESS:          0  HIT:          0  MISS:          0
L2C PREFETCH  ACCESS:     303408  HIT:     303309  MISS:         99
L2C WRITEBACK ACCESS:          0  HIT:          0  MISS:          0
L2C PREFETCH  REQUESTED:     392533  ISSUED:     392533  USEFUL:       1116  USELESS:          0
LLC TOTAL     ACCESS:        100  HIT:          0  MISS:        100
LLC LOAD      ACCESS:          1  HIT:          0  MISS:          1
LLC RFO       ACCESS:          0  HIT:          0  MISS:          0
LLC PREFETCH  ACCESS:         99  HIT:          0  MISS:         99
LLC WRITEBACK ACCESS:          0  HIT:          0  MISS:          0
LLC PREFETCH  REQUESTED:          0  ISSUED:          0  USEFUL:          0  USELESS:          0
Major fault: 0 Minor fault: 48

Avg Lookahead Depth:	6.9039
TOTAL: 392533	L2C: 392512	LLC: 21	GOOD_L2C: 271304
Printing all the perceptron weights to: perc_weights_0.csv

DRAM Statistics
 CHANNEL 0
 RQ ROW_BUFFER_HIT:         60  ROW_BUFFER_MISS:         40
 DBUS_CONGESTED:          5
 WQ ROW_BUFFER_HIT:          0  ROW_BUFFER_MISS:          0  FULL:          0

 AVG_CONGESTED_CYCLE: 14
