Initialize SIGNATURE TABLE
ST_SET: 1
ST_WAY: 256
ST_TAG_BIT: 16
ST_TAG_MASK: ffff

Initialize PATTERN TABLE
PT_SET: 512
PT_WAY: 4
SIG_DELTA_BIT: 7
C_SIG_BIT: 4
C_DELTA_BIT: 4

Initialize PREFETCH FILTER
FILTER_SET: 1024

Initialize PERCEPTRON
PERC_ENTRIES: 4096
PERC_FEATURES: 9

*** ChampSim Multicore Out-of-Order Simulator ***

Warmup Instructions: 200000000
Simulation Instructions: 1000000000
Number of CPUs: 1
LLC sets: 2048
LLC ways: 16
Off-chip DRAM Size: 4096 MB Channels: 1 Width: 64-bit Data Rate: 1600 MT/s

CPU 0 runs /scratch/user/djimenez/champsim-traces/speccpu2017/xz/648.exchange2_s/648.exchange2_s-353B.champsimtrace.xz
Heartbeat CPU 0 instructions: 10000001 cycles: 4292794 heartbeat IPC: 2.32949 cumulative IPC: 2.32949 (Simulation time: 0 hr 0 min 14 sec) 
Heartbeat CPU 0 instructions: 20000000 cycles: 8607942 heartbeat IPC: 2.31742 cumulative IPC: 2.32344 (Simulation time: 0 hr 0 min 28 sec) 
Heartbeat CPU 0 instructions: 30000001 cycles: 12894609 heartbeat IPC: 2.33281 cumulative IPC: 2.32655 (Simulation time: 0 hr 0 min 42 sec) 
Heartbeat CPU 0 instructions: 40000000 cycles: 17301790 heartbeat IPC: 2.26902 cumulative IPC: 2.3119 (Simulation time: 0 hr 0 min 58 sec) 
Heartbeat CPU 0 instructions: 50000001 cycles: 21610249 heartbeat IPC: 2.32102 cumulative IPC: 2.31372 (Simulation time: 0 hr 1 min 12 sec) 
Heartbeat CPU 0 instructions: 60000000 cycles: 25927050 heartbeat IPC: 2.31653 cumulative IPC: 2.31419 (Simulation time: 0 hr 1 min 27 sec) 
Heartbeat CPU 0 instructions: 70000002 cycles: 30191002 heartbeat IPC: 2.34524 cumulative IPC: 2.31857 (Simulation time: 0 hr 1 min 42 sec) 
Heartbeat CPU 0 instructions: 80000000 cycles: 34515395 heartbeat IPC: 2.31246 cumulative IPC: 2.31781 (Simulation time: 0 hr 1 min 56 sec) 
Heartbeat CPU 0 instructions: 90000002 cycles: 38795300 heartbeat IPC: 2.3365 cumulative IPC: 2.31987 (Simulation time: 0 hr 2 min 10 sec) 
Heartbeat CPU 0 instructions: 100000000 cycles: 43106727 heartbeat IPC: 2.31942 cumulative IPC: 2.31982 (Simulation time: 0 hr 2 min 25 sec) 
Heartbeat CPU 0 instructions: 110000001 cycles: 47349616 heartbeat IPC: 2.35688 cumulative IPC: 2.32314 (Simulation time: 0 hr 2 min 40 sec) 
Heartbeat CPU 0 instructions: 120000000 cycles: 51625354 heartbeat IPC: 2.33878 cumulative IPC: 2.32444 (Simulation time: 0 hr 2 min 55 sec) 
Heartbeat CPU 0 instructions: 130000000 cycles: 55861595 heartbeat IPC: 2.36058 cumulative IPC: 2.32718 (Simulation time: 0 hr 3 min 9 sec) 
Heartbeat CPU 0 instructions: 140000000 cycles: 60136985 heartbeat IPC: 2.33897 cumulative IPC: 2.32802 (Simulation time: 0 hr 3 min 24 sec) 
Heartbeat CPU 0 instructions: 150000001 cycles: 64358683 heartbeat IPC: 2.36872 cumulative IPC: 2.33069 (Simulation time: 0 hr 3 min 39 sec) 
Heartbeat CPU 0 instructions: 160000000 cycles: 68605683 heartbeat IPC: 2.3546 cumulative IPC: 2.33217 (Simulation time: 0 hr 3 min 54 sec) 
Heartbeat CPU 0 instructions: 170000000 cycles: 72914916 heartbeat IPC: 2.3206 cumulative IPC: 2.33148 (Simulation time: 0 hr 4 min 8 sec) 
Heartbeat CPU 0 instructions: 180000000 cycles: 77172434 heartbeat IPC: 2.34879 cumulative IPC: 2.33244 (Simulation time: 0 hr 4 min 23 sec) 
Heartbeat CPU 0 instructions: 190000001 cycles: 81503190 heartbeat IPC: 2.30907 cumulative IPC: 2.3312 (Simulation time: 0 hr 4 min 38 sec) 
Heartbeat CPU 0 instructions: 200000000 cycles: 85849389 heartbeat IPC: 2.30086 cumulative IPC: 2.32966 (Simulation time: 0 hr 4 min 51 sec) 

Warmup complete CPU 0 instructions: 200000003 cycles: 85849390 (Simulation time: 0 hr 4 min 51 sec) 

Heartbeat CPU 0 instructions: 210000003 cycles: 95725773 heartbeat IPC: 1.01252 cumulative IPC: 1.01252 (Simulation time: 0 hr 5 min 13 sec) 
Heartbeat CPU 0 instructions: 220000000 cycles: 104877657 heartbeat IPC: 1.09267 cumulative IPC: 1.05107 (Simulation time: 0 hr 5 min 34 sec) 
Heartbeat CPU 0 instructions: 230000002 cycles: 113200810 heartbeat IPC: 1.20147 cumulative IPC: 1.09684 (Simulation time: 0 hr 5 min 55 sec) 
Heartbeat CPU 0 instructions: 240000000 cycles: 119449913 heartbeat IPC: 1.60023 cumulative IPC: 1.19046 (Simulation time: 0 hr 6 min 14 sec) 
Heartbeat CPU 0 instructions: 250000000 cycles: 125704413 heartbeat IPC: 1.59885 cumulative IPC: 1.25455 (Simulation time: 0 hr 6 min 33 sec) 
Heartbeat CPU 0 instructions: 260000000 cycles: 131926029 heartbeat IPC: 1.6073 cumulative IPC: 1.30218 (Simulation time: 0 hr 6 min 53 sec) 
Heartbeat CPU 0 instructions: 270000000 cycles: 138083797 heartbeat IPC: 1.62397 cumulative IPC: 1.34011 (Simulation time: 0 hr 7 min 12 sec) 
Heartbeat CPU 0 instructions: 280000000 cycles: 144336573 heartbeat IPC: 1.59929 cumulative IPC: 1.36782 (Simulation time: 0 hr 7 min 32 sec) 
Heartbeat CPU 0 instructions: 290000000 cycles: 150518820 heartbeat IPC: 1.61753 cumulative IPC: 1.39169 (Simulation time: 0 hr 7 min 51 sec) 
Heartbeat CPU 0 instructions: 300000000 cycles: 156727872 heartbeat IPC: 1.61055 cumulative IPC: 1.41087 (Simulation time: 0 hr 8 min 11 sec) 
Heartbeat CPU 0 instructions: 310000001 cycles: 163022268 heartbeat IPC: 1.58871 cumulative IPC: 1.42537 (Simulation time: 0 hr 8 min 30 sec) 
Heartbeat CPU 0 instructions: 320000000 cycles: 169203441 heartbeat IPC: 1.61782 cumulative IPC: 1.43964 (Simulation time: 0 hr 8 min 50 sec) 
Heartbeat CPU 0 instructions: 330000000 cycles: 175423760 heartbeat IPC: 1.60763 cumulative IPC: 1.45131 (Simulation time: 0 hr 9 min 9 sec) 
Heartbeat CPU 0 instructions: 340000000 cycles: 181499721 heartbeat IPC: 1.64583 cumulative IPC: 1.46366 (Simulation time: 0 hr 9 min 28 sec) 
Heartbeat CPU 0 instructions: 350000001 cycles: 188873432 heartbeat IPC: 1.35617 cumulative IPC: 1.45597 (Simulation time: 0 hr 9 min 48 sec) 
Heartbeat CPU 0 instructions: 360000000 cycles: 195115685 heartbeat IPC: 1.60199 cumulative IPC: 1.46431 (Simulation time: 0 hr 10 min 8 sec) 
Heartbeat CPU 0 instructions: 370000000 cycles: 201340569 heartbeat IPC: 1.60646 cumulative IPC: 1.47197 (Simulation time: 0 hr 10 min 27 sec) 
Heartbeat CPU 0 instructions: 380000000 cycles: 207603337 heartbeat IPC: 1.59674 cumulative IPC: 1.47839 (Simulation time: 0 hr 10 min 46 sec) 
Heartbeat CPU 0 instructions: 390000000 cycles: 213904117 heartbeat IPC: 1.58711 cumulative IPC: 1.48374 (Simulation time: 0 hr 11 min 6 sec) 
Heartbeat CPU 0 instructions: 400000000 cycles: 220123273 heartbeat IPC: 1.60794 cumulative IPC: 1.48949 (Simulation time: 0 hr 11 min 25 sec) 
Heartbeat CPU 0 instructions: 410000002 cycles: 226247453 heartbeat IPC: 1.63287 cumulative IPC: 1.49575 (Simulation time: 0 hr 11 min 45 sec) 
Heartbeat CPU 0 instructions: 420000000 cycles: 232532480 heartbeat IPC: 1.59108 cumulative IPC: 1.49983 (Simulation time: 0 hr 12 min 4 sec) 
Heartbeat CPU 0 instructions: 430000001 cycles: 238766871 heartbeat IPC: 1.60401 cumulative IPC: 1.50408 (Simulation time: 0 hr 12 min 24 sec) 
Heartbeat CPU 0 instructions: 440000000 cycles: 244880710 heartbeat IPC: 1.63563 cumulative IPC: 1.50914 (Simulation time: 0 hr 12 min 43 sec) 
Heartbeat CPU 0 instructions: 450000002 cycles: 251169749 heartbeat IPC: 1.59007 cumulative IPC: 1.51222 (Simulation time: 0 hr 13 min 2 sec) 
Heartbeat CPU 0 instructions: 460000000 cycles: 257328472 heartbeat IPC: 1.62371 cumulative IPC: 1.51622 (Simulation time: 0 hr 13 min 22 sec) 
Heartbeat CPU 0 instructions: 470000003 cycles: 263407076 heartbeat IPC: 1.64512 cumulative IPC: 1.52063 (Simulation time: 0 hr 13 min 41 sec) 
Heartbeat CPU 0 instructions: 480000000 cycles: 269650437 heartbeat IPC: 1.6017 cumulative IPC: 1.52339 (Simulation time: 0 hr 14 min 0 sec) 
Heartbeat CPU 0 instructions: 490000000 cycles: 275766558 heartbeat IPC: 1.63502 cumulative IPC: 1.52698 (Simulation time: 0 hr 14 min 20 sec) 
Heartbeat CPU 0 instructions: 500000000 cycles: 281936227 heartbeat IPC: 1.62083 cumulative IPC: 1.52993 (Simulation time: 0 hr 14 min 39 sec) 
Heartbeat CPU 0 instructions: 510000000 cycles: 288057649 heartbeat IPC: 1.63361 cumulative IPC: 1.53307 (Simulation time: 0 hr 14 min 59 sec) 
Heartbeat CPU 0 instructions: 520000000 cycles: 294193475 heartbeat IPC: 1.62977 cumulative IPC: 1.53592 (Simulation time: 0 hr 15 min 18 sec) 
Heartbeat CPU 0 instructions: 530000001 cycles: 301379708 heartbeat IPC: 1.39155 cumulative IPC: 1.53111 (Simulation time: 0 hr 15 min 38 sec) 
Heartbeat CPU 0 instructions: 540000000 cycles: 308363513 heartbeat IPC: 1.43188 cumulative IPC: 1.52799 (Simulation time: 0 hr 15 min 58 sec) 
Heartbeat CPU 0 instructions: 550000000 cycles: 314950080 heartbeat IPC: 1.51824 cumulative IPC: 1.52771 (Simulation time: 0 hr 16 min 17 sec) 
Heartbeat CPU 0 instructions: 560000000 cycles: 321398053 heartbeat IPC: 1.55087 cumulative IPC: 1.52835 (Simulation time: 0 hr 16 min 36 sec) 
Heartbeat CPU 0 instructions: 570000003 cycles: 327747682 heartbeat IPC: 1.5749 cumulative IPC: 1.52957 (Simulation time: 0 hr 16 min 55 sec) 
Heartbeat CPU 0 instructions: 580000000 cycles: 334257131 heartbeat IPC: 1.53623 cumulative IPC: 1.52974 (Simulation time: 0 hr 17 min 15 sec) 
Heartbeat CPU 0 instructions: 590000001 cycles: 340640556 heartbeat IPC: 1.56656 cumulative IPC: 1.53067 (Simulation time: 0 hr 17 min 34 sec) 
Heartbeat CPU 0 instructions: 600000000 cycles: 347304934 heartbeat IPC: 1.50051 cumulative IPC: 1.5299 (Simulation time: 0 hr 17 min 53 sec) 
Heartbeat CPU 0 instructions: 610000000 cycles: 353725940 heartbeat IPC: 1.55739 cumulative IPC: 1.53056 (Simulation time: 0 hr 18 min 12 sec) 
Heartbeat CPU 0 instructions: 620000000 cycles: 360439157 heartbeat IPC: 1.4896 cumulative IPC: 1.52955 (Simulation time: 0 hr 18 min 32 sec) 
Heartbeat CPU 0 instructions: 630000000 cycles: 367936438 heartbeat IPC: 1.33382 cumulative IPC: 1.52435 (Simulation time: 0 hr 18 min 52 sec) 
Heartbeat CPU 0 instructions: 640000000 cycles: 374195425 heartbeat IPC: 1.5977 cumulative IPC: 1.52594 (Simulation time: 0 hr 19 min 12 sec) 
Heartbeat CPU 0 instructions: 650000001 cycles: 380361155 heartbeat IPC: 1.62187 cumulative IPC: 1.52795 (Simulation time: 0 hr 19 min 31 sec) 
Heartbeat CPU 0 instructions: 660000000 cycles: 386605699 heartbeat IPC: 1.6014 cumulative IPC: 1.52948 (Simulation time: 0 hr 19 min 51 sec) 
Heartbeat CPU 0 instructions: 670000000 cycles: 392812069 heartbeat IPC: 1.61125 cumulative IPC: 1.53113 (Simulation time: 0 hr 20 min 10 sec) 
Heartbeat CPU 0 instructions: 680000000 cycles: 398979202 heartbeat IPC: 1.6215 cumulative IPC: 1.53291 (Simulation time: 0 hr 20 min 30 sec) 
Heartbeat CPU 0 instructions: 690000000 cycles: 405251817 heartbeat IPC: 1.59423 cumulative IPC: 1.53411 (Simulation time: 0 hr 20 min 49 sec) 
Heartbeat CPU 0 instructions: 700000000 cycles: 411470726 heartbeat IPC: 1.608 cumulative IPC: 1.53553 (Simulation time: 0 hr 21 min 9 sec) 
Heartbeat CPU 0 instructions: 710000002 cycles: 417675224 heartbeat IPC: 1.61173 cumulative IPC: 1.53695 (Simulation time: 0 hr 21 min 28 sec) 
Heartbeat CPU 0 instructions: 720000000 cycles: 423969130 heartbeat IPC: 1.58884 cumulative IPC: 1.53792 (Simulation time: 0 hr 21 min 48 sec) 
Heartbeat CPU 0 instructions: 730000001 cycles: 430293466 heartbeat IPC: 1.58119 cumulative IPC: 1.53871 (Simulation time: 0 hr 22 min 7 sec) 
Heartbeat CPU 0 instructions: 740000000 cycles: 436403593 heartbeat IPC: 1.63663 cumulative IPC: 1.54042 (Simulation time: 0 hr 22 min 26 sec) 
Heartbeat CPU 0 instructions: 750000001 cycles: 443255326 heartbeat IPC: 1.45948 cumulative IPC: 1.53887 (Simulation time: 0 hr 22 min 46 sec) 
Heartbeat CPU 0 instructions: 760000000 cycles: 449540595 heartbeat IPC: 1.59102 cumulative IPC: 1.53977 (Simulation time: 0 hr 23 min 6 sec) 
Heartbeat CPU 0 instructions: 770000000 cycles: 455835563 heartbeat IPC: 1.58857 cumulative IPC: 1.5406 (Simulation time: 0 hr 23 min 25 sec) 
Heartbeat CPU 0 instructions: 780000000 cycles: 462117460 heartbeat IPC: 1.59188 cumulative IPC: 1.54145 (Simulation time: 0 hr 23 min 44 sec) 
Heartbeat CPU 0 instructions: 790000002 cycles: 468423083 heartbeat IPC: 1.58589 cumulative IPC: 1.54219 (Simulation time: 0 hr 24 min 4 sec) 
Heartbeat CPU 0 instructions: 800000000 cycles: 474773755 heartbeat IPC: 1.57464 cumulative IPC: 1.54272 (Simulation time: 0 hr 24 min 24 sec) 
Heartbeat CPU 0 instructions: 810000003 cycles: 481050439 heartbeat IPC: 1.5932 cumulative IPC: 1.54352 (Simulation time: 0 hr 24 min 43 sec) 
Heartbeat CPU 0 instructions: 820000000 cycles: 487427729 heartbeat IPC: 1.56806 cumulative IPC: 1.54391 (Simulation time: 0 hr 25 min 3 sec) 
Heartbeat CPU 0 instructions: 830000000 cycles: 493699988 heartbeat IPC: 1.59432 cumulative IPC: 1.54468 (Simulation time: 0 hr 25 min 22 sec) 
Heartbeat CPU 0 instructions: 840000000 cycles: 499817792 heartbeat IPC: 1.63457 cumulative IPC: 1.54601 (Simulation time: 0 hr 25 min 42 sec) 
Heartbeat CPU 0 instructions: 850000002 cycles: 508290273 heartbeat IPC: 1.18029 cumulative IPC: 1.53868 (Simulation time: 0 hr 26 min 2 sec) 
Heartbeat CPU 0 instructions: 860000000 cycles: 514555917 heartbeat IPC: 1.596 cumulative IPC: 1.53951 (Simulation time: 0 hr 26 min 22 sec) 
Heartbeat CPU 0 instructions: 870000001 cycles: 521053250 heartbeat IPC: 1.53909 cumulative IPC: 1.53951 (Simulation time: 0 hr 26 min 40 sec) 
Heartbeat CPU 0 instructions: 880000000 cycles: 527373135 heartbeat IPC: 1.58231 cumulative IPC: 1.54012 (Simulation time: 0 hr 27 min 0 sec) 
Heartbeat CPU 0 instructions: 890000003 cycles: 533767526 heartbeat IPC: 1.56387 cumulative IPC: 1.54046 (Simulation time: 0 hr 27 min 19 sec) 
Heartbeat CPU 0 instructions: 900000000 cycles: 540231001 heartbeat IPC: 1.54715 cumulative IPC: 1.54056 (Simulation time: 0 hr 27 min 38 sec) 
Heartbeat CPU 0 instructions: 910000002 cycles: 546648006 heartbeat IPC: 1.55836 cumulative IPC: 1.5408 (Simulation time: 0 hr 27 min 58 sec) 
Heartbeat CPU 0 instructions: 920000000 cycles: 553136865 heartbeat IPC: 1.5411 cumulative IPC: 1.54081 (Simulation time: 0 hr 28 min 17 sec) 
Heartbeat CPU 0 instructions: 930000000 cycles: 559537907 heartbeat IPC: 1.56225 cumulative IPC: 1.5411 (Simulation time: 0 hr 28 min 37 sec) 
Heartbeat CPU 0 instructions: 940000000 cycles: 566069436 heartbeat IPC: 1.53104 cumulative IPC: 1.54096 (Simulation time: 0 hr 28 min 56 sec) 
Heartbeat CPU 0 instructions: 950000001 cycles: 572400245 heartbeat IPC: 1.57958 cumulative IPC: 1.54146 (Simulation time: 0 hr 29 min 16 sec) 
Heartbeat CPU 0 instructions: 960000000 cycles: 578545169 heartbeat IPC: 1.62736 cumulative IPC: 1.54253 (Simulation time: 0 hr 29 min 35 sec) 
Heartbeat CPU 0 instructions: 970000001 cycles: 584869464 heartbeat IPC: 1.5812 cumulative IPC: 1.54302 (Simulation time: 0 hr 29 min 55 sec) 
Heartbeat CPU 0 instructions: 980000000 cycles: 591419955 heartbeat IPC: 1.5266 cumulative IPC: 1.54281 (Simulation time: 0 hr 30 min 14 sec) 
Heartbeat CPU 0 instructions: 990000001 cycles: 597838511 heartbeat IPC: 1.55798 cumulative IPC: 1.543 (Simulation time: 0 hr 30 min 33 sec) 
Heartbeat CPU 0 instructions: 1000000000 cycles: 604174511 heartbeat IPC: 1.57828 cumulative IPC: 1.54343 (Simulation time: 0 hr 30 min 53 sec) 
Heartbeat CPU 0 instructions: 1010000001 cycles: 611968425 heartbeat IPC: 1.28305 cumulative IPC: 1.53958 (Simulation time: 0 hr 31 min 13 sec) 
Heartbeat CPU 0 instructions: 1020000000 cycles: 621237163 heartbeat IPC: 1.0789 cumulative IPC: 1.5316 (Simulation time: 0 hr 31 min 33 sec) 
Heartbeat CPU 0 instructions: 1030000003 cycles: 630860591 heartbeat IPC: 1.03913 cumulative IPC: 1.5229 (Simulation time: 0 hr 31 min 54 sec) 
Heartbeat CPU 0 instructions: 1040000000 cycles: 637785932 heartbeat IPC: 1.44397 cumulative IPC: 1.52191 (Simulation time: 0 hr 32 min 14 sec) 
Heartbeat CPU 0 instructions: 1050000003 cycles: 643774924 heartbeat IPC: 1.66973 cumulative IPC: 1.5235 (Simulation time: 0 hr 32 min 34 sec) 
Heartbeat CPU 0 instructions: 1060000000 cycles: 649776698 heartbeat IPC: 1.66617 cumulative IPC: 1.52502 (Simulation time: 0 hr 32 min 53 sec) 
Heartbeat CPU 0 instructions: 1070000002 cycles: 655866285 heartbeat IPC: 1.64215 cumulative IPC: 1.52627 (Simulation time: 0 hr 33 min 12 sec) 
Heartbeat CPU 0 instructions: 1080000000 cycles: 661746638 heartbeat IPC: 1.70058 cumulative IPC: 1.52805 (Simulation time: 0 hr 33 min 31 sec) 
Heartbeat CPU 0 instructions: 1090000000 cycles: 667752867 heartbeat IPC: 1.66494 cumulative IPC: 1.52946 (Simulation time: 0 hr 33 min 51 sec) 
Heartbeat CPU 0 instructions: 1100000000 cycles: 673756267 heartbeat IPC: 1.66572 cumulative IPC: 1.53085 (Simulation time: 0 hr 34 min 10 sec) 
Heartbeat CPU 0 instructions: 1110000000 cycles: 680774854 heartbeat IPC: 1.42479 cumulative IPC: 1.5296 (Simulation time: 0 hr 34 min 30 sec) 
Heartbeat CPU 0 instructions: 1120000000 cycles: 686971183 heartbeat IPC: 1.61386 cumulative IPC: 1.53047 (Simulation time: 0 hr 34 min 49 sec) 
Heartbeat CPU 0 instructions: 1130000000 cycles: 693000267 heartbeat IPC: 1.65863 cumulative IPC: 1.53174 (Simulation time: 0 hr 35 min 9 sec) 
Heartbeat CPU 0 instructions: 1140000000 cycles: 699121333 heartbeat IPC: 1.6337 cumulative IPC: 1.53276 (Simulation time: 0 hr 35 min 28 sec) 
Heartbeat CPU 0 instructions: 1150000003 cycles: 705276598 heartbeat IPC: 1.62463 cumulative IPC: 1.53367 (Simulation time: 0 hr 35 min 47 sec) 
Heartbeat CPU 0 instructions: 1160000000 cycles: 711351946 heartbeat IPC: 1.646 cumulative IPC: 1.53477 (Simulation time: 0 hr 36 min 6 sec) 
Heartbeat CPU 0 instructions: 1170000003 cycles: 717480222 heartbeat IPC: 1.63178 cumulative IPC: 1.53571 (Simulation time: 0 hr 36 min 26 sec) 
Heartbeat CPU 0 instructions: 1180000000 cycles: 723533626 heartbeat IPC: 1.65196 cumulative IPC: 1.53681 (Simulation time: 0 hr 36 min 45 sec) 
Heartbeat CPU 0 instructions: 1190000001 cycles: 729657073 heartbeat IPC: 1.63307 cumulative IPC: 1.53773 (Simulation time: 0 hr 37 min 4 sec) 
Heartbeat CPU 0 instructions: 1200000000 cycles: 735826533 heartbeat IPC: 1.62089 cumulative IPC: 1.53852 (Simulation time: 0 hr 37 min 24 sec) 
Finished CPU 0 instructions: 1000000000 cycles: 649977153 cumulative IPC: 1.53852 (Simulation time: 0 hr 37 min 24 sec) 

CPU 0 Branch Prediction Accuracy: 97.1237% MPKI: 4.00852

ChampSim completed all CPUs

Region of Interest Statistics

CPU 0 cumulative IPC: 1.53852 instructions: 1000000000 cycles: 649977153
L1D TOTAL     ACCESS:  280194906  HIT:  280194892  MISS:         14
L1D LOAD      ACCESS:  122334992  HIT:  122334978  MISS:         14
L1D RFO       ACCESS:  157859914  HIT:  157859914  MISS:          0
L1D PREFETCH  ACCESS:          0  HIT:          0  MISS:          0
L1D WRITEBACK ACCESS:          0  HIT:          0  MISS:          0
L1D PREFETCH  REQUESTED:          0  ISSUED:          0  USEFUL:          0  USELESS:          0
L1I TOTAL     ACCESS:  219492588  HIT:  219451509  MISS:      41079
L1I LOAD      ACCESS:  219492588  HIT:  219451509  MISS:      41079
L1I RFO       ACCESS:          0  HIT:          0  MISS:          0
L1I PREFETCH  ACCESS:          0  HIT:          0  MISS:          0
L1I WRITEBACK ACCESS:          0  HIT:          0  MISS:          0
L1I PREFETCH  REQUESTED:          0  ISSUED:          0  USEFUL:          0  USELESS:          0
L2C TOTAL     ACCESS:      74509  HIT:      74283  MISS:        226
L2C LOAD      ACCESS:      41093  HIT:      41077  MISS:         16
L2C RFO       ACCESS:          0  HIT:          0  MISS:          0
L2C PREFETCH  ACCESS:      33416  HIT:      33206  MISS:        210
L2C WRITEBACK ACCESS:          0  HIT:          0  MISS:          0
L2C PREFETCH  REQUESTED:      37334  ISSUED:      37334  USEFUL:       1014  USELESS:          0
LLC TOTAL     ACCESS:        226  HIT:          0  MISS:        226
LLC LOAD      ACCESS:         15  HIT:          0  MISS:         15
LLC RFO       ACCESS:          0  HIT:          0  MISS:          0
LLC PREFETCH  ACCESS:        211  HIT:          0  MISS:        211
LLC WRITEBACK ACCESS:          0  HIT:          0  MISS:          0
LLC PREFETCH  REQUESTED:          0  ISSUED:          0  USEFUL:          0  USELESS:          0
Major fault: 0 Minor fault: 50

Avg Lookahead Depth:	6.93647
TOTAL: 37334	L2C: 37334	LLC: 0	GOOD_L2C: 26738
Printing all the perceptron weights to: perc_weights_0.csv

DRAM Statistics
 CHANNEL 0
 RQ ROW_BUFFER_HIT:        186  ROW_BUFFER_MISS:         40
 DBUS_CONGESTED:         51
 WQ ROW_BUFFER_HIT:          0  ROW_BUFFER_MISS:          0  FULL:          0

 AVG_CONGESTED_CYCLE: 12
