Initialize SIGNATURE TABLE
ST_SET: 1
ST_WAY: 256
ST_TAG_BIT: 16
ST_TAG_MASK: ffff

Initialize PATTERN TABLE
PT_SET: 512
PT_WAY: 4
SIG_DELTA_BIT: 7
C_SIG_BIT: 4
C_DELTA_BIT: 4

Initialize PREFETCH FILTER
FILTER_SET: 1024

Initialize PERCEPTRON
PERC_ENTRIES: 4096
PERC_FEATURES: 9

*** ChampSim Multicore Out-of-Order Simulator ***

Warmup Instructions: 200000000
Simulation Instructions: 1000000000
Number of CPUs: 1
LLC sets: 2048
LLC ways: 16
Off-chip DRAM Size: 4096 MB Channels: 1 Width: 64-bit Data Rate: 1600 MT/s

CPU 0 runs /scratch/user/djimenez/champsim-traces/speccpu2017/xz/654.roms_s/654.roms_s-1007B.champsimtrace.xz
Heartbeat CPU 0 instructions: 10000002 cycles: 5109151 heartbeat IPC: 1.95727 cumulative IPC: 1.95727 (Simulation time: 0 hr 0 min 22 sec) 
Heartbeat CPU 0 instructions: 20000000 cycles: 10217952 heartbeat IPC: 1.95741 cumulative IPC: 1.95734 (Simulation time: 0 hr 0 min 45 sec) 
Heartbeat CPU 0 instructions: 30000000 cycles: 15326897 heartbeat IPC: 1.95735 cumulative IPC: 1.95734 (Simulation time: 0 hr 1 min 8 sec) 
Heartbeat CPU 0 instructions: 40000000 cycles: 20435910 heartbeat IPC: 1.95733 cumulative IPC: 1.95734 (Simulation time: 0 hr 1 min 30 sec) 
Heartbeat CPU 0 instructions: 50000003 cycles: 25392468 heartbeat IPC: 2.01753 cumulative IPC: 1.96909 (Simulation time: 0 hr 1 min 54 sec) 
Heartbeat CPU 0 instructions: 60000000 cycles: 30210188 heartbeat IPC: 2.07567 cumulative IPC: 1.98608 (Simulation time: 0 hr 2 min 16 sec) 
Heartbeat CPU 0 instructions: 70000003 cycles: 35318546 heartbeat IPC: 1.95758 cumulative IPC: 1.98196 (Simulation time: 0 hr 2 min 39 sec) 
Heartbeat CPU 0 instructions: 80000000 cycles: 40427483 heartbeat IPC: 1.95735 cumulative IPC: 1.97885 (Simulation time: 0 hr 3 min 2 sec) 
Heartbeat CPU 0 instructions: 90000003 cycles: 45536437 heartbeat IPC: 1.95735 cumulative IPC: 1.97644 (Simulation time: 0 hr 3 min 24 sec) 
Heartbeat CPU 0 instructions: 100000000 cycles: 50645277 heartbeat IPC: 1.95739 cumulative IPC: 1.97452 (Simulation time: 0 hr 3 min 47 sec) 
Heartbeat CPU 0 instructions: 110000002 cycles: 55754239 heartbeat IPC: 1.95735 cumulative IPC: 1.97294 (Simulation time: 0 hr 4 min 10 sec) 
Heartbeat CPU 0 instructions: 120000000 cycles: 60797675 heartbeat IPC: 1.98277 cumulative IPC: 1.97376 (Simulation time: 0 hr 4 min 33 sec) 
Heartbeat CPU 0 instructions: 130000003 cycles: 65514323 heartbeat IPC: 2.12015 cumulative IPC: 1.9843 (Simulation time: 0 hr 4 min 56 sec) 
Heartbeat CPU 0 instructions: 140000000 cycles: 70622950 heartbeat IPC: 1.95747 cumulative IPC: 1.98236 (Simulation time: 0 hr 5 min 19 sec) 
Heartbeat CPU 0 instructions: 150000000 cycles: 75731883 heartbeat IPC: 1.95736 cumulative IPC: 1.98067 (Simulation time: 0 hr 5 min 41 sec) 
Heartbeat CPU 0 instructions: 160000000 cycles: 80840858 heartbeat IPC: 1.95734 cumulative IPC: 1.9792 (Simulation time: 0 hr 6 min 4 sec) 
Heartbeat CPU 0 instructions: 170000000 cycles: 85949699 heartbeat IPC: 1.95739 cumulative IPC: 1.9779 (Simulation time: 0 hr 6 min 27 sec) 
Heartbeat CPU 0 instructions: 180000000 cycles: 91058614 heartbeat IPC: 1.95736 cumulative IPC: 1.97675 (Simulation time: 0 hr 6 min 50 sec) 
Heartbeat CPU 0 instructions: 190000000 cycles: 96167585 heartbeat IPC: 1.95734 cumulative IPC: 1.97572 (Simulation time: 0 hr 7 min 12 sec) 
Heartbeat CPU 0 instructions: 200000000 cycles: 101035419 heartbeat IPC: 2.0543 cumulative IPC: 1.9795 (Simulation time: 0 hr 7 min 36 sec) 

Warmup complete CPU 0 instructions: 200000001 cycles: 101035420 (Simulation time: 0 hr 7 min 36 sec) 

Heartbeat CPU 0 instructions: 210000000 cycles: 117501234 heartbeat IPC: 0.607319 cumulative IPC: 0.607319 (Simulation time: 0 hr 8 min 11 sec) 
Heartbeat CPU 0 instructions: 220000000 cycles: 134512663 heartbeat IPC: 0.58784 cumulative IPC: 0.597421 (Simulation time: 0 hr 8 min 46 sec) 
Heartbeat CPU 0 instructions: 230000003 cycles: 151537344 heartbeat IPC: 0.587383 cumulative IPC: 0.594037 (Simulation time: 0 hr 9 min 22 sec) 
Heartbeat CPU 0 instructions: 240000000 cycles: 168550515 heartbeat IPC: 0.58778 cumulative IPC: 0.59246 (Simulation time: 0 hr 9 min 58 sec) 
Heartbeat CPU 0 instructions: 250000001 cycles: 185562679 heartbeat IPC: 0.587815 cumulative IPC: 0.591525 (Simulation time: 0 hr 10 min 34 sec) 
Heartbeat CPU 0 instructions: 260000000 cycles: 202578185 heartbeat IPC: 0.587699 cumulative IPC: 0.590884 (Simulation time: 0 hr 11 min 10 sec) 
Heartbeat CPU 0 instructions: 270000002 cycles: 216398249 heartbeat IPC: 0.723586 cumulative IPC: 0.606781 (Simulation time: 0 hr 11 min 43 sec) 
Heartbeat CPU 0 instructions: 280000000 cycles: 230617387 heartbeat IPC: 0.703277 cumulative IPC: 0.61737 (Simulation time: 0 hr 12 min 16 sec) 
Heartbeat CPU 0 instructions: 290000000 cycles: 247647480 heartbeat IPC: 0.587196 cumulative IPC: 0.613865 (Simulation time: 0 hr 12 min 52 sec) 
Heartbeat CPU 0 instructions: 300000000 cycles: 264659983 heartbeat IPC: 0.587803 cumulative IPC: 0.611155 (Simulation time: 0 hr 13 min 28 sec) 
Heartbeat CPU 0 instructions: 310000000 cycles: 281682553 heartbeat IPC: 0.587455 cumulative IPC: 0.608922 (Simulation time: 0 hr 14 min 4 sec) 
Heartbeat CPU 0 instructions: 320000000 cycles: 298689948 heartbeat IPC: 0.587979 cumulative IPC: 0.60712 (Simulation time: 0 hr 14 min 39 sec) 
Heartbeat CPU 0 instructions: 330000001 cycles: 315713188 heartbeat IPC: 0.587432 cumulative IPC: 0.605559 (Simulation time: 0 hr 15 min 15 sec) 
Heartbeat CPU 0 instructions: 340000000 cycles: 331856378 heartbeat IPC: 0.619456 cumulative IPC: 0.606531 (Simulation time: 0 hr 15 min 50 sec) 
Heartbeat CPU 0 instructions: 350000003 cycles: 343418957 heartbeat IPC: 0.864859 cumulative IPC: 0.618854 (Simulation time: 0 hr 16 min 21 sec) 
Heartbeat CPU 0 instructions: 360000000 cycles: 364228298 heartbeat IPC: 0.480553 cumulative IPC: 0.607919 (Simulation time: 0 hr 16 min 58 sec) 
Heartbeat CPU 0 instructions: 370000002 cycles: 385027517 heartbeat IPC: 0.480787 cumulative IPC: 0.598608 (Simulation time: 0 hr 17 min 36 sec) 
Heartbeat CPU 0 instructions: 380000000 cycles: 405831217 heartbeat IPC: 0.480684 cumulative IPC: 0.590559 (Simulation time: 0 hr 18 min 13 sec) 
Heartbeat CPU 0 instructions: 390000002 cycles: 423758859 heartbeat IPC: 0.557798 cumulative IPC: 0.588739 (Simulation time: 0 hr 18 min 48 sec) 
Heartbeat CPU 0 instructions: 400000000 cycles: 435529980 heartbeat IPC: 0.849537 cumulative IPC: 0.597917 (Simulation time: 0 hr 19 min 21 sec) 
Heartbeat CPU 0 instructions: 410000000 cycles: 449260439 heartbeat IPC: 0.728308 cumulative IPC: 0.603058 (Simulation time: 0 hr 19 min 54 sec) 
Heartbeat CPU 0 instructions: 420000000 cycles: 462815670 heartbeat IPC: 0.737723 cumulative IPC: 0.608104 (Simulation time: 0 hr 20 min 28 sec) 
Heartbeat CPU 0 instructions: 430000000 cycles: 473784601 heartbeat IPC: 0.911666 cumulative IPC: 0.617037 (Simulation time: 0 hr 21 min 1 sec) 
Heartbeat CPU 0 instructions: 440000000 cycles: 484739035 heartbeat IPC: 0.912872 cumulative IPC: 0.625483 (Simulation time: 0 hr 21 min 34 sec) 
Heartbeat CPU 0 instructions: 450000001 cycles: 495487813 heartbeat IPC: 0.930338 cumulative IPC: 0.63379 (Simulation time: 0 hr 22 min 7 sec) 
Heartbeat CPU 0 instructions: 460000000 cycles: 506340442 heartbeat IPC: 0.921436 cumulative IPC: 0.641492 (Simulation time: 0 hr 22 min 39 sec) 
Heartbeat CPU 0 instructions: 470000000 cycles: 517261944 heartbeat IPC: 0.915625 cumulative IPC: 0.648685 (Simulation time: 0 hr 23 min 12 sec) 
Heartbeat CPU 0 instructions: 480000000 cycles: 528197010 heartbeat IPC: 0.914489 cumulative IPC: 0.65549 (Simulation time: 0 hr 23 min 45 sec) 
Heartbeat CPU 0 instructions: 490000000 cycles: 539060235 heartbeat IPC: 0.920537 cumulative IPC: 0.662063 (Simulation time: 0 hr 24 min 18 sec) 
Heartbeat CPU 0 instructions: 500000000 cycles: 549814605 heartbeat IPC: 0.929855 cumulative IPC: 0.66848 (Simulation time: 0 hr 24 min 51 sec) 
Heartbeat CPU 0 instructions: 510000000 cycles: 560692604 heartbeat IPC: 0.919287 cumulative IPC: 0.674416 (Simulation time: 0 hr 25 min 24 sec) 
Heartbeat CPU 0 instructions: 520000000 cycles: 571565070 heartbeat IPC: 0.919755 cumulative IPC: 0.680085 (Simulation time: 0 hr 25 min 57 sec) 
Heartbeat CPU 0 instructions: 530000000 cycles: 582506656 heartbeat IPC: 0.913944 cumulative IPC: 0.685399 (Simulation time: 0 hr 26 min 30 sec) 
Heartbeat CPU 0 instructions: 540000000 cycles: 593302038 heartbeat IPC: 0.926322 cumulative IPC: 0.690683 (Simulation time: 0 hr 27 min 2 sec) 
Heartbeat CPU 0 instructions: 550000002 cycles: 604199914 heartbeat IPC: 0.91761 cumulative IPC: 0.695598 (Simulation time: 0 hr 27 min 35 sec) 
Heartbeat CPU 0 instructions: 560000000 cycles: 615102312 heartbeat IPC: 0.917229 cumulative IPC: 0.700298 (Simulation time: 0 hr 28 min 8 sec) 
Heartbeat CPU 0 instructions: 570000000 cycles: 626085540 heartbeat IPC: 0.910479 cumulative IPC: 0.704695 (Simulation time: 0 hr 28 min 41 sec) 
Heartbeat CPU 0 instructions: 580000000 cycles: 637021241 heartbeat IPC: 0.914436 cumulative IPC: 0.708974 (Simulation time: 0 hr 29 min 14 sec) 
Heartbeat CPU 0 instructions: 590000003 cycles: 647762971 heartbeat IPC: 0.930949 cumulative IPC: 0.713335 (Simulation time: 0 hr 29 min 47 sec) 
Heartbeat CPU 0 instructions: 600000000 cycles: 658638375 heartbeat IPC: 0.919506 cumulative IPC: 0.717356 (Simulation time: 0 hr 30 min 20 sec) 
Heartbeat CPU 0 instructions: 610000002 cycles: 671375212 heartbeat IPC: 0.785124 cumulative IPC: 0.71887 (Simulation time: 0 hr 30 min 53 sec) 
Heartbeat CPU 0 instructions: 620000000 cycles: 684384256 heartbeat IPC: 0.768696 cumulative IPC: 0.719981 (Simulation time: 0 hr 31 min 26 sec) 
Heartbeat CPU 0 instructions: 630000000 cycles: 697399075 heartbeat IPC: 0.768355 cumulative IPC: 0.721037 (Simulation time: 0 hr 31 min 59 sec) 
Heartbeat CPU 0 instructions: 640000000 cycles: 710355326 heartbeat IPC: 0.771828 cumulative IPC: 0.722117 (Simulation time: 0 hr 32 min 32 sec) 
Heartbeat CPU 0 instructions: 650000000 cycles: 722964053 heartbeat IPC: 0.793101 cumulative IPC: 0.723556 (Simulation time: 0 hr 33 min 5 sec) 
Heartbeat CPU 0 instructions: 660000000 cycles: 735543392 heartbeat IPC: 0.794954 cumulative IPC: 0.724971 (Simulation time: 0 hr 33 min 37 sec) 
Heartbeat CPU 0 instructions: 670000000 cycles: 748971905 heartbeat IPC: 0.744684 cumulative IPC: 0.72538 (Simulation time: 0 hr 34 min 11 sec) 
Heartbeat CPU 0 instructions: 680000000 cycles: 762488578 heartbeat IPC: 0.739827 cumulative IPC: 0.725675 (Simulation time: 0 hr 34 min 44 sec) 
Heartbeat CPU 0 instructions: 690000002 cycles: 775199166 heartbeat IPC: 0.786746 cumulative IPC: 0.726826 (Simulation time: 0 hr 35 min 17 sec) 
Heartbeat CPU 0 instructions: 700000000 cycles: 788629594 heartbeat IPC: 0.744578 cumulative IPC: 0.727173 (Simulation time: 0 hr 35 min 50 sec) 
Heartbeat CPU 0 instructions: 710000001 cycles: 802094532 heartbeat IPC: 0.74267 cumulative IPC: 0.727471 (Simulation time: 0 hr 36 min 24 sec) 
Heartbeat CPU 0 instructions: 720000000 cycles: 814527164 heartbeat IPC: 0.804335 cumulative IPC: 0.72881 (Simulation time: 0 hr 36 min 57 sec) 
Heartbeat CPU 0 instructions: 730000002 cycles: 826792418 heartbeat IPC: 0.815311 cumulative IPC: 0.730272 (Simulation time: 0 hr 37 min 31 sec) 
Heartbeat CPU 0 instructions: 740000000 cycles: 839268245 heartbeat IPC: 0.80155 cumulative IPC: 0.731477 (Simulation time: 0 hr 38 min 5 sec) 
Heartbeat CPU 0 instructions: 750000003 cycles: 851341355 heartbeat IPC: 0.828287 cumulative IPC: 0.733034 (Simulation time: 0 hr 38 min 38 sec) 
Heartbeat CPU 0 instructions: 760000000 cycles: 862347575 heartbeat IPC: 0.908577 cumulative IPC: 0.735572 (Simulation time: 0 hr 39 min 11 sec) 
Heartbeat CPU 0 instructions: 770000001 cycles: 873333103 heartbeat IPC: 0.910289 cumulative IPC: 0.738057 (Simulation time: 0 hr 39 min 44 sec) 
Heartbeat CPU 0 instructions: 780000000 cycles: 884122451 heartbeat IPC: 0.92684 cumulative IPC: 0.740658 (Simulation time: 0 hr 40 min 17 sec) 
Heartbeat CPU 0 instructions: 790000001 cycles: 895011973 heartbeat IPC: 0.918314 cumulative IPC: 0.743095 (Simulation time: 0 hr 40 min 50 sec) 
Heartbeat CPU 0 instructions: 800000000 cycles: 905900016 heartbeat IPC: 0.918439 cumulative IPC: 0.745467 (Simulation time: 0 hr 41 min 22 sec) 
Heartbeat CPU 0 instructions: 810000001 cycles: 916867189 heartbeat IPC: 0.911812 cumulative IPC: 0.747703 (Simulation time: 0 hr 41 min 55 sec) 
Heartbeat CPU 0 instructions: 820000000 cycles: 927661435 heartbeat IPC: 0.926419 cumulative IPC: 0.750037 (Simulation time: 0 hr 42 min 28 sec) 
Heartbeat CPU 0 instructions: 830000001 cycles: 938573289 heartbeat IPC: 0.916435 cumulative IPC: 0.752205 (Simulation time: 0 hr 43 min 1 sec) 
Heartbeat CPU 0 instructions: 840000000 cycles: 949468480 heartbeat IPC: 0.917836 cumulative IPC: 0.754332 (Simulation time: 0 hr 43 min 34 sec) 
Heartbeat CPU 0 instructions: 850000000 cycles: 960409868 heartbeat IPC: 0.913961 cumulative IPC: 0.756364 (Simulation time: 0 hr 44 min 7 sec) 
Heartbeat CPU 0 instructions: 860000000 cycles: 971421962 heartbeat IPC: 0.908092 cumulative IPC: 0.758284 (Simulation time: 0 hr 44 min 40 sec) 
Heartbeat CPU 0 instructions: 870000002 cycles: 982194318 heartbeat IPC: 0.928302 cumulative IPC: 0.760362 (Simulation time: 0 hr 45 min 12 sec) 
Heartbeat CPU 0 instructions: 880000000 cycles: 993120341 heartbeat IPC: 0.915246 cumulative IPC: 0.762259 (Simulation time: 0 hr 45 min 45 sec) 
Heartbeat CPU 0 instructions: 890000001 cycles: 1004047797 heartbeat IPC: 0.915126 cumulative IPC: 0.764109 (Simulation time: 0 hr 46 min 18 sec) 
Heartbeat CPU 0 instructions: 900000000 cycles: 1014964745 heartbeat IPC: 0.916007 cumulative IPC: 0.765924 (Simulation time: 0 hr 46 min 51 sec) 
Heartbeat CPU 0 instructions: 910000003 cycles: 1025807987 heartbeat IPC: 0.922234 cumulative IPC: 0.767756 (Simulation time: 0 hr 47 min 24 sec) 
Heartbeat CPU 0 instructions: 920000000 cycles: 1036654089 heartbeat IPC: 0.92199 cumulative IPC: 0.769544 (Simulation time: 0 hr 47 min 57 sec) 
Heartbeat CPU 0 instructions: 930000003 cycles: 1047535386 heartbeat IPC: 0.919008 cumulative IPC: 0.771263 (Simulation time: 0 hr 48 min 30 sec) 
Heartbeat CPU 0 instructions: 940000000 cycles: 1058460209 heartbeat IPC: 0.915346 cumulative IPC: 0.772907 (Simulation time: 0 hr 49 min 2 sec) 
Heartbeat CPU 0 instructions: 950000000 cycles: 1069412402 heartbeat IPC: 0.913059 cumulative IPC: 0.774492 (Simulation time: 0 hr 49 min 36 sec) 
Heartbeat CPU 0 instructions: 960000000 cycles: 1080178273 heartbeat IPC: 0.928861 cumulative IPC: 0.776189 (Simulation time: 0 hr 50 min 8 sec) 
Heartbeat CPU 0 instructions: 970000000 cycles: 1091061616 heartbeat IPC: 0.918835 cumulative IPC: 0.777757 (Simulation time: 0 hr 50 min 41 sec) 
Heartbeat CPU 0 instructions: 980000000 cycles: 1101962803 heartbeat IPC: 0.917331 cumulative IPC: 0.779277 (Simulation time: 0 hr 51 min 14 sec) 
Heartbeat CPU 0 instructions: 990000001 cycles: 1112917753 heartbeat IPC: 0.912829 cumulative IPC: 0.780723 (Simulation time: 0 hr 51 min 47 sec) 
Heartbeat CPU 0 instructions: 1000000000 cycles: 1123791535 heartbeat IPC: 0.919643 cumulative IPC: 0.7822 (Simulation time: 0 hr 52 min 20 sec) 
Heartbeat CPU 0 instructions: 1010000000 cycles: 1134598575 heartbeat IPC: 0.925323 cumulative IPC: 0.783697 (Simulation time: 0 hr 52 min 53 sec) 
Heartbeat CPU 0 instructions: 1020000000 cycles: 1145467099 heartbeat IPC: 0.920088 cumulative IPC: 0.785116 (Simulation time: 0 hr 53 min 25 sec) 
Heartbeat CPU 0 instructions: 1030000003 cycles: 1156416495 heartbeat IPC: 0.913293 cumulative IPC: 0.786446 (Simulation time: 0 hr 53 min 58 sec) 
Heartbeat CPU 0 instructions: 1040000000 cycles: 1167409291 heartbeat IPC: 0.909686 cumulative IPC: 0.787716 (Simulation time: 0 hr 54 min 31 sec) 
Heartbeat CPU 0 instructions: 1050000003 cycles: 1178223042 heartbeat IPC: 0.924749 cumulative IPC: 0.789092 (Simulation time: 0 hr 55 min 4 sec) 
Heartbeat CPU 0 instructions: 1060000000 cycles: 1189082069 heartbeat IPC: 0.920893 cumulative IPC: 0.790407 (Simulation time: 0 hr 55 min 37 sec) 
Heartbeat CPU 0 instructions: 1070000001 cycles: 1199959447 heartbeat IPC: 0.919339 cumulative IPC: 0.791683 (Simulation time: 0 hr 56 min 10 sec) 
Heartbeat CPU 0 instructions: 1080000000 cycles: 1212465529 heartbeat IPC: 0.799611 cumulative IPC: 0.791773 (Simulation time: 0 hr 56 min 43 sec) 
Heartbeat CPU 0 instructions: 1090000003 cycles: 1224291482 heartbeat IPC: 0.845598 cumulative IPC: 0.792339 (Simulation time: 0 hr 57 min 17 sec) 
Heartbeat CPU 0 instructions: 1100000000 cycles: 1235046243 heartbeat IPC: 0.92982 cumulative IPC: 0.793643 (Simulation time: 0 hr 57 min 50 sec) 
Heartbeat CPU 0 instructions: 1110000002 cycles: 1245915918 heartbeat IPC: 0.919991 cumulative IPC: 0.794843 (Simulation time: 0 hr 58 min 23 sec) 
Heartbeat CPU 0 instructions: 1120000000 cycles: 1256827043 heartbeat IPC: 0.916496 cumulative IPC: 0.795991 (Simulation time: 0 hr 58 min 55 sec) 
Heartbeat CPU 0 instructions: 1130000001 cycles: 1267844108 heartbeat IPC: 0.907683 cumulative IPC: 0.797046 (Simulation time: 0 hr 59 min 28 sec) 
Heartbeat CPU 0 instructions: 1140000000 cycles: 1278660432 heartbeat IPC: 0.924528 cumulative IPC: 0.798217 (Simulation time: 1 hr 0 min 1 sec) 
Heartbeat CPU 0 instructions: 1150000000 cycles: 1289555833 heartbeat IPC: 0.917818 cumulative IPC: 0.799313 (Simulation time: 1 hr 0 min 34 sec) 
Heartbeat CPU 0 instructions: 1160000000 cycles: 1300492742 heartbeat IPC: 0.914335 cumulative IPC: 0.800362 (Simulation time: 1 hr 1 min 7 sec) 
Heartbeat CPU 0 instructions: 1170000000 cycles: 1313043027 heartbeat IPC: 0.796795 cumulative IPC: 0.800325 (Simulation time: 1 hr 1 min 41 sec) 
Heartbeat CPU 0 instructions: 1180000000 cycles: 1325287279 heartbeat IPC: 0.81671 cumulative IPC: 0.800489 (Simulation time: 1 hr 2 min 14 sec) 
Heartbeat CPU 0 instructions: 1190000001 cycles: 1337718131 heartbeat IPC: 0.80445 cumulative IPC: 0.800529 (Simulation time: 1 hr 2 min 48 sec) 
Heartbeat CPU 0 instructions: 1200000000 cycles: 1350319703 heartbeat IPC: 0.793552 cumulative IPC: 0.800458 (Simulation time: 1 hr 3 min 21 sec) 
Finished CPU 0 instructions: 1000000003 cycles: 1249284291 cumulative IPC: 0.800458 (Simulation time: 1 hr 3 min 21 sec) 

CPU 0 Branch Prediction Accuracy: 99.7939% MPKI: 0.114253

ChampSim completed all CPUs

Region of Interest Statistics

CPU 0 cumulative IPC: 0.800458 instructions: 1000000003 cycles: 1249284291
L1D TOTAL     ACCESS:  407860837  HIT:  374952740  MISS:   32908097
L1D LOAD      ACCESS:  321007843  HIT:  292168575  MISS:   28839268
L1D RFO       ACCESS:   86852994  HIT:   82784165  MISS:    4068829
L1D PREFETCH  ACCESS:          0  HIT:          0  MISS:          0
L1D WRITEBACK ACCESS:          0  HIT:          0  MISS:          0
L1D PREFETCH  REQUESTED:          0  ISSUED:          0  USEFUL:          0  USELESS:          0
L1I TOTAL     ACCESS:  308443923  HIT:  308443590  MISS:        333
L1I LOAD      ACCESS:  308443923  HIT:  308443590  MISS:        333
L1I RFO       ACCESS:          0  HIT:          0  MISS:          0
L1I PREFETCH  ACCESS:          0  HIT:          0  MISS:          0
L1I WRITEBACK ACCESS:          0  HIT:          0  MISS:          0
L1I PREFETCH  REQUESTED:          0  ISSUED:          0  USEFUL:          0  USELESS:          0
L2C TOTAL     ACCESS:   57029589  HIT:   44605918  MISS:   12423671
L2C LOAD      ACCESS:   28837494  HIT:   27498116  MISS:    1339378
L2C RFO       ACCESS:    4067813  HIT:    1363376  MISS:    2704437
L2C PREFETCH  ACCESS:   18758626  HIT:   10380683  MISS:    8377943
L2C WRITEBACK ACCESS:    5365656  HIT:    5363743  MISS:       1913
L2C PREFETCH  REQUESTED:   23283650  ISSUED:   23272919  USEFUL:    8802107  USELESS:     475627
LLC TOTAL     ACCESS:   19431575  HIT:   13092548  MISS:    6339027
LLC LOAD      ACCESS:    1321865  HIT:     887688  MISS:     434177
LLC RFO       ACCESS:    2704425  HIT:    1576580  MISS:    1127845
LLC PREFETCH  ACCESS:   11658704  HIT:    6883688  MISS:    4775016
LLC WRITEBACK ACCESS:    3746581  HIT:    3744592  MISS:       1989
LLC PREFETCH  REQUESTED:          0  ISSUED:          0  USEFUL:     598199  USELESS:    5068927
Major fault: 0 Minor fault: 111193

Avg Lookahead Depth:	2.83052
TOTAL: 2.32836e+07	L2C: 1.89556e+07	LLC: 4.32807e+06	GOOD_L2C: 1.05019e+07
Printing all the perceptron weights to: perc_weights_0.csv

DRAM Statistics
 CHANNEL 0
 RQ ROW_BUFFER_HIT:    4105947  ROW_BUFFER_MISS:    2217902
 DBUS_CONGESTED:    3418485
 WQ ROW_BUFFER_HIT:     405663  ROW_BUFFER_MISS:     911092  FULL:          0

 AVG_CONGESTED_CYCLE: 13
