Initialize SIGNATURE TABLE
ST_SET: 1
ST_WAY: 256
ST_TAG_BIT: 16
ST_TAG_MASK: ffff

Initialize PATTERN TABLE
PT_SET: 512
PT_WAY: 4
SIG_DELTA_BIT: 7
C_SIG_BIT: 4
C_DELTA_BIT: 4

Initialize PREFETCH FILTER
FILTER_SET: 1024

Initialize PERCEPTRON
PERC_ENTRIES: 4096
PERC_FEATURES: 9

*** ChampSim Multicore Out-of-Order Simulator ***

Warmup Instructions: 20000000
Simulation Instructions: 100000000
Number of CPUs: 8
LLC sets: 16384
LLC ways: 16
Off-chip DRAM Size: 8192 MB Channels: 2 Width: 64-bit Data Rate: 1600 MT/s

CPU 0 runs /scratch/user/djimenez/champsim-traces/speccpu2017/xz/644.nab_s/644.nab_s-12521B.champsimtrace.xz
CPU 1 runs /scratch/user/djimenez/champsim-traces/speccpu2017/xz/641.leela_s/641.leela_s-1052B.champsimtrace.xz
CPU 2 runs /scratch/user/djimenez/champsim-traces/speccpu2017/xz/654.roms_s/654.roms_s-294B.champsimtrace.xz
CPU 3 runs /scratch/user/djimenez/champsim-traces/speccpu2017/xz/600.perlbench_s/600.perlbench_s-570B.champsimtrace.xz
CPU 4 runs /scratch/user/djimenez/champsim-traces/speccpu2017/xz/657.xz_s/657.xz_s-56B.champsimtrace.xz
CPU 5 runs /scratch/user/djimenez/champsim-traces/speccpu2017/xz/605.mcf_s/605.mcf_s-1536B.champsimtrace.xz
CPU 6 runs /scratch/user/djimenez/champsim-traces/speccpu2017/xz/657.xz_s/657.xz_s-3167B.champsimtrace.xz
CPU 7 runs /scratch/user/djimenez/champsim-traces/speccpu2017/xz/603.bwaves_s/603.bwaves_s-891B.champsimtrace.xz
Heartbeat CPU 7 instructions: 10000003 cycles: 3201070 heartbeat IPC: 3.12396 cumulative IPC: 3.12396 (Simulation time: 0 hr 2 min 33 sec) 
Heartbeat CPU 4 instructions: 10000002 cycles: 3313111 heartbeat IPC: 3.01831 cumulative IPC: 3.01831 (Simulation time: 0 hr 2 min 38 sec) 
Heartbeat CPU 5 instructions: 10000002 cycles: 3658187 heartbeat IPC: 2.7336 cumulative IPC: 2.7336 (Simulation time: 0 hr 2 min 55 sec) 
Heartbeat CPU 6 instructions: 10000003 cycles: 3994222 heartbeat IPC: 2.50362 cumulative IPC: 2.50362 (Simulation time: 0 hr 3 min 11 sec) 
Heartbeat CPU 0 instructions: 10000000 cycles: 4386342 heartbeat IPC: 2.2798 cumulative IPC: 2.2798 (Simulation time: 0 hr 3 min 29 sec) 
Heartbeat CPU 2 instructions: 10000003 cycles: 4879607 heartbeat IPC: 2.04935 cumulative IPC: 2.04935 (Simulation time: 0 hr 3 min 52 sec) 
Heartbeat CPU 3 instructions: 10000000 cycles: 5689961 heartbeat IPC: 1.75748 cumulative IPC: 1.75748 (Simulation time: 0 hr 4 min 31 sec) 
Heartbeat CPU 1 instructions: 10000002 cycles: 6328728 heartbeat IPC: 1.5801 cumulative IPC: 1.5801 (Simulation time: 0 hr 5 min 2 sec) 
Heartbeat CPU 7 instructions: 20000000 cycles: 6402070 heartbeat IPC: 3.12402 cumulative IPC: 3.12399 (Simulation time: 0 hr 5 min 5 sec) 
Heartbeat CPU 4 instructions: 20000000 cycles: 6625553 heartbeat IPC: 3.01892 cumulative IPC: 3.01862 (Simulation time: 0 hr 5 min 16 sec) 
Heartbeat CPU 5 instructions: 20000000 cycles: 7312645 heartbeat IPC: 2.73638 cumulative IPC: 2.73499 (Simulation time: 0 hr 5 min 50 sec) 
Heartbeat CPU 6 instructions: 20000000 cycles: 7999570 heartbeat IPC: 2.49666 cumulative IPC: 2.50013 (Simulation time: 0 hr 6 min 23 sec) 
Heartbeat CPU 0 instructions: 20000000 cycles: 8773287 heartbeat IPC: 2.27949 cumulative IPC: 2.27965 (Simulation time: 0 hr 7 min 1 sec) 
Heartbeat CPU 7 instructions: 30000003 cycles: 9603636 heartbeat IPC: 3.12347 cumulative IPC: 1.04127 (Simulation time: 0 hr 7 min 41 sec) 
Heartbeat CPU 2 instructions: 20000000 cycles: 9758869 heartbeat IPC: 2.04949 cumulative IPC: 2.04942 (Simulation time: 0 hr 7 min 49 sec) 
Heartbeat CPU 4 instructions: 30000001 cycles: 9937991 heartbeat IPC: 3.01892 cumulative IPC: 1.00624 (Simulation time: 0 hr 7 min 57 sec) 
Heartbeat CPU 5 instructions: 30000002 cycles: 10984953 heartbeat IPC: 2.72308 cumulative IPC: 0.910336 (Simulation time: 0 hr 8 min 48 sec) 
Heartbeat CPU 3 instructions: 20000000 cycles: 11556102 heartbeat IPC: 1.7047 cumulative IPC: 1.73069 (Simulation time: 0 hr 9 min 15 sec) 
Heartbeat CPU 6 instructions: 30000000 cycles: 12080942 heartbeat IPC: 2.45016 cumulative IPC: 0.82775 (Simulation time: 0 hr 9 min 40 sec) 
Heartbeat CPU 1 instructions: 20000000 cycles: 12643136 heartbeat IPC: 1.58368 cumulative IPC: 1.58189 (Simulation time: 0 hr 10 min 7 sec) 

Warmup complete CPU 0 instructions: 28819523 cycles: 12643137 (Simulation time: 0 hr 10 min 7 sec) 
Warmup complete CPU 1 instructions: 20000001 cycles: 12643137 (Simulation time: 0 hr 10 min 7 sec) 
Warmup complete CPU 2 instructions: 25910386 cycles: 12643136 (Simulation time: 0 hr 10 min 7 sec) 
Warmup complete CPU 3 instructions: 21857114 cycles: 12643136 (Simulation time: 0 hr 10 min 7 sec) 
Warmup complete CPU 4 instructions: 38166441 cycles: 12643136 (Simulation time: 0 hr 10 min 7 sec) 
Warmup complete CPU 5 instructions: 34516992 cycles: 12643136 (Simulation time: 0 hr 10 min 7 sec) 
Warmup complete CPU 6 instructions: 31412480 cycles: 12643136 (Simulation time: 0 hr 10 min 7 sec) 
Warmup complete CPU 7 instructions: 39490910 cycles: 12643136 (Simulation time: 0 hr 10 min 7 sec) 

Heartbeat CPU 7 instructions: 40000000 cycles: 13188140 heartbeat IPC: 2.78979 cumulative IPC: 0.934103 (Simulation time: 0 hr 10 min 19 sec) 
Heartbeat CPU 0 instructions: 30000002 cycles: 13917331 heartbeat IPC: 1.944 cumulative IPC: 0.926452 (Simulation time: 0 hr 10 min 35 sec) 
Heartbeat CPU 4 instructions: 40000000 cycles: 14339913 heartbeat IPC: 2.27173 cumulative IPC: 1.08061 (Simulation time: 0 hr 10 min 44 sec) 
Heartbeat CPU 2 instructions: 30000002 cycles: 16750041 heartbeat IPC: 1.43038 cumulative IPC: 0.99579 (Simulation time: 0 hr 11 min 37 sec) 
Heartbeat CPU 7 instructions: 50000001 cycles: 22751695 heartbeat IPC: 1.04564 cumulative IPC: 1.03962 (Simulation time: 0 hr 13 min 48 sec) 
Heartbeat CPU 4 instructions: 50000000 cycles: 23591231 heartbeat IPC: 1.08093 cumulative IPC: 1.08088 (Simulation time: 0 hr 14 min 7 sec) 
Heartbeat CPU 0 instructions: 40000000 cycles: 24783549 heartbeat IPC: 0.920283 cumulative IPC: 0.920931 (Simulation time: 0 hr 14 min 35 sec) 
Heartbeat CPU 3 instructions: 30000000 cycles: 24799627 heartbeat IPC: 0.755086 cumulative IPC: 0.669839 (Simulation time: 0 hr 14 min 35 sec) 
Heartbeat CPU 6 instructions: 40000000 cycles: 25238072 heartbeat IPC: 0.760044 cumulative IPC: 0.681823 (Simulation time: 0 hr 14 min 45 sec) 
Heartbeat CPU 2 instructions: 40000000 cycles: 26492717 heartbeat IPC: 1.02641 cumulative IPC: 1.01733 (Simulation time: 0 hr 15 min 13 sec) 
Heartbeat CPU 7 instructions: 60000000 cycles: 30232667 heartbeat IPC: 1.33672 cumulative IPC: 1.16598 (Simulation time: 0 hr 16 min 39 sec) 
Heartbeat CPU 4 instructions: 60000000 cycles: 32834101 heartbeat IPC: 1.08192 cumulative IPC: 1.08135 (Simulation time: 0 hr 17 min 39 sec) 
Heartbeat CPU 0 instructions: 50000001 cycles: 35521296 heartbeat IPC: 0.931294 cumulative IPC: 0.925795 (Simulation time: 0 hr 18 min 41 sec) 
Heartbeat CPU 1 instructions: 30000002 cycles: 35690671 heartbeat IPC: 0.433886 cumulative IPC: 0.433886 (Simulation time: 0 hr 18 min 45 sec) 
Heartbeat CPU 2 instructions: 50000001 cycles: 36028184 heartbeat IPC: 1.04872 cumulative IPC: 1.03013 (Simulation time: 0 hr 18 min 52 sec) 
Heartbeat CPU 7 instructions: 70000000 cycles: 37554401 heartbeat IPC: 1.3658 cumulative IPC: 1.22471 (Simulation time: 0 hr 19 min 27 sec) 
Heartbeat CPU 6 instructions: 50000000 cycles: 38554164 heartbeat IPC: 0.750971 cumulative IPC: 0.717359 (Simulation time: 0 hr 19 min 50 sec) 
Heartbeat CPU 3 instructions: 40000000 cycles: 38560124 heartbeat IPC: 0.726718 cumulative IPC: 0.700038 (Simulation time: 0 hr 19 min 50 sec) 
Heartbeat CPU 4 instructions: 70000002 cycles: 42078210 heartbeat IPC: 1.08177 cumulative IPC: 1.08148 (Simulation time: 0 hr 21 min 13 sec) 
Heartbeat CPU 5 instructions: 40000000 cycles: 42096502 heartbeat IPC: 0.321424 cumulative IPC: 0.186159 (Simulation time: 0 hr 21 min 13 sec) 
Heartbeat CPU 7 instructions: 80000000 cycles: 44881227 heartbeat IPC: 1.36485 cumulative IPC: 1.25656 (Simulation time: 0 hr 22 min 17 sec) 
Heartbeat CPU 2 instructions: 60000000 cycles: 45557540 heartbeat IPC: 1.04939 cumulative IPC: 1.03571 (Simulation time: 0 hr 22 min 33 sec) 
Heartbeat CPU 0 instructions: 60000000 cycles: 46238136 heartbeat IPC: 0.933111 cumulative IPC: 0.928129 (Simulation time: 0 hr 22 min 49 sec) 
Heartbeat CPU 6 instructions: 60000000 cycles: 50649319 heartbeat IPC: 0.826777 cumulative IPC: 0.752181 (Simulation time: 0 hr 24 min 31 sec) 
Heartbeat CPU 4 instructions: 80000000 cycles: 51321423 heartbeat IPC: 1.08187 cumulative IPC: 1.08158 (Simulation time: 0 hr 24 min 47 sec) 
Heartbeat CPU 3 instructions: 50000002 cycles: 51553157 heartbeat IPC: 0.769643 cumulative IPC: 0.723281 (Simulation time: 0 hr 24 min 52 sec) 
Heartbeat CPU 7 instructions: 90000000 cycles: 52221466 heartbeat IPC: 1.36235 cumulative IPC: 1.27618 (Simulation time: 0 hr 25 min 8 sec) 
Heartbeat CPU 2 instructions: 70000000 cycles: 55075305 heartbeat IPC: 1.05067 cumulative IPC: 1.03906 (Simulation time: 0 hr 26 min 16 sec) 
Heartbeat CPU 0 instructions: 70000001 cycles: 56991667 heartbeat IPC: 0.929927 cumulative IPC: 0.928565 (Simulation time: 0 hr 27 min 1 sec) 
Heartbeat CPU 1 instructions: 40000000 cycles: 58686125 heartbeat IPC: 0.434868 cumulative IPC: 0.434377 (Simulation time: 0 hr 27 min 41 sec) 
Heartbeat CPU 7 instructions: 100000000 cycles: 59559790 heartbeat IPC: 1.36271 cumulative IPC: 1.28971 (Simulation time: 0 hr 28 min 1 sec) 
Heartbeat CPU 4 instructions: 90000001 cycles: 60564659 heartbeat IPC: 1.08187 cumulative IPC: 1.08163 (Simulation time: 0 hr 28 min 25 sec) 
Heartbeat CPU 6 instructions: 70000000 cycles: 61856413 heartbeat IPC: 0.892292 cumulative IPC: 0.784088 (Simulation time: 0 hr 28 min 55 sec) 
Heartbeat CPU 3 instructions: 60000000 cycles: 64423919 heartbeat IPC: 0.776955 cumulative IPC: 0.736622 (Simulation time: 0 hr 29 min 55 sec) 
Heartbeat CPU 2 instructions: 80000000 cycles: 64630795 heartbeat IPC: 1.04652 cumulative IPC: 1.04043 (Simulation time: 0 hr 30 min 0 sec) 
Heartbeat CPU 7 instructions: 110000002 cycles: 66897229 heartbeat IPC: 1.36287 cumulative IPC: 1.29961 (Simulation time: 0 hr 30 min 53 sec) 
Heartbeat CPU 0 instructions: 80000000 cycles: 67742679 heartbeat IPC: 0.930145 cumulative IPC: 0.928873 (Simulation time: 0 hr 31 min 11 sec) 
Heartbeat CPU 4 instructions: 100000000 cycles: 69810547 heartbeat IPC: 1.08156 cumulative IPC: 1.08162 (Simulation time: 0 hr 31 min 56 sec) 
Heartbeat CPU 6 instructions: 80000000 cycles: 73496732 heartbeat IPC: 0.859083 cumulative IPC: 0.798433 (Simulation time: 0 hr 33 min 18 sec) 
Heartbeat CPU 2 instructions: 90000001 cycles: 74191023 heartbeat IPC: 1.046 cumulative IPC: 1.0413 (Simulation time: 0 hr 33 min 34 sec) 
Heartbeat CPU 7 instructions: 120000000 cycles: 74374314 heartbeat IPC: 1.33742 cumulative IPC: 1.30419 (Simulation time: 0 hr 33 min 38 sec) 
Heartbeat CPU 0 instructions: 90000003 cycles: 78453730 heartbeat IPC: 0.933616 cumulative IPC: 0.929645 (Simulation time: 0 hr 35 min 13 sec) 
Heartbeat CPU 4 instructions: 110000001 cycles: 79056566 heartbeat IPC: 1.08155 cumulative IPC: 1.08161 (Simulation time: 0 hr 35 min 28 sec) 
Heartbeat CPU 1 instructions: 50000000 cycles: 81702889 heartbeat IPC: 0.434466 cumulative IPC: 0.434406 (Simulation time: 0 hr 36 min 27 sec) 
Heartbeat CPU 7 instructions: 130000001 cycles: 81743005 heartbeat IPC: 1.35709 cumulative IPC: 1.30983 (Simulation time: 0 hr 36 min 28 sec) 
Heartbeat CPU 6 instructions: 90000000 cycles: 83712411 heartbeat IPC: 0.978887 cumulative IPC: 0.824372 (Simulation time: 0 hr 37 min 11 sec) 
Heartbeat CPU 2 instructions: 100000000 cycles: 83722867 heartbeat IPC: 1.04911 cumulative IPC: 1.04235 (Simulation time: 0 hr 37 min 11 sec) 
Heartbeat CPU 3 instructions: 70000002 cycles: 84490935 heartbeat IPC: 0.49833 cumulative IPC: 0.670068 (Simulation time: 0 hr 37 min 28 sec) 
Heartbeat CPU 4 instructions: 120000000 cycles: 88298683 heartbeat IPC: 1.082 cumulative IPC: 1.08166 (Simulation time: 0 hr 38 min 52 sec) 
Finished CPU 7 instructions: 100000003 cycles: 76247688 cumulative IPC: 1.31152 (Simulation time: 0 hr 39 min 5 sec) 
Heartbeat CPU 7 instructions: 140000000 cycles: 89271107 heartbeat IPC: 1.32836 cumulative IPC: 1.31165 (Simulation time: 0 hr 39 min 13 sec) 
Heartbeat CPU 0 instructions: 100000000 cycles: 89291064 heartbeat IPC: 0.922736 cumulative IPC: 0.928668 (Simulation time: 0 hr 39 min 14 sec) 
Heartbeat CPU 5 instructions: 50000003 cycles: 92046043 heartbeat IPC: 0.200202 cumulative IPC: 0.194993 (Simulation time: 0 hr 40 min 13 sec) 
Heartbeat CPU 2 instructions: 110000002 cycles: 93318278 heartbeat IPC: 1.04217 cumulative IPC: 1.04232 (Simulation time: 0 hr 40 min 42 sec) 
Heartbeat CPU 6 instructions: 100000000 cycles: 95198973 heartbeat IPC: 0.870583 cumulative IPC: 0.830802 (Simulation time: 0 hr 41 min 24 sec) 
Heartbeat CPU 7 instructions: 150000000 cycles: 96803519 heartbeat IPC: 1.3276 cumulative IPC: 1.31308 (Simulation time: 0 hr 42 min 1 sec) 
Heartbeat CPU 4 instructions: 130000002 cycles: 97545169 heartbeat IPC: 1.08149 cumulative IPC: 1.08164 (Simulation time: 0 hr 42 min 18 sec) 
Heartbeat CPU 0 instructions: 110000001 cycles: 100034905 heartbeat IPC: 0.930766 cumulative IPC: 0.928926 (Simulation time: 0 hr 43 min 16 sec) 
Heartbeat CPU 2 instructions: 120000000 cycles: 102813383 heartbeat IPC: 1.05317 cumulative IPC: 1.04347 (Simulation time: 0 hr 44 min 17 sec) 
Heartbeat CPU 7 instructions: 160000000 cycles: 104319266 heartbeat IPC: 1.33054 cumulative IPC: 1.31451 (Simulation time: 0 hr 44 min 50 sec) 
Heartbeat CPU 1 instructions: 60000000 cycles: 104677315 heartbeat IPC: 0.435267 cumulative IPC: 0.434621 (Simulation time: 0 hr 44 min 58 sec) 
Finished CPU 4 instructions: 100000000 cycles: 92451141 cumulative IPC: 1.08165 (Simulation time: 0 hr 45 min 7 sec) 
Heartbeat CPU 3 instructions: 80000000 cycles: 105627022 heartbeat IPC: 0.473124 cumulative IPC: 0.625301 (Simulation time: 0 hr 45 min 19 sec) 
Heartbeat CPU 6 instructions: 110000001 cycles: 106430874 heartbeat IPC: 0.890321 cumulative IPC: 0.83793 (Simulation time: 0 hr 45 min 35 sec) 
Heartbeat CPU 4 instructions: 140000000 cycles: 106789153 heartbeat IPC: 1.08178 cumulative IPC: 1.08166 (Simulation time: 0 hr 45 min 43 sec) 
Finished CPU 2 instructions: 100000003 cycles: 95786909 cumulative IPC: 1.04398 (Simulation time: 0 hr 46 min 16 sec) 
Heartbeat CPU 0 instructions: 120000000 cycles: 110752376 heartbeat IPC: 0.933056 cumulative IPC: 0.929377 (Simulation time: 0 hr 47 min 6 sec) 
Heartbeat CPU 7 instructions: 170000003 cycles: 112037166 heartbeat IPC: 1.29569 cumulative IPC: 1.31305 (Simulation time: 0 hr 47 min 33 sec) 
Heartbeat CPU 2 instructions: 130000000 cycles: 112331636 heartbeat IPC: 1.05061 cumulative IPC: 1.04415 (Simulation time: 0 hr 47 min 39 sec) 
Heartbeat CPU 4 instructions: 150000001 cycles: 116031737 heartbeat IPC: 1.08195 cumulative IPC: 1.08168 (Simulation time: 0 hr 48 min 57 sec) 
Heartbeat CPU 6 instructions: 120000000 cycles: 116778067 heartbeat IPC: 0.966446 cumulative IPC: 0.850699 (Simulation time: 0 hr 49 min 13 sec) 
Heartbeat CPU 7 instructions: 180000000 cycles: 119976050 heartbeat IPC: 1.25962 cumulative IPC: 1.3091 (Simulation time: 0 hr 50 min 22 sec) 
Finished CPU 0 instructions: 100000001 cycles: 107577305 cumulative IPC: 0.929564 (Simulation time: 0 hr 50 min 27 sec) 
Heartbeat CPU 0 instructions: 130000000 cycles: 121487766 heartbeat IPC: 0.931499 cumulative IPC: 0.929586 (Simulation time: 0 hr 50 min 54 sec) 
Heartbeat CPU 2 instructions: 140000000 cycles: 121878053 heartbeat IPC: 1.04751 cumulative IPC: 1.04444 (Simulation time: 0 hr 51 min 3 sec) 
Heartbeat CPU 4 instructions: 160000000 cycles: 125277118 heartbeat IPC: 1.08162 cumulative IPC: 1.08168 (Simulation time: 0 hr 52 min 15 sec) 
Heartbeat CPU 6 instructions: 130000002 cycles: 125776692 heartbeat IPC: 1.11128 cumulative IPC: 0.871426 (Simulation time: 0 hr 52 min 25 sec) 
Finished CPU 6 instructions: 100000000 cycles: 114429702 cumulative IPC: 0.873899 (Simulation time: 0 hr 52 min 52 sec) 
Heartbeat CPU 1 instructions: 70000001 cycles: 127579733 heartbeat IPC: 0.436635 cumulative IPC: 0.435022 (Simulation time: 0 hr 53 min 2 sec) 
Heartbeat CPU 7 instructions: 190000001 cycles: 128706298 heartbeat IPC: 1.14544 cumulative IPC: 1.29679 (Simulation time: 0 hr 53 min 26 sec) 
Heartbeat CPU 2 instructions: 150000000 cycles: 131461468 heartbeat IPC: 1.04347 cumulative IPC: 1.04436 (Simulation time: 0 hr 54 min 22 sec) 
Heartbeat CPU 3 instructions: 90000002 cycles: 131696553 heartbeat IPC: 0.38359 cumulative IPC: 0.572372 (Simulation time: 0 hr 54 min 27 sec) 
Heartbeat CPU 0 instructions: 140000000 cycles: 132222865 heartbeat IPC: 0.931524 cumulative IPC: 0.92976 (Simulation time: 0 hr 54 min 38 sec) 
Heartbeat CPU 4 instructions: 170000002 cycles: 134523062 heartbeat IPC: 1.08156 cumulative IPC: 1.08167 (Simulation time: 0 hr 55 min 29 sec) 
Heartbeat CPU 6 instructions: 140000000 cycles: 136316025 heartbeat IPC: 0.948826 cumulative IPC: 0.878022 (Simulation time: 0 hr 56 min 9 sec) 
Heartbeat CPU 7 instructions: 200000000 cycles: 138168630 heartbeat IPC: 1.05682 cumulative IPC: 1.2787 (Simulation time: 0 hr 56 min 49 sec) 
Heartbeat CPU 2 instructions: 160000000 cycles: 140975494 heartbeat IPC: 1.05108 cumulative IPC: 1.04486 (Simulation time: 0 hr 57 min 51 sec) 
Heartbeat CPU 5 instructions: 60000000 cycles: 141814623 heartbeat IPC: 0.20093 cumulative IPC: 0.19728 (Simulation time: 0 hr 58 min 10 sec) 
Heartbeat CPU 0 instructions: 150000002 cycles: 142924948 heartbeat IPC: 0.934398 cumulative IPC: 0.930141 (Simulation time: 0 hr 58 min 34 sec) 
Heartbeat CPU 4 instructions: 180000000 cycles: 143767029 heartbeat IPC: 1.08179 cumulative IPC: 1.08168 (Simulation time: 0 hr 58 min 53 sec) 
Heartbeat CPU 6 instructions: 150000003 cycles: 145445543 heartbeat IPC: 1.09535 cumulative IPC: 0.892962 (Simulation time: 0 hr 59 min 30 sec) 
Heartbeat CPU 3 instructions: 100000000 cycles: 145533116 heartbeat IPC: 0.722723 cumulative IPC: 0.588027 (Simulation time: 0 hr 59 min 32 sec) 
Heartbeat CPU 7 instructions: 210000000 cycles: 147469171 heartbeat IPC: 1.07521 cumulative IPC: 1.26466 (Simulation time: 1 hr 0 min 16 sec) 
Heartbeat CPU 2 instructions: 170000003 cycles: 150589613 heartbeat IPC: 1.04014 cumulative IPC: 1.04453 (Simulation time: 1 hr 1 min 26 sec) 
Heartbeat CPU 1 instructions: 80000000 cycles: 150595030 heartbeat IPC: 0.434494 cumulative IPC: 0.434934 (Simulation time: 1 hr 1 min 26 sec) 
Heartbeat CPU 4 instructions: 190000003 cycles: 153012038 heartbeat IPC: 1.08167 cumulative IPC: 1.08168 (Simulation time: 1 hr 2 min 19 sec) 
Heartbeat CPU 0 instructions: 160000000 cycles: 153724688 heartbeat IPC: 0.925948 cumulative IPC: 0.92982 (Simulation time: 1 hr 2 min 34 sec) 
Heartbeat CPU 6 instructions: 160000000 cycles: 154247478 heartbeat IPC: 1.13611 cumulative IPC: 0.908076 (Simulation time: 1 hr 2 min 46 sec) 
Heartbeat CPU 7 instructions: 220000000 cycles: 156755537 heartbeat IPC: 1.07685 cumulative IPC: 1.25256 (Simulation time: 1 hr 3 min 42 sec) 
Heartbeat CPU 3 instructions: 110000000 cycles: 159190067 heartbeat IPC: 0.732228 cumulative IPC: 0.601465 (Simulation time: 1 hr 4 min 36 sec) 
Heartbeat CPU 2 instructions: 180000000 cycles: 160231473 heartbeat IPC: 1.03714 cumulative IPC: 1.04405 (Simulation time: 1 hr 4 min 59 sec) 
Heartbeat CPU 4 instructions: 200000000 cycles: 162255219 heartbeat IPC: 1.08188 cumulative IPC: 1.08169 (Simulation time: 1 hr 5 min 42 sec) 
Heartbeat CPU 0 instructions: 170000000 cycles: 164532283 heartbeat IPC: 0.925275 cumulative IPC: 0.929497 (Simulation time: 1 hr 6 min 29 sec) 
Heartbeat CPU 6 instructions: 170000000 cycles: 165461364 heartbeat IPC: 0.891752 cumulative IPC: 0.906878 (Simulation time: 1 hr 6 min 49 sec) 
Heartbeat CPU 7 instructions: 230000000 cycles: 166184984 heartbeat IPC: 1.06051 cumulative IPC: 1.24076 (Simulation time: 1 hr 7 min 4 sec) 
Heartbeat CPU 2 instructions: 190000001 cycles: 169881131 heartbeat IPC: 1.03631 cumulative IPC: 1.04357 (Simulation time: 1 hr 8 min 22 sec) 
Heartbeat CPU 4 instructions: 210000002 cycles: 171501329 heartbeat IPC: 1.08154 cumulative IPC: 1.08168 (Simulation time: 1 hr 8 min 57 sec) 
Heartbeat CPU 1 instructions: 90000000 cycles: 173806729 heartbeat IPC: 0.430817 cumulative IPC: 0.434341 (Simulation time: 1 hr 9 min 45 sec) 
Heartbeat CPU 3 instructions: 120000000 cycles: 173915194 heartbeat IPC: 0.679111 cumulative IPC: 0.608555 (Simulation time: 1 hr 9 min 48 sec) 
Heartbeat CPU 0 instructions: 180000000 cycles: 175258855 heartbeat IPC: 0.932264 cumulative IPC: 0.929679 (Simulation time: 1 hr 10 min 18 sec) 
Heartbeat CPU 7 instructions: 240000000 cycles: 175673652 heartbeat IPC: 1.05389 cumulative IPC: 1.22989 (Simulation time: 1 hr 10 min 27 sec) 
Finished CPU 3 instructions: 100000001 cycles: 163822690 cumulative IPC: 0.610416 (Simulation time: 1 hr 10 min 44 sec) 
Heartbeat CPU 6 instructions: 180000000 cycles: 179275432 heartbeat IPC: 0.7239 cumulative IPC: 0.891709 (Simulation time: 1 hr 11 min 43 sec) 
Heartbeat CPU 2 instructions: 200000000 cycles: 179528630 heartbeat IPC: 1.03654 cumulative IPC: 1.04317 (Simulation time: 1 hr 11 min 49 sec) 
Heartbeat CPU 4 instructions: 220000000 cycles: 180744720 heartbeat IPC: 1.08185 cumulative IPC: 1.08169 (Simulation time: 1 hr 12 min 14 sec) 
Heartbeat CPU 7 instructions: 250000003 cycles: 185159928 heartbeat IPC: 1.05415 cumulative IPC: 1.22022 (Simulation time: 1 hr 13 min 47 sec) 
Heartbeat CPU 0 instructions: 190000000 cycles: 186003982 heartbeat IPC: 0.930654 cumulative IPC: 0.92974 (Simulation time: 1 hr 14 min 5 sec) 
Heartbeat CPU 3 instructions: 130000000 cycles: 188510415 heartbeat IPC: 0.685156 cumulative IPC: 0.614912 (Simulation time: 1 hr 14 min 57 sec) 
Heartbeat CPU 2 instructions: 210000001 cycles: 189163528 heartbeat IPC: 1.03789 cumulative IPC: 1.04288 (Simulation time: 1 hr 15 min 10 sec) 
Heartbeat CPU 4 instructions: 230000000 cycles: 189988911 heartbeat IPC: 1.08176 cumulative IPC: 1.08169 (Simulation time: 1 hr 15 min 26 sec) 
Heartbeat CPU 5 instructions: 70000003 cycles: 192858858 heartbeat IPC: 0.195909 cumulative IPC: 0.196892 (Simulation time: 1 hr 16 min 24 sec) 
Heartbeat CPU 7 instructions: 260000000 cycles: 194706375 heartbeat IPC: 1.04751 cumulative IPC: 1.21117 (Simulation time: 1 hr 17 min 2 sec) 
Heartbeat CPU 6 instructions: 190000000 cycles: 195450618 heartbeat IPC: 0.618231 cumulative IPC: 0.867511 (Simulation time: 1 hr 17 min 17 sec) 
Heartbeat CPU 0 instructions: 200000000 cycles: 196731096 heartbeat IPC: 0.932217 cumulative IPC: 0.929884 (Simulation time: 1 hr 17 min 43 sec) 
Heartbeat CPU 1 instructions: 100000000 cycles: 196972350 heartbeat IPC: 0.431674 cumulative IPC: 0.434006 (Simulation time: 1 hr 17 min 48 sec) 
Heartbeat CPU 2 instructions: 220000000 cycles: 198703711 heartbeat IPC: 1.0482 cumulative IPC: 1.04315 (Simulation time: 1 hr 18 min 23 sec) 
Heartbeat CPU 4 instructions: 240000000 cycles: 199234247 heartbeat IPC: 1.08163 cumulative IPC: 1.08169 (Simulation time: 1 hr 18 min 33 sec) 
Heartbeat CPU 7 instructions: 270000003 cycles: 204377615 heartbeat IPC: 1.03399 cumulative IPC: 1.20223 (Simulation time: 1 hr 20 min 16 sec) 
Heartbeat CPU 0 instructions: 210000001 cycles: 207477346 heartbeat IPC: 0.930557 cumulative IPC: 0.929921 (Simulation time: 1 hr 21 min 18 sec) 
Heartbeat CPU 2 instructions: 230000000 cycles: 208290179 heartbeat IPC: 1.04314 cumulative IPC: 1.04315 (Simulation time: 1 hr 21 min 34 sec) 
Heartbeat CPU 4 instructions: 250000001 cycles: 208479408 heartbeat IPC: 1.08165 cumulative IPC: 1.08169 (Simulation time: 1 hr 21 min 38 sec) 
Heartbeat CPU 6 instructions: 200000000 cycles: 210976393 heartbeat IPC: 0.64409 cumulative IPC: 0.850021 (Simulation time: 1 hr 22 min 28 sec) 
Heartbeat CPU 7 instructions: 280000000 cycles: 214014821 heartbeat IPC: 1.03764 cumulative IPC: 1.19435 (Simulation time: 1 hr 23 min 29 sec) 
Heartbeat CPU 3 instructions: 140000000 cycles: 215060863 heartbeat IPC: 0.376641 cumulative IPC: 0.583659 (Simulation time: 1 hr 23 min 51 sec) 
Heartbeat CPU 4 instructions: 260000000 cycles: 217721665 heartbeat IPC: 1.08199 cumulative IPC: 1.0817 (Simulation time: 1 hr 24 min 47 sec) 
Heartbeat CPU 2 instructions: 240000000 cycles: 217917714 heartbeat IPC: 1.03869 cumulative IPC: 1.04294 (Simulation time: 1 hr 24 min 51 sec) 
Heartbeat CPU 0 instructions: 220000000 cycles: 218231033 heartbeat IPC: 0.929914 cumulative IPC: 0.929921 (Simulation time: 1 hr 24 min 57 sec) 
Heartbeat CPU 1 instructions: 110000000 cycles: 219885186 heartbeat IPC: 0.436437 cumulative IPC: 0.434275 (Simulation time: 1 hr 25 min 30 sec) 
Heartbeat CPU 7 instructions: 290000002 cycles: 223506504 heartbeat IPC: 1.05355 cumulative IPC: 1.18802 (Simulation time: 1 hr 26 min 42 sec) 
Heartbeat CPU 6 instructions: 210000000 cycles: 226377004 heartbeat IPC: 0.649325 cumulative IPC: 0.83556 (Simulation time: 1 hr 27 min 40 sec) 
Heartbeat CPU 4 instructions: 270000000 cycles: 226967706 heartbeat IPC: 1.08154 cumulative IPC: 1.08169 (Simulation time: 1 hr 27 min 52 sec) 
Heartbeat CPU 2 instructions: 250000003 cycles: 227510425 heartbeat IPC: 1.04246 cumulative IPC: 1.04292 (Simulation time: 1 hr 28 min 3 sec) 
Heartbeat CPU 0 instructions: 230000001 cycles: 228977055 heartbeat IPC: 0.930577 cumulative IPC: 0.929953 (Simulation time: 1 hr 28 min 33 sec) 
Heartbeat CPU 7 instructions: 300000000 cycles: 233199174 heartbeat IPC: 1.03171 cumulative IPC: 1.18115 (Simulation time: 1 hr 29 min 58 sec) 
Heartbeat CPU 4 instructions: 280000000 cycles: 236213461 heartbeat IPC: 1.08158 cumulative IPC: 1.08169 (Simulation time: 1 hr 30 min 59 sec) 
Heartbeat CPU 2 instructions: 260000000 cycles: 237091296 heartbeat IPC: 1.04375 cumulative IPC: 1.04296 (Simulation time: 1 hr 31 min 16 sec) 
Heartbeat CPU 0 instructions: 240000000 cycles: 239746388 heartbeat IPC: 0.928563 cumulative IPC: 0.929888 (Simulation time: 1 hr 32 min 10 sec) 
Heartbeat CPU 6 instructions: 220000000 cycles: 239886312 heartbeat IPC: 0.74023 cumulative IPC: 0.829893 (Simulation time: 1 hr 32 min 13 sec) 
Heartbeat CPU 3 instructions: 150000001 cycles: 240732377 heartbeat IPC: 0.389537 cumulative IPC: 0.56181 (Simulation time: 1 hr 32 min 30 sec) 
Heartbeat CPU 7 instructions: 310000001 cycles: 242787394 heartbeat IPC: 1.04295 cumulative IPC: 1.17539 (Simulation time: 1 hr 33 min 13 sec) 
Heartbeat CPU 1 instructions: 120000000 cycles: 242799202 heartbeat IPC: 0.436414 cumulative IPC: 0.434488 (Simulation time: 1 hr 33 min 13 sec) 
Finished CPU 1 instructions: 100000001 cycles: 230156074 cumulative IPC: 0.434488 (Simulation time: 1 hr 33 min 13 sec) 
Heartbeat CPU 5 instructions: 80000000 cycles: 243264963 heartbeat IPC: 0.198389 cumulative IPC: 0.197219 (Simulation time: 1 hr 33 min 22 sec) 
Heartbeat CPU 4 instructions: 290000002 cycles: 245457737 heartbeat IPC: 1.08175 cumulative IPC: 1.08169 (Simulation time: 1 hr 34 min 6 sec) 
Heartbeat CPU 2 instructions: 270000000 cycles: 246686576 heartbeat IPC: 1.04218 cumulative IPC: 1.04292 (Simulation time: 1 hr 34 min 31 sec) 
Heartbeat CPU 0 instructions: 250000000 cycles: 250488610 heartbeat IPC: 0.930906 cumulative IPC: 0.929933 (Simulation time: 1 hr 35 min 48 sec) 
Heartbeat CPU 6 instructions: 230000002 cycles: 251298652 heartbeat IPC: 0.876245 cumulative IPC: 0.83211 (Simulation time: 1 hr 36 min 5 sec) 
Heartbeat CPU 7 instructions: 320000000 cycles: 252389897 heartbeat IPC: 1.0414 cumulative IPC: 1.17002 (Simulation time: 1 hr 36 min 28 sec) 
Heartbeat CPU 4 instructions: 300000000 cycles: 254704838 heartbeat IPC: 1.08142 cumulative IPC: 1.08168 (Simulation time: 1 hr 37 min 17 sec) 
Heartbeat CPU 2 instructions: 280000000 cycles: 256306121 heartbeat IPC: 1.03955 cumulative IPC: 1.04279 (Simulation time: 1 hr 37 min 51 sec) 
Heartbeat CPU 3 instructions: 160000000 cycles: 261156456 heartbeat IPC: 0.489618 cumulative IPC: 0.555877 (Simulation time: 1 hr 39 min 33 sec) 
Heartbeat CPU 0 instructions: 260000000 cycles: 261204425 heartbeat IPC: 0.9332 cumulative IPC: 0.930074 (Simulation time: 1 hr 39 min 34 sec) 
Heartbeat CPU 7 instructions: 330000001 cycles: 261873544 heartbeat IPC: 1.05445 cumulative IPC: 1.16562 (Simulation time: 1 hr 39 min 49 sec) 
Heartbeat CPU 6 instructions: 240000000 cycles: 262784153 heartbeat IPC: 0.870663 cumulative IPC: 0.83388 (Simulation time: 1 hr 40 min 8 sec) 
Heartbeat CPU 4 instructions: 310000002 cycles: 263949820 heartbeat IPC: 1.08167 cumulative IPC: 1.08168 (Simulation time: 1 hr 40 min 34 sec) 
Heartbeat CPU 2 instructions: 290000002 cycles: 265897681 heartbeat IPC: 1.04258 cumulative IPC: 1.04278 (Simulation time: 1 hr 41 min 15 sec) 
Heartbeat CPU 1 instructions: 130000001 cycles: 265976818 heartbeat IPC: 0.431451 cumulative IPC: 0.43421 (Simulation time: 1 hr 41 min 16 sec) 
Heartbeat CPU 7 instructions: 340000000 cycles: 271321129 heartbeat IPC: 1.05847 cumulative IPC: 1.16171 (Simulation time: 1 hr 43 min 9 sec) 
Heartbeat CPU 0 instructions: 270000003 cycles: 271977027 heartbeat IPC: 0.928281 cumulative IPC: 0.93 (Simulation time: 1 hr 43 min 23 sec) 
Heartbeat CPU 4 instructions: 320000000 cycles: 273195799 heartbeat IPC: 1.08155 cumulative IPC: 1.08168 (Simulation time: 1 hr 43 min 48 sec) 
Heartbeat CPU 6 instructions: 250000000 cycles: 273761392 heartbeat IPC: 0.910976 cumulative IPC: 0.837121 (Simulation time: 1 hr 44 min 1 sec) 
Heartbeat CPU 2 instructions: 300000000 cycles: 275516164 heartbeat IPC: 1.03966 cumulative IPC: 1.04267 (Simulation time: 1 hr 44 min 38 sec) 
Heartbeat CPU 3 instructions: 170000003 cycles: 276537697 heartbeat IPC: 0.650143 cumulative IPC: 0.561372 (Simulation time: 1 hr 45 min 0 sec) 
Heartbeat CPU 7 instructions: 350000002 cycles: 280753911 heartbeat IPC: 1.06013 cumulative IPC: 1.15814 (Simulation time: 1 hr 46 min 30 sec) 
Heartbeat CPU 4 instructions: 330000001 cycles: 282442042 heartbeat IPC: 1.08152 cumulative IPC: 1.08167 (Simulation time: 1 hr 47 min 7 sec) 
Heartbeat CPU 0 instructions: 280000000 cycles: 282815748 heartbeat IPC: 0.922618 cumulative IPC: 0.929704 (Simulation time: 1 hr 47 min 15 sec) 
Heartbeat CPU 6 instructions: 260000000 cycles: 283333534 heartbeat IPC: 1.0447 cumulative IPC: 0.844461 (Simulation time: 1 hr 47 min 27 sec) 
Heartbeat CPU 2 instructions: 310000002 cycles: 285188001 heartbeat IPC: 1.03393 cumulative IPC: 1.04236 (Simulation time: 1 hr 48 min 8 sec) 
Heartbeat CPU 1 instructions: 140000000 cycles: 289204852 heartbeat IPC: 0.430514 cumulative IPC: 0.4339 (Simulation time: 1 hr 49 min 32 sec) 
Heartbeat CPU 7 instructions: 360000000 cycles: 290191149 heartbeat IPC: 1.05963 cumulative IPC: 1.15479 (Simulation time: 1 hr 49 min 52 sec) 
Heartbeat CPU 4 instructions: 340000000 cycles: 291694896 heartbeat IPC: 1.08075 cumulative IPC: 1.08164 (Simulation time: 1 hr 50 min 23 sec) 
Heartbeat CPU 6 instructions: 270000001 cycles: 292570275 heartbeat IPC: 1.08263 cumulative IPC: 0.85232 (Simulation time: 1 hr 50 min 41 sec) 
Heartbeat CPU 0 instructions: 290000001 cycles: 293653927 heartbeat IPC: 0.922664 cumulative IPC: 0.929432 (Simulation time: 1 hr 51 min 3 sec) 
Heartbeat CPU 2 instructions: 320000000 cycles: 295075807 heartbeat IPC: 1.01135 cumulative IPC: 1.04127 (Simulation time: 1 hr 51 min 32 sec) 
Heartbeat CPU 5 instructions: 90000003 cycles: 295990443 heartbeat IPC: 0.189662 cumulative IPC: 0.195813 (Simulation time: 1 hr 51 min 51 sec) 
Heartbeat CPU 3 instructions: 180000000 cycles: 296519215 heartbeat IPC: 0.500462 cumulative IPC: 0.557084 (Simulation time: 1 hr 52 min 1 sec) 
Heartbeat CPU 7 instructions: 370000003 cycles: 300492251 heartbeat IPC: 0.97077 cumulative IPC: 1.1482 (Simulation time: 1 hr 53 min 18 sec) 
Heartbeat CPU 4 instructions: 350000002 cycles: 300946082 heartbeat IPC: 1.08094 cumulative IPC: 1.08162 (Simulation time: 1 hr 53 min 27 sec) 
Heartbeat CPU 0 instructions: 300000000 cycles: 304504722 heartbeat IPC: 0.921591 cumulative IPC: 0.929141 (Simulation time: 1 hr 54 min 36 sec) 
Heartbeat CPU 2 instructions: 330000001 cycles: 304850679 heartbeat IPC: 1.02303 cumulative IPC: 1.04066 (Simulation time: 1 hr 54 min 43 sec) 
Heartbeat CPU 6 instructions: 280000000 cycles: 306955560 heartbeat IPC: 0.695155 cumulative IPC: 0.844638 (Simulation time: 1 hr 55 min 24 sec) 
Heartbeat CPU 4 instructions: 360000000 cycles: 310202427 heartbeat IPC: 1.08034 cumulative IPC: 1.08158 (Simulation time: 1 hr 56 min 28 sec) 
Heartbeat CPU 7 instructions: 380000000 cycles: 310911394 heartbeat IPC: 0.959772 cumulative IPC: 1.14162 (Simulation time: 1 hr 56 min 42 sec) 
Heartbeat CPU 1 instructions: 150000003 cycles: 312516485 heartbeat IPC: 0.428971 cumulative IPC: 0.433516 (Simulation time: 1 hr 57 min 15 sec) 
Heartbeat CPU 2 instructions: 340000000 cycles: 314653569 heartbeat IPC: 1.02011 cumulative IPC: 1.04 (Simulation time: 1 hr 57 min 59 sec) 
Heartbeat CPU 0 instructions: 310000000 cycles: 315264126 heartbeat IPC: 0.92942 cumulative IPC: 0.929151 (Simulation time: 1 hr 58 min 12 sec) 
Heartbeat CPU 6 instructions: 290000000 cycles: 318772643 heartbeat IPC: 0.846233 cumulative IPC: 0.8447 (Simulation time: 1 hr 59 min 23 sec) 
Heartbeat CPU 4 instructions: 370000002 cycles: 319452187 heartbeat IPC: 1.08111 cumulative IPC: 1.08156 (Simulation time: 1 hr 59 min 36 sec) 
Heartbeat CPU 7 instructions: 390000001 cycles: 321390055 heartbeat IPC: 0.95432 cumulative IPC: 1.13526 (Simulation time: 2 hr 0 min 16 sec) 
Heartbeat CPU 2 instructions: 350000002 cycles: 324429110 heartbeat IPC: 1.02296 cumulative IPC: 1.03946 (Simulation time: 2 hr 1 min 20 sec) 
Heartbeat CPU 3 instructions: 190000003 cycles: 324518164 heartbeat IPC: 0.357156 cumulative IPC: 0.539135 (Simulation time: 2 hr 1 min 22 sec) 
Heartbeat CPU 0 instructions: 320000000 cycles: 326018206 heartbeat IPC: 0.92988 cumulative IPC: 0.929176 (Simulation time: 2 hr 1 min 54 sec) 
Heartbeat CPU 4 instructions: 380000000 cycles: 328703075 heartbeat IPC: 1.08098 cumulative IPC: 1.08155 (Simulation time: 2 hr 2 min 49 sec) 
Heartbeat CPU 6 instructions: 300000000 cycles: 328791997 heartbeat IPC: 0.998068 cumulative IPC: 0.84956 (Simulation time: 2 hr 2 min 51 sec) 
Heartbeat CPU 7 instructions: 400000000 cycles: 331716878 heartbeat IPC: 0.968352 cumulative IPC: 1.12986 (Simulation time: 2 hr 3 min 52 sec) 
Heartbeat CPU 2 instructions: 360000000 cycles: 334171179 heartbeat IPC: 1.02648 cumulative IPC: 1.03907 (Simulation time: 2 hr 4 min 42 sec) 
Heartbeat CPU 1 instructions: 160000000 cycles: 335468548 heartbeat IPC: 0.435691 cumulative IPC: 0.433671 (Simulation time: 2 hr 5 min 9 sec) 
Heartbeat CPU 0 instructions: 330000001 cycles: 336752844 heartbeat IPC: 0.931564 cumulative IPC: 0.929255 (Simulation time: 2 hr 5 min 36 sec) 
Heartbeat CPU 4 instructions: 390000000 cycles: 337953838 heartbeat IPC: 1.08099 cumulative IPC: 1.08153 (Simulation time: 2 hr 6 min 1 sec) 
Heartbeat CPU 6 instructions: 310000002 cycles: 339395650 heartbeat IPC: 0.943071 cumulative IPC: 0.852595 (Simulation time: 2 hr 6 min 30 sec) 
Heartbeat CPU 7 instructions: 410000003 cycles: 341921882 heartbeat IPC: 0.979912 cumulative IPC: 1.12521 (Simulation time: 2 hr 7 min 21 sec) 
Heartbeat CPU 2 instructions: 370000001 cycles: 343956494 heartbeat IPC: 1.02194 cumulative IPC: 1.03856 (Simulation time: 2 hr 8 min 3 sec) 
Heartbeat CPU 4 instructions: 400000000 cycles: 347205146 heartbeat IPC: 1.08093 cumulative IPC: 1.08151 (Simulation time: 2 hr 9 min 9 sec) 
Heartbeat CPU 0 instructions: 340000000 cycles: 347629525 heartbeat IPC: 0.919398 cumulative IPC: 0.928935 (Simulation time: 2 hr 9 min 17 sec) 
Heartbeat CPU 3 instructions: 200000000 cycles: 351613589 heartbeat IPC: 0.369066 cumulative IPC: 0.525541 (Simulation time: 2 hr 10 min 38 sec) 
Heartbeat CPU 7 instructions: 420000000 cycles: 352127109 heartbeat IPC: 0.97989 cumulative IPC: 1.12085 (Simulation time: 2 hr 10 min 49 sec) 
Heartbeat CPU 6 instructions: 320000000 cycles: 352344039 heartbeat IPC: 0.772297 cumulative IPC: 0.849534 (Simulation time: 2 hr 10 min 53 sec) 
Heartbeat CPU 5 instructions: 100000000 cycles: 353473025 heartbeat IPC: 0.173966 cumulative IPC: 0.192128 (Simulation time: 2 hr 11 min 17 sec) 
Heartbeat CPU 2 instructions: 380000000 cycles: 353807316 heartbeat IPC: 1.01514 cumulative IPC: 1.03789 (Simulation time: 2 hr 11 min 23 sec) 
Heartbeat CPU 4 instructions: 410000003 cycles: 356457604 heartbeat IPC: 1.08079 cumulative IPC: 1.08149 (Simulation time: 2 hr 12 min 18 sec) 
Heartbeat CPU 0 instructions: 350000001 cycles: 358449872 heartbeat IPC: 0.924185 cumulative IPC: 0.928786 (Simulation time: 2 hr 12 min 59 sec) 
Heartbeat CPU 1 instructions: 170000000 cycles: 358482422 heartbeat IPC: 0.434521 cumulative IPC: 0.433727 (Simulation time: 2 hr 13 min 0 sec) 
Heartbeat CPU 6 instructions: 330000001 cycles: 362328771 heartbeat IPC: 1.00153 cumulative IPC: 0.853874 (Simulation time: 2 hr 14 min 19 sec) 
Heartbeat CPU 7 instructions: 430000000 cycles: 362363185 heartbeat IPC: 0.976937 cumulative IPC: 1.11663 (Simulation time: 2 hr 14 min 20 sec) 
Heartbeat CPU 2 instructions: 390000001 cycles: 363682108 heartbeat IPC: 1.01268 cumulative IPC: 1.03718 (Simulation time: 2 hr 14 min 46 sec) 
Heartbeat CPU 4 instructions: 420000000 cycles: 365713291 heartbeat IPC: 1.08042 cumulative IPC: 1.08147 (Simulation time: 2 hr 15 min 29 sec) 
Heartbeat CPU 0 instructions: 360000000 cycles: 369241874 heartbeat IPC: 0.926612 cumulative IPC: 0.92872 (Simulation time: 2 hr 16 min 44 sec) 
Heartbeat CPU 3 instructions: 210000002 cycles: 371415845 heartbeat IPC: 0.504993 cumulative IPC: 0.524407 (Simulation time: 2 hr 17 min 31 sec) 
Heartbeat CPU 7 instructions: 440000000 cycles: 372415931 heartbeat IPC: 0.994753 cumulative IPC: 1.11323 (Simulation time: 2 hr 17 min 53 sec) 
Heartbeat CPU 2 instructions: 400000000 cycles: 373544502 heartbeat IPC: 1.01395 cumulative IPC: 1.03654 (Simulation time: 2 hr 18 min 17 sec) 
Heartbeat CPU 4 instructions: 430000001 cycles: 374967191 heartbeat IPC: 1.08063 cumulative IPC: 1.08145 (Simulation time: 2 hr 18 min 46 sec) 
Heartbeat CPU 6 instructions: 340000000 cycles: 374968363 heartbeat IPC: 0.791165 cumulative IPC: 0.851687 (Simulation time: 2 hr 18 min 46 sec) 
Heartbeat CPU 0 instructions: 370000000 cycles: 380012241 heartbeat IPC: 0.928473 cumulative IPC: 0.928713 (Simulation time: 2 hr 20 min 31 sec) 
Heartbeat CPU 1 instructions: 180000000 cycles: 381366586 heartbeat IPC: 0.436983 cumulative IPC: 0.43393 (Simulation time: 2 hr 20 min 59 sec) 
Heartbeat CPU 7 instructions: 450000000 cycles: 382353268 heartbeat IPC: 1.00631 cumulative IPC: 1.11035 (Simulation time: 2 hr 21 min 20 sec) 
Heartbeat CPU 2 instructions: 410000000 cycles: 383416875 heartbeat IPC: 1.01293 cumulative IPC: 1.03591 (Simulation time: 2 hr 21 min 43 sec) 
Heartbeat CPU 4 instructions: 440000000 cycles: 384218750 heartbeat IPC: 1.0809 cumulative IPC: 1.08143 (Simulation time: 2 hr 21 min 59 sec) 
Heartbeat CPU 3 instructions: 220000000 cycles: 386200493 heartbeat IPC: 0.676377 cumulative IPC: 0.530422 (Simulation time: 2 hr 22 min 41 sec) 
Heartbeat CPU 6 instructions: 350000001 cycles: 388947166 heartbeat IPC: 0.715369 cumulative IPC: 0.846623 (Simulation time: 2 hr 23 min 37 sec) 
Heartbeat CPU 0 instructions: 380000000 cycles: 390965257 heartbeat IPC: 0.912991 cumulative IPC: 0.928258 (Simulation time: 2 hr 24 min 18 sec) 
Heartbeat CPU 7 instructions: 460000000 cycles: 392383910 heartbeat IPC: 0.996945 cumulative IPC: 1.10736 (Simulation time: 2 hr 24 min 49 sec) 
Heartbeat CPU 2 instructions: 420000000 cycles: 393283726 heartbeat IPC: 1.01349 cumulative IPC: 1.03533 (Simulation time: 2 hr 25 min 9 sec) 
Heartbeat CPU 4 instructions: 450000000 cycles: 393468557 heartbeat IPC: 1.0811 cumulative IPC: 1.08142 (Simulation time: 2 hr 25 min 13 sec) 
Heartbeat CPU 3 instructions: 230000002 cycles: 399594088 heartbeat IPC: 0.746626 cumulative IPC: 0.537905 (Simulation time: 2 hr 27 min 20 sec) 
Heartbeat CPU 0 instructions: 390000002 cycles: 401780611 heartbeat IPC: 0.924612 cumulative IPC: 0.928156 (Simulation time: 2 hr 28 min 8 sec) 
Heartbeat CPU 7 instructions: 470000001 cycles: 402502194 heartbeat IPC: 0.98831 cumulative IPC: 1.10427 (Simulation time: 2 hr 28 min 24 sec) 
Heartbeat CPU 4 instructions: 460000000 cycles: 402719797 heartbeat IPC: 1.08094 cumulative IPC: 1.08141 (Simulation time: 2 hr 28 min 28 sec) 
Heartbeat CPU 6 instructions: 360000000 cycles: 403009870 heartbeat IPC: 0.711101 cumulative IPC: 0.841741 (Simulation time: 2 hr 28 min 35 sec) 
Heartbeat CPU 2 instructions: 430000000 cycles: 403085602 heartbeat IPC: 1.02021 cumulative IPC: 1.03495 (Simulation time: 2 hr 28 min 36 sec) 
Heartbeat CPU 1 instructions: 190000002 cycles: 404457653 heartbeat IPC: 0.433068 cumulative IPC: 0.433879 (Simulation time: 2 hr 29 min 4 sec) 
Heartbeat CPU 4 instructions: 470000000 cycles: 411973150 heartbeat IPC: 1.08069 cumulative IPC: 1.0814 (Simulation time: 2 hr 31 min 43 sec) 
Heartbeat CPU 5 instructions: 110000001 cycles: 412313719 heartbeat IPC: 0.16995 cumulative IPC: 0.188863 (Simulation time: 2 hr 31 min 50 sec) 
Heartbeat CPU 0 instructions: 400000000 cycles: 412577703 heartbeat IPC: 0.926175 cumulative IPC: 0.928103 (Simulation time: 2 hr 31 min 55 sec) 
Heartbeat CPU 7 instructions: 480000000 cycles: 412674680 heartbeat IPC: 0.983044 cumulative IPC: 1.10119 (Simulation time: 2 hr 31 min 57 sec) 
Heartbeat CPU 2 instructions: 440000000 cycles: 412881594 heartbeat IPC: 1.02083 cumulative IPC: 1.03461 (Simulation time: 2 hr 32 min 2 sec) 
Heartbeat CPU 3 instructions: 240000000 cycles: 413835707 heartbeat IPC: 0.702167 cumulative IPC: 0.543736 (Simulation time: 2 hr 32 min 22 sec) 
Heartbeat CPU 6 instructions: 370000000 cycles: 415374674 heartbeat IPC: 0.808747 cumulative IPC: 0.840728 (Simulation time: 2 hr 32 min 55 sec) 
Heartbeat CPU 4 instructions: 480000000 cycles: 421222125 heartbeat IPC: 1.0812 cumulative IPC: 1.08139 (Simulation time: 2 hr 34 min 58 sec) 
Heartbeat CPU 2 instructions: 450000001 cycles: 422691407 heartbeat IPC: 1.01939 cumulative IPC: 1.03424 (Simulation time: 2 hr 35 min 28 sec) 
Heartbeat CPU 7 instructions: 490000001 cycles: 422777429 heartbeat IPC: 0.98983 cumulative IPC: 1.09844 (Simulation time: 2 hr 35 min 30 sec) 
Heartbeat CPU 0 instructions: 410000001 cycles: 423355366 heartbeat IPC: 0.927845 cumulative IPC: 0.928096 (Simulation time: 2 hr 35 min 42 sec) 
Heartbeat CPU 6 instructions: 380000000 cycles: 426961366 heartbeat IPC: 0.863059 cumulative IPC: 0.841352 (Simulation time: 2 hr 36 min 58 sec) 
Heartbeat CPU 1 instructions: 200000000 cycles: 427522597 heartbeat IPC: 0.433558 cumulative IPC: 0.433861 (Simulation time: 2 hr 37 min 10 sec) 
Heartbeat CPU 3 instructions: 250000002 cycles: 429163041 heartbeat IPC: 0.652429 cumulative IPC: 0.547736 (Simulation time: 2 hr 37 min 44 sec) 
Heartbeat CPU 4 instructions: 490000003 cycles: 430474220 heartbeat IPC: 1.08084 cumulative IPC: 1.08138 (Simulation time: 2 hr 38 min 10 sec) 
Heartbeat CPU 2 instructions: 460000000 cycles: 432492908 heartbeat IPC: 1.02025 cumulative IPC: 1.03392 (Simulation time: 2 hr 38 min 52 sec) 
Heartbeat CPU 7 instructions: 500000000 cycles: 432899888 heartbeat IPC: 0.987902 cumulative IPC: 1.09578 (Simulation time: 2 hr 39 min 1 sec) 
Heartbeat CPU 0 instructions: 420000000 cycles: 434129416 heartbeat IPC: 0.928156 cumulative IPC: 0.928098 (Simulation time: 2 hr 39 min 27 sec) 
Heartbeat CPU 4 instructions: 500000000 cycles: 439725690 heartbeat IPC: 1.08091 cumulative IPC: 1.08137 (Simulation time: 2 hr 41 min 23 sec) 
Heartbeat CPU 6 instructions: 390000001 cycles: 441268676 heartbeat IPC: 0.698943 cumulative IPC: 0.836599 (Simulation time: 2 hr 41 min 55 sec) 
Heartbeat CPU 2 instructions: 470000001 cycles: 442303122 heartbeat IPC: 1.01935 cumulative IPC: 1.03358 (Simulation time: 2 hr 42 min 16 sec) 
Heartbeat CPU 7 instructions: 510000002 cycles: 443052060 heartbeat IPC: 0.985011 cumulative IPC: 1.09317 (Simulation time: 2 hr 42 min 32 sec) 
Heartbeat CPU 3 instructions: 260000000 cycles: 444092425 heartbeat IPC: 0.66982 cumulative IPC: 0.55196 (Simulation time: 2 hr 42 min 53 sec) 
Heartbeat CPU 0 instructions: 430000003 cycles: 444901786 heartbeat IPC: 0.928301 cumulative IPC: 0.928103 (Simulation time: 2 hr 43 min 10 sec) 
Heartbeat CPU 4 instructions: 510000001 cycles: 448977799 heartbeat IPC: 1.08083 cumulative IPC: 1.08136 (Simulation time: 2 hr 44 min 34 sec) 
Heartbeat CPU 1 instructions: 210000000 cycles: 450496694 heartbeat IPC: 0.435273 cumulative IPC: 0.433935 (Simulation time: 2 hr 45 min 5 sec) 
Heartbeat CPU 2 instructions: 480000000 cycles: 452150634 heartbeat IPC: 1.01548 cumulative IPC: 1.03318 (Simulation time: 2 hr 45 min 40 sec) 
Heartbeat CPU 7 instructions: 520000000 cycles: 453106580 heartbeat IPC: 0.994577 cumulative IPC: 1.09092 (Simulation time: 2 hr 46 min 0 sec) 
Heartbeat CPU 6 instructions: 400000000 cycles: 454848159 heartbeat IPC: 0.736405 cumulative IPC: 0.833522 (Simulation time: 2 hr 46 min 37 sec) 
Heartbeat CPU 0 instructions: 440000000 cycles: 455665353 heartbeat IPC: 0.92906 cumulative IPC: 0.928126 (Simulation time: 2 hr 46 min 54 sec) 
Heartbeat CPU 4 instructions: 520000000 cycles: 458229161 heartbeat IPC: 1.08092 cumulative IPC: 1.08135 (Simulation time: 2 hr 47 min 47 sec) 
Heartbeat CPU 3 instructions: 270000001 cycles: 459257314 heartbeat IPC: 0.659418 cumulative IPC: 0.555609 (Simulation time: 2 hr 48 min 8 sec) 
Heartbeat CPU 2 instructions: 490000000 cycles: 461928650 heartbeat IPC: 1.0227 cumulative IPC: 1.03295 (Simulation time: 2 hr 49 min 5 sec) 
Heartbeat CPU 7 instructions: 530000002 cycles: 463216797 heartbeat IPC: 0.989099 cumulative IPC: 1.08863 (Simulation time: 2 hr 49 min 31 sec) 
Heartbeat CPU 0 instructions: 450000001 cycles: 466514970 heartbeat IPC: 0.921692 cumulative IPC: 0.927972 (Simulation time: 2 hr 50 min 38 sec) 
Heartbeat CPU 4 instructions: 530000002 cycles: 467479564 heartbeat IPC: 1.08103 cumulative IPC: 1.08134 (Simulation time: 2 hr 50 min 58 sec) 
Heartbeat CPU 6 instructions: 410000000 cycles: 469073653 heartbeat IPC: 0.702963 cumulative IPC: 0.829453 (Simulation time: 2 hr 51 min 31 sec) 
Heartbeat CPU 5 instructions: 120000000 cycles: 471524424 heartbeat IPC: 0.168888 cumulative IPC: 0.186286 (Simulation time: 2 hr 52 min 21 sec) 
Heartbeat CPU 2 instructions: 500000000 cycles: 471826175 heartbeat IPC: 1.01035 cumulative IPC: 1.03246 (Simulation time: 2 hr 52 min 28 sec) 
Heartbeat CPU 7 instructions: 540000000 cycles: 473080309 heartbeat IPC: 1.01384 cumulative IPC: 1.08703 (Simulation time: 2 hr 52 min 54 sec) 
Heartbeat CPU 1 instructions: 220000000 cycles: 473551989 heartbeat IPC: 0.43374 cumulative IPC: 0.433925 (Simulation time: 2 hr 53 min 3 sec) 
Heartbeat CPU 3 instructions: 280000000 cycles: 474475545 heartbeat IPC: 0.657107 cumulative IPC: 0.558954 (Simulation time: 2 hr 53 min 22 sec) 
Heartbeat CPU 4 instructions: 540000000 cycles: 476732514 heartbeat IPC: 1.08074 cumulative IPC: 1.08133 (Simulation time: 2 hr 54 min 9 sec) 
Heartbeat CPU 0 instructions: 460000000 cycles: 477456448 heartbeat IPC: 0.913953 cumulative IPC: 0.927642 (Simulation time: 2 hr 54 min 23 sec) 
Heartbeat CPU 2 instructions: 510000003 cycles: 481696233 heartbeat IPC: 1.01317 cumulative IPC: 1.03206 (Simulation time: 2 hr 55 min 51 sec) 
Heartbeat CPU 7 instructions: 550000000 cycles: 483155331 heartbeat IPC: 0.992554 cumulative IPC: 1.08501 (Simulation time: 2 hr 56 min 21 sec) 
Heartbeat CPU 6 instructions: 420000000 cycles: 484078693 heartbeat IPC: 0.666443 cumulative IPC: 0.824264 (Simulation time: 2 hr 56 min 39 sec) 
Heartbeat CPU 4 instructions: 550000003 cycles: 485983548 heartbeat IPC: 1.08096 cumulative IPC: 1.08132 (Simulation time: 2 hr 57 min 16 sec) 
Heartbeat CPU 0 instructions: 470000001 cycles: 488285755 heartbeat IPC: 0.92342 cumulative IPC: 0.927546 (Simulation time: 2 hr 58 min 1 sec) 
Heartbeat CPU 2 instructions: 520000000 cycles: 491503413 heartbeat IPC: 1.01966 cumulative IPC: 1.0318 (Simulation time: 2 hr 59 min 5 sec) 
Heartbeat CPU 7 instructions: 560000000 cycles: 493300848 heartbeat IPC: 0.985657 cumulative IPC: 1.08291 (Simulation time: 2 hr 59 min 41 sec) 
Heartbeat CPU 3 instructions: 290000001 cycles: 493546523 heartbeat IPC: 0.524357 cumulative IPC: 0.557582 (Simulation time: 2 hr 59 min 47 sec) 
Heartbeat CPU 4 instructions: 560000000 cycles: 495234895 heartbeat IPC: 1.08092 cumulative IPC: 1.08131 (Simulation time: 3 hr 0 min 20 sec) 
Heartbeat CPU 1 instructions: 230000001 cycles: 496727458 heartbeat IPC: 0.431491 cumulative IPC: 0.433809 (Simulation time: 3 hr 0 min 49 sec) 
Heartbeat CPU 6 instructions: 430000003 cycles: 497049169 heartbeat IPC: 0.770982 cumulative IPC: 0.822838 (Simulation time: 3 hr 0 min 56 sec) 
Heartbeat CPU 0 instructions: 480000000 cycles: 500678480 heartbeat IPC: 0.806925 cumulative IPC: 0.924483 (Simulation time: 3 hr 2 min 1 sec) 
Heartbeat CPU 2 instructions: 530000003 cycles: 501427835 heartbeat IPC: 1.00762 cumulative IPC: 1.03131 (Simulation time: 3 hr 2 min 15 sec) 
Heartbeat CPU 7 instructions: 570000000 cycles: 503710820 heartbeat IPC: 0.960617 cumulative IPC: 1.08032 (Simulation time: 3 hr 3 min 0 sec) 
Heartbeat CPU 4 instructions: 570000002 cycles: 504496238 heartbeat IPC: 1.07976 cumulative IPC: 1.08129 (Simulation time: 3 hr 3 min 15 sec) 
Heartbeat CPU 6 instructions: 440000000 cycles: 511121127 heartbeat IPC: 0.710633 cumulative IPC: 0.81967 (Simulation time: 3 hr 5 min 32 sec) 
Heartbeat CPU 2 instructions: 540000000 cycles: 511342984 heartbeat IPC: 1.00856 cumulative IPC: 1.03086 (Simulation time: 3 hr 5 min 36 sec) 
Heartbeat CPU 7 instructions: 580000000 cycles: 511938663 heartbeat IPC: 1.21539 cumulative IPC: 1.08254 (Simulation time: 3 hr 5 min 49 sec) 
Heartbeat CPU 0 instructions: 490000000 cycles: 513347864 heartbeat IPC: 0.789304 cumulative IPC: 0.921063 (Simulation time: 3 hr 6 min 17 sec) 
Heartbeat CPU 4 instructions: 580000000 cycles: 513750079 heartbeat IPC: 1.08063 cumulative IPC: 1.08127 (Simulation time: 3 hr 6 min 25 sec) 
Heartbeat CPU 7 instructions: 590000001 cycles: 519879241 heartbeat IPC: 1.25935 cumulative IPC: 1.08531 (Simulation time: 3 hr 8 min 29 sec) 
Heartbeat CPU 1 instructions: 240000000 cycles: 519943813 heartbeat IPC: 0.430731 cumulative IPC: 0.433668 (Simulation time: 3 hr 8 min 30 sec) 
Heartbeat CPU 2 instructions: 550000000 cycles: 521053010 heartbeat IPC: 1.02986 cumulative IPC: 1.03084 (Simulation time: 3 hr 8 min 53 sec) 
Heartbeat CPU 3 instructions: 300000000 cycles: 521186882 heartbeat IPC: 0.36179 cumulative IPC: 0.54694 (Simulation time: 3 hr 8 min 56 sec) 
Heartbeat CPU 4 instructions: 590000001 cycles: 522997030 heartbeat IPC: 1.08144 cumulative IPC: 1.08128 (Simulation time: 3 hr 9 min 33 sec) 
Heartbeat CPU 6 instructions: 450000002 cycles: 524067163 heartbeat IPC: 0.772437 cumulative IPC: 0.818474 (Simulation time: 3 hr 9 min 55 sec) 
Heartbeat CPU 0 instructions: 500000000 cycles: 527326834 heartbeat IPC: 0.71536 cumulative IPC: 0.915476 (Simulation time: 3 hr 11 min 2 sec) 
Heartbeat CPU 7 instructions: 600000000 cycles: 527700274 heartbeat IPC: 1.2786 cumulative IPC: 1.08825 (Simulation time: 3 hr 11 min 10 sec) 
Heartbeat CPU 5 instructions: 130000002 cycles: 529722177 heartbeat IPC: 0.171828 cumulative IPC: 0.184658 (Simulation time: 3 hr 11 min 51 sec) 
Heartbeat CPU 2 instructions: 560000000 cycles: 530710567 heartbeat IPC: 1.03546 cumulative IPC: 1.03093 (Simulation time: 3 hr 12 min 11 sec) 
Heartbeat CPU 4 instructions: 600000000 cycles: 532245654 heartbeat IPC: 1.08124 cumulative IPC: 1.08128 (Simulation time: 3 hr 12 min 43 sec) 
Heartbeat CPU 7 instructions: 610000000 cycles: 535509312 heartbeat IPC: 1.28057 cumulative IPC: 1.09112 (Simulation time: 3 hr 13 min 49 sec) 
Heartbeat CPU 6 instructions: 460000000 cycles: 536678532 heartbeat IPC: 0.792935 cumulative IPC: 0.81786 (Simulation time: 3 hr 14 min 13 sec) 
Heartbeat CPU 2 instructions: 570000003 cycles: 540299774 heartbeat IPC: 1.04284 cumulative IPC: 1.03114 (Simulation time: 3 hr 15 min 26 sec) 
Heartbeat CPU 0 instructions: 510000001 cycles: 541300078 heartbeat IPC: 0.715653 cumulative IPC: 0.910194 (Simulation time: 3 hr 15 min 47 sec) 
Heartbeat CPU 4 instructions: 610000000 cycles: 541489777 heartbeat IPC: 1.08177 cumulative IPC: 1.08128 (Simulation time: 3 hr 15 min 50 sec) 
Heartbeat CPU 1 instructions: 250000000 cycles: 543014052 heartbeat IPC: 0.433459 cumulative IPC: 0.433659 (Simulation time: 3 hr 16 min 22 sec) 
Heartbeat CPU 7 instructions: 620000000 cycles: 543323615 heartbeat IPC: 1.2797 cumulative IPC: 1.0939 (Simulation time: 3 hr 16 min 28 sec) 
Heartbeat CPU 3 instructions: 310000001 cycles: 547049366 heartbeat IPC: 0.38666 cumulative IPC: 0.539183 (Simulation time: 3 hr 17 min 44 sec) 
Heartbeat CPU 6 instructions: 470000000 cycles: 548802922 heartbeat IPC: 0.824784 cumulative IPC: 0.818016 (Simulation time: 3 hr 18 min 19 sec) 
Heartbeat CPU 2 instructions: 580000000 cycles: 549920532 heartbeat IPC: 1.03942 cumulative IPC: 1.03129 (Simulation time: 3 hr 18 min 42 sec) 
Heartbeat CPU 4 instructions: 620000000 cycles: 550735447 heartbeat IPC: 1.08159 cumulative IPC: 1.08129 (Simulation time: 3 hr 18 min 59 sec) 
Heartbeat CPU 7 instructions: 630000000 cycles: 551142016 heartbeat IPC: 1.27903 cumulative IPC: 1.09658 (Simulation time: 3 hr 19 min 7 sec) 
Finished CPU 5 instructions: 100000000 cycles: 540523936 cumulative IPC: 0.185006 (Simulation time: 3 hr 19 min 48 sec) 

CPU 0 Branch Prediction Accuracy: 99.8506% MPKI: 0.145752

CPU 1 Branch Prediction Accuracy: 84.7417% MPKI: 16.573

CPU 2 Branch Prediction Accuracy: 99.9304% MPKI: 0.0345821

CPU 3 Branch Prediction Accuracy: 96.6938% MPKI: 4.73973

CPU 4 Branch Prediction Accuracy: 98.9362% MPKI: 0.202898

CPU 5 Branch Prediction Accuracy: 99.9786% MPKI: 0.0208091

CPU 6 Branch Prediction Accuracy: 93.3397% MPKI: 9.44087

CPU 7 Branch Prediction Accuracy: 99.8626% MPKI: 0.164334

ChampSim completed all CPUs

Total Simulation Statistics (not including warmup)

CPU 0 cumulative IPC: 0.905932 instructions: 489678191 cycles: 540523935
L1D TOTAL     ACCESS:  128928563  HIT:  124882204  MISS:    4046359
L1D LOAD      ACCESS:  112752897  HIT:  108806746  MISS:    3946151
L1D RFO       ACCESS:   16175666  HIT:   16075458  MISS:     100208
L1D PREFETCH  ACCESS:          0  HIT:          0  MISS:          0
L1D WRITEBACK ACCESS:          0  HIT:          0  MISS:          0
L1I TOTAL     ACCESS:  164115828  HIT:  164115492  MISS:        336
L1I LOAD      ACCESS:  164115828  HIT:  164115492  MISS:        336
L1I RFO       ACCESS:          0  HIT:          0  MISS:          0
L1I PREFETCH  ACCESS:          0  HIT:          0  MISS:          0
L1I WRITEBACK ACCESS:          0  HIT:          0  MISS:          0
L2C TOTAL     ACCESS:   11911524  HIT:   11029629  MISS:     881895
L2C LOAD      ACCESS:    3946476  HIT:    3807944  MISS:     138532
L2C RFO       ACCESS:     100208  HIT:       7039  MISS:      93169
L2C PREFETCH  ACCESS:    6483870  HIT:    5834253  MISS:     649617
L2C WRITEBACK ACCESS:    1380970  HIT:    1380393  MISS:        577

Avg Lookahead Depth:	4.5897
TOTAL: 5.46359e+07	L2C: 4.6814e+07	LLC: 7.82186e+06	GOOD_L2C: 3.00237e+07
Printing all the perceptron weights to: perc_weights_0.csv
LLC TOTAL     ACCESS:    1325554  HIT:     654960  MISS:     670594
LLC LOAD      ACCESS:      94666  HIT:      36697  MISS:      57969
LLC RFO       ACCESS:      93169  HIT:         49  MISS:      93120
LLC PREFETCH  ACCESS:     897923  HIT:     387364  MISS:     510559
LLC WRITEBACK ACCESS:     239796  HIT:     230850  MISS:       8946

CPU 1 cumulative IPC: 0.433581 instructions: 234360813 cycles: 540523935
L1D TOTAL     ACCESS:   77147808  HIT:   76446522  MISS:     701286
L1D LOAD      ACCESS:   50447311  HIT:   49839858  MISS:     607453
L1D RFO       ACCESS:   26700497  HIT:   26606664  MISS:      93833
L1D PREFETCH  ACCESS:          0  HIT:          0  MISS:          0
L1D WRITEBACK ACCESS:          0  HIT:          0  MISS:          0
L1I TOTAL     ACCESS:   53482961  HIT:   53467522  MISS:      15439
L1I LOAD      ACCESS:   53482961  HIT:   53467522  MISS:      15439
L1I RFO       ACCESS:          0  HIT:          0  MISS:          0
L1I PREFETCH  ACCESS:          0  HIT:          0  MISS:          0
L1I WRITEBACK ACCESS:          0  HIT:          0  MISS:          0
L2C TOTAL     ACCESS:    1549401  HIT:    1496723  MISS:      52678
L2C LOAD      ACCESS:     622848  HIT:     589035  MISS:      33813
L2C RFO       ACCESS:      93833  HIT:      92977  MISS:        856
L2C PREFETCH  ACCESS:     672780  HIT:     655154  MISS:      17626
L2C WRITEBACK ACCESS:     159940  HIT:     159557  MISS:        383

Avg Lookahead Depth:	4.5897
TOTAL: 5.46359e+07	L2C: 4.6814e+07	LLC: 7.82186e+06	GOOD_L2C: 3.00237e+07
Printing all the perceptron weights to: perc_weights_0.csv
LLC TOTAL     ACCESS:      78482  HIT:      25507  MISS:      52975
LLC LOAD      ACCESS:      32553  HIT:      11775  MISS:      20778
LLC RFO       ACCESS:        856  HIT:        507  MISS:        349
LLC PREFETCH  ACCESS:      40691  HIT:      12535  MISS:      28156
LLC WRITEBACK ACCESS:       4382  HIT:        690  MISS:       3692

CPU 2 cumulative IPC: 1.0313 instructions: 557443958 cycles: 540523936
L1D TOTAL     ACCESS:  168660212  HIT:  158221917  MISS:   10438295
L1D LOAD      ACCESS:  149982128  HIT:  139602706  MISS:   10379422
L1D RFO       ACCESS:   18678084  HIT:   18619211  MISS:      58873
L1D PREFETCH  ACCESS:          0  HIT:          0  MISS:          0
L1D WRITEBACK ACCESS:          0  HIT:          0  MISS:          0
L1I TOTAL     ACCESS:  139197828  HIT:  139197828  MISS:          0
L1I LOAD      ACCESS:  139197828  HIT:  139197828  MISS:          0
L1I RFO       ACCESS:          0  HIT:          0  MISS:          0
L1I PREFETCH  ACCESS:          0  HIT:          0  MISS:          0
L1I WRITEBACK ACCESS:          0  HIT:          0  MISS:          0
L2C TOTAL     ACCESS:   28431280  HIT:   20598924  MISS:    7832356
L2C LOAD      ACCESS:   10378902  HIT:   10023721  MISS:     355181
L2C RFO       ACCESS:      58873  HIT:       5307  MISS:      53566
L2C PREFETCH  ACCESS:   15815552  HIT:    8391944  MISS:    7423608
L2C WRITEBACK ACCESS:    2177953  HIT:    2177952  MISS:          1

Avg Lookahead Depth:	4.5897
TOTAL: 5.46359e+07	L2C: 4.6814e+07	LLC: 7.82186e+06	GOOD_L2C: 3.00237e+07
Printing all the perceptron weights to: perc_weights_0.csv
LLC TOTAL     ACCESS:    8558822  HIT:    1964441  MISS:    6594381
LLC LOAD      ACCESS:     341811  HIT:      61445  MISS:     280366
LLC RFO       ACCESS:      53565  HIT:       1413  MISS:      52152
LLC PREFETCH  ACCESS:    8104592  HIT:    1842763  MISS:    6261829
LLC WRITEBACK ACCESS:      58854  HIT:      58820  MISS:         34

CPU 3 cumulative IPC: 0.537148 instructions: 290341295 cycles: 540523936
L1D TOTAL     ACCESS:  108755458  HIT:  107801162  MISS:     954296
L1D LOAD      ACCESS:   51454200  HIT:   50584748  MISS:     869452
L1D RFO       ACCESS:   57301258  HIT:   57216414  MISS:      84844
L1D PREFETCH  ACCESS:          0  HIT:          0  MISS:          0
L1D WRITEBACK ACCESS:          0  HIT:          0  MISS:          0
L1I TOTAL     ACCESS:   79425004  HIT:   78258643  MISS:    1166361
L1I LOAD      ACCESS:   79425004  HIT:   78258643  MISS:    1166361
L1I RFO       ACCESS:          0  HIT:          0  MISS:          0
L1I PREFETCH  ACCESS:          0  HIT:          0  MISS:          0
L1I WRITEBACK ACCESS:          0  HIT:          0  MISS:          0
L2C TOTAL     ACCESS:    4896752  HIT:    3893045  MISS:    1003707
L2C LOAD      ACCESS:    2035794  HIT:    1569796  MISS:     465998
L2C RFO       ACCESS:      84843  HIT:      48831  MISS:      36012
L2C PREFETCH  ACCESS:    2508322  HIT:    2014216  MISS:     494106
L2C WRITEBACK ACCESS:     267793  HIT:     260202  MISS:       7591

Avg Lookahead Depth:	4.5897
TOTAL: 5.46359e+07	L2C: 4.6814e+07	LLC: 7.82186e+06	GOOD_L2C: 3.00237e+07
Printing all the perceptron weights to: perc_weights_0.csv
LLC TOTAL     ACCESS:    1526283  HIT:     891431  MISS:     634852
LLC LOAD      ACCESS:     450614  HIT:     237169  MISS:     213445
LLC RFO       ACCESS:      35947  HIT:      18230  MISS:      17717
LLC PREFETCH  ACCESS:     909290  HIT:     517541  MISS:     391749
LLC WRITEBACK ACCESS:     130432  HIT:     118491  MISS:      11941

CPU 4 cumulative IPC: 1.08129 instructions: 584461684 cycles: 540523936
L1D TOTAL     ACCESS:   48957116  HIT:   48712570  MISS:     244546
L1D LOAD      ACCESS:   36729881  HIT:   36485335  MISS:     244546
L1D RFO       ACCESS:   12227235  HIT:   12227235  MISS:          0
L1D PREFETCH  ACCESS:          0  HIT:          0  MISS:          0
L1D WRITEBACK ACCESS:          0  HIT:          0  MISS:          0
L1I TOTAL     ACCESS:  151294066  HIT:  151294066  MISS:          0
L1I LOAD      ACCESS:  151294066  HIT:  151294066  MISS:          0
L1I RFO       ACCESS:          0  HIT:          0  MISS:          0
L1I PREFETCH  ACCESS:          0  HIT:          0  MISS:          0
L1I WRITEBACK ACCESS:          0  HIT:          0  MISS:          0
L2C TOTAL     ACCESS:     649157  HIT:     404612  MISS:     244545
L2C LOAD      ACCESS:     244546  HIT:     239199  MISS:       5347
L2C RFO       ACCESS:          0  HIT:          0  MISS:          0
L2C PREFETCH  ACCESS:     404611  HIT:     165413  MISS:     239198
L2C WRITEBACK ACCESS:          0  HIT:          0  MISS:          0

Avg Lookahead Depth:	4.5897
TOTAL: 5.46359e+07	L2C: 4.6814e+07	LLC: 7.82186e+06	GOOD_L2C: 3.00237e+07
Printing all the perceptron weights to: perc_weights_0.csv
LLC TOTAL     ACCESS:     362295  HIT:     117751  MISS:     244544
LLC LOAD      ACCESS:       4987  HIT:        267  MISS:       4720
LLC RFO       ACCESS:          0  HIT:          0  MISS:          0
LLC PREFETCH  ACCESS:     357308  HIT:     117484  MISS:     239824
LLC WRITEBACK ACCESS:          0  HIT:          0  MISS:          0

CPU 5 cumulative IPC: 0.185006 instructions: 100000000 cycles: 540523936
L1D TOTAL     ACCESS:   19635088  HIT:   14173970  MISS:    5461118
L1D LOAD      ACCESS:   15200708  HIT:   10016852  MISS:    5183856
L1D RFO       ACCESS:    4434380  HIT:    4157118  MISS:     277262
L1D PREFETCH  ACCESS:          0  HIT:          0  MISS:          0
L1D WRITEBACK ACCESS:          0  HIT:          0  MISS:          0
L1I TOTAL     ACCESS:   25406905  HIT:   25406905  MISS:          0
L1I LOAD      ACCESS:   25406905  HIT:   25406905  MISS:          0
L1I RFO       ACCESS:          0  HIT:          0  MISS:          0
L1I PREFETCH  ACCESS:          0  HIT:          0  MISS:          0
L1I WRITEBACK ACCESS:          0  HIT:          0  MISS:          0
L2C TOTAL     ACCESS:   10457307  HIT:    5448142  MISS:    5009165
L2C LOAD      ACCESS:    5183856  HIT:    1725221  MISS:    3458635
L2C RFO       ACCESS:     277262  HIT:      97986  MISS:     179276
L2C PREFETCH  ACCESS:    2779001  HIT:    1407769  MISS:    1371232
L2C WRITEBACK ACCESS:    2217188  HIT:    2217166  MISS:         22

Avg Lookahead Depth:	4.5897
TOTAL: 5.46359e+07	L2C: 4.6814e+07	LLC: 7.82186e+06	GOOD_L2C: 3.00237e+07
Printing all the perceptron weights to: perc_weights_0.csv
LLC TOTAL     ACCESS:    8613069  HIT:    5994859  MISS:    2618210
LLC LOAD      ACCESS:    3449688  HIT:    1178413  MISS:    2271275
LLC RFO       ACCESS:     179253  HIT:     179249  MISS:          4
LLC PREFETCH  ACCESS:    2766671  HIT:    2419742  MISS:     346929
LLC WRITEBACK ACCESS:    2217457  HIT:    2217455  MISS:          2

CPU 6 cumulative IPC: 0.818392 instructions: 442360470 cycles: 540523936
L1D TOTAL     ACCESS:   88203806  HIT:   85650309  MISS:    2553497
L1D LOAD      ACCESS:   58157130  HIT:   56223320  MISS:    1933810
L1D RFO       ACCESS:   30046676  HIT:   29426989  MISS:     619687
L1D PREFETCH  ACCESS:          0  HIT:          0  MISS:          0
L1D WRITEBACK ACCESS:          0  HIT:          0  MISS:          0
L1I TOTAL     ACCESS:   80342562  HIT:   80341092  MISS:       1470
L1I LOAD      ACCESS:   80342562  HIT:   80341092  MISS:       1470
L1I RFO       ACCESS:          0  HIT:          0  MISS:          0
L1I PREFETCH  ACCESS:          0  HIT:          0  MISS:          0
L1I WRITEBACK ACCESS:          0  HIT:          0  MISS:          0
L2C TOTAL     ACCESS:    5310061  HIT:    4237782  MISS:    1072279
L2C LOAD      ACCESS:    1935206  HIT:    1224970  MISS:     710236
L2C RFO       ACCESS:     619569  HIT:     450793  MISS:     168776
L2C PREFETCH  ACCESS:     899065  HIT:     708971  MISS:     190094
L2C WRITEBACK ACCESS:    1856221  HIT:    1853048  MISS:       3173

Avg Lookahead Depth:	4.5897
TOTAL: 5.46359e+07	L2C: 4.6814e+07	LLC: 7.82186e+06	GOOD_L2C: 3.00237e+07
Printing all the perceptron weights to: perc_weights_0.csv
LLC TOTAL     ACCESS:    2090282  HIT:    1068158  MISS:    1022124
LLC LOAD      ACCESS:     709220  HIT:     211878  MISS:     497342
LLC RFO       ACCESS:     168775  HIT:      28314  MISS:     140461
LLC PREFETCH  ACCESS:     564528  HIT:     216740  MISS:     347788
LLC WRITEBACK ACCESS:     647759  HIT:     611226  MISS:      36533

CPU 7 cumulative IPC: 1.09725 instructions: 593090743 cycles: 540523936
L1D TOTAL     ACCESS:   89646550  HIT:   74859276  MISS:   14787274
L1D LOAD      ACCESS:   71586473  HIT:   56857629  MISS:   14728844
L1D RFO       ACCESS:   18060077  HIT:   18001647  MISS:      58430
L1D PREFETCH  ACCESS:          0  HIT:          0  MISS:          0
L1D WRITEBACK ACCESS:          0  HIT:          0  MISS:          0
L1I TOTAL     ACCESS:  131003745  HIT:  131003681  MISS:         64
L1I LOAD      ACCESS:  131003745  HIT:  131003681  MISS:         64
L1I RFO       ACCESS:          0  HIT:          0  MISS:          0
L1I PREFETCH  ACCESS:          0  HIT:          0  MISS:          0
L1I WRITEBACK ACCESS:          0  HIT:          0  MISS:          0
L2C TOTAL     ACCESS:   32243129  HIT:   17552075  MISS:   14691054
L2C LOAD      ACCESS:   14728860  HIT:   13674766  MISS:    1054094
L2C RFO       ACCESS:      57701  HIT:       8222  MISS:      49479
L2C PREFETCH  ACCESS:   15128421  HIT:    1540984  MISS:   13587437
L2C WRITEBACK ACCESS:    2328147  HIT:    2328103  MISS:         44

Avg Lookahead Depth:	4.5897
TOTAL: 5.46359e+07	L2C: 4.6814e+07	LLC: 7.82186e+06	GOOD_L2C: 3.00237e+07
Printing all the perceptron weights to: perc_weights_0.csv
LLC TOTAL     ACCESS:   17066669  HIT:    2391857  MISS:   14674812
LLC LOAD      ACCESS:     418884  HIT:       3272  MISS:     415612
LLC RFO       ACCESS:      49478  HIT:          3  MISS:      49475
LLC PREFETCH  ACCESS:   14280130  HIT:      70416  MISS:   14209714
LLC WRITEBACK ACCESS:    2318177  HIT:    2318166  MISS:         11

Region of Interest Statistics

CPU 0 cumulative IPC: 0.929564 instructions: 100000001 cycles: 107577305
L1D TOTAL     ACCESS:   26504082  HIT:   25591780  MISS:     912302
L1D LOAD      ACCESS:   23731492  HIT:   22820820  MISS:     910672
L1D RFO       ACCESS:    2772590  HIT:    2770960  MISS:       1630
L1D PREFETCH  ACCESS:          0  HIT:          0  MISS:          0
L1D WRITEBACK ACCESS:          0  HIT:          0  MISS:          0
L1D PREFETCH  REQUESTED:          0  ISSUED:          0  USEFUL:          0  USELESS:          0
L1I TOTAL     ACCESS:   33605338  HIT:   33605338  MISS:          0
L1I LOAD      ACCESS:   33605338  HIT:   33605338  MISS:          0
L1I RFO       ACCESS:          0  HIT:          0  MISS:          0
L1I PREFETCH  ACCESS:          0  HIT:          0  MISS:          0
L1I WRITEBACK ACCESS:          0  HIT:          0  MISS:          0
L1I PREFETCH  REQUESTED:          0  ISSUED:          0  USEFUL:          0  USELESS:          0
L2C TOTAL     ACCESS:    2746128  HIT:    2668319  MISS:      77809
L2C LOAD      ACCESS:     910672  HIT:     903650  MISS:       7022
L2C RFO       ACCESS:       1630  HIT:       1619  MISS:         11
L2C PREFETCH  ACCESS:    1529121  HIT:    1458404  MISS:      70717
L2C WRITEBACK ACCESS:     304705  HIT:     304646  MISS:         59
L2C PREFETCH  REQUESTED:    7347039  ISSUED:    7347039  USEFUL:     610648  USELESS:      59595
LLC TOTAL     ACCESS:     115185  HIT:      34134  MISS:      81051
LLC LOAD      ACCESS:       6857  HIT:       1233  MISS:       5624
LLC RFO       ACCESS:         11  HIT:         10  MISS:          1
LLC PREFETCH  ACCESS:     105866  HIT:      32583  MISS:      73283
LLC WRITEBACK ACCESS:       2451  HIT:        308  MISS:       2143
LLC PREFETCH  REQUESTED:          0  ISSUED:          0  USEFUL:     404446  USELESS:   23202328
Major fault: 0 Minor fault: 16686

CPU 1 cumulative IPC: 0.434488 instructions: 100000001 cycles: 230156074
L1D TOTAL     ACCESS:   32850085  HIT:   32543122  MISS:     306963
L1D LOAD      ACCESS:   21479399  HIT:   21212856  MISS:     266543
L1D RFO       ACCESS:   11370686  HIT:   11330266  MISS:      40420
L1D PREFETCH  ACCESS:          0  HIT:          0  MISS:          0
L1D WRITEBACK ACCESS:          0  HIT:          0  MISS:          0
L1D PREFETCH  REQUESTED:          0  ISSUED:          0  USEFUL:          0  USELESS:          0
L1I TOTAL     ACCESS:   22844736  HIT:   22837892  MISS:       6844
L1I LOAD      ACCESS:   22844736  HIT:   22837892  MISS:       6844
L1I RFO       ACCESS:          0  HIT:          0  MISS:          0
L1I PREFETCH  ACCESS:          0  HIT:          0  MISS:          0
L1I WRITEBACK ACCESS:          0  HIT:          0  MISS:          0
L1I PREFETCH  REQUESTED:          0  ISSUED:          0  USEFUL:          0  USELESS:          0
L2C TOTAL     ACCESS:     689194  HIT:     666080  MISS:      23114
L2C LOAD      ACCESS:     273386  HIT:     258171  MISS:      15215
L2C RFO       ACCESS:      40420  HIT:      40179  MISS:        241
L2C PREFETCH  ACCESS:     306209  HIT:     298737  MISS:       7472
L2C WRITEBACK ACCESS:      69179  HIT:      68993  MISS:        186
L2C PREFETCH  REQUESTED:     774609  ISSUED:     774609  USEFUL:       8355  USELESS:      12313
LLC TOTAL     ACCESS:      34508  HIT:      12554  MISS:      21954
LLC LOAD      ACCESS:      14776  HIT:       5858  MISS:       8918
LLC RFO       ACCESS:        241  HIT:        232  MISS:          9
LLC PREFETCH  ACCESS:      17903  HIT:       6173  MISS:      11730
LLC WRITEBACK ACCESS:       1588  HIT:        291  MISS:       1297
LLC PREFETCH  REQUESTED:          0  ISSUED:          0  USEFUL:     404446  USELESS:   23202328
Major fault: 0 Minor fault: 632

CPU 2 cumulative IPC: 1.04398 instructions: 100000003 cycles: 95786909
L1D TOTAL     ACCESS:   30257702  HIT:   28385155  MISS:    1872547
L1D LOAD      ACCESS:   26907132  HIT:   25045135  MISS:    1861997
L1D RFO       ACCESS:    3350570  HIT:    3340020  MISS:      10550
L1D PREFETCH  ACCESS:          0  HIT:          0  MISS:          0
L1D WRITEBACK ACCESS:          0  HIT:          0  MISS:          0
L1D PREFETCH  REQUESTED:          0  ISSUED:          0  USEFUL:          0  USELESS:          0
L1I TOTAL     ACCESS:   24965459  HIT:   24965459  MISS:          0
L1I LOAD      ACCESS:   24965459  HIT:   24965459  MISS:          0
L1I RFO       ACCESS:          0  HIT:          0  MISS:          0
L1I PREFETCH  ACCESS:          0  HIT:          0  MISS:          0
L1I WRITEBACK ACCESS:          0  HIT:          0  MISS:          0
L1I PREFETCH  REQUESTED:          0  ISSUED:          0  USEFUL:          0  USELESS:          0
L2C TOTAL     ACCESS:    5053258  HIT:    3645469  MISS:    1407789
L2C LOAD      ACCESS:    1861906  HIT:    1801326  MISS:      60580
L2C RFO       ACCESS:      10550  HIT:        967  MISS:       9583
L2C PREFETCH  ACCESS:    2790093  HIT:    1452467  MISS:    1337626
L2C WRITEBACK ACCESS:     390709  HIT:     390709  MISS:          0
L2C PREFETCH  REQUESTED:   17538452  ISSUED:   17537534  USEFUL:    7061375  USELESS:     705028
LLC TOTAL     ACCESS:    1525971  HIT:     340667  MISS:    1185304
LLC LOAD      ACCESS:      58568  HIT:      10561  MISS:      48007
LLC RFO       ACCESS:       9583  HIT:        249  MISS:       9334
LLC PREFETCH  ACCESS:    1447251  HIT:     319301  MISS:    1127950
LLC WRITEBACK ACCESS:      10569  HIT:      10556  MISS:         13
LLC PREFETCH  REQUESTED:          0  ISSUED:          0  USEFUL:     404446  USELESS:   23202328
Major fault: 0 Minor fault: 191764

CPU 3 cumulative IPC: 0.610416 instructions: 100000001 cycles: 163822690
L1D TOTAL     ACCESS:   37251069  HIT:   37024375  MISS:     226694
L1D LOAD      ACCESS:   16876165  HIT:   16674201  MISS:     201964
L1D RFO       ACCESS:   20374904  HIT:   20350174  MISS:      24730
L1D PREFETCH  ACCESS:          0  HIT:          0  MISS:          0
L1D WRITEBACK ACCESS:          0  HIT:          0  MISS:          0
L1D PREFETCH  REQUESTED:          0  ISSUED:          0  USEFUL:          0  USELESS:          0
L1I TOTAL     ACCESS:   27384392  HIT:   27121087  MISS:     263305
L1I LOAD      ACCESS:   27384392  HIT:   27121087  MISS:     263305
L1I RFO       ACCESS:          0  HIT:          0  MISS:          0
L1I PREFETCH  ACCESS:          0  HIT:          0  MISS:          0
L1I WRITEBACK ACCESS:          0  HIT:          0  MISS:          0
L1I PREFETCH  REQUESTED:          0  ISSUED:          0  USEFUL:          0  USELESS:          0
L2C TOTAL     ACCESS:    1153254  HIT:     918716  MISS:     234538
L2C LOAD      ACCESS:     465266  HIT:     359042  MISS:     106224
L2C RFO       ACCESS:      24730  HIT:      15531  MISS:       9199
L2C PREFETCH  ACCESS:     596143  HIT:     478798  MISS:     117345
L2C WRITEBACK ACCESS:      67115  HIT:      65345  MISS:       1770
L2C PREFETCH  REQUESTED:    3194398  ISSUED:    3185217  USEFUL:     184483  USELESS:     310802
LLC TOTAL     ACCESS:     359004  HIT:     200071  MISS:     158933
LLC LOAD      ACCESS:     103098  HIT:      51049  MISS:      52049
LLC RFO       ACCESS:       9182  HIT:       4763  MISS:       4419
LLC PREFETCH  ACCESS:     215639  HIT:     116580  MISS:      99059
LLC WRITEBACK ACCESS:      31085  HIT:      27679  MISS:       3406
LLC PREFETCH  REQUESTED:          0  ISSUED:          0  USEFUL:     404446  USELESS:   23202328
Major fault: 0 Minor fault: 5868

CPU 4 cumulative IPC: 1.08165 instructions: 100000000 cycles: 92451141
L1D TOTAL     ACCESS:    8376441  HIT:    8334599  MISS:      41842
L1D LOAD      ACCESS:    6284371  HIT:    6242529  MISS:      41842
L1D RFO       ACCESS:    2092070  HIT:    2092070  MISS:          0
L1D PREFETCH  ACCESS:          0  HIT:          0  MISS:          0
L1D WRITEBACK ACCESS:          0  HIT:          0  MISS:          0
L1D PREFETCH  REQUESTED:          0  ISSUED:          0  USEFUL:          0  USELESS:          0
L1I TOTAL     ACCESS:   25886046  HIT:   25886046  MISS:          0
L1I LOAD      ACCESS:   25886046  HIT:   25886046  MISS:          0
L1I RFO       ACCESS:          0  HIT:          0  MISS:          0
L1I PREFETCH  ACCESS:          0  HIT:          0  MISS:          0
L1I WRITEBACK ACCESS:          0  HIT:          0  MISS:          0
L1I PREFETCH  REQUESTED:          0  ISSUED:          0  USEFUL:          0  USELESS:          0
L2C TOTAL     ACCESS:     112184  HIT:      70341  MISS:      41843
L2C LOAD      ACCESS:      41842  HIT:      40936  MISS:        906
L2C RFO       ACCESS:          0  HIT:          0  MISS:          0
L2C PREFETCH  ACCESS:      70342  HIT:      29405  MISS:      40937
L2C WRITEBACK ACCESS:          0  HIT:          0  MISS:          0
L2C PREFETCH  REQUESTED:     606014  ISSUED:     606014  USEFUL:     254842  USELESS:         11
LLC TOTAL     ACCESS:      60735  HIT:      18892  MISS:      41843
LLC LOAD      ACCESS:        848  HIT:         50  MISS:        798
LLC RFO       ACCESS:          0  HIT:          0  MISS:          0
LLC PREFETCH  ACCESS:      59887  HIT:      18842  MISS:      41045
LLC WRITEBACK ACCESS:          0  HIT:          0  MISS:          0
LLC PREFETCH  REQUESTED:          0  ISSUED:          0  USEFUL:     404446  USELESS:   23202328
Major fault: 0 Minor fault: 4075

CPU 5 cumulative IPC: 0.185006 instructions: 100000000 cycles: 540523936
L1D TOTAL     ACCESS:   19635088  HIT:   14173970  MISS:    5461118
L1D LOAD      ACCESS:   15200708  HIT:   10016852  MISS:    5183856
L1D RFO       ACCESS:    4434380  HIT:    4157118  MISS:     277262
L1D PREFETCH  ACCESS:          0  HIT:          0  MISS:          0
L1D WRITEBACK ACCESS:          0  HIT:          0  MISS:          0
L1D PREFETCH  REQUESTED:          0  ISSUED:          0  USEFUL:          0  USELESS:          0
L1I TOTAL     ACCESS:   25406905  HIT:   25406905  MISS:          0
L1I LOAD      ACCESS:   25406905  HIT:   25406905  MISS:          0
L1I RFO       ACCESS:          0  HIT:          0  MISS:          0
L1I PREFETCH  ACCESS:          0  HIT:          0  MISS:          0
L1I WRITEBACK ACCESS:          0  HIT:          0  MISS:          0
L1I PREFETCH  REQUESTED:          0  ISSUED:          0  USEFUL:          0  USELESS:          0
L2C TOTAL     ACCESS:   10457307  HIT:    5448142  MISS:    5009165
L2C LOAD      ACCESS:    5183856  HIT:    1725221  MISS:    3458635
L2C RFO       ACCESS:     277262  HIT:      97986  MISS:     179276
L2C PREFETCH  ACCESS:    2779001  HIT:    1407769  MISS:    1371232
L2C WRITEBACK ACCESS:    2217188  HIT:    2217166  MISS:         22
L2C PREFETCH  REQUESTED:    5899249  ISSUED:    5899249  USEFUL:     302395  USELESS:    1222903
LLC TOTAL     ACCESS:    8613069  HIT:    5994859  MISS:    2618210
LLC LOAD      ACCESS:    3449688  HIT:    1178413  MISS:    2271275
LLC RFO       ACCESS:     179253  HIT:     179249  MISS:          4
LLC PREFETCH  ACCESS:    2766671  HIT:    2419742  MISS:     346929
LLC WRITEBACK ACCESS:    2217457  HIT:    2217455  MISS:          2
LLC PREFETCH  REQUESTED:          0  ISSUED:          0  USEFUL:     404446  USELESS:   23202328
Major fault: 0 Minor fault: 55699

CPU 6 cumulative IPC: 0.873899 instructions: 100000000 cycles: 114429702
L1D TOTAL     ACCESS:   19387139  HIT:   18754900  MISS:     632239
L1D LOAD      ACCESS:   12814628  HIT:   12344446  MISS:     470182
L1D RFO       ACCESS:    6572511  HIT:    6410454  MISS:     162057
L1D PREFETCH  ACCESS:          0  HIT:          0  MISS:          0
L1D WRITEBACK ACCESS:          0  HIT:          0  MISS:          0
L1D PREFETCH  REQUESTED:          0  ISSUED:          0  USEFUL:          0  USELESS:          0
L1I TOTAL     ACCESS:   17821916  HIT:   17821573  MISS:        343
L1I LOAD      ACCESS:   17821916  HIT:   17821573  MISS:        343
L1I RFO       ACCESS:          0  HIT:          0  MISS:          0
L1I PREFETCH  ACCESS:          0  HIT:          0  MISS:          0
L1I WRITEBACK ACCESS:          0  HIT:          0  MISS:          0
L1I PREFETCH  REQUESTED:          0  ISSUED:          0  USEFUL:          0  USELESS:          0
L2C TOTAL     ACCESS:    1354271  HIT:    1100724  MISS:     253547
L2C LOAD      ACCESS:     470503  HIT:     315800  MISS:     154703
L2C RFO       ACCESS:     162032  HIT:     121584  MISS:      40448
L2C PREFETCH  ACCESS:     257827  HIT:     200202  MISS:      57625
L2C WRITEBACK ACCESS:     463909  HIT:     463138  MISS:        771
L2C PREFETCH  REQUESTED:    1375199  ISSUED:    1375199  USEFUL:      66052  USELESS:     134307
LLC TOTAL     ACCESS:     511069  HIT:     286657  MISS:     224412
LLC LOAD      ACCESS:     154515  HIT:      58555  MISS:      95960
LLC RFO       ACCESS:      40448  HIT:       6397  MISS:      34051
LLC PREFETCH  ACCESS:     172570  HIT:      82780  MISS:      89790
LLC WRITEBACK ACCESS:     143536  HIT:     138925  MISS:       4611
LLC PREFETCH  REQUESTED:          0  ISSUED:          0  USEFUL:     404446  USELESS:   23202328
Major fault: 0 Minor fault: 9480

CPU 7 cumulative IPC: 1.31152 instructions: 100000003 cycles: 76247688
L1D TOTAL     ACCESS:    9929531  HIT:    8330486  MISS:    1599045
L1D LOAD      ACCESS:    7294215  HIT:    5695171  MISS:    1599044
L1D RFO       ACCESS:    2635316  HIT:    2635315  MISS:          1
L1D PREFETCH  ACCESS:          0  HIT:          0  MISS:          0
L1D WRITEBACK ACCESS:          0  HIT:          0  MISS:          0
L1D PREFETCH  REQUESTED:          0  ISSUED:          0  USEFUL:          0  USELESS:          0
L1I TOTAL     ACCESS:   21599760  HIT:   21599756  MISS:          4
L1I LOAD      ACCESS:   21599760  HIT:   21599756  MISS:          4
L1I RFO       ACCESS:          0  HIT:          0  MISS:          0
L1I PREFETCH  ACCESS:          0  HIT:          0  MISS:          0
L1I WRITEBACK ACCESS:          0  HIT:          0  MISS:          0
L1I PREFETCH  REQUESTED:          0  ISSUED:          0  USEFUL:          0  USELESS:          0
L2C TOTAL     ACCESS:    3173931  HIT:    1574722  MISS:    1599209
L2C LOAD      ACCESS:    1599046  HIT:    1458389  MISS:     140657
L2C RFO       ACCESS:          1  HIT:          0  MISS:          1
L2C PREFETCH  ACCESS:    1527424  HIT:      68902  MISS:    1458522
L2C WRITEBACK ACCESS:      47460  HIT:      47431  MISS:         29
L2C PREFETCH  REQUESTED:   17900901  ISSUED:   17888934  USEFUL:   14632076  USELESS:       1591
LLC TOTAL     ACCESS:    1649010  HIT:      50329  MISS:    1598681
LLC LOAD      ACCESS:      49534  HIT:        386  MISS:      49148
LLC RFO       ACCESS:          1  HIT:          0  MISS:          1
LLC PREFETCH  ACCESS:    1550238  HIT:        706  MISS:    1549532
LLC WRITEBACK ACCESS:      49237  HIT:      49237  MISS:          0
LLC PREFETCH  REQUESTED:          0  ISSUED:          0  USEFUL:     404446  USELESS:   23202328
Major fault: 0 Minor fault: 165496

Avg Lookahead Depth:	4.5897
TOTAL: 5.46359e+07	L2C: 4.6814e+07	LLC: 7.82186e+06	GOOD_L2C: 3.00237e+07
Printing all the perceptron weights to: perc_weights_0.csv

Avg Lookahead Depth:	4.5897
TOTAL: 5.46359e+07	L2C: 4.6814e+07	LLC: 7.82186e+06	GOOD_L2C: 3.00237e+07
Printing all the perceptron weights to: perc_weights_0.csv

Avg Lookahead Depth:	4.5897
TOTAL: 5.46359e+07	L2C: 4.6814e+07	LLC: 7.82186e+06	GOOD_L2C: 3.00237e+07
Printing all the perceptron weights to: perc_weights_0.csv

Avg Lookahead Depth:	4.5897
TOTAL: 5.46359e+07	L2C: 4.6814e+07	LLC: 7.82186e+06	GOOD_L2C: 3.00237e+07
Printing all the perceptron weights to: perc_weights_0.csv

Avg Lookahead Depth:	4.5897
TOTAL: 5.46359e+07	L2C: 4.6814e+07	LLC: 7.82186e+06	GOOD_L2C: 3.00237e+07
Printing all the perceptron weights to: perc_weights_0.csv

Avg Lookahead Depth:	4.5897
TOTAL: 5.46359e+07	L2C: 4.6814e+07	LLC: 7.82186e+06	GOOD_L2C: 3.00237e+07
Printing all the perceptron weights to: perc_weights_0.csv

Avg Lookahead Depth:	4.5897
TOTAL: 5.46359e+07	L2C: 4.6814e+07	LLC: 7.82186e+06	GOOD_L2C: 3.00237e+07
Printing all the perceptron weights to: perc_weights_0.csv

Avg Lookahead Depth:	4.5897
TOTAL: 5.46359e+07	L2C: 4.6814e+07	LLC: 7.82186e+06	GOOD_L2C: 3.00237e+07
Printing all the perceptron weights to: perc_weights_0.csv

DRAM Statistics
 CHANNEL 0
 RQ ROW_BUFFER_HIT:    7987557  ROW_BUFFER_MISS:    5234238
 DBUS_CONGESTED:   18156344
 WQ ROW_BUFFER_HIT:     169486  ROW_BUFFER_MISS:    2564355  FULL:          0

 CHANNEL 1
 RQ ROW_BUFFER_HIT:    7952460  ROW_BUFFER_MISS:    5276777
 DBUS_CONGESTED:   18156344
 WQ ROW_BUFFER_HIT:     169554  ROW_BUFFER_MISS:    2562095  FULL:          0

 AVG_CONGESTED_CYCLE: 13
