Initialize SIGNATURE TABLE
ST_SET: 1
ST_WAY: 256
ST_TAG_BIT: 16
ST_TAG_MASK: ffff

Initialize PATTERN TABLE
PT_SET: 512
PT_WAY: 4
SIG_DELTA_BIT: 7
C_SIG_BIT: 4
C_DELTA_BIT: 4

Initialize PREFETCH FILTER
FILTER_SET: 1024

Initialize PERCEPTRON
PERC_ENTRIES: 4096
PERC_FEATURES: 9

*** ChampSim Multicore Out-of-Order Simulator ***

Warmup Instructions: 20000000
Simulation Instructions: 100000000
Number of CPUs: 8
LLC sets: 16384
LLC ways: 16
Off-chip DRAM Size: 8192 MB Channels: 2 Width: 64-bit Data Rate: 1600 MT/s

CPU 0 runs /scratch/user/djimenez/champsim-traces/speccpu2017/xz/605.mcf_s/605.mcf_s-1644B.champsimtrace.xz
CPU 1 runs /scratch/user/djimenez/champsim-traces/speccpu2017/xz/638.imagick_s/638.imagick_s-4128B.champsimtrace.xz
CPU 2 runs /scratch/user/djimenez/champsim-traces/speccpu2017/xz/603.bwaves_s/603.bwaves_s-1080B.champsimtrace.xz
CPU 3 runs /scratch/user/djimenez/champsim-traces/speccpu2017/xz/649.fotonik3d_s/649.fotonik3d_s-10881B.champsimtrace.xz
CPU 4 runs /scratch/user/djimenez/champsim-traces/speccpu2017/xz/600.perlbench_s/600.perlbench_s-570B.champsimtrace.xz
CPU 5 runs /scratch/user/djimenez/champsim-traces/speccpu2017/xz/623.xalancbmk_s/623.xalancbmk_s-592B.champsimtrace.xz
CPU 6 runs /scratch/user/djimenez/champsim-traces/speccpu2017/xz/602.gcc_s/602.gcc_s-2375B.champsimtrace.xz
CPU 7 runs /scratch/user/djimenez/champsim-traces/speccpu2017/xz/607.cactuBSSN_s/607.cactuBSSN_s-4248B.champsimtrace.xz
Heartbeat CPU 1 instructions: 10000002 cycles: 3808897 heartbeat IPC: 2.62543 cumulative IPC: 2.62543 (Simulation time: 0 hr 2 min 30 sec) 
Heartbeat CPU 2 instructions: 10000003 cycles: 4334874 heartbeat IPC: 2.30687 cumulative IPC: 2.30687 (Simulation time: 0 hr 2 min 52 sec) 
Heartbeat CPU 7 instructions: 10000002 cycles: 4536193 heartbeat IPC: 2.20449 cumulative IPC: 2.20449 (Simulation time: 0 hr 3 min 1 sec) 
Heartbeat CPU 5 instructions: 10000002 cycles: 5041036 heartbeat IPC: 1.98372 cumulative IPC: 1.98372 (Simulation time: 0 hr 3 min 21 sec) 
Heartbeat CPU 4 instructions: 10000000 cycles: 5689825 heartbeat IPC: 1.75752 cumulative IPC: 1.75752 (Simulation time: 0 hr 3 min 48 sec) 
Heartbeat CPU 6 instructions: 10000002 cycles: 6789217 heartbeat IPC: 1.47292 cumulative IPC: 1.47292 (Simulation time: 0 hr 4 min 34 sec) 
Heartbeat CPU 1 instructions: 20000000 cycles: 7617324 heartbeat IPC: 2.62576 cumulative IPC: 2.62559 (Simulation time: 0 hr 5 min 7 sec) 
Heartbeat CPU 3 instructions: 10000001 cycles: 8409920 heartbeat IPC: 1.18907 cumulative IPC: 1.18907 (Simulation time: 0 hr 5 min 39 sec) 
Heartbeat CPU 2 instructions: 20000000 cycles: 8838394 heartbeat IPC: 2.22048 cumulative IPC: 2.26285 (Simulation time: 0 hr 5 min 56 sec) 
Heartbeat CPU 7 instructions: 20000000 cycles: 9072704 heartbeat IPC: 2.20434 cumulative IPC: 2.20441 (Simulation time: 0 hr 6 min 6 sec) 
Heartbeat CPU 5 instructions: 20000000 cycles: 10159992 heartbeat IPC: 1.95352 cumulative IPC: 1.96851 (Simulation time: 0 hr 6 min 49 sec) 
Heartbeat CPU 0 instructions: 10000002 cycles: 10564463 heartbeat IPC: 0.94657 cumulative IPC: 0.94657 (Simulation time: 0 hr 7 min 5 sec) 
Heartbeat CPU 1 instructions: 30000000 cycles: 11425349 heartbeat IPC: 2.62603 cumulative IPC: 0.875247 (Simulation time: 0 hr 7 min 38 sec) 
Heartbeat CPU 4 instructions: 20000000 cycles: 11555911 heartbeat IPC: 1.70471 cumulative IPC: 1.73072 (Simulation time: 0 hr 7 min 43 sec) 
Heartbeat CPU 2 instructions: 30000000 cycles: 12796235 heartbeat IPC: 2.52663 cumulative IPC: 0.78148 (Simulation time: 0 hr 8 min 31 sec) 
Heartbeat CPU 6 instructions: 20000000 cycles: 13334878 heartbeat IPC: 1.52773 cumulative IPC: 1.49983 (Simulation time: 0 hr 8 min 51 sec) 
Heartbeat CPU 7 instructions: 30000000 cycles: 13608982 heartbeat IPC: 2.20445 cumulative IPC: 0.734809 (Simulation time: 0 hr 9 min 2 sec) 
Heartbeat CPU 1 instructions: 40000000 cycles: 15233202 heartbeat IPC: 2.62615 cumulative IPC: 1.31292 (Simulation time: 0 hr 10 min 5 sec) 
Heartbeat CPU 5 instructions: 30000003 cycles: 16151207 heartbeat IPC: 1.66911 cumulative IPC: 0.619149 (Simulation time: 0 hr 10 min 40 sec) 
Heartbeat CPU 2 instructions: 40000000 cycles: 16751593 heartbeat IPC: 2.52822 cumulative IPC: 1.19392 (Simulation time: 0 hr 11 min 3 sec) 
Heartbeat CPU 3 instructions: 20000000 cycles: 16785768 heartbeat IPC: 1.19391 cumulative IPC: 1.19149 (Simulation time: 0 hr 11 min 4 sec) 
Heartbeat CPU 4 instructions: 30000000 cycles: 17417336 heartbeat IPC: 1.70607 cumulative IPC: 0.574141 (Simulation time: 0 hr 11 min 29 sec) 
Heartbeat CPU 7 instructions: 40000000 cycles: 18145877 heartbeat IPC: 2.20415 cumulative IPC: 1.10218 (Simulation time: 0 hr 11 min 56 sec) 
Heartbeat CPU 1 instructions: 50000001 cycles: 19041925 heartbeat IPC: 2.62555 cumulative IPC: 1.57547 (Simulation time: 0 hr 12 min 30 sec) 
Heartbeat CPU 6 instructions: 30000001 cycles: 20192254 heartbeat IPC: 1.45828 cumulative IPC: 0.495239 (Simulation time: 0 hr 13 min 14 sec) 
Heartbeat CPU 2 instructions: 50000000 cycles: 20725218 heartbeat IPC: 2.51659 cumulative IPC: 1.44751 (Simulation time: 0 hr 13 min 35 sec) 
Heartbeat CPU 0 instructions: 20000000 cycles: 21064760 heartbeat IPC: 0.952354 cumulative IPC: 0.949453 (Simulation time: 0 hr 13 min 48 sec) 

Warmup complete CPU 0 instructions: 20000001 cycles: 21064763 (Simulation time: 0 hr 13 min 48 sec) 
Warmup complete CPU 1 instructions: 55311921 cycles: 21064762 (Simulation time: 0 hr 13 min 48 sec) 
Warmup complete CPU 2 instructions: 50848789 cycles: 21064762 (Simulation time: 0 hr 13 min 48 sec) 
Warmup complete CPU 3 instructions: 25111258 cycles: 21064762 (Simulation time: 0 hr 13 min 48 sec) 
Warmup complete CPU 4 instructions: 36345702 cycles: 21064762 (Simulation time: 0 hr 13 min 48 sec) 
Warmup complete CPU 5 instructions: 37520724 cycles: 21064762 (Simulation time: 0 hr 13 min 48 sec) 
Warmup complete CPU 6 instructions: 31446295 cycles: 21064762 (Simulation time: 0 hr 13 min 48 sec) 
Warmup complete CPU 7 instructions: 46434296 cycles: 21064762 (Simulation time: 0 hr 13 min 48 sec) 

Heartbeat CPU 7 instructions: 50000000 cycles: 23515239 heartbeat IPC: 1.86242 cumulative IPC: 1.45511 (Simulation time: 0 hr 14 min 45 sec) 
Heartbeat CPU 1 instructions: 60000000 cycles: 23904551 heartbeat IPC: 2.0565 cumulative IPC: 1.65085 (Simulation time: 0 hr 14 min 54 sec) 
Heartbeat CPU 4 instructions: 40000000 cycles: 25551496 heartbeat IPC: 1.22938 cumulative IPC: 0.814467 (Simulation time: 0 hr 15 min 32 sec) 
Heartbeat CPU 5 instructions: 40000000 cycles: 28458746 heartbeat IPC: 0.81251 cumulative IPC: 0.33531 (Simulation time: 0 hr 16 min 40 sec) 
Heartbeat CPU 2 instructions: 60000000 cycles: 29149781 heartbeat IPC: 1.18701 cumulative IPC: 1.13187 (Simulation time: 0 hr 16 min 56 sec) 
Heartbeat CPU 1 instructions: 70000002 cycles: 29935137 heartbeat IPC: 1.65821 cumulative IPC: 1.65586 (Simulation time: 0 hr 17 min 15 sec) 
Heartbeat CPU 7 instructions: 60000000 cycles: 30404453 heartbeat IPC: 1.45154 cumulative IPC: 1.45248 (Simulation time: 0 hr 17 min 26 sec) 
Heartbeat CPU 3 instructions: 30000000 cycles: 30425703 heartbeat IPC: 0.733141 cumulative IPC: 0.522249 (Simulation time: 0 hr 17 min 26 sec) 
Heartbeat CPU 1 instructions: 80000000 cycles: 35960201 heartbeat IPC: 1.65973 cumulative IPC: 1.65743 (Simulation time: 0 hr 19 min 32 sec) 
Heartbeat CPU 7 instructions: 70000000 cycles: 37156581 heartbeat IPC: 1.48101 cumulative IPC: 1.46445 (Simulation time: 0 hr 19 min 59 sec) 
Heartbeat CPU 2 instructions: 70000000 cycles: 37960055 heartbeat IPC: 1.13504 cumulative IPC: 1.13352 (Simulation time: 0 hr 20 min 18 sec) 
Heartbeat CPU 4 instructions: 50000002 cycles: 38609636 heartbeat IPC: 0.765806 cumulative IPC: 0.77825 (Simulation time: 0 hr 20 min 33 sec) 
Heartbeat CPU 1 instructions: 90000002 cycles: 41979873 heartbeat IPC: 1.66122 cumulative IPC: 1.65852 (Simulation time: 0 hr 21 min 53 sec) 
Heartbeat CPU 7 instructions: 80000000 cycles: 43911313 heartbeat IPC: 1.48044 cumulative IPC: 1.46918 (Simulation time: 0 hr 22 min 39 sec) 
Heartbeat CPU 6 instructions: 40000000 cycles: 44208715 heartbeat IPC: 0.416381 cumulative IPC: 0.369587 (Simulation time: 0 hr 22 min 46 sec) 
Heartbeat CPU 2 instructions: 80000000 cycles: 46788149 heartbeat IPC: 1.13275 cumulative IPC: 1.13326 (Simulation time: 0 hr 23 min 45 sec) 
Heartbeat CPU 1 instructions: 100000000 cycles: 48006580 heartbeat IPC: 1.65928 cumulative IPC: 1.65869 (Simulation time: 0 hr 24 min 12 sec) 
Heartbeat CPU 3 instructions: 40000000 cycles: 50327984 heartbeat IPC: 0.502455 cumulative IPC: 0.508787 (Simulation time: 0 hr 25 min 5 sec) 
Heartbeat CPU 7 instructions: 90000000 cycles: 50660846 heartbeat IPC: 1.48158 cumulative IPC: 1.47201 (Simulation time: 0 hr 25 min 13 sec) 
Heartbeat CPU 4 instructions: 60000000 cycles: 51536244 heartbeat IPC: 0.773598 cumulative IPC: 0.776277 (Simulation time: 0 hr 25 min 35 sec) 
Heartbeat CPU 1 instructions: 110000001 cycles: 54030211 heartbeat IPC: 1.66013 cumulative IPC: 1.65895 (Simulation time: 0 hr 26 min 35 sec) 
Heartbeat CPU 2 instructions: 90000000 cycles: 55642013 heartbeat IPC: 1.12945 cumulative IPC: 1.13228 (Simulation time: 0 hr 27 min 10 sec) 
Heartbeat CPU 5 instructions: 50000002 cycles: 56689351 heartbeat IPC: 0.354226 cumulative IPC: 0.3503 (Simulation time: 0 hr 27 min 33 sec) 
Heartbeat CPU 7 instructions: 100000000 cycles: 57409947 heartbeat IPC: 1.48168 cumulative IPC: 1.4738 (Simulation time: 0 hr 27 min 49 sec) 
Heartbeat CPU 1 instructions: 120000000 cycles: 60056599 heartbeat IPC: 1.65937 cumulative IPC: 1.65902 (Simulation time: 0 hr 28 min 50 sec) 
Heartbeat CPU 7 instructions: 110000000 cycles: 64160108 heartbeat IPC: 1.48145 cumulative IPC: 1.475 (Simulation time: 0 hr 30 min 23 sec) 
Heartbeat CPU 2 instructions: 100000000 cycles: 64494046 heartbeat IPC: 1.12968 cumulative IPC: 1.13175 (Simulation time: 0 hr 30 min 31 sec) 
Heartbeat CPU 1 instructions: 130000003 cycles: 66083822 heartbeat IPC: 1.65914 cumulative IPC: 1.65903 (Simulation time: 0 hr 31 min 10 sec) 
Heartbeat CPU 6 instructions: 50000000 cycles: 66837085 heartbeat IPC: 0.441923 cumulative IPC: 0.405348 (Simulation time: 0 hr 31 min 27 sec) 
Heartbeat CPU 3 instructions: 50000001 cycles: 69817631 heartbeat IPC: 0.513093 cumulative IPC: 0.510508 (Simulation time: 0 hr 32 min 32 sec) 
Heartbeat CPU 7 instructions: 120000000 cycles: 70908014 heartbeat IPC: 1.48194 cumulative IPC: 1.47594 (Simulation time: 0 hr 32 min 55 sec) 
Heartbeat CPU 1 instructions: 140000000 cycles: 72106866 heartbeat IPC: 1.66029 cumulative IPC: 1.65918 (Simulation time: 0 hr 33 min 21 sec) 
Heartbeat CPU 4 instructions: 70000002 cycles: 72776768 heartbeat IPC: 0.470798 cumulative IPC: 0.650802 (Simulation time: 0 hr 33 min 36 sec) 
Heartbeat CPU 2 instructions: 110000001 cycles: 73302723 heartbeat IPC: 1.13524 cumulative IPC: 1.13234 (Simulation time: 0 hr 33 min 47 sec) 
Heartbeat CPU 7 instructions: 130000001 cycles: 77662844 heartbeat IPC: 1.48042 cumulative IPC: 1.47648 (Simulation time: 0 hr 35 min 23 sec) 
Heartbeat CPU 0 instructions: 30000003 cycles: 77729157 heartbeat IPC: 0.176478 cumulative IPC: 0.176478 (Simulation time: 0 hr 35 min 24 sec) 
Heartbeat CPU 1 instructions: 150000002 cycles: 78108989 heartbeat IPC: 1.66608 cumulative IPC: 1.65991 (Simulation time: 0 hr 35 min 33 sec) 
Finished CPU 1 instructions: 100000001 cycles: 60242173 cumulative IPC: 1.65997 (Simulation time: 0 hr 36 min 41 sec) 
Heartbeat CPU 2 instructions: 120000000 cycles: 82078413 heartbeat IPC: 1.13951 cumulative IPC: 1.13337 (Simulation time: 0 hr 36 min 59 sec) 
Heartbeat CPU 5 instructions: 60000000 cycles: 83130673 heartbeat IPC: 0.378196 cumulative IPC: 0.362184 (Simulation time: 0 hr 37 min 21 sec) 
Heartbeat CPU 1 instructions: 160000000 cycles: 84125789 heartbeat IPC: 1.66201 cumulative IPC: 1.66011 (Simulation time: 0 hr 37 min 43 sec) 
Heartbeat CPU 7 instructions: 140000000 cycles: 84413680 heartbeat IPC: 1.4813 cumulative IPC: 1.47699 (Simulation time: 0 hr 37 min 49 sec) 
Heartbeat CPU 6 instructions: 60000000 cycles: 87972428 heartbeat IPC: 0.473141 cumulative IPC: 0.426763 (Simulation time: 0 hr 39 min 8 sec) 
Finished CPU 7 instructions: 100000000 cycles: 67693095 cumulative IPC: 1.47726 (Simulation time: 0 hr 39 min 25 sec) 
Heartbeat CPU 3 instructions: 60000000 cycles: 89353224 heartbeat IPC: 0.511886 cumulative IPC: 0.510902 (Simulation time: 0 hr 39 min 38 sec) 
Heartbeat CPU 1 instructions: 170000002 cycles: 90115558 heartbeat IPC: 1.66951 cumulative IPC: 1.66092 (Simulation time: 0 hr 39 min 54 sec) 
Heartbeat CPU 2 instructions: 130000000 cycles: 90840735 heartbeat IPC: 1.14125 cumulative IPC: 1.13436 (Simulation time: 0 hr 40 min 10 sec) 
Heartbeat CPU 7 instructions: 150000001 cycles: 91163450 heartbeat IPC: 1.48153 cumulative IPC: 1.47743 (Simulation time: 0 hr 40 min 17 sec) 
Heartbeat CPU 4 instructions: 80000000 cycles: 94825972 heartbeat IPC: 0.453531 cumulative IPC: 0.591833 (Simulation time: 0 hr 41 min 37 sec) 
Heartbeat CPU 1 instructions: 180000000 cycles: 96122702 heartbeat IPC: 1.66468 cumulative IPC: 1.66122 (Simulation time: 0 hr 42 min 3 sec) 
Heartbeat CPU 7 instructions: 160000000 cycles: 97914934 heartbeat IPC: 1.48116 cumulative IPC: 1.47775 (Simulation time: 0 hr 42 min 41 sec) 
Heartbeat CPU 2 instructions: 140000000 cycles: 99603872 heartbeat IPC: 1.14114 cumulative IPC: 1.13512 (Simulation time: 0 hr 43 min 17 sec) 
Heartbeat CPU 1 instructions: 190000002 cycles: 102135487 heartbeat IPC: 1.66312 cumulative IPC: 1.66137 (Simulation time: 0 hr 44 min 9 sec) 
Heartbeat CPU 7 instructions: 170000001 cycles: 104667158 heartbeat IPC: 1.48099 cumulative IPC: 1.47802 (Simulation time: 0 hr 45 min 3 sec) 
Heartbeat CPU 1 instructions: 200000000 cycles: 108142373 heartbeat IPC: 1.66476 cumulative IPC: 1.6616 (Simulation time: 0 hr 46 min 16 sec) 
Heartbeat CPU 5 instructions: 70000001 cycles: 108372686 heartbeat IPC: 0.396165 cumulative IPC: 0.372008 (Simulation time: 0 hr 46 min 21 sec) 
Heartbeat CPU 2 instructions: 150000002 cycles: 108436916 heartbeat IPC: 1.13211 cumulative IPC: 1.13481 (Simulation time: 0 hr 46 min 23 sec) 
Heartbeat CPU 3 instructions: 70000003 cycles: 108478722 heartbeat IPC: 0.522862 cumulative IPC: 0.513519 (Simulation time: 0 hr 46 min 23 sec) 
Finished CPU 2 instructions: 100000002 cycles: 88113285 cumulative IPC: 1.1349 (Simulation time: 0 hr 46 min 38 sec) 
Heartbeat CPU 7 instructions: 180000000 cycles: 111418915 heartbeat IPC: 1.4811 cumulative IPC: 1.47825 (Simulation time: 0 hr 47 min 25 sec) 
Heartbeat CPU 1 instructions: 210000003 cycles: 114160450 heartbeat IPC: 1.66166 cumulative IPC: 1.6616 (Simulation time: 0 hr 48 min 23 sec) 
Heartbeat CPU 2 instructions: 160000000 cycles: 117258931 heartbeat IPC: 1.13353 cumulative IPC: 1.1347 (Simulation time: 0 hr 49 min 30 sec) 
Heartbeat CPU 6 instructions: 70000000 cycles: 117626249 heartbeat IPC: 0.337225 cumulative IPC: 0.399266 (Simulation time: 0 hr 49 min 38 sec) 
Heartbeat CPU 7 instructions: 190000002 cycles: 118172314 heartbeat IPC: 1.48074 cumulative IPC: 1.47842 (Simulation time: 0 hr 49 min 50 sec) 
Heartbeat CPU 1 instructions: 220000000 cycles: 120177166 heartbeat IPC: 1.66204 cumulative IPC: 1.66163 (Simulation time: 0 hr 50 min 33 sec) 
Heartbeat CPU 4 instructions: 90000002 cycles: 122596946 heartbeat IPC: 0.360088 cumulative IPC: 0.528446 (Simulation time: 0 hr 51 min 26 sec) 
Heartbeat CPU 7 instructions: 200000000 cycles: 124925659 heartbeat IPC: 1.48075 cumulative IPC: 1.47857 (Simulation time: 0 hr 52 min 20 sec) 
Heartbeat CPU 2 instructions: 170000002 cycles: 126135965 heartbeat IPC: 1.1265 cumulative IPC: 1.134 (Simulation time: 0 hr 52 min 48 sec) 
Heartbeat CPU 1 instructions: 230000001 cycles: 126174494 heartbeat IPC: 1.66741 cumulative IPC: 1.66196 (Simulation time: 0 hr 52 min 49 sec) 
Heartbeat CPU 5 instructions: 80000000 cycles: 127289784 heartbeat IPC: 0.528622 cumulative IPC: 0.399899 (Simulation time: 0 hr 53 min 15 sec) 
Heartbeat CPU 3 instructions: 80000000 cycles: 127881508 heartbeat IPC: 0.51539 cumulative IPC: 0.513859 (Simulation time: 0 hr 53 min 28 sec) 
Heartbeat CPU 7 instructions: 210000000 cycles: 131677131 heartbeat IPC: 1.48116 cumulative IPC: 1.47873 (Simulation time: 0 hr 54 min 54 sec) 
Heartbeat CPU 1 instructions: 240000000 cycles: 132194882 heartbeat IPC: 1.66102 cumulative IPC: 1.66191 (Simulation time: 0 hr 55 min 6 sec) 
Heartbeat CPU 0 instructions: 40000000 cycles: 134492476 heartbeat IPC: 0.17617 cumulative IPC: 0.176324 (Simulation time: 0 hr 55 min 59 sec) 
Heartbeat CPU 2 instructions: 180000000 cycles: 134945014 heartbeat IPC: 1.1352 cumulative IPC: 1.1341 (Simulation time: 0 hr 56 min 9 sec) 
Heartbeat CPU 4 instructions: 100000000 cycles: 136703263 heartbeat IPC: 0.708902 cumulative IPC: 0.550459 (Simulation time: 0 hr 56 min 50 sec) 
Heartbeat CPU 6 instructions: 80000000 cycles: 138089106 heartbeat IPC: 0.48869 cumulative IPC: 0.414903 (Simulation time: 0 hr 57 min 23 sec) 
Heartbeat CPU 1 instructions: 250000002 cycles: 138203842 heartbeat IPC: 1.66418 cumulative IPC: 1.66202 (Simulation time: 0 hr 57 min 25 sec) 
Heartbeat CPU 7 instructions: 220000000 cycles: 138430642 heartbeat IPC: 1.48071 cumulative IPC: 1.47884 (Simulation time: 0 hr 57 min 31 sec) 
Heartbeat CPU 2 instructions: 190000001 cycles: 143805682 heartbeat IPC: 1.12858 cumulative IPC: 1.1337 (Simulation time: 0 hr 59 min 33 sec) 
Heartbeat CPU 1 instructions: 260000000 cycles: 144220911 heartbeat IPC: 1.66194 cumulative IPC: 1.66202 (Simulation time: 0 hr 59 min 42 sec) 
Heartbeat CPU 5 instructions: 90000000 cycles: 144848691 heartbeat IPC: 0.569512 cumulative IPC: 0.423959 (Simulation time: 0 hr 59 min 56 sec) 
Heartbeat CPU 7 instructions: 230000001 cycles: 145179946 heartbeat IPC: 1.48163 cumulative IPC: 1.47899 (Simulation time: 1 hr 0 min 4 sec) 
Heartbeat CPU 3 instructions: 90000000 cycles: 147117512 heartbeat IPC: 0.519858 cumulative IPC: 0.514775 (Simulation time: 1 hr 0 min 48 sec) 
Heartbeat CPU 1 instructions: 270000003 cycles: 150234857 heartbeat IPC: 1.6628 cumulative IPC: 1.66206 (Simulation time: 1 hr 2 min 0 sec) 
Heartbeat CPU 4 instructions: 110000000 cycles: 150621654 heartbeat IPC: 0.718474 cumulative IPC: 0.568509 (Simulation time: 1 hr 2 min 8 sec) 
Heartbeat CPU 7 instructions: 240000000 cycles: 151927464 heartbeat IPC: 1.48203 cumulative IPC: 1.47915 (Simulation time: 1 hr 2 min 37 sec) 
Heartbeat CPU 2 instructions: 200000000 cycles: 152675317 heartbeat IPC: 1.12744 cumulative IPC: 1.13328 (Simulation time: 1 hr 2 min 54 sec) 
Heartbeat CPU 1 instructions: 280000000 cycles: 156262882 heartbeat IPC: 1.65892 cumulative IPC: 1.66192 (Simulation time: 1 hr 4 min 14 sec) 
Heartbeat CPU 6 instructions: 90000003 cycles: 156413760 heartbeat IPC: 0.545713 cumulative IPC: 0.432613 (Simulation time: 1 hr 4 min 18 sec) 
Heartbeat CPU 7 instructions: 250000000 cycles: 158683129 heartbeat IPC: 1.48024 cumulative IPC: 1.4792 (Simulation time: 1 hr 5 min 8 sec) 
Heartbeat CPU 2 instructions: 210000003 cycles: 161505018 heartbeat IPC: 1.13254 cumulative IPC: 1.13323 (Simulation time: 1 hr 6 min 11 sec) 
Heartbeat CPU 1 instructions: 290000002 cycles: 162265140 heartbeat IPC: 1.66604 cumulative IPC: 1.66209 (Simulation time: 1 hr 6 min 28 sec) 
Heartbeat CPU 7 instructions: 260000000 cycles: 165431832 heartbeat IPC: 1.48177 cumulative IPC: 1.47932 (Simulation time: 1 hr 7 min 38 sec) 
Heartbeat CPU 5 instructions: 100000000 cycles: 165465975 heartbeat IPC: 0.48503 cumulative IPC: 0.432678 (Simulation time: 1 hr 7 min 38 sec) 
Heartbeat CPU 4 instructions: 120000000 cycles: 165715911 heartbeat IPC: 0.662504 cumulative IPC: 0.578318 (Simulation time: 1 hr 7 min 44 sec) 
Heartbeat CPU 3 instructions: 100000000 cycles: 166367725 heartbeat IPC: 0.519475 cumulative IPC: 0.515397 (Simulation time: 1 hr 7 min 59 sec) 
Heartbeat CPU 1 instructions: 300000000 cycles: 168254492 heartbeat IPC: 1.66963 cumulative IPC: 1.6624 (Simulation time: 1 hr 8 min 40 sec) 
Heartbeat CPU 2 instructions: 220000000 cycles: 170359741 heartbeat IPC: 1.12934 cumulative IPC: 1.133 (Simulation time: 1 hr 9 min 26 sec) 
Heartbeat CPU 7 instructions: 270000002 cycles: 172174072 heartbeat IPC: 1.48319 cumulative IPC: 1.4795 (Simulation time: 1 hr 10 min 6 sec) 
Heartbeat CPU 1 instructions: 310000001 cycles: 174265367 heartbeat IPC: 1.66365 cumulative IPC: 1.66245 (Simulation time: 1 hr 10 min 52 sec) 
Heartbeat CPU 7 instructions: 280000000 cycles: 178923406 heartbeat IPC: 1.48163 cumulative IPC: 1.47959 (Simulation time: 1 hr 12 min 35 sec) 
Heartbeat CPU 2 instructions: 230000001 cycles: 179194632 heartbeat IPC: 1.13188 cumulative IPC: 1.13294 (Simulation time: 1 hr 12 min 41 sec) 
Heartbeat CPU 1 instructions: 320000000 cycles: 180292528 heartbeat IPC: 1.65916 cumulative IPC: 1.66232 (Simulation time: 1 hr 13 min 5 sec) 
Heartbeat CPU 4 instructions: 130000000 cycles: 180665743 heartbeat IPC: 0.668904 cumulative IPC: 0.586803 (Simulation time: 1 hr 13 min 13 sec) 
Heartbeat CPU 6 instructions: 100000000 cycles: 183668986 heartbeat IPC: 0.366902 cumulative IPC: 0.421599 (Simulation time: 1 hr 14 min 14 sec) 
Heartbeat CPU 7 instructions: 290000000 cycles: 185671109 heartbeat IPC: 1.48199 cumulative IPC: 1.47969 (Simulation time: 1 hr 14 min 55 sec) 
Heartbeat CPU 1 instructions: 330000000 cycles: 186311543 heartbeat IPC: 1.6614 cumulative IPC: 1.66229 (Simulation time: 1 hr 15 min 8 sec) 
Heartbeat CPU 3 instructions: 110000002 cycles: 186359250 heartbeat IPC: 0.500212 cumulative IPC: 0.513561 (Simulation time: 1 hr 15 min 9 sec) 
Heartbeat CPU 2 instructions: 240000000 cycles: 188055250 heartbeat IPC: 1.12859 cumulative IPC: 1.13271 (Simulation time: 1 hr 15 min 44 sec) 
Heartbeat CPU 0 instructions: 50000001 cycles: 191142620 heartbeat IPC: 0.176522 cumulative IPC: 0.17639 (Simulation time: 1 hr 16 min 45 sec) 
Heartbeat CPU 1 instructions: 340000000 cycles: 192322470 heartbeat IPC: 1.66364 cumulative IPC: 1.66234 (Simulation time: 1 hr 17 min 10 sec) 
Heartbeat CPU 7 instructions: 300000000 cycles: 192418159 heartbeat IPC: 1.48213 cumulative IPC: 1.47978 (Simulation time: 1 hr 17 min 12 sec) 
Heartbeat CPU 5 instructions: 110000001 cycles: 194691329 heartbeat IPC: 0.342169 cumulative IPC: 0.417443 (Simulation time: 1 hr 17 min 59 sec) 
Heartbeat CPU 2 instructions: 250000003 cycles: 196915760 heartbeat IPC: 1.1286 cumulative IPC: 1.1325 (Simulation time: 1 hr 18 min 46 sec) 
Heartbeat CPU 1 instructions: 350000001 cycles: 198330654 heartbeat IPC: 1.6644 cumulative IPC: 1.66241 (Simulation time: 1 hr 19 min 15 sec) 
Finished CPU 4 instructions: 100000000 cycles: 177959651 cumulative IPC: 0.561925 (Simulation time: 1 hr 19 min 29 sec) 
Heartbeat CPU 7 instructions: 310000000 cycles: 199170993 heartbeat IPC: 1.48086 cumulative IPC: 1.47982 (Simulation time: 1 hr 19 min 32 sec) 
Heartbeat CPU 1 instructions: 360000000 cycles: 204351166 heartbeat IPC: 1.66099 cumulative IPC: 1.66236 (Simulation time: 1 hr 21 min 19 sec) 
Heartbeat CPU 2 instructions: 260000000 cycles: 205758627 heartbeat IPC: 1.13085 cumulative IPC: 1.13242 (Simulation time: 1 hr 21 min 48 sec) 
Heartbeat CPU 3 instructions: 120000000 cycles: 205853247 heartbeat IPC: 0.512978 cumulative IPC: 0.513499 (Simulation time: 1 hr 21 min 50 sec) 
Heartbeat CPU 7 instructions: 320000000 cycles: 205926202 heartbeat IPC: 1.48034 cumulative IPC: 1.47984 (Simulation time: 1 hr 21 min 51 sec) 
Heartbeat CPU 4 instructions: 140000000 cycles: 208682430 heartbeat IPC: 0.35693 cumulative IPC: 0.552476 (Simulation time: 1 hr 22 min 50 sec) 
Heartbeat CPU 1 instructions: 370000000 cycles: 210370173 heartbeat IPC: 1.6614 cumulative IPC: 1.66233 (Simulation time: 1 hr 23 min 25 sec) 
Heartbeat CPU 6 instructions: 110000000 cycles: 211475982 heartbeat IPC: 0.359622 cumulative IPC: 0.412548 (Simulation time: 1 hr 23 min 50 sec) 
Heartbeat CPU 7 instructions: 330000001 cycles: 212679572 heartbeat IPC: 1.48074 cumulative IPC: 1.47987 (Simulation time: 1 hr 24 min 16 sec) 
Heartbeat CPU 2 instructions: 270000001 cycles: 214617054 heartbeat IPC: 1.12887 cumulative IPC: 1.13226 (Simulation time: 1 hr 24 min 55 sec) 
Finished CPU 3 instructions: 100000001 cycles: 194972859 cumulative IPC: 0.512892 (Simulation time: 1 hr 25 min 25 sec) 
Heartbeat CPU 1 instructions: 380000000 cycles: 216387716 heartbeat IPC: 1.66181 cumulative IPC: 1.66231 (Simulation time: 1 hr 25 min 32 sec) 
Heartbeat CPU 7 instructions: 340000000 cycles: 219428015 heartbeat IPC: 1.48182 cumulative IPC: 1.47994 (Simulation time: 1 hr 26 min 35 sec) 
Heartbeat CPU 1 instructions: 390000000 cycles: 222398024 heartbeat IPC: 1.66381 cumulative IPC: 1.66236 (Simulation time: 1 hr 27 min 38 sec) 
Heartbeat CPU 2 instructions: 280000000 cycles: 223477103 heartbeat IPC: 1.12866 cumulative IPC: 1.1321 (Simulation time: 1 hr 28 min 0 sec) 
Heartbeat CPU 5 instructions: 120000000 cycles: 225359524 heartbeat IPC: 0.326071 cumulative IPC: 0.403727 (Simulation time: 1 hr 28 min 40 sec) 
Heartbeat CPU 3 instructions: 130000001 cycles: 225523588 heartbeat IPC: 0.50838 cumulative IPC: 0.513007 (Simulation time: 1 hr 28 min 43 sec) 
Heartbeat CPU 7 instructions: 350000002 cycles: 226182386 heartbeat IPC: 1.48052 cumulative IPC: 1.47996 (Simulation time: 1 hr 28 min 57 sec) 
Heartbeat CPU 1 instructions: 400000000 cycles: 228424261 heartbeat IPC: 1.65941 cumulative IPC: 1.66227 (Simulation time: 1 hr 29 min 43 sec) 
Heartbeat CPU 2 instructions: 290000001 cycles: 232311996 heartbeat IPC: 1.13188 cumulative IPC: 1.13209 (Simulation time: 1 hr 31 min 2 sec) 
Heartbeat CPU 7 instructions: 360000000 cycles: 232938901 heartbeat IPC: 1.48005 cumulative IPC: 1.47996 (Simulation time: 1 hr 31 min 15 sec) 
Heartbeat CPU 1 instructions: 410000003 cycles: 234443067 heartbeat IPC: 1.66146 cumulative IPC: 1.66225 (Simulation time: 1 hr 31 min 45 sec) 
Heartbeat CPU 4 instructions: 150000001 cycles: 234934223 heartbeat IPC: 0.380926 cumulative IPC: 0.531419 (Simulation time: 1 hr 31 min 56 sec) 
Heartbeat CPU 7 instructions: 370000001 cycles: 239686406 heartbeat IPC: 1.48203 cumulative IPC: 1.48003 (Simulation time: 1 hr 33 min 34 sec) 
Heartbeat CPU 1 instructions: 420000000 cycles: 240446555 heartbeat IPC: 1.6657 cumulative IPC: 1.66234 (Simulation time: 1 hr 33 min 49 sec) 
Heartbeat CPU 2 instructions: 300000000 cycles: 241172570 heartbeat IPC: 1.12859 cumulative IPC: 1.13195 (Simulation time: 1 hr 34 min 4 sec) 
Heartbeat CPU 6 instructions: 120000000 cycles: 244628709 heartbeat IPC: 0.301634 cumulative IPC: 0.3961 (Simulation time: 1 hr 35 min 15 sec) 
Heartbeat CPU 3 instructions: 140000000 cycles: 245397015 heartbeat IPC: 0.503184 cumulative IPC: 0.512137 (Simulation time: 1 hr 35 min 31 sec) 
Heartbeat CPU 7 instructions: 380000000 cycles: 246440968 heartbeat IPC: 1.48048 cumulative IPC: 1.48004 (Simulation time: 1 hr 35 min 53 sec) 
Heartbeat CPU 1 instructions: 430000000 cycles: 246462091 heartbeat IPC: 1.66236 cumulative IPC: 1.66234 (Simulation time: 1 hr 35 min 53 sec) 
Heartbeat CPU 0 instructions: 60000000 cycles: 247831512 heartbeat IPC: 0.176401 cumulative IPC: 0.176393 (Simulation time: 1 hr 36 min 21 sec) 
Heartbeat CPU 2 instructions: 310000001 cycles: 250004680 heartbeat IPC: 1.13223 cumulative IPC: 1.13196 (Simulation time: 1 hr 37 min 8 sec) 
Heartbeat CPU 1 instructions: 440000000 cycles: 252489488 heartbeat IPC: 1.65909 cumulative IPC: 1.66226 (Simulation time: 1 hr 38 min 1 sec) 
Heartbeat CPU 7 instructions: 390000002 cycles: 253186525 heartbeat IPC: 1.48246 cumulative IPC: 1.48011 (Simulation time: 1 hr 38 min 15 sec) 
Heartbeat CPU 5 instructions: 130000002 cycles: 253303385 heartbeat IPC: 0.35786 cumulative IPC: 0.398208 (Simulation time: 1 hr 38 min 18 sec) 
Heartbeat CPU 4 instructions: 160000000 cycles: 256399763 heartbeat IPC: 0.465863 cumulative IPC: 0.525439 (Simulation time: 1 hr 39 min 26 sec) 
Heartbeat CPU 1 instructions: 450000001 cycles: 258520785 heartbeat IPC: 1.65802 cumulative IPC: 1.66215 (Simulation time: 1 hr 40 min 12 sec) 
Heartbeat CPU 2 instructions: 320000000 cycles: 258861093 heartbeat IPC: 1.12913 cumulative IPC: 1.13186 (Simulation time: 1 hr 40 min 20 sec) 
Heartbeat CPU 7 instructions: 400000000 cycles: 259938526 heartbeat IPC: 1.48104 cumulative IPC: 1.48014 (Simulation time: 1 hr 40 min 44 sec) 
Heartbeat CPU 1 instructions: 460000000 cycles: 264958610 heartbeat IPC: 1.55332 cumulative IPC: 1.65928 (Simulation time: 1 hr 42 min 30 sec) 
Heartbeat CPU 3 instructions: 150000001 cycles: 265526234 heartbeat IPC: 0.49679 cumulative IPC: 0.510873 (Simulation time: 1 hr 42 min 42 sec) 
Heartbeat CPU 7 instructions: 410000000 cycles: 266695349 heartbeat IPC: 1.47999 cumulative IPC: 1.48013 (Simulation time: 1 hr 43 min 8 sec) 
Heartbeat CPU 2 instructions: 330000003 cycles: 267699959 heartbeat IPC: 1.13137 cumulative IPC: 1.13184 (Simulation time: 1 hr 43 min 29 sec) 
Heartbeat CPU 1 instructions: 470000003 cycles: 270985751 heartbeat IPC: 1.65916 cumulative IPC: 1.65928 (Simulation time: 1 hr 44 min 42 sec) 
Heartbeat CPU 4 instructions: 170000003 cycles: 272320013 heartbeat IPC: 0.628131 cumulative IPC: 0.531946 (Simulation time: 1 hr 45 min 10 sec) 
Heartbeat CPU 6 instructions: 130000003 cycles: 272805482 heartbeat IPC: 0.354902 cumulative IPC: 0.391489 (Simulation time: 1 hr 45 min 21 sec) 
Finished CPU 5 instructions: 100000003 cycles: 252136836 cumulative IPC: 0.39661 (Simulation time: 1 hr 45 min 29 sec) 
Heartbeat CPU 7 instructions: 420000000 cycles: 273442666 heartbeat IPC: 1.48207 cumulative IPC: 1.48018 (Simulation time: 1 hr 45 min 34 sec) 
Heartbeat CPU 2 instructions: 340000000 cycles: 276514094 heartbeat IPC: 1.13454 cumulative IPC: 1.13193 (Simulation time: 1 hr 46 min 40 sec) 
Heartbeat CPU 1 instructions: 480000000 cycles: 277004241 heartbeat IPC: 1.66155 cumulative IPC: 1.65933 (Simulation time: 1 hr 46 min 51 sec) 
Finished CPU 6 instructions: 100000002 cycles: 256913135 cumulative IPC: 0.389237 (Simulation time: 1 hr 47 min 12 sec) 
Heartbeat CPU 5 instructions: 140000000 cycles: 279586862 heartbeat IPC: 0.380467 cumulative IPC: 0.396404 (Simulation time: 1 hr 47 min 48 sec) 
Heartbeat CPU 7 instructions: 430000000 cycles: 280195114 heartbeat IPC: 1.48094 cumulative IPC: 1.4802 (Simulation time: 1 hr 48 min 1 sec) 
Heartbeat CPU 1 instructions: 490000003 cycles: 283016432 heartbeat IPC: 1.66329 cumulative IPC: 1.65942 (Simulation time: 1 hr 49 min 3 sec) 
Heartbeat CPU 3 instructions: 160000000 cycles: 285178087 heartbeat IPC: 0.508858 cumulative IPC: 0.510723 (Simulation time: 1 hr 49 min 49 sec) 
Heartbeat CPU 2 instructions: 350000003 cycles: 285280586 heartbeat IPC: 1.14071 cumulative IPC: 1.13222 (Simulation time: 1 hr 49 min 51 sec) 
Heartbeat CPU 7 instructions: 440000000 cycles: 286944946 heartbeat IPC: 1.48152 cumulative IPC: 1.48024 (Simulation time: 1 hr 50 min 25 sec) 
Heartbeat CPU 1 instructions: 500000000 cycles: 289017403 heartbeat IPC: 1.6664 cumulative IPC: 1.65958 (Simulation time: 1 hr 51 min 9 sec) 
Heartbeat CPU 4 instructions: 180000000 cycles: 292519033 heartbeat IPC: 0.495073 cumulative IPC: 0.529203 (Simulation time: 1 hr 52 min 23 sec) 
Heartbeat CPU 7 instructions: 450000002 cycles: 293697272 heartbeat IPC: 1.48097 cumulative IPC: 1.48026 (Simulation time: 1 hr 52 min 46 sec) 
Heartbeat CPU 2 instructions: 360000000 cycles: 294028278 heartbeat IPC: 1.14316 cumulative IPC: 1.13257 (Simulation time: 1 hr 52 min 53 sec) 
Heartbeat CPU 1 instructions: 510000003 cycles: 295029433 heartbeat IPC: 1.66333 cumulative IPC: 1.65966 (Simulation time: 1 hr 53 min 14 sec) 
Heartbeat CPU 7 instructions: 460000000 cycles: 300437415 heartbeat IPC: 1.48365 cumulative IPC: 1.48034 (Simulation time: 1 hr 55 min 10 sec) 
Heartbeat CPU 1 instructions: 520000000 cycles: 301027641 heartbeat IPC: 1.66716 cumulative IPC: 1.65982 (Simulation time: 1 hr 55 min 22 sec) 
Heartbeat CPU 5 instructions: 150000000 cycles: 301544580 heartbeat IPC: 0.455421 cumulative IPC: 0.401024 (Simulation time: 1 hr 55 min 34 sec) 
Heartbeat CPU 2 instructions: 370000001 cycles: 302791933 heartbeat IPC: 1.14108 cumulative IPC: 1.13284 (Simulation time: 1 hr 56 min 1 sec) 
Heartbeat CPU 6 instructions: 140000000 cycles: 303829123 heartbeat IPC: 0.322335 cumulative IPC: 0.383902 (Simulation time: 1 hr 56 min 23 sec) 
Heartbeat CPU 3 instructions: 170000000 cycles: 304466178 heartbeat IPC: 0.518455 cumulative IPC: 0.511249 (Simulation time: 1 hr 56 min 37 sec) 
Heartbeat CPU 0 instructions: 70000000 cycles: 304494449 heartbeat IPC: 0.176482 cumulative IPC: 0.176411 (Simulation time: 1 hr 56 min 37 sec) 
Heartbeat CPU 1 instructions: 530000002 cycles: 307022268 heartbeat IPC: 1.66816 cumulative IPC: 1.66 (Simulation time: 1 hr 57 min 30 sec) 
Heartbeat CPU 7 instructions: 470000003 cycles: 307182730 heartbeat IPC: 1.48251 cumulative IPC: 1.48039 (Simulation time: 1 hr 57 min 34 sec) 
Heartbeat CPU 2 instructions: 380000000 cycles: 311602707 heartbeat IPC: 1.13497 cumulative IPC: 1.1329 (Simulation time: 1 hr 59 min 8 sec) 
Heartbeat CPU 1 instructions: 540000000 cycles: 313028909 heartbeat IPC: 1.66482 cumulative IPC: 1.66009 (Simulation time: 1 hr 59 min 38 sec) 
Heartbeat CPU 7 instructions: 480000000 cycles: 313928980 heartbeat IPC: 1.4823 cumulative IPC: 1.48043 (Simulation time: 1 hr 59 min 57 sec) 
Heartbeat CPU 1 instructions: 550000002 cycles: 319037429 heartbeat IPC: 1.6643 cumulative IPC: 1.66018 (Simulation time: 2 hr 1 min 43 sec) 
Heartbeat CPU 5 instructions: 160000000 cycles: 319431521 heartbeat IPC: 0.559067 cumulative IPC: 0.410499 (Simulation time: 2 hr 1 min 52 sec) 
Heartbeat CPU 4 instructions: 190000003 cycles: 320444645 heartbeat IPC: 0.358094 cumulative IPC: 0.513242 (Simulation time: 2 hr 2 min 14 sec) 
Heartbeat CPU 2 instructions: 390000000 cycles: 320479485 heartbeat IPC: 1.12653 cumulative IPC: 1.13271 (Simulation time: 2 hr 2 min 14 sec) 
Heartbeat CPU 7 instructions: 490000000 cycles: 320681597 heartbeat IPC: 1.48091 cumulative IPC: 1.48044 (Simulation time: 2 hr 2 min 18 sec) 
Heartbeat CPU 3 instructions: 180000000 cycles: 324388107 heartbeat IPC: 0.501959 cumulative IPC: 0.510639 (Simulation time: 2 hr 3 min 37 sec) 
Heartbeat CPU 1 instructions: 560000000 cycles: 325046950 heartbeat IPC: 1.66403 cumulative IPC: 1.66026 (Simulation time: 2 hr 3 min 51 sec) 
Heartbeat CPU 7 instructions: 500000000 cycles: 327430379 heartbeat IPC: 1.48175 cumulative IPC: 1.48047 (Simulation time: 2 hr 4 min 42 sec) 
Heartbeat CPU 2 instructions: 400000000 cycles: 329290195 heartbeat IPC: 1.13498 cumulative IPC: 1.13278 (Simulation time: 2 hr 5 min 21 sec) 
Heartbeat CPU 1 instructions: 570000001 cycles: 331055665 heartbeat IPC: 1.66425 cumulative IPC: 1.66033 (Simulation time: 2 hr 5 min 58 sec) 
Heartbeat CPU 6 instructions: 150000000 cycles: 331613334 heartbeat IPC: 0.359917 cumulative IPC: 0.381756 (Simulation time: 2 hr 6 min 9 sec) 
Heartbeat CPU 7 instructions: 510000003 cycles: 334177465 heartbeat IPC: 1.48212 cumulative IPC: 1.48051 (Simulation time: 2 hr 7 min 3 sec) 
Heartbeat CPU 1 instructions: 580000000 cycles: 337073547 heartbeat IPC: 1.66171 cumulative IPC: 1.66036 (Simulation time: 2 hr 8 min 3 sec) 
Heartbeat CPU 2 instructions: 410000000 cycles: 338119525 heartbeat IPC: 1.13259 cumulative IPC: 1.13277 (Simulation time: 2 hr 8 min 25 sec) 
Heartbeat CPU 7 instructions: 520000000 cycles: 340924806 heartbeat IPC: 1.48206 cumulative IPC: 1.48054 (Simulation time: 2 hr 9 min 23 sec) 
Heartbeat CPU 5 instructions: 170000000 cycles: 341232134 heartbeat IPC: 0.458703 cumulative IPC: 0.413781 (Simulation time: 2 hr 9 min 30 sec) 
Heartbeat CPU 1 instructions: 590000001 cycles: 343074256 heartbeat IPC: 1.66647 cumulative IPC: 1.66047 (Simulation time: 2 hr 10 min 8 sec) 
Heartbeat CPU 3 instructions: 190000001 cycles: 343363183 heartbeat IPC: 0.527007 cumulative IPC: 0.511603 (Simulation time: 2 hr 10 min 14 sec) 
Heartbeat CPU 2 instructions: 420000000 cycles: 346937069 heartbeat IPC: 1.1341 cumulative IPC: 1.13281 (Simulation time: 2 hr 11 min 28 sec) 
Heartbeat CPU 4 instructions: 200000000 cycles: 347301865 heartbeat IPC: 0.372339 cumulative IPC: 0.501642 (Simulation time: 2 hr 11 min 36 sec) 
Heartbeat CPU 7 instructions: 530000000 cycles: 347672383 heartbeat IPC: 1.48201 cumulative IPC: 1.48057 (Simulation time: 2 hr 11 min 43 sec) 
Heartbeat CPU 1 instructions: 600000000 cycles: 349088613 heartbeat IPC: 1.66269 cumulative IPC: 1.66051 (Simulation time: 2 hr 12 min 13 sec) 
Heartbeat CPU 7 instructions: 540000000 cycles: 354422350 heartbeat IPC: 1.48149 cumulative IPC: 1.48059 (Simulation time: 2 hr 14 min 1 sec) 
Heartbeat CPU 1 instructions: 610000002 cycles: 355113549 heartbeat IPC: 1.65977 cumulative IPC: 1.6605 (Simulation time: 2 hr 14 min 14 sec) 
Heartbeat CPU 2 instructions: 430000002 cycles: 355789161 heartbeat IPC: 1.12968 cumulative IPC: 1.13273 (Simulation time: 2 hr 14 min 27 sec) 
Heartbeat CPU 6 instructions: 160000000 cycles: 357076538 heartbeat IPC: 0.392724 cumulative IPC: 0.382587 (Simulation time: 2 hr 14 min 52 sec) 
Heartbeat CPU 1 instructions: 620000000 cycles: 361143640 heartbeat IPC: 1.65835 cumulative IPC: 1.66046 (Simulation time: 2 hr 16 min 16 sec) 
Heartbeat CPU 7 instructions: 550000003 cycles: 361165799 heartbeat IPC: 1.48292 cumulative IPC: 1.48064 (Simulation time: 2 hr 16 min 16 sec) 
Heartbeat CPU 0 instructions: 80000000 cycles: 361470680 heartbeat IPC: 0.175512 cumulative IPC: 0.17626 (Simulation time: 2 hr 16 min 23 sec) 
Heartbeat CPU 3 instructions: 200000000 cycles: 363671030 heartbeat IPC: 0.49242 cumulative IPC: 0.510466 (Simulation time: 2 hr 17 min 9 sec) 
Heartbeat CPU 2 instructions: 440000000 cycles: 364347397 heartbeat IPC: 1.16846 cumulative IPC: 1.13362 (Simulation time: 2 hr 17 min 24 sec) 
Heartbeat CPU 1 instructions: 630000002 cycles: 367154310 heartbeat IPC: 1.66371 cumulative IPC: 1.66052 (Simulation time: 2 hr 18 min 26 sec) 
Heartbeat CPU 4 instructions: 210000002 cycles: 367302975 heartbeat IPC: 0.499972 cumulative IPC: 0.501546 (Simulation time: 2 hr 18 min 29 sec) 
Heartbeat CPU 7 instructions: 560000000 cycles: 367908820 heartbeat IPC: 1.48301 cumulative IPC: 1.48068 (Simulation time: 2 hr 18 min 43 sec) 
Heartbeat CPU 5 instructions: 180000000 cycles: 372325016 heartbeat IPC: 0.321617 cumulative IPC: 0.405623 (Simulation time: 2 hr 20 min 18 sec) 
Heartbeat CPU 2 instructions: 450000001 cycles: 372878891 heartbeat IPC: 1.17213 cumulative IPC: 1.13455 (Simulation time: 2 hr 20 min 30 sec) 
Heartbeat CPU 1 instructions: 640000000 cycles: 373161017 heartbeat IPC: 1.66481 cumulative IPC: 1.66059 (Simulation time: 2 hr 20 min 36 sec) 
Heartbeat CPU 7 instructions: 570000001 cycles: 374659965 heartbeat IPC: 1.48123 cumulative IPC: 1.48069 (Simulation time: 2 hr 21 min 7 sec) 
Heartbeat CPU 1 instructions: 650000003 cycles: 379181926 heartbeat IPC: 1.66088 cumulative IPC: 1.6606 (Simulation time: 2 hr 22 min 44 sec) 
Heartbeat CPU 7 instructions: 580000000 cycles: 381414329 heartbeat IPC: 1.48052 cumulative IPC: 1.48069 (Simulation time: 2 hr 23 min 31 sec) 
Heartbeat CPU 2 instructions: 460000000 cycles: 381419279 heartbeat IPC: 1.17091 cumulative IPC: 1.13541 (Simulation time: 2 hr 23 min 31 sec) 
Heartbeat CPU 4 instructions: 220000000 cycles: 382094097 heartbeat IPC: 0.676081 cumulative IPC: 0.508696 (Simulation time: 2 hr 23 min 46 sec) 
Heartbeat CPU 3 instructions: 210000002 cycles: 382147109 heartbeat IPC: 0.541241 cumulative IPC: 0.51204 (Simulation time: 2 hr 23 min 47 sec) 
Heartbeat CPU 1 instructions: 660000000 cycles: 385188113 heartbeat IPC: 1.66495 cumulative IPC: 1.66067 (Simulation time: 2 hr 24 min 53 sec) 
Heartbeat CPU 6 instructions: 170000000 cycles: 386250142 heartbeat IPC: 0.342776 cumulative IPC: 0.379406 (Simulation time: 2 hr 25 min 17 sec) 
Heartbeat CPU 7 instructions: 590000001 cycles: 388165018 heartbeat IPC: 1.48133 cumulative IPC: 1.4807 (Simulation time: 2 hr 26 min 1 sec) 
Heartbeat CPU 1 instructions: 670000002 cycles: 391192466 heartbeat IPC: 1.66546 cumulative IPC: 1.66075 (Simulation time: 2 hr 27 min 10 sec) 
Heartbeat CPU 2 instructions: 470000000 cycles: 392278361 heartbeat IPC: 0.920888 cumulative IPC: 1.12914 (Simulation time: 2 hr 27 min 34 sec) 
Heartbeat CPU 7 instructions: 600000000 cycles: 394923711 heartbeat IPC: 1.47958 cumulative IPC: 1.48068 (Simulation time: 2 hr 28 min 32 sec) 
Heartbeat CPU 4 instructions: 230000002 cycles: 395563402 heartbeat IPC: 0.742429 cumulative IPC: 0.517103 (Simulation time: 2 hr 28 min 46 sec) 
Heartbeat CPU 1 instructions: 680000000 cycles: 397215871 heartbeat IPC: 1.66019 cumulative IPC: 1.66074 (Simulation time: 2 hr 29 min 22 sec) 
Heartbeat CPU 3 instructions: 220000000 cycles: 401199172 heartbeat IPC: 0.524877 cumulative IPC: 0.512684 (Simulation time: 2 hr 30 min 49 sec) 
Heartbeat CPU 7 instructions: 610000001 cycles: 401674071 heartbeat IPC: 1.4814 cumulative IPC: 1.48069 (Simulation time: 2 hr 30 min 59 sec) 
Heartbeat CPU 2 instructions: 480000000 cycles: 401683350 heartbeat IPC: 1.06327 cumulative IPC: 1.12751 (Simulation time: 2 hr 30 min 59 sec) 
Heartbeat CPU 5 instructions: 190000000 cycles: 401729046 heartbeat IPC: 0.340089 cumulative IPC: 0.400561 (Simulation time: 2 hr 31 min 0 sec) 
Heartbeat CPU 1 instructions: 690000001 cycles: 403224571 heartbeat IPC: 1.66425 cumulative IPC: 1.66079 (Simulation time: 2 hr 31 min 32 sec) 
Heartbeat CPU 7 instructions: 620000000 cycles: 408428276 heartbeat IPC: 1.48056 cumulative IPC: 1.48069 (Simulation time: 2 hr 33 min 24 sec) 
Heartbeat CPU 1 instructions: 700000000 cycles: 409233948 heartbeat IPC: 1.66407 cumulative IPC: 1.66084 (Simulation time: 2 hr 33 min 41 sec) 
Heartbeat CPU 4 instructions: 240000000 cycles: 409895045 heartbeat IPC: 0.697757 cumulative IPC: 0.523761 (Simulation time: 2 hr 33 min 55 sec) 
Heartbeat CPU 2 instructions: 490000000 cycles: 410526227 heartbeat IPC: 1.13085 cumulative IPC: 1.12759 (Simulation time: 2 hr 34 min 8 sec) 
Heartbeat CPU 6 instructions: 180000000 cycles: 411043808 heartbeat IPC: 0.403329 cumulative IPC: 0.380927 (Simulation time: 2 hr 34 min 20 sec) 
Heartbeat CPU 7 instructions: 630000001 cycles: 415173411 heartbeat IPC: 1.48255 cumulative IPC: 1.48072 (Simulation time: 2 hr 35 min 51 sec) 
Heartbeat CPU 1 instructions: 710000000 cycles: 415246144 heartbeat IPC: 1.66329 cumulative IPC: 1.66088 (Simulation time: 2 hr 35 min 53 sec) 
Heartbeat CPU 0 instructions: 90000003 cycles: 418342110 heartbeat IPC: 0.175835 cumulative IPC: 0.176199 (Simulation time: 2 hr 36 min 59 sec) 
Heartbeat CPU 2 instructions: 500000000 cycles: 419415768 heartbeat IPC: 1.12492 cumulative IPC: 1.12753 (Simulation time: 2 hr 37 min 22 sec) 
Heartbeat CPU 3 instructions: 230000002 cycles: 419695925 heartbeat IPC: 0.540636 cumulative IPC: 0.513981 (Simulation time: 2 hr 37 min 28 sec) 
Heartbeat CPU 1 instructions: 720000000 cycles: 421249417 heartbeat IPC: 1.66576 cumulative IPC: 1.66095 (Simulation time: 2 hr 38 min 1 sec) 
Heartbeat CPU 7 instructions: 640000000 cycles: 421919834 heartbeat IPC: 1.48227 cumulative IPC: 1.48075 (Simulation time: 2 hr 38 min 15 sec) 
Heartbeat CPU 5 instructions: 200000000 cycles: 425163104 heartbeat IPC: 0.426729 cumulative IPC: 0.402079 (Simulation time: 2 hr 39 min 23 sec) 
Heartbeat CPU 4 instructions: 250000002 cycles: 425234909 heartbeat IPC: 0.651896 cumulative IPC: 0.528625 (Simulation time: 2 hr 39 min 25 sec) 
Heartbeat CPU 1 instructions: 730000001 cycles: 427264875 heartbeat IPC: 1.66238 cumulative IPC: 1.66097 (Simulation time: 2 hr 40 min 7 sec) 
Heartbeat CPU 2 instructions: 510000003 cycles: 428382097 heartbeat IPC: 1.11528 cumulative IPC: 1.12726 (Simulation time: 2 hr 40 min 30 sec) 
Heartbeat CPU 7 instructions: 650000001 cycles: 428670624 heartbeat IPC: 1.48131 cumulative IPC: 1.48076 (Simulation time: 2 hr 40 min 36 sec) 
Heartbeat CPU 1 instructions: 740000000 cycles: 433280744 heartbeat IPC: 1.66227 cumulative IPC: 1.66099 (Simulation time: 2 hr 42 min 15 sec) 
Heartbeat CPU 7 instructions: 660000000 cycles: 435419512 heartbeat IPC: 1.48173 cumulative IPC: 1.48077 (Simulation time: 2 hr 43 min 0 sec) 
Heartbeat CPU 2 instructions: 520000000 cycles: 437345763 heartbeat IPC: 1.11561 cumulative IPC: 1.12701 (Simulation time: 2 hr 43 min 39 sec) 
Heartbeat CPU 1 instructions: 750000003 cycles: 439299830 heartbeat IPC: 1.66138 cumulative IPC: 1.661 (Simulation time: 2 hr 44 min 19 sec) 
Heartbeat CPU 3 instructions: 240000000 cycles: 440128022 heartbeat IPC: 0.489426 cumulative IPC: 0.512784 (Simulation time: 2 hr 44 min 37 sec) 
Heartbeat CPU 4 instructions: 260000000 cycles: 440220564 heartbeat IPC: 0.667305 cumulative IPC: 0.533583 (Simulation time: 2 hr 44 min 38 sec) 
Heartbeat CPU 6 instructions: 190000001 cycles: 441602801 heartbeat IPC: 0.327236 cumulative IPC: 0.377026 (Simulation time: 2 hr 45 min 7 sec) 
Heartbeat CPU 7 instructions: 670000002 cycles: 442178511 heartbeat IPC: 1.47951 cumulative IPC: 1.48075 (Simulation time: 2 hr 45 min 19 sec) 
Heartbeat CPU 1 instructions: 760000000 cycles: 445307403 heartbeat IPC: 1.66457 cumulative IPC: 1.66105 (Simulation time: 2 hr 46 min 24 sec) 
Heartbeat CPU 2 instructions: 530000001 cycles: 446900111 heartbeat IPC: 1.04664 cumulative IPC: 1.1252 (Simulation time: 2 hr 46 min 57 sec) 
Heartbeat CPU 7 instructions: 680000000 cycles: 448943414 heartbeat IPC: 1.47822 cumulative IPC: 1.48071 (Simulation time: 2 hr 47 min 41 sec) 
Heartbeat CPU 1 instructions: 770000000 cycles: 451328044 heartbeat IPC: 1.66095 cumulative IPC: 1.66105 (Simulation time: 2 hr 48 min 32 sec) 
Heartbeat CPU 4 instructions: 270000001 cycles: 455431958 heartbeat IPC: 0.657402 cumulative IPC: 0.537919 (Simulation time: 2 hr 49 min 59 sec) 
Heartbeat CPU 7 instructions: 690000001 cycles: 455707953 heartbeat IPC: 1.4783 cumulative IPC: 1.48068 (Simulation time: 2 hr 50 min 5 sec) 
Heartbeat CPU 2 instructions: 540000000 cycles: 456555944 heartbeat IPC: 1.03564 cumulative IPC: 1.12322 (Simulation time: 2 hr 50 min 22 sec) 
Heartbeat CPU 1 instructions: 780000000 cycles: 457339302 heartbeat IPC: 1.66355 cumulative IPC: 1.66108 (Simulation time: 2 hr 50 min 40 sec) 
Heartbeat CPU 5 instructions: 210000000 cycles: 457420070 heartbeat IPC: 0.310011 cumulative IPC: 0.395273 (Simulation time: 2 hr 50 min 42 sec) 
Heartbeat CPU 3 instructions: 250000001 cycles: 459936869 heartbeat IPC: 0.504825 cumulative IPC: 0.512424 (Simulation time: 2 hr 51 min 36 sec) 
Heartbeat CPU 7 instructions: 700000000 cycles: 462471062 heartbeat IPC: 1.47861 cumulative IPC: 1.48064 (Simulation time: 2 hr 52 min 28 sec) 
Heartbeat CPU 1 instructions: 790000000 cycles: 463365545 heartbeat IPC: 1.65941 cumulative IPC: 1.66106 (Simulation time: 2 hr 52 min 47 sec) 
Heartbeat CPU 2 instructions: 550000000 cycles: 466197299 heartbeat IPC: 1.0372 cumulative IPC: 1.12135 (Simulation time: 2 hr 53 min 47 sec) 
Heartbeat CPU 7 instructions: 710000003 cycles: 469336141 heartbeat IPC: 1.45665 cumulative IPC: 1.48028 (Simulation time: 2 hr 54 min 53 sec) 
Heartbeat CPU 1 instructions: 800000000 cycles: 469385255 heartbeat IPC: 1.66121 cumulative IPC: 1.66106 (Simulation time: 2 hr 54 min 54 sec) 
Heartbeat CPU 4 instructions: 280000000 cycles: 470630761 heartbeat IPC: 0.657946 cumulative IPC: 0.541977 (Simulation time: 2 hr 55 min 21 sec) 
Heartbeat CPU 6 instructions: 200000000 cycles: 471257871 heartbeat IPC: 0.33721 cumulative IPC: 0.374403 (Simulation time: 2 hr 55 min 35 sec) 
Heartbeat CPU 1 instructions: 810000000 cycles: 475386756 heartbeat IPC: 1.66625 cumulative IPC: 1.66113 (Simulation time: 2 hr 57 min 3 sec) 
Heartbeat CPU 0 instructions: 100000000 cycles: 475476506 heartbeat IPC: 0.175026 cumulative IPC: 0.176052 (Simulation time: 2 hr 57 min 5 sec) 
Heartbeat CPU 2 instructions: 560000000 cycles: 475815686 heartbeat IPC: 1.03968 cumulative IPC: 1.11963 (Simulation time: 2 hr 57 min 12 sec) 
Heartbeat CPU 7 instructions: 720000000 cycles: 476324576 heartbeat IPC: 1.43094 cumulative IPC: 1.47952 (Simulation time: 2 hr 57 min 22 sec) 
Heartbeat CPU 3 instructions: 260000000 cycles: 479345809 heartbeat IPC: 0.515226 cumulative IPC: 0.512543 (Simulation time: 2 hr 58 min 26 sec) 
Heartbeat CPU 1 instructions: 820000000 cycles: 481399636 heartbeat IPC: 1.6631 cumulative IPC: 1.66116 (Simulation time: 2 hr 59 min 7 sec) 
Heartbeat CPU 7 instructions: 730000000 cycles: 483309367 heartbeat IPC: 1.43168 cumulative IPC: 1.4788 (Simulation time: 2 hr 59 min 45 sec) 
Heartbeat CPU 2 instructions: 570000002 cycles: 485460222 heartbeat IPC: 1.03686 cumulative IPC: 1.11791 (Simulation time: 3 hr 0 min 29 sec) 
Heartbeat CPU 1 instructions: 830000003 cycles: 487406333 heartbeat IPC: 1.66481 cumulative IPC: 1.6612 (Simulation time: 3 hr 1 min 10 sec) 
Heartbeat CPU 5 instructions: 220000000 cycles: 488152837 heartbeat IPC: 0.325386 cumulative IPC: 0.390674 (Simulation time: 3 hr 1 min 26 sec) 
Heartbeat CPU 4 instructions: 290000001 cycles: 489719205 heartbeat IPC: 0.523877 cumulative IPC: 0.54124 (Simulation time: 3 hr 1 min 59 sec) 
Heartbeat CPU 7 instructions: 740000000 cycles: 490310228 heartbeat IPC: 1.4284 cumulative IPC: 1.47804 (Simulation time: 3 hr 2 min 11 sec) 
Heartbeat CPU 1 instructions: 840000000 cycles: 493416521 heartbeat IPC: 1.66384 cumulative IPC: 1.66124 (Simulation time: 3 hr 3 min 15 sec) 
Heartbeat CPU 2 instructions: 580000000 cycles: 495078003 heartbeat IPC: 1.03974 cumulative IPC: 1.11632 (Simulation time: 3 hr 3 min 49 sec) 
Heartbeat CPU 7 instructions: 750000001 cycles: 497308083 heartbeat IPC: 1.42901 cumulative IPC: 1.47732 (Simulation time: 3 hr 4 min 34 sec) 
Heartbeat CPU 3 instructions: 270000001 cycles: 498280218 heartbeat IPC: 0.528139 cumulative IPC: 0.513162 (Simulation time: 3 hr 4 min 53 sec) 
Heartbeat CPU 6 instructions: 210000000 cycles: 499056019 heartbeat IPC: 0.359736 cumulative IPC: 0.37355 (Simulation time: 3 hr 5 min 9 sec) 
Heartbeat CPU 1 instructions: 850000003 cycles: 499419356 heartbeat IPC: 1.66588 cumulative IPC: 1.66129 (Simulation time: 3 hr 5 min 17 sec) 
Heartbeat CPU 7 instructions: 760000000 cycles: 504304679 heartbeat IPC: 1.42927 cumulative IPC: 1.47663 (Simulation time: 3 hr 6 min 56 sec) 
Heartbeat CPU 2 instructions: 590000000 cycles: 504773599 heartbeat IPC: 1.0314 cumulative IPC: 1.11462 (Simulation time: 3 hr 7 min 6 sec) 
Heartbeat CPU 1 instructions: 860000000 cycles: 505419881 heartbeat IPC: 1.66652 cumulative IPC: 1.66136 (Simulation time: 3 hr 7 min 19 sec) 
Heartbeat CPU 7 instructions: 770000000 cycles: 511307965 heartbeat IPC: 1.4279 cumulative IPC: 1.47593 (Simulation time: 3 hr 9 min 16 sec) 
Heartbeat CPU 1 instructions: 870000000 cycles: 511425327 heartbeat IPC: 1.66516 cumulative IPC: 1.66141 (Simulation time: 3 hr 9 min 18 sec) 
Heartbeat CPU 2 instructions: 600000000 cycles: 514465388 heartbeat IPC: 1.0318 cumulative IPC: 1.11299 (Simulation time: 3 hr 10 min 13 sec) 
Heartbeat CPU 5 instructions: 230000000 cycles: 516423990 heartbeat IPC: 0.353717 cumulative IPC: 0.388565 (Simulation time: 3 hr 10 min 49 sec) 
Heartbeat CPU 4 instructions: 300000000 cycles: 516882620 heartbeat IPC: 0.368142 cumulative IPC: 0.531756 (Simulation time: 3 hr 10 min 58 sec) 
Heartbeat CPU 1 instructions: 880000000 cycles: 517430525 heartbeat IPC: 1.66522 cumulative IPC: 1.66145 (Simulation time: 3 hr 11 min 9 sec) 
Heartbeat CPU 7 instructions: 780000000 cycles: 518310060 heartbeat IPC: 1.42814 cumulative IPC: 1.47526 (Simulation time: 3 hr 11 min 24 sec) 
Heartbeat CPU 1 instructions: 890000002 cycles: 523450925 heartbeat IPC: 1.66102 cumulative IPC: 1.66145 (Simulation time: 3 hr 13 min 0 sec) 
Heartbeat CPU 2 instructions: 610000003 cycles: 524158818 heartbeat IPC: 1.03163 cumulative IPC: 1.11142 (Simulation time: 3 hr 13 min 13 sec) 
Heartbeat CPU 7 instructions: 790000003 cycles: 525309132 heartbeat IPC: 1.42876 cumulative IPC: 1.47461 (Simulation time: 3 hr 13 min 34 sec) 
Heartbeat CPU 6 instructions: 220000000 cycles: 527421606 heartbeat IPC: 0.35254 cumulative IPC: 0.372373 (Simulation time: 3 hr 14 min 12 sec) 
Heartbeat CPU 1 instructions: 900000000 cycles: 529471498 heartbeat IPC: 1.66097 cumulative IPC: 1.66144 (Simulation time: 3 hr 14 min 49 sec) 
Heartbeat CPU 7 instructions: 800000000 cycles: 532308434 heartbeat IPC: 1.42871 cumulative IPC: 1.47399 (Simulation time: 3 hr 15 min 42 sec) 
Heartbeat CPU 0 instructions: 110000002 cycles: 533292864 heartbeat IPC: 0.172961 cumulative IPC: 0.175703 (Simulation time: 3 hr 16 min 0 sec) 
Heartbeat CPU 2 instructions: 620000000 cycles: 533852816 heartbeat IPC: 1.03157 cumulative IPC: 1.10992 (Simulation time: 3 hr 16 min 11 sec) 
Heartbeat CPU 1 instructions: 910000002 cycles: 535483418 heartbeat IPC: 1.66336 cumulative IPC: 1.66146 (Simulation time: 3 hr 16 min 40 sec) 
Heartbeat CPU 7 instructions: 810000000 cycles: 539303286 heartbeat IPC: 1.42962 cumulative IPC: 1.47339 (Simulation time: 3 hr 17 min 51 sec) 
Heartbeat CPU 1 instructions: 920000000 cycles: 541495413 heartbeat IPC: 1.66334 cumulative IPC: 1.66149 (Simulation time: 3 hr 18 min 31 sec) 
Heartbeat CPU 5 instructions: 240000000 cycles: 542886853 heartbeat IPC: 0.377888 cumulative IPC: 0.388024 (Simulation time: 3 hr 18 min 56 sec) 
Heartbeat CPU 4 instructions: 310000001 cycles: 543541128 heartbeat IPC: 0.375115 cumulative IPC: 0.523764 (Simulation time: 3 hr 19 min 8 sec) 
Heartbeat CPU 2 instructions: 630000002 cycles: 543547763 heartbeat IPC: 1.03147 cumulative IPC: 1.10846 (Simulation time: 3 hr 19 min 8 sec) 
Heartbeat CPU 7 instructions: 820000000 cycles: 546302830 heartbeat IPC: 1.42866 cumulative IPC: 1.47279 (Simulation time: 3 hr 19 min 57 sec) 
Heartbeat CPU 1 instructions: 930000001 cycles: 547906555 heartbeat IPC: 1.55978 cumulative IPC: 1.66025 (Simulation time: 3 hr 20 min 25 sec) 
Heartbeat CPU 3 instructions: 280000000 cycles: 548581275 heartbeat IPC: 0.198803 cumulative IPC: 0.483186 (Simulation time: 3 hr 20 min 38 sec) 
Heartbeat CPU 2 instructions: 640000000 cycles: 553147732 heartbeat IPC: 1.04167 cumulative IPC: 1.10725 (Simulation time: 3 hr 22 min 1 sec) 
Heartbeat CPU 7 instructions: 830000000 cycles: 553295980 heartbeat IPC: 1.42997 cumulative IPC: 1.47223 (Simulation time: 3 hr 22 min 4 sec) 
Heartbeat CPU 1 instructions: 940000000 cycles: 553912320 heartbeat IPC: 1.66507 cumulative IPC: 1.6603 (Simulation time: 3 hr 22 min 15 sec) 
Heartbeat CPU 6 instructions: 230000003 cycles: 557107360 heartbeat IPC: 0.336862 cumulative IPC: 0.370407 (Simulation time: 3 hr 23 min 13 sec) 
Heartbeat CPU 1 instructions: 950000003 cycles: 559917149 heartbeat IPC: 1.66533 cumulative IPC: 1.66036 (Simulation time: 3 hr 24 min 7 sec) 
Heartbeat CPU 7 instructions: 840000000 cycles: 560287361 heartbeat IPC: 1.43033 cumulative IPC: 1.47168 (Simulation time: 3 hr 24 min 14 sec) 
Heartbeat CPU 2 instructions: 650000000 cycles: 562107021 heartbeat IPC: 1.11616 cumulative IPC: 1.1074 (Simulation time: 3 hr 24 min 49 sec) 
Heartbeat CPU 4 instructions: 320000000 cycles: 564807105 heartbeat IPC: 0.470235 cumulative IPC: 0.52167 (Simulation time: 3 hr 25 min 41 sec) 
Heartbeat CPU 1 instructions: 960000000 cycles: 565916819 heartbeat IPC: 1.66676 cumulative IPC: 1.66043 (Simulation time: 3 hr 26 min 2 sec) 
Heartbeat CPU 7 instructions: 850000000 cycles: 567283212 heartbeat IPC: 1.42942 cumulative IPC: 1.47114 (Simulation time: 3 hr 26 min 28 sec) 
Heartbeat CPU 5 instructions: 250000003 cycles: 568042491 heartbeat IPC: 0.397525 cumulative IPC: 0.388461 (Simulation time: 3 hr 26 min 43 sec) 
Heartbeat CPU 2 instructions: 660000000 cycles: 570982917 heartbeat IPC: 1.12665 cumulative IPC: 1.10771 (Simulation time: 3 hr 27 min 40 sec) 
Heartbeat CPU 1 instructions: 970000001 cycles: 571922629 heartbeat IPC: 1.66505 cumulative IPC: 1.66048 (Simulation time: 3 hr 27 min 58 sec) 
Heartbeat CPU 7 instructions: 860000000 cycles: 574275946 heartbeat IPC: 1.43006 cumulative IPC: 1.47062 (Simulation time: 3 hr 28 min 45 sec) 
Heartbeat CPU 1 instructions: 980000000 cycles: 577935779 heartbeat IPC: 1.66302 cumulative IPC: 1.66051 (Simulation time: 3 hr 29 min 55 sec) 
Heartbeat CPU 4 instructions: 330000002 cycles: 578569545 heartbeat IPC: 0.726615 cumulative IPC: 0.52673 (Simulation time: 3 hr 30 min 8 sec) 
Heartbeat CPU 2 instructions: 670000000 cycles: 580200629 heartbeat IPC: 1.08487 cumulative IPC: 1.10734 (Simulation time: 3 hr 30 min 41 sec) 
Heartbeat CPU 7 instructions: 870000000 cycles: 581270417 heartbeat IPC: 1.4297 cumulative IPC: 1.47011 (Simulation time: 3 hr 31 min 1 sec) 
Heartbeat CPU 1 instructions: 990000000 cycles: 583946394 heartbeat IPC: 1.66372 cumulative IPC: 1.66054 (Simulation time: 3 hr 31 min 53 sec) 
Heartbeat CPU 6 instructions: 240000000 cycles: 587153495 heartbeat IPC: 0.332821 cumulative IPC: 0.368412 (Simulation time: 3 hr 32 min 55 sec) 
Heartbeat CPU 7 instructions: 880000000 cycles: 588265235 heartbeat IPC: 1.42963 cumulative IPC: 1.46961 (Simulation time: 3 hr 33 min 17 sec) 
Heartbeat CPU 2 instructions: 680000000 cycles: 589046265 heartbeat IPC: 1.1305 cumulative IPC: 1.1077 (Simulation time: 3 hr 33 min 32 sec) 
Heartbeat CPU 1 instructions: 1000000000 cycles: 589968140 heartbeat IPC: 1.66065 cumulative IPC: 1.66054 (Simulation time: 3 hr 33 min 50 sec) 
Heartbeat CPU 0 instructions: 120000000 cycles: 591351256 heartbeat IPC: 0.17224 cumulative IPC: 0.17535 (Simulation time: 3 hr 34 min 16 sec) 
Finished CPU 0 instructions: 100000000 cycles: 570286507 cumulative IPC: 0.17535 (Simulation time: 3 hr 34 min 16 sec) 

CPU 0 Branch Prediction Accuracy: 92.4261% MPKI: 6.09924

CPU 1 Branch Prediction Accuracy: 99.5352% MPKI: 0.858185

CPU 2 Branch Prediction Accuracy: 92.257% MPKI: 10.5268

CPU 3 Branch Prediction Accuracy: 99.9865% MPKI: 0.00164953

CPU 4 Branch Prediction Accuracy: 96.7383% MPKI: 4.45516

CPU 5 Branch Prediction Accuracy: 99.3035% MPKI: 1.65529

CPU 6 Branch Prediction Accuracy: 92.6592% MPKI: 12.5923

CPU 7 Branch Prediction Accuracy: 99.9625% MPKI: 0.0446007

ChampSim completed all CPUs

Total Simulation Statistics (not including warmup)

CPU 0 cumulative IPC: 0.17535 instructions: 100000000 cycles: 570286507
L1D TOTAL     ACCESS:   53695610  HIT:   44672755  MISS:    9022855
L1D LOAD      ACCESS:   33902206  HIT:   29252784  MISS:    4649422
L1D RFO       ACCESS:   19793404  HIT:   15419971  MISS:    4373433
L1D PREFETCH  ACCESS:          0  HIT:          0  MISS:          0
L1D WRITEBACK ACCESS:          0  HIT:          0  MISS:          0
L1I TOTAL     ACCESS:   23955400  HIT:   23955400  MISS:          0
L1I LOAD      ACCESS:   23955400  HIT:   23955400  MISS:          0
L1I RFO       ACCESS:          0  HIT:          0  MISS:          0
L1I PREFETCH  ACCESS:          0  HIT:          0  MISS:          0
L1I WRITEBACK ACCESS:          0  HIT:          0  MISS:          0
L2C TOTAL     ACCESS:   20747218  HIT:   11807512  MISS:    8939706
L2C LOAD      ACCESS:    4649353  HIT:    2550586  MISS:    2098767
L2C RFO       ACCESS:    4373433  HIT:         12  MISS:    4373421
L2C PREFETCH  ACCESS:    2701577  HIT:     238650  MISS:    2462927
L2C WRITEBACK ACCESS:    9022855  HIT:    9018264  MISS:       4591

Avg Lookahead Depth:	1.93917
TOTAL: 4.00216e+07	L2C: 2.67198e+07	LLC: 1.33018e+07	GOOD_L2C: 1.60864e+07
Printing all the perceptron weights to: perc_weights_0.csv
LLC TOTAL     ACCESS:   18236798  HIT:   11274160  MISS:    6962638
LLC LOAD      ACCESS:    1983257  HIT:    1844100  MISS:     139157
LLC RFO       ACCESS:    4373421  HIT:     105939  MISS:    4267482
LLC PREFETCH  ACCESS:    3125611  HIT:     569612  MISS:    2555999
LLC WRITEBACK ACCESS:    8754509  HIT:    8754509  MISS:          0

CPU 1 cumulative IPC: 1.66055 instructions: 946989474 cycles: 570286508
L1D TOTAL     ACCESS:  154070593  HIT:  150040991  MISS:    4029602
L1D LOAD      ACCESS:  124863323  HIT:  121062013  MISS:    3801310
L1D RFO       ACCESS:   29207270  HIT:   28978978  MISS:     228292
L1D PREFETCH  ACCESS:          0  HIT:          0  MISS:          0
L1D WRITEBACK ACCESS:          0  HIT:          0  MISS:          0
L1I TOTAL     ACCESS:  222488801  HIT:  222488725  MISS:         76
L1I LOAD      ACCESS:  222488801  HIT:  222488725  MISS:         76
L1I RFO       ACCESS:          0  HIT:          0  MISS:          0
L1I PREFETCH  ACCESS:          0  HIT:          0  MISS:          0
L1I WRITEBACK ACCESS:          0  HIT:          0  MISS:          0
L2C TOTAL     ACCESS:    8657776  HIT:    8553847  MISS:     103929
L2C LOAD      ACCESS:    3801386  HIT:    3770344  MISS:      31042
L2C RFO       ACCESS:     225642  HIT:     222861  MISS:       2781
L2C PREFETCH  ACCESS:    4402352  HIT:    4332534  MISS:      69818
L2C WRITEBACK ACCESS:     228396  HIT:     228108  MISS:        288

Avg Lookahead Depth:	1.93917
TOTAL: 4.00216e+07	L2C: 2.67198e+07	LLC: 1.33018e+07	GOOD_L2C: 1.60864e+07
Printing all the perceptron weights to: perc_weights_0.csv
LLC TOTAL     ACCESS:     206505  HIT:      98344  MISS:     108161
LLC LOAD      ACCESS:      30828  HIT:       9560  MISS:      21268
LLC RFO       ACCESS:       2781  HIT:          0  MISS:       2781
LLC PREFETCH  ACCESS:     169811  HIT:      88615  MISS:      81196
LLC WRITEBACK ACCESS:       3085  HIT:        169  MISS:       2916

CPU 2 cumulative IPC: 1.10782 instructions: 631773953 cycles: 570286508
L1D TOTAL     ACCESS:  112253180  HIT:  112118857  MISS:     134323
L1D LOAD      ACCESS:   87745854  HIT:   87730708  MISS:      15146
L1D RFO       ACCESS:   24507326  HIT:   24388149  MISS:     119177
L1D PREFETCH  ACCESS:          0  HIT:          0  MISS:          0
L1D WRITEBACK ACCESS:          0  HIT:          0  MISS:          0
L1I TOTAL     ACCESS:  155406663  HIT:  155406663  MISS:          0
L1I LOAD      ACCESS:  155406663  HIT:  155406663  MISS:          0
L1I RFO       ACCESS:          0  HIT:          0  MISS:          0
L1I PREFETCH  ACCESS:          0  HIT:          0  MISS:          0
L1I WRITEBACK ACCESS:          0  HIT:          0  MISS:          0
L2C TOTAL     ACCESS:     271459  HIT:     146982  MISS:     124477
L2C LOAD      ACCESS:      15146  HIT:      13908  MISS:       1238
L2C RFO       ACCESS:     119177  HIT:       6333  MISS:     112844
L2C PREFETCH  ACCESS:      17913  HIT:       7518  MISS:      10395
L2C WRITEBACK ACCESS:     119223  HIT:     119223  MISS:          0

Avg Lookahead Depth:	1.93917
TOTAL: 4.00216e+07	L2C: 2.67198e+07	LLC: 1.33018e+07	GOOD_L2C: 1.60864e+07
Printing all the perceptron weights to: perc_weights_0.csv
LLC TOTAL     ACCESS:     242754  HIT:      64238  MISS:     178516
LLC LOAD      ACCESS:       1238  HIT:        641  MISS:        597
LLC RFO       ACCESS:     112844  HIT:         10  MISS:     112834
LLC PREFETCH  ACCESS:      15830  HIT:       4442  MISS:      11388
LLC WRITEBACK ACCESS:     112842  HIT:      59145  MISS:      53697

CPU 3 cumulative IPC: 0.45452 instructions: 259206696 cycles: 570286508
L1D TOTAL     ACCESS:  145440584  HIT:  139504462  MISS:    5936122
L1D LOAD      ACCESS:  128927026  HIT:  122990904  MISS:    5936122
L1D RFO       ACCESS:   16513558  HIT:   16513558  MISS:          0
L1D PREFETCH  ACCESS:          0  HIT:          0  MISS:          0
L1D WRITEBACK ACCESS:          0  HIT:          0  MISS:          0
L1I TOTAL     ACCESS:   76535536  HIT:   76535514  MISS:         22
L1I LOAD      ACCESS:   76535536  HIT:   76535514  MISS:         22
L1I RFO       ACCESS:          0  HIT:          0  MISS:          0
L1I PREFETCH  ACCESS:          0  HIT:          0  MISS:          0
L1I WRITEBACK ACCESS:          0  HIT:          0  MISS:          0
L2C TOTAL     ACCESS:   14383318  HIT:    7259389  MISS:    7123929
L2C LOAD      ACCESS:    5936144  HIT:    3691882  MISS:    2244262
L2C RFO       ACCESS:          0  HIT:          0  MISS:          0
L2C PREFETCH  ACCESS:    5587537  HIT:     707881  MISS:    4879656
L2C WRITEBACK ACCESS:    2859637  HIT:    2859626  MISS:         11

Avg Lookahead Depth:	1.93917
TOTAL: 4.00216e+07	L2C: 2.67198e+07	LLC: 1.33018e+07	GOOD_L2C: 1.60864e+07
Printing all the perceptron weights to: perc_weights_0.csv
LLC TOTAL     ACCESS:   12029168  HIT:    5302151  MISS:    6727017
LLC LOAD      ACCESS:    2161434  HIT:     664078  MISS:    1497356
LLC RFO       ACCESS:          0  HIT:          0  MISS:          0
LLC PREFETCH  ACCESS:    7007773  HIT:    1778115  MISS:    5229658
LLC WRITEBACK ACCESS:    2859961  HIT:    2859958  MISS:          3

CPU 4 cumulative IPC: 0.530231 instructions: 302383379 cycles: 570286508
L1D TOTAL     ACCESS:  113385991  HIT:  112401051  MISS:     984940
L1D LOAD      ACCESS:   53482327  HIT:   52583988  MISS:     898339
L1D RFO       ACCESS:   59903664  HIT:   59817063  MISS:      86601
L1D PREFETCH  ACCESS:          0  HIT:          0  MISS:          0
L1D WRITEBACK ACCESS:          0  HIT:          0  MISS:          0
L1I TOTAL     ACCESS:   82705484  HIT:   81516732  MISS:    1188752
L1I LOAD      ACCESS:   82705484  HIT:   81516732  MISS:    1188752
L1I RFO       ACCESS:          0  HIT:          0  MISS:          0
L1I PREFETCH  ACCESS:          0  HIT:          0  MISS:          0
L1I WRITEBACK ACCESS:          0  HIT:          0  MISS:          0
L2C TOTAL     ACCESS:    4675338  HIT:    3689649  MISS:     985689
L2C LOAD      ACCESS:    2087074  HIT:    1586966  MISS:     500108
L2C RFO       ACCESS:      86601  HIT:      50491  MISS:      36110
L2C PREFETCH  ACCESS:    2227543  HIT:    1785442  MISS:     442101
L2C WRITEBACK ACCESS:     274120  HIT:     266750  MISS:       7370

Avg Lookahead Depth:	1.93917
TOTAL: 4.00216e+07	L2C: 2.67198e+07	LLC: 1.33018e+07	GOOD_L2C: 1.60864e+07
Printing all the perceptron weights to: perc_weights_0.csv
LLC TOTAL     ACCESS:    1493114  HIT:     900922  MISS:     592192
LLC LOAD      ACCESS:     483398  HIT:     261955  MISS:     221443
LLC RFO       ACCESS:      36010  HIT:      19079  MISS:      16931
LLC PREFETCH  ACCESS:     842454  HIT:     496838  MISS:     345616
LLC WRITEBACK ACCESS:     131252  HIT:     123050  MISS:       8202

CPU 5 cumulative IPC: 0.38952 instructions: 222138081 cycles: 570286508
L1D TOTAL     ACCESS:   53479600  HIT:   42085470  MISS:   11394130
L1D LOAD      ACCESS:   38159440  HIT:   27281638  MISS:   10877802
L1D RFO       ACCESS:   15320160  HIT:   14803832  MISS:     516328
L1D PREFETCH  ACCESS:          0  HIT:          0  MISS:          0
L1D WRITEBACK ACCESS:          0  HIT:          0  MISS:          0
L1I TOTAL     ACCESS:   97042571  HIT:   96489584  MISS:     552987
L1I LOAD      ACCESS:   97042571  HIT:   96489584  MISS:     552987
L1I RFO       ACCESS:          0  HIT:          0  MISS:          0
L1I PREFETCH  ACCESS:          0  HIT:          0  MISS:          0
L1I WRITEBACK ACCESS:          0  HIT:          0  MISS:          0
L2C TOTAL     ACCESS:   20424060  HIT:   12927837  MISS:    7496223
L2C LOAD      ACCESS:   11430692  HIT:    6750113  MISS:    4680579
L2C RFO       ACCESS:     516316  HIT:      86914  MISS:     429402
L2C PREFETCH  ACCESS:    7705742  HIT:    5319683  MISS:    2386059
L2C WRITEBACK ACCESS:     771310  HIT:     771127  MISS:        183

Avg Lookahead Depth:	1.93917
TOTAL: 4.00216e+07	L2C: 2.67198e+07	LLC: 1.33018e+07	GOOD_L2C: 1.60864e+07
Printing all the perceptron weights to: perc_weights_0.csv
LLC TOTAL     ACCESS:   10682306  HIT:    9991355  MISS:     690951
LLC LOAD      ACCESS:    4516570  HIT:    4461551  MISS:      55019
LLC RFO       ACCESS:     428515  HIT:      39923  MISS:     388592
LLC PREFETCH  ACCESS:    5168880  HIT:    4922683  MISS:     246197
LLC WRITEBACK ACCESS:     568341  HIT:     567198  MISS:       1143

CPU 6 cumulative IPC: 0.368103 instructions: 209923929 cycles: 570286508
L1D TOTAL     ACCESS:   69945357  HIT:   67699037  MISS:    2246320
L1D LOAD      ACCESS:   43185841  HIT:   41175286  MISS:    2010555
L1D RFO       ACCESS:   26759516  HIT:   26523751  MISS:     235765
L1D PREFETCH  ACCESS:          0  HIT:          0  MISS:          0
L1D WRITEBACK ACCESS:          0  HIT:          0  MISS:          0
L1I TOTAL     ACCESS:   56989850  HIT:   56190595  MISS:     799255
L1I LOAD      ACCESS:   56989850  HIT:   56190595  MISS:     799255
L1I RFO       ACCESS:          0  HIT:          0  MISS:          0
L1I PREFETCH  ACCESS:          0  HIT:          0  MISS:          0
L1I WRITEBACK ACCESS:          0  HIT:          0  MISS:          0
L2C TOTAL     ACCESS:    6588713  HIT:    5079052  MISS:    1509661
L2C LOAD      ACCESS:    2809781  HIT:    2126987  MISS:     682794
L2C RFO       ACCESS:     235758  HIT:      85625  MISS:     150133
L2C PREFETCH  ACCESS:    2985504  HIT:    2315456  MISS:     670048
L2C WRITEBACK ACCESS:     557670  HIT:     550984  MISS:       6686

Avg Lookahead Depth:	1.93917
TOTAL: 4.00216e+07	L2C: 2.67198e+07	LLC: 1.33018e+07	GOOD_L2C: 1.60864e+07
Printing all the perceptron weights to: perc_weights_0.csv
LLC TOTAL     ACCESS:    2335518  HIT:    1688432  MISS:     647086
LLC LOAD      ACCESS:     655506  HIT:     487109  MISS:     168397
LLC RFO       ACCESS:     149708  HIT:      51617  MISS:      98091
LLC PREFETCH  ACCESS:    1204784  HIT:     835065  MISS:     369719
LLC WRITEBACK ACCESS:     325520  HIT:     314641  MISS:      10879

CPU 7 cumulative IPC: 1.46938 instructions: 837969680 cycles: 570286508
L1D TOTAL     ACCESS:  130921326  HIT:  130118511  MISS:     802815
L1D LOAD      ACCESS:  105163424  HIT:  104360657  MISS:     802767
L1D RFO       ACCESS:   25757902  HIT:   25757854  MISS:         48
L1D PREFETCH  ACCESS:          0  HIT:          0  MISS:          0
L1D WRITEBACK ACCESS:          0  HIT:          0  MISS:          0
L1I TOTAL     ACCESS:  224801971  HIT:  224801521  MISS:        450
L1I LOAD      ACCESS:  224801971  HIT:  224801521  MISS:        450
L1I RFO       ACCESS:          0  HIT:          0  MISS:          0
L1I PREFETCH  ACCESS:          0  HIT:          0  MISS:          0
L1I WRITEBACK ACCESS:          0  HIT:          0  MISS:          0
L2C TOTAL     ACCESS:    1774236  HIT:     970658  MISS:     803578
L2C LOAD      ACCESS:     803217  HIT:     783792  MISS:      19425
L2C RFO       ACCESS:         48  HIT:          3  MISS:         45
L2C PREFETCH  ACCESS:     970838  HIT:     186737  MISS:     784101
L2C WRITEBACK ACCESS:        133  HIT:        126  MISS:          7

Avg Lookahead Depth:	1.93917
TOTAL: 4.00216e+07	L2C: 2.67198e+07	LLC: 1.33018e+07	GOOD_L2C: 1.60864e+07
Printing all the perceptron weights to: perc_weights_0.csv
LLC TOTAL     ACCESS:     840509  HIT:      36742  MISS:     803767
LLC LOAD      ACCESS:      19051  HIT:        362  MISS:      18689
LLC RFO       ACCESS:         45  HIT:          6  MISS:         39
LLC PREFETCH  ACCESS:     821282  HIT:      36247  MISS:     785035
LLC WRITEBACK ACCESS:        131  HIT:        127  MISS:          4

Region of Interest Statistics

CPU 0 cumulative IPC: 0.17535 instructions: 100000000 cycles: 570286507
L1D TOTAL     ACCESS:   53695610  HIT:   44672755  MISS:    9022855
L1D LOAD      ACCESS:   33902206  HIT:   29252784  MISS:    4649422
L1D RFO       ACCESS:   19793404  HIT:   15419971  MISS:    4373433
L1D PREFETCH  ACCESS:          0  HIT:          0  MISS:          0
L1D WRITEBACK ACCESS:          0  HIT:          0  MISS:          0
L1D PREFETCH  REQUESTED:          0  ISSUED:          0  USEFUL:          0  USELESS:          0
L1I TOTAL     ACCESS:   23955400  HIT:   23955400  MISS:          0
L1I LOAD      ACCESS:   23955400  HIT:   23955400  MISS:          0
L1I RFO       ACCESS:          0  HIT:          0  MISS:          0
L1I PREFETCH  ACCESS:          0  HIT:          0  MISS:          0
L1I WRITEBACK ACCESS:          0  HIT:          0  MISS:          0
L1I PREFETCH  REQUESTED:          0  ISSUED:          0  USEFUL:          0  USELESS:          0
L2C TOTAL     ACCESS:   20747218  HIT:   11807512  MISS:    8939706
L2C LOAD      ACCESS:    4649353  HIT:    2550586  MISS:    2098767
L2C RFO       ACCESS:    4373433  HIT:         12  MISS:    4373421
L2C PREFETCH  ACCESS:    2701577  HIT:     238650  MISS:    2462927
L2C WRITEBACK ACCESS:    9022855  HIT:    9018264  MISS:       4591
L2C PREFETCH  REQUESTED:    4061835  ISSUED:    4061835  USEFUL:    2763021  USELESS:     200920
LLC TOTAL     ACCESS:   18236798  HIT:   11274160  MISS:    6962638
LLC LOAD      ACCESS:    1983257  HIT:    1844100  MISS:     139157
LLC RFO       ACCESS:    4373421  HIT:     105939  MISS:    4267482
LLC PREFETCH  ACCESS:    3125611  HIT:     569612  MISS:    2555999
LLC WRITEBACK ACCESS:    8754509  HIT:    8754509  MISS:          0
LLC PREFETCH  REQUESTED:          0  ISSUED:          0  USEFUL:     415724  USELESS:   10226826
Major fault: 0 Minor fault: 257383

CPU 1 cumulative IPC: 1.65997 instructions: 100000001 cycles: 60242173
L1D TOTAL     ACCESS:   16258930  HIT:   15833044  MISS:     425886
L1D LOAD      ACCESS:   13182867  HIT:   12781188  MISS:     401679
L1D RFO       ACCESS:    3076063  HIT:    3051856  MISS:      24207
L1D PREFETCH  ACCESS:          0  HIT:          0  MISS:          0
L1D WRITEBACK ACCESS:          0  HIT:          0  MISS:          0
L1D PREFETCH  REQUESTED:          0  ISSUED:          0  USEFUL:          0  USELESS:          0
L1I TOTAL     ACCESS:   23487352  HIT:   23487352  MISS:          0
L1I LOAD      ACCESS:   23487352  HIT:   23487352  MISS:          0
L1I RFO       ACCESS:          0  HIT:          0  MISS:          0
L1I PREFETCH  ACCESS:          0  HIT:          0  MISS:          0
L1I WRITEBACK ACCESS:          0  HIT:          0  MISS:          0
L1I PREFETCH  REQUESTED:          0  ISSUED:          0  USEFUL:          0  USELESS:          0
L2C TOTAL     ACCESS:     913239  HIT:     902256  MISS:      10983
L2C LOAD      ACCESS:     401679  HIT:     398308  MISS:       3371
L2C RFO       ACCESS:      23888  HIT:      23596  MISS:        292
L2C PREFETCH  ACCESS:     463470  HIT:     456191  MISS:       7279
L2C WRITEBACK ACCESS:      24202  HIT:      24161  MISS:         41
L2C PREFETCH  REQUESTED:    5117086  ISSUED:    5117086  USEFUL:      73029  USELESS:       1347
LLC TOTAL     ACCESS:      20963  HIT:       9520  MISS:      11443
LLC LOAD      ACCESS:       3351  HIT:        842  MISS:       2509
LLC RFO       ACCESS:        292  HIT:          0  MISS:        292
LLC PREFETCH  ACCESS:      17001  HIT:       8652  MISS:       8349
LLC WRITEBACK ACCESS:        319  HIT:         26  MISS:        293
LLC PREFETCH  REQUESTED:          0  ISSUED:          0  USEFUL:     415724  USELESS:   10226826
Major fault: 0 Minor fault: 916

CPU 2 cumulative IPC: 1.1349 instructions: 100000002 cycles: 88113285
L1D TOTAL     ACCESS:   17263271  HIT:   17259783  MISS:       3488
L1D LOAD      ACCESS:   13893902  HIT:   13893465  MISS:        437
L1D RFO       ACCESS:    3369369  HIT:    3366318  MISS:       3051
L1D PREFETCH  ACCESS:          0  HIT:          0  MISS:          0
L1D WRITEBACK ACCESS:          0  HIT:          0  MISS:          0
L1D PREFETCH  REQUESTED:          0  ISSUED:          0  USEFUL:          0  USELESS:          0
L1I TOTAL     ACCESS:   24485963  HIT:   24485963  MISS:          0
L1I LOAD      ACCESS:   24485963  HIT:   24485963  MISS:          0
L1I RFO       ACCESS:          0  HIT:          0  MISS:          0
L1I PREFETCH  ACCESS:          0  HIT:          0  MISS:          0
L1I WRITEBACK ACCESS:          0  HIT:          0  MISS:          0
L1I PREFETCH  REQUESTED:          0  ISSUED:          0  USEFUL:          0  USELESS:          0
L2C TOTAL     ACCESS:       6931  HIT:       3933  MISS:       2998
L2C LOAD      ACCESS:        437  HIT:        349  MISS:         88
L2C RFO       ACCESS:       3051  HIT:        345  MISS:       2706
L2C PREFETCH  ACCESS:        393  HIT:        189  MISS:        204
L2C WRITEBACK ACCESS:       3050  HIT:       3050  MISS:          0
L2C PREFETCH  REQUESTED:      38822  ISSUED:      38822  USEFUL:      16608  USELESS:        482
LLC TOTAL     ACCESS:       5894  HIT:        139  MISS:       5755
LLC LOAD      ACCESS:         88  HIT:         43  MISS:         45
LLC RFO       ACCESS:       2706  HIT:          0  MISS:       2706
LLC PREFETCH  ACCESS:        377  HIT:         96  MISS:        281
LLC WRITEBACK ACCESS:       2723  HIT:          0  MISS:       2723
LLC PREFETCH  REQUESTED:          0  ISSUED:          0  USEFUL:     415724  USELESS:   10226826
Major fault: 0 Minor fault: 3117

CPU 3 cumulative IPC: 0.512892 instructions: 100000001 cycles: 194972859
L1D TOTAL     ACCESS:   56090307  HIT:   54166283  MISS:    1924024
L1D LOAD      ACCESS:   49678999  HIT:   47754975  MISS:    1924024
L1D RFO       ACCESS:    6411308  HIT:    6411308  MISS:          0
L1D PREFETCH  ACCESS:          0  HIT:          0  MISS:          0
L1D WRITEBACK ACCESS:          0  HIT:          0  MISS:          0
L1D PREFETCH  REQUESTED:          0  ISSUED:          0  USEFUL:          0  USELESS:          0
L1I TOTAL     ACCESS:   29359154  HIT:   29359154  MISS:          0
L1I LOAD      ACCESS:   29359154  HIT:   29359154  MISS:          0
L1I RFO       ACCESS:          0  HIT:          0  MISS:          0
L1I PREFETCH  ACCESS:          0  HIT:          0  MISS:          0
L1I WRITEBACK ACCESS:          0  HIT:          0  MISS:          0
L1I PREFETCH  REQUESTED:          0  ISSUED:          0  USEFUL:          0  USELESS:          0
L2C TOTAL     ACCESS:    4934496  HIT:    2591544  MISS:    2342952
L2C LOAD      ACCESS:    1924024  HIT:    1358470  MISS:     565554
L2C RFO       ACCESS:          0  HIT:          0  MISS:          0
L2C PREFETCH  ACCESS:    2038952  HIT:     261559  MISS:    1777393
L2C WRITEBACK ACCESS:     971520  HIT:     971515  MISS:          5
L2C PREFETCH  REQUESTED:    8599170  ISSUED:    8599068  USEFUL:    3975422  USELESS:    1325215
LLC TOTAL     ACCESS:    4025773  HIT:    1820516  MISS:    2205257
LLC LOAD      ACCESS:     549547  HIT:     191494  MISS:     358053
LLC RFO       ACCESS:          0  HIT:          0  MISS:          0
LLC PREFETCH  ACCESS:    2504715  HIT:     657511  MISS:    1847204
LLC WRITEBACK ACCESS:     971511  HIT:     971511  MISS:          0
LLC PREFETCH  REQUESTED:          0  ISSUED:          0  USEFUL:     415724  USELESS:   10226826
Major fault: 0 Minor fault: 740120

CPU 4 cumulative IPC: 0.561925 instructions: 100000000 cycles: 177959651
L1D TOTAL     ACCESS:   37346743  HIT:   37061601  MISS:     285142
L1D LOAD      ACCESS:   17190679  HIT:   16934145  MISS:     256534
L1D RFO       ACCESS:   20156064  HIT:   20127456  MISS:      28608
L1D PREFETCH  ACCESS:          0  HIT:          0  MISS:          0
L1D WRITEBACK ACCESS:          0  HIT:          0  MISS:          0
L1D PREFETCH  REQUESTED:          0  ISSUED:          0  USEFUL:          0  USELESS:          0
L1I TOTAL     ACCESS:   27426036  HIT:   27079805  MISS:     346231
L1I LOAD      ACCESS:   27426036  HIT:   27079805  MISS:     346231
L1I RFO       ACCESS:          0  HIT:          0  MISS:          0
L1I PREFETCH  ACCESS:          0  HIT:          0  MISS:          0
L1I WRITEBACK ACCESS:          0  HIT:          0  MISS:          0
L1I PREFETCH  REQUESTED:          0  ISSUED:          0  USEFUL:          0  USELESS:          0
L2C TOTAL     ACCESS:    1363276  HIT:    1085705  MISS:     277571
L2C LOAD      ACCESS:     602764  HIT:     460587  MISS:     142177
L2C RFO       ACCESS:      28608  HIT:      17788  MISS:      10820
L2C PREFETCH  ACCESS:     651719  HIT:     529170  MISS:     122549
L2C WRITEBACK ACCESS:      80185  HIT:      78160  MISS:       2025
L2C PREFETCH  REQUESTED:    2881680  ISSUED:    2877517  USEFUL:     163654  USELESS:     280225
LLC TOTAL     ACCESS:     424805  HIT:     238923  MISS:     185882
LLC LOAD      ACCESS:     138043  HIT:      67747  MISS:      70296
LLC RFO       ACCESS:      10791  HIT:       5451  MISS:       5340
LLC PREFETCH  ACCESS:     238960  HIT:     131208  MISS:     107752
LLC WRITEBACK ACCESS:      37011  HIT:      34517  MISS:       2494
LLC PREFETCH  REQUESTED:          0  ISSUED:          0  USEFUL:     415724  USELESS:   10226826
Major fault: 0 Minor fault: 5869

CPU 5 cumulative IPC: 0.39661 instructions: 100000003 cycles: 252136836
L1D TOTAL     ACCESS:   23728224  HIT:   18764421  MISS:    4963803
L1D LOAD      ACCESS:   16969642  HIT:   12215860  MISS:    4753782
L1D RFO       ACCESS:    6758582  HIT:    6548561  MISS:     210021
L1D PREFETCH  ACCESS:          0  HIT:          0  MISS:          0
L1D WRITEBACK ACCESS:          0  HIT:          0  MISS:          0
L1D PREFETCH  REQUESTED:          0  ISSUED:          0  USEFUL:          0  USELESS:          0
L1I TOTAL     ACCESS:   43809012  HIT:   43562905  MISS:     246107
L1I LOAD      ACCESS:   43809012  HIT:   43562905  MISS:     246107
L1I RFO       ACCESS:          0  HIT:          0  MISS:          0
L1I PREFETCH  ACCESS:          0  HIT:          0  MISS:          0
L1I WRITEBACK ACCESS:          0  HIT:          0  MISS:          0
L1I PREFETCH  REQUESTED:          0  ISSUED:          0  USEFUL:          0  USELESS:          0
L2C TOTAL     ACCESS:    8898481  HIT:    5677488  MISS:    3220993
L2C LOAD      ACCESS:    4999847  HIT:    2967812  MISS:    2032035
L2C RFO       ACCESS:     210015  HIT:      37480  MISS:     172535
L2C PREFETCH  ACCESS:    3365283  HIT:    2348947  MISS:    1016336
L2C WRITEBACK ACCESS:     323336  HIT:     323249  MISS:         87
L2C PREFETCH  REQUESTED:   13694048  ISSUED:   13694048  USEFUL:    1175312  USELESS:    1682802
LLC TOTAL     ACCESS:    4573493  HIT:    4287934  MISS:     285559
LLC LOAD      ACCESS:    1962568  HIT:    1940114  MISS:      22454
LLC RFO       ACCESS:     172210  HIT:      16862  MISS:     155348
LLC PREFETCH  ACCESS:    2206014  HIT:    2098754  MISS:     107260
LLC WRITEBACK ACCESS:     232701  HIT:     232204  MISS:        497
LLC PREFETCH  REQUESTED:          0  ISSUED:          0  USEFUL:     415724  USELESS:   10226826
Major fault: 0 Minor fault: 5484

CPU 6 cumulative IPC: 0.389237 instructions: 100000002 cycles: 256913135
L1D TOTAL     ACCESS:   31439386  HIT:   30352397  MISS:    1086989
L1D LOAD      ACCESS:   19592667  HIT:   18609147  MISS:     983520
L1D RFO       ACCESS:   11846719  HIT:   11743250  MISS:     103469
L1D PREFETCH  ACCESS:          0  HIT:          0  MISS:          0
L1D WRITEBACK ACCESS:          0  HIT:          0  MISS:          0
L1D PREFETCH  REQUESTED:          0  ISSUED:          0  USEFUL:          0  USELESS:          0
L1I TOTAL     ACCESS:   27462422  HIT:   27233800  MISS:     228622
L1I LOAD      ACCESS:   27462422  HIT:   27233800  MISS:     228622
L1I RFO       ACCESS:          0  HIT:          0  MISS:          0
L1I PREFETCH  ACCESS:          0  HIT:          0  MISS:          0
L1I WRITEBACK ACCESS:          0  HIT:          0  MISS:          0
L1I PREFETCH  REQUESTED:          0  ISSUED:          0  USEFUL:          0  USELESS:          0
L2C TOTAL     ACCESS:    2765733  HIT:    1971350  MISS:     794383
L2C LOAD      ACCESS:    1212134  HIT:     839536  MISS:     372598
L2C RFO       ACCESS:     103465  HIT:      30140  MISS:      73325
L2C PREFETCH  ACCESS:    1204771  HIT:     858693  MISS:     346078
L2C WRITEBACK ACCESS:     245363  HIT:     242981  MISS:       2382
L2C PREFETCH  REQUESTED:    4539894  ISSUED:    4536500  USEFUL:     456553  USELESS:     356061
LLC TOTAL     ACCESS:    1193713  HIT:     874357  MISS:     319356
LLC LOAD      ACCESS:     356995  HIT:     267722  MISS:      89273
LLC RFO       ACCESS:      73049  HIT:      20410  MISS:      52639
LLC PREFETCH  ACCESS:     599562  HIT:     424591  MISS:     174971
LLC WRITEBACK ACCESS:     164107  HIT:     161634  MISS:       2473
LLC PREFETCH  REQUESTED:          0  ISSUED:          0  USEFUL:     415724  USELESS:   10226826
Major fault: 0 Minor fault: 9850

CPU 7 cumulative IPC: 1.47726 instructions: 100000000 cycles: 67693095
L1D TOTAL     ACCESS:   15649925  HIT:   15553258  MISS:      96667
L1D LOAD      ACCESS:   12550651  HIT:   12453997  MISS:      96654
L1D RFO       ACCESS:    3099274  HIT:    3099261  MISS:         13
L1D PREFETCH  ACCESS:          0  HIT:          0  MISS:          0
L1D WRITEBACK ACCESS:          0  HIT:          0  MISS:          0
L1D PREFETCH  REQUESTED:          0  ISSUED:          0  USEFUL:          0  USELESS:          0
L1I TOTAL     ACCESS:   26768135  HIT:   26767897  MISS:        238
L1I LOAD      ACCESS:   26768135  HIT:   26767897  MISS:        238
L1I RFO       ACCESS:          0  HIT:          0  MISS:          0
L1I PREFETCH  ACCESS:          0  HIT:          0  MISS:          0
L1I WRITEBACK ACCESS:          0  HIT:          0  MISS:          0
L1I PREFETCH  REQUESTED:          0  ISSUED:          0  USEFUL:          0  USELESS:          0
L2C TOTAL     ACCESS:     214736  HIT:     117657  MISS:      97079
L2C LOAD      ACCESS:      96892  HIT:      94287  MISS:       2605
L2C RFO       ACCESS:         13  HIT:          0  MISS:         13
L2C PREFETCH  ACCESS:     117771  HIT:      23315  MISS:      94456
L2C WRITEBACK ACCESS:         60  HIT:         55  MISS:          5
L2C PREFETCH  REQUESTED:    1089051  ISSUED:    1089051  USEFUL:     825452  USELESS:        308
LLC TOTAL     ACCESS:     101705  HIT:       4547  MISS:      97158
LLC LOAD      ACCESS:       2545  HIT:         82  MISS:       2463
LLC RFO       ACCESS:         13  HIT:          5  MISS:          8
LLC PREFETCH  ACCESS:      99087  HIT:       4403  MISS:      94684
LLC WRITEBACK ACCESS:         60  HIT:         57  MISS:          3
LLC PREFETCH  REQUESTED:          0  ISSUED:          0  USEFUL:     415724  USELESS:   10226826
Major fault: 0 Minor fault: 12554

Avg Lookahead Depth:	1.93917
TOTAL: 4.00216e+07	L2C: 2.67198e+07	LLC: 1.33018e+07	GOOD_L2C: 1.60864e+07
Printing all the perceptron weights to: perc_weights_0.csv

Avg Lookahead Depth:	1.93917
TOTAL: 4.00216e+07	L2C: 2.67198e+07	LLC: 1.33018e+07	GOOD_L2C: 1.60864e+07
Printing all the perceptron weights to: perc_weights_0.csv

Avg Lookahead Depth:	1.93917
TOTAL: 4.00216e+07	L2C: 2.67198e+07	LLC: 1.33018e+07	GOOD_L2C: 1.60864e+07
Printing all the perceptron weights to: perc_weights_0.csv

Avg Lookahead Depth:	1.93917
TOTAL: 4.00216e+07	L2C: 2.67198e+07	LLC: 1.33018e+07	GOOD_L2C: 1.60864e+07
Printing all the perceptron weights to: perc_weights_0.csv

Avg Lookahead Depth:	1.93917
TOTAL: 4.00216e+07	L2C: 2.67198e+07	LLC: 1.33018e+07	GOOD_L2C: 1.60864e+07
Printing all the perceptron weights to: perc_weights_0.csv

Avg Lookahead Depth:	1.93917
TOTAL: 4.00216e+07	L2C: 2.67198e+07	LLC: 1.33018e+07	GOOD_L2C: 1.60864e+07
Printing all the perceptron weights to: perc_weights_0.csv

Avg Lookahead Depth:	1.93917
TOTAL: 4.00216e+07	L2C: 2.67198e+07	LLC: 1.33018e+07	GOOD_L2C: 1.60864e+07
Printing all the perceptron weights to: perc_weights_0.csv

Avg Lookahead Depth:	1.93917
TOTAL: 4.00216e+07	L2C: 2.67198e+07	LLC: 1.33018e+07	GOOD_L2C: 1.60864e+07
Printing all the perceptron weights to: perc_weights_0.csv

DRAM Statistics
 CHANNEL 0
 RQ ROW_BUFFER_HIT:    2087835  ROW_BUFFER_MISS:    6215375
 DBUS_CONGESTED:   17300995
 WQ ROW_BUFFER_HIT:     529045  ROW_BUFFER_MISS:    4730069  FULL:          0

 CHANNEL 1
 RQ ROW_BUFFER_HIT:    2092766  ROW_BUFFER_MISS:    6237356
 DBUS_CONGESTED:   17300995
 WQ ROW_BUFFER_HIT:     529475  ROW_BUFFER_MISS:    4732604  FULL:          0

 AVG_CONGESTED_CYCLE: 14
