Initialize SIGNATURE TABLE
ST_SET: 1
ST_WAY: 256
ST_TAG_BIT: 16
ST_TAG_MASK: ffff

Initialize PATTERN TABLE
PT_SET: 512
PT_WAY: 4
SIG_DELTA_BIT: 7
C_SIG_BIT: 4
C_DELTA_BIT: 4

Initialize PREFETCH FILTER
FILTER_SET: 1024

Initialize PERCEPTRON
PERC_ENTRIES: 4096
PERC_FEATURES: 9

*** ChampSim Multicore Out-of-Order Simulator ***

Warmup Instructions: 20000000
Simulation Instructions: 100000000
Number of CPUs: 8
LLC sets: 16384
LLC ways: 16
Off-chip DRAM Size: 8192 MB Channels: 2 Width: 64-bit Data Rate: 1600 MT/s

CPU 0 runs /scratch/user/djimenez/champsim-traces/speccpu2017/xz/607.cactuBSSN_s/607.cactuBSSN_s-4004B.champsimtrace.xz
CPU 1 runs /scratch/user/djimenez/champsim-traces/speccpu2017/xz/603.bwaves_s/603.bwaves_s-1080B.champsimtrace.xz
CPU 2 runs /scratch/user/djimenez/champsim-traces/speccpu2017/xz/621.wrf_s/621.wrf_s-6673B.champsimtrace.xz
CPU 3 runs /scratch/user/djimenez/champsim-traces/speccpu2017/xz/657.xz_s/657.xz_s-3167B.champsimtrace.xz
CPU 4 runs /scratch/user/djimenez/champsim-traces/speccpu2017/xz/648.exchange2_s/648.exchange2_s-210B.champsimtrace.xz
CPU 5 runs /scratch/user/djimenez/champsim-traces/speccpu2017/xz/648.exchange2_s/648.exchange2_s-1247B.champsimtrace.xz
CPU 6 runs /scratch/user/djimenez/champsim-traces/speccpu2017/xz/638.imagick_s/638.imagick_s-10316B.champsimtrace.xz
CPU 7 runs /scratch/user/djimenez/champsim-traces/speccpu2017/xz/600.perlbench_s/600.perlbench_s-1273B.champsimtrace.xz
Heartbeat CPU 6 instructions: 10000000 cycles: 3517841 heartbeat IPC: 2.84265 cumulative IPC: 2.84265 (Simulation time: 0 hr 2 min 30 sec) 
Heartbeat CPU 3 instructions: 10000003 cycles: 3994255 heartbeat IPC: 2.5036 cumulative IPC: 2.5036 (Simulation time: 0 hr 2 min 51 sec) 
Heartbeat CPU 1 instructions: 10000003 cycles: 4334887 heartbeat IPC: 2.30687 cumulative IPC: 2.30687 (Simulation time: 0 hr 3 min 6 sec) 
Heartbeat CPU 5 instructions: 10000000 cycles: 4390680 heartbeat IPC: 2.27755 cumulative IPC: 2.27755 (Simulation time: 0 hr 3 min 8 sec) 
Heartbeat CPU 4 instructions: 10000002 cycles: 4421953 heartbeat IPC: 2.26144 cumulative IPC: 2.26144 (Simulation time: 0 hr 3 min 9 sec) 
Heartbeat CPU 2 instructions: 10000001 cycles: 5374819 heartbeat IPC: 1.86053 cumulative IPC: 1.86053 (Simulation time: 0 hr 3 min 51 sec) 
Heartbeat CPU 0 instructions: 10000000 cycles: 5802353 heartbeat IPC: 1.72344 cumulative IPC: 1.72344 (Simulation time: 0 hr 4 min 10 sec) 
Heartbeat CPU 7 instructions: 10000003 cycles: 5917085 heartbeat IPC: 1.69002 cumulative IPC: 1.69002 (Simulation time: 0 hr 4 min 16 sec) 
Heartbeat CPU 6 instructions: 20000000 cycles: 7035480 heartbeat IPC: 2.84282 cumulative IPC: 2.84273 (Simulation time: 0 hr 5 min 6 sec) 
Heartbeat CPU 3 instructions: 20000000 cycles: 7999560 heartbeat IPC: 2.49669 cumulative IPC: 2.50014 (Simulation time: 0 hr 5 min 47 sec) 
Heartbeat CPU 5 instructions: 20000000 cycles: 8751832 heartbeat IPC: 2.29297 cumulative IPC: 2.28524 (Simulation time: 0 hr 6 min 19 sec) 
Heartbeat CPU 4 instructions: 20000000 cycles: 8806393 heartbeat IPC: 2.28079 cumulative IPC: 2.27108 (Simulation time: 0 hr 6 min 21 sec) 
Heartbeat CPU 1 instructions: 20000000 cycles: 8838389 heartbeat IPC: 2.22049 cumulative IPC: 2.26286 (Simulation time: 0 hr 6 min 23 sec) 
Heartbeat CPU 2 instructions: 20000000 cycles: 9445250 heartbeat IPC: 2.45674 cumulative IPC: 2.11747 (Simulation time: 0 hr 6 min 49 sec) 
Heartbeat CPU 6 instructions: 30000001 cycles: 10553214 heartbeat IPC: 2.84274 cumulative IPC: 0.947579 (Simulation time: 0 hr 7 min 36 sec) 
Heartbeat CPU 0 instructions: 20000000 cycles: 11604888 heartbeat IPC: 1.72338 cumulative IPC: 1.72341 (Simulation time: 0 hr 8 min 19 sec) 
Heartbeat CPU 7 instructions: 20000000 cycles: 11738609 heartbeat IPC: 1.71776 cumulative IPC: 1.70378 (Simulation time: 0 hr 8 min 25 sec) 

Warmup complete CPU 0 instructions: 20231273 cycles: 11738610 (Simulation time: 0 hr 8 min 25 sec) 
Warmup complete CPU 1 instructions: 27328407 cycles: 11738610 (Simulation time: 0 hr 8 min 25 sec) 
Warmup complete CPU 2 instructions: 26086919 cycles: 11738610 (Simulation time: 0 hr 8 min 25 sec) 
Warmup complete CPU 3 instructions: 29132803 cycles: 11738610 (Simulation time: 0 hr 8 min 25 sec) 
Warmup complete CPU 4 instructions: 26766190 cycles: 11738610 (Simulation time: 0 hr 8 min 25 sec) 
Warmup complete CPU 5 instructions: 26826413 cycles: 11738610 (Simulation time: 0 hr 8 min 25 sec) 
Warmup complete CPU 6 instructions: 33369642 cycles: 11738610 (Simulation time: 0 hr 8 min 25 sec) 
Warmup complete CPU 7 instructions: 20000003 cycles: 11738610 (Simulation time: 0 hr 8 min 25 sec) 

Heartbeat CPU 3 instructions: 30000000 cycles: 12667403 heartbeat IPC: 2.14232 cumulative IPC: 0.933682 (Simulation time: 0 hr 8 min 54 sec) 
Heartbeat CPU 5 instructions: 30000000 cycles: 13705305 heartbeat IPC: 2.01879 cumulative IPC: 1.61367 (Simulation time: 0 hr 9 min 28 sec) 
Heartbeat CPU 4 instructions: 30000001 cycles: 13802216 heartbeat IPC: 2.00167 cumulative IPC: 1.56707 (Simulation time: 0 hr 9 min 31 sec) 
Heartbeat CPU 1 instructions: 30000001 cycles: 14010980 heartbeat IPC: 1.93327 cumulative IPC: 1.17569 (Simulation time: 0 hr 9 min 38 sec) 
Heartbeat CPU 6 instructions: 40000000 cycles: 14749464 heartbeat IPC: 2.38308 cumulative IPC: 2.20215 (Simulation time: 0 hr 10 min 2 sec) 
Heartbeat CPU 2 instructions: 30000000 cycles: 14848390 heartbeat IPC: 1.85078 cumulative IPC: 1.25831 (Simulation time: 0 hr 10 min 5 sec) 
Heartbeat CPU 6 instructions: 50000000 cycles: 19297275 heartbeat IPC: 2.19886 cumulative IPC: 2.20017 (Simulation time: 0 hr 12 min 27 sec) 
Heartbeat CPU 5 instructions: 40000000 cycles: 19913486 heartbeat IPC: 1.61078 cumulative IPC: 1.61147 (Simulation time: 0 hr 12 min 47 sec) 
Heartbeat CPU 4 instructions: 40000000 cycles: 20056821 heartbeat IPC: 1.59882 cumulative IPC: 1.59094 (Simulation time: 0 hr 12 min 51 sec) 
Heartbeat CPU 0 instructions: 30000003 cycles: 21147655 heartbeat IPC: 1.04791 cumulative IPC: 1.03823 (Simulation time: 0 hr 13 min 26 sec) 
Heartbeat CPU 7 instructions: 30000002 cycles: 21683931 heartbeat IPC: 1.0055 cumulative IPC: 1.0055 (Simulation time: 0 hr 13 min 43 sec) 
Heartbeat CPU 1 instructions: 40000000 cycles: 22556060 heartbeat IPC: 1.17026 cumulative IPC: 1.1714 (Simulation time: 0 hr 14 min 11 sec) 
Heartbeat CPU 6 instructions: 60000000 cycles: 23850561 heartbeat IPC: 2.19622 cumulative IPC: 2.19868 (Simulation time: 0 hr 14 min 52 sec) 
Heartbeat CPU 2 instructions: 40000000 cycles: 24922021 heartbeat IPC: 0.992691 cumulative IPC: 1.05535 (Simulation time: 0 hr 15 min 27 sec) 
Heartbeat CPU 3 instructions: 40000000 cycles: 25913388 heartbeat IPC: 0.754946 cumulative IPC: 0.766657 (Simulation time: 0 hr 15 min 58 sec) 
Heartbeat CPU 5 instructions: 50000003 cycles: 26195718 heartbeat IPC: 1.59179 cumulative IPC: 1.60292 (Simulation time: 0 hr 16 min 7 sec) 
Heartbeat CPU 4 instructions: 50000002 cycles: 26364450 heartbeat IPC: 1.58538 cumulative IPC: 1.58855 (Simulation time: 0 hr 16 min 12 sec) 
Heartbeat CPU 6 instructions: 70000003 cycles: 28396487 heartbeat IPC: 2.19977 cumulative IPC: 2.19898 (Simulation time: 0 hr 17 min 14 sec) 
Heartbeat CPU 0 instructions: 40000000 cycles: 30865423 heartbeat IPC: 1.02904 cumulative IPC: 1.03356 (Simulation time: 0 hr 18 min 31 sec) 
Heartbeat CPU 1 instructions: 50000000 cycles: 31161007 heartbeat IPC: 1.16212 cumulative IPC: 1.16729 (Simulation time: 0 hr 18 min 40 sec) 
Heartbeat CPU 4 instructions: 60000000 cycles: 32608492 heartbeat IPC: 1.60153 cumulative IPC: 1.59243 (Simulation time: 0 hr 19 min 25 sec) 
Heartbeat CPU 5 instructions: 60000000 cycles: 32788976 heartbeat IPC: 1.5167 cumulative IPC: 1.57591 (Simulation time: 0 hr 19 min 30 sec) 
Heartbeat CPU 6 instructions: 80000000 cycles: 32945504 heartbeat IPC: 2.19828 cumulative IPC: 2.19883 (Simulation time: 0 hr 19 min 35 sec) 
Heartbeat CPU 2 instructions: 50000000 cycles: 33173692 heartbeat IPC: 1.21188 cumulative IPC: 1.1156 (Simulation time: 0 hr 19 min 42 sec) 
Heartbeat CPU 7 instructions: 40000000 cycles: 33889045 heartbeat IPC: 0.819329 cumulative IPC: 0.902917 (Simulation time: 0 hr 20 min 4 sec) 
Heartbeat CPU 6 instructions: 90000001 cycles: 37490337 heartbeat IPC: 2.2003 cumulative IPC: 2.19909 (Simulation time: 0 hr 21 min 55 sec) 
Heartbeat CPU 4 instructions: 70000002 cycles: 38916811 heartbeat IPC: 1.58521 cumulative IPC: 1.59075 (Simulation time: 0 hr 22 min 38 sec) 
Heartbeat CPU 3 instructions: 50000000 cycles: 38978064 heartbeat IPC: 0.765423 cumulative IPC: 0.766065 (Simulation time: 0 hr 22 min 39 sec) 
Heartbeat CPU 5 instructions: 70000000 cycles: 39732451 heartbeat IPC: 1.4402 cumulative IPC: 1.54225 (Simulation time: 0 hr 23 min 2 sec) 
Heartbeat CPU 1 instructions: 60000000 cycles: 39996376 heartbeat IPC: 1.13181 cumulative IPC: 1.1562 (Simulation time: 0 hr 23 min 11 sec) 
Heartbeat CPU 0 instructions: 50000000 cycles: 40499260 heartbeat IPC: 1.03801 cumulative IPC: 1.03505 (Simulation time: 0 hr 23 min 27 sec) 
Heartbeat CPU 6 instructions: 100000000 cycles: 42032408 heartbeat IPC: 2.20164 cumulative IPC: 2.19947 (Simulation time: 0 hr 24 min 14 sec) 
Heartbeat CPU 2 instructions: 60000000 cycles: 42336580 heartbeat IPC: 1.09136 cumulative IPC: 1.10834 (Simulation time: 0 hr 24 min 24 sec) 
Heartbeat CPU 4 instructions: 80000000 cycles: 45137872 heartbeat IPC: 1.60744 cumulative IPC: 1.59386 (Simulation time: 0 hr 25 min 53 sec) 
Heartbeat CPU 5 instructions: 80000000 cycles: 46065443 heartbeat IPC: 1.57903 cumulative IPC: 1.54904 (Simulation time: 0 hr 26 min 22 sec) 
Heartbeat CPU 6 instructions: 110000003 cycles: 46570096 heartbeat IPC: 2.20377 cumulative IPC: 2.20003 (Simulation time: 0 hr 26 min 38 sec) 
Heartbeat CPU 7 instructions: 50000003 cycles: 46998155 heartbeat IPC: 0.762829 cumulative IPC: 0.850833 (Simulation time: 0 hr 26 min 52 sec) 
Heartbeat CPU 1 instructions: 70000000 cycles: 48806447 heartbeat IPC: 1.13506 cumulative IPC: 1.15118 (Simulation time: 0 hr 27 min 49 sec) 
Heartbeat CPU 0 instructions: 60000000 cycles: 50137174 heartbeat IPC: 1.03757 cumulative IPC: 1.03568 (Simulation time: 0 hr 28 min 31 sec) 
Heartbeat CPU 3 instructions: 60000000 cycles: 50668322 heartbeat IPC: 0.855413 cumulative IPC: 0.792896 (Simulation time: 0 hr 28 min 48 sec) 
Heartbeat CPU 6 instructions: 120000000 cycles: 51137537 heartbeat IPC: 2.18941 cumulative IPC: 2.1988 (Simulation time: 0 hr 29 min 3 sec) 
Heartbeat CPU 4 instructions: 90000003 cycles: 51336659 heartbeat IPC: 1.61322 cumulative IPC: 1.59689 (Simulation time: 0 hr 29 min 9 sec) 
Heartbeat CPU 2 instructions: 70000003 cycles: 51651797 heartbeat IPC: 1.07351 cumulative IPC: 1.10021 (Simulation time: 0 hr 29 min 19 sec) 
Heartbeat CPU 5 instructions: 90000001 cycles: 52341299 heartbeat IPC: 1.59341 cumulative IPC: 1.5559 (Simulation time: 0 hr 29 min 40 sec) 
Heartbeat CPU 6 instructions: 130000000 cycles: 55684224 heartbeat IPC: 2.1994 cumulative IPC: 2.19886 (Simulation time: 0 hr 31 min 27 sec) 
Finished CPU 6 instructions: 100000002 cycles: 45477097 cumulative IPC: 2.19891 (Simulation time: 0 hr 32 min 17 sec) 
Heartbeat CPU 4 instructions: 100000000 cycles: 57590354 heartbeat IPC: 1.59905 cumulative IPC: 1.59719 (Simulation time: 0 hr 32 min 29 sec) 
Heartbeat CPU 1 instructions: 80000000 cycles: 57634170 heartbeat IPC: 1.13279 cumulative IPC: 1.14764 (Simulation time: 0 hr 32 min 31 sec) 
Heartbeat CPU 5 instructions: 100000000 cycles: 58727621 heartbeat IPC: 1.56585 cumulative IPC: 1.55725 (Simulation time: 0 hr 33 min 6 sec) 
Heartbeat CPU 7 instructions: 60000000 cycles: 59044764 heartbeat IPC: 0.830109 cumulative IPC: 0.845556 (Simulation time: 0 hr 33 min 16 sec) 
Heartbeat CPU 2 instructions: 80000000 cycles: 59682496 heartbeat IPC: 1.24522 cumulative IPC: 1.1245 (Simulation time: 0 hr 33 min 37 sec) 
Heartbeat CPU 0 instructions: 70000002 cycles: 59753104 heartbeat IPC: 1.03994 cumulative IPC: 1.03654 (Simulation time: 0 hr 33 min 39 sec) 
Heartbeat CPU 6 instructions: 140000000 cycles: 60229538 heartbeat IPC: 2.20007 cumulative IPC: 2.19898 (Simulation time: 0 hr 33 min 54 sec) 
Heartbeat CPU 3 instructions: 70000000 cycles: 61598562 heartbeat IPC: 0.914893 cumulative IPC: 0.81964 (Simulation time: 0 hr 34 min 36 sec) 
Heartbeat CPU 4 instructions: 110000000 cycles: 63989246 heartbeat IPC: 1.56277 cumulative IPC: 1.59297 (Simulation time: 0 hr 35 min 50 sec) 
Heartbeat CPU 6 instructions: 150000002 cycles: 64771268 heartbeat IPC: 2.2018 cumulative IPC: 2.19922 (Simulation time: 0 hr 36 min 15 sec) 
Heartbeat CPU 5 instructions: 110000003 cycles: 65010182 heartbeat IPC: 1.59171 cumulative IPC: 1.56131 (Simulation time: 0 hr 36 min 22 sec) 
Heartbeat CPU 1 instructions: 90000000 cycles: 66478607 heartbeat IPC: 1.13065 cumulative IPC: 1.1449 (Simulation time: 0 hr 37 min 7 sec) 
Heartbeat CPU 2 instructions: 90000002 cycles: 68552126 heartbeat IPC: 1.12744 cumulative IPC: 1.12496 (Simulation time: 0 hr 38 min 10 sec) 
Heartbeat CPU 6 instructions: 160000000 cycles: 69308310 heartbeat IPC: 2.20408 cumulative IPC: 2.1996 (Simulation time: 0 hr 38 min 33 sec) 
Heartbeat CPU 0 instructions: 80000000 cycles: 69416224 heartbeat IPC: 1.03486 cumulative IPC: 1.03626 (Simulation time: 0 hr 38 min 36 sec) 
Heartbeat CPU 4 instructions: 120000000 cycles: 70571045 heartbeat IPC: 1.51934 cumulative IPC: 1.58473 (Simulation time: 0 hr 39 min 11 sec) 
Heartbeat CPU 5 instructions: 120000000 cycles: 72023064 heartbeat IPC: 1.42595 cumulative IPC: 1.54557 (Simulation time: 0 hr 39 min 55 sec) 
Heartbeat CPU 3 instructions: 80000000 cycles: 72919217 heartbeat IPC: 0.883341 cumulative IPC: 0.831427 (Simulation time: 0 hr 40 min 23 sec) 
Heartbeat CPU 7 instructions: 70000002 cycles: 73021130 heartbeat IPC: 0.715494 cumulative IPC: 0.815893 (Simulation time: 0 hr 40 min 26 sec) 
Heartbeat CPU 6 instructions: 170000000 cycles: 73846488 heartbeat IPC: 2.20353 cumulative IPC: 2.19989 (Simulation time: 0 hr 40 min 51 sec) 
Finished CPU 4 instructions: 100000001 cycles: 63281785 cumulative IPC: 1.58023 (Simulation time: 0 hr 41 min 28 sec) 
Heartbeat CPU 1 instructions: 100000000 cycles: 75325027 heartbeat IPC: 1.1304 cumulative IPC: 1.14288 (Simulation time: 0 hr 41 min 37 sec) 
Finished CPU 5 instructions: 100000003 cycles: 64596011 cumulative IPC: 1.54808 (Simulation time: 0 hr 42 min 9 sec) 
Heartbeat CPU 4 instructions: 130000003 cycles: 77143375 heartbeat IPC: 1.52153 cumulative IPC: 1.57838 (Simulation time: 0 hr 42 min 34 sec) 
Heartbeat CPU 2 instructions: 100000000 cycles: 78124840 heartbeat IPC: 1.04464 cumulative IPC: 1.11338 (Simulation time: 0 hr 43 min 4 sec) 
Heartbeat CPU 5 instructions: 130000001 cycles: 78295685 heartbeat IPC: 1.59423 cumulative IPC: 1.55015 (Simulation time: 0 hr 43 min 9 sec) 
Heartbeat CPU 6 instructions: 180000000 cycles: 78408475 heartbeat IPC: 2.19203 cumulative IPC: 2.19935 (Simulation time: 0 hr 43 min 12 sec) 
Heartbeat CPU 0 instructions: 90000000 cycles: 79116235 heartbeat IPC: 1.03093 cumulative IPC: 1.03549 (Simulation time: 0 hr 43 min 35 sec) 
Heartbeat CPU 6 instructions: 190000000 cycles: 82948464 heartbeat IPC: 2.20265 cumulative IPC: 2.19956 (Simulation time: 0 hr 45 min 37 sec) 
Heartbeat CPU 3 instructions: 90000000 cycles: 83077397 heartbeat IPC: 0.984428 cumulative IPC: 0.853213 (Simulation time: 0 hr 45 min 41 sec) 
Heartbeat CPU 4 instructions: 140000000 cycles: 83642662 heartbeat IPC: 1.53863 cumulative IPC: 1.57479 (Simulation time: 0 hr 45 min 59 sec) 
Heartbeat CPU 1 instructions: 110000001 cycles: 84127219 heartbeat IPC: 1.13608 cumulative IPC: 1.14205 (Simulation time: 0 hr 46 min 14 sec) 
Heartbeat CPU 5 instructions: 140000000 cycles: 84723904 heartbeat IPC: 1.55564 cumulative IPC: 1.55064 (Simulation time: 0 hr 46 min 34 sec) 
Heartbeat CPU 2 instructions: 110000001 cycles: 85176451 heartbeat IPC: 1.41812 cumulative IPC: 1.14264 (Simulation time: 0 hr 46 min 48 sec) 
Heartbeat CPU 7 instructions: 80000000 cycles: 85830161 heartbeat IPC: 0.780699 cumulative IPC: 0.809809 (Simulation time: 0 hr 47 min 9 sec) 
Heartbeat CPU 6 instructions: 200000000 cycles: 87487190 heartbeat IPC: 2.20326 cumulative IPC: 2.19978 (Simulation time: 0 hr 48 min 3 sec) 
Heartbeat CPU 0 instructions: 100000000 cycles: 88722029 heartbeat IPC: 1.04104 cumulative IPC: 1.03618 (Simulation time: 0 hr 48 min 43 sec) 
Heartbeat CPU 4 instructions: 150000003 cycles: 90050895 heartbeat IPC: 1.56049 cumulative IPC: 1.57362 (Simulation time: 0 hr 49 min 24 sec) 
Heartbeat CPU 5 instructions: 150000002 cycles: 91056227 heartbeat IPC: 1.5792 cumulative IPC: 1.55292 (Simulation time: 0 hr 49 min 55 sec) 
Heartbeat CPU 6 instructions: 210000003 cycles: 92029467 heartbeat IPC: 2.20154 cumulative IPC: 2.19988 (Simulation time: 0 hr 50 min 26 sec) 
Heartbeat CPU 2 instructions: 120000000 cycles: 92721840 heartbeat IPC: 1.32531 cumulative IPC: 1.15966 (Simulation time: 0 hr 50 min 48 sec) 
Heartbeat CPU 1 instructions: 120000000 cycles: 92902551 heartbeat IPC: 1.13956 cumulative IPC: 1.14178 (Simulation time: 0 hr 50 min 54 sec) 
Heartbeat CPU 3 instructions: 100000000 cycles: 94246931 heartbeat IPC: 0.895293 cumulative IPC: 0.85891 (Simulation time: 0 hr 51 min 36 sec) 
Heartbeat CPU 6 instructions: 220000000 cycles: 96576757 heartbeat IPC: 2.19911 cumulative IPC: 2.19984 (Simulation time: 0 hr 52 min 49 sec) 
Heartbeat CPU 4 instructions: 160000000 cycles: 96594530 heartbeat IPC: 1.5282 cumulative IPC: 1.57012 (Simulation time: 0 hr 52 min 50 sec) 
Finished CPU 2 instructions: 100000002 cycles: 85062473 cumulative IPC: 1.17561 (Simulation time: 0 hr 52 min 57 sec) 
Heartbeat CPU 5 instructions: 160000000 cycles: 97491297 heartbeat IPC: 1.55398 cumulative IPC: 1.553 (Simulation time: 0 hr 53 min 18 sec) 
Heartbeat CPU 7 instructions: 90000001 cycles: 98201894 heartbeat IPC: 0.808294 cumulative IPC: 0.809592 (Simulation time: 0 hr 53 min 41 sec) 
Heartbeat CPU 0 instructions: 110000001 cycles: 98385646 heartbeat IPC: 1.03481 cumulative IPC: 1.03603 (Simulation time: 0 hr 53 min 47 sec) 
Finished CPU 1 instructions: 100000001 cycles: 87572501 cumulative IPC: 1.14191 (Simulation time: 0 hr 54 min 15 sec) 
Heartbeat CPU 2 instructions: 130000000 cycles: 99432298 heartbeat IPC: 1.49021 cumulative IPC: 1.18496 (Simulation time: 0 hr 54 min 19 sec) 
Heartbeat CPU 6 instructions: 230000001 cycles: 101107626 heartbeat IPC: 2.20708 cumulative IPC: 2.20021 (Simulation time: 0 hr 55 min 13 sec) 
Heartbeat CPU 1 instructions: 130000000 cycles: 101665745 heartbeat IPC: 1.14114 cumulative IPC: 1.14172 (Simulation time: 0 hr 55 min 30 sec) 
Heartbeat CPU 4 instructions: 170000000 cycles: 103116103 heartbeat IPC: 1.53337 cumulative IPC: 1.5675 (Simulation time: 0 hr 56 min 16 sec) 
Heartbeat CPU 5 instructions: 170000000 cycles: 103758310 heartbeat IPC: 1.59566 cumulative IPC: 1.5559 (Simulation time: 0 hr 56 min 36 sec) 
Heartbeat CPU 3 instructions: 110000001 cycles: 104939425 heartbeat IPC: 0.935236 cumulative IPC: 0.867666 (Simulation time: 0 hr 57 min 13 sec) 
Heartbeat CPU 6 instructions: 240000000 cycles: 105641187 heartbeat IPC: 2.20577 cumulative IPC: 2.20048 (Simulation time: 0 hr 57 min 36 sec) 
Heartbeat CPU 2 instructions: 140000000 cycles: 106708321 heartbeat IPC: 1.37438 cumulative IPC: 1.19947 (Simulation time: 0 hr 58 min 10 sec) 
Heartbeat CPU 0 instructions: 120000000 cycles: 107969992 heartbeat IPC: 1.04337 cumulative IPC: 1.03676 (Simulation time: 0 hr 58 min 51 sec) 
Finished CPU 0 instructions: 100000002 cycles: 96448161 cumulative IPC: 1.03683 (Simulation time: 0 hr 58 min 57 sec) 
Heartbeat CPU 4 instructions: 180000000 cycles: 109593522 heartbeat IPC: 1.54382 cumulative IPC: 1.56593 (Simulation time: 0 hr 59 min 43 sec) 
Heartbeat CPU 6 instructions: 250000001 cycles: 110157720 heartbeat IPC: 2.21409 cumulative IPC: 2.2011 (Simulation time: 1 hr 0 min 1 sec) 
Heartbeat CPU 5 instructions: 180000000 cycles: 110175083 heartbeat IPC: 1.55842 cumulative IPC: 1.55607 (Simulation time: 1 hr 0 min 2 sec) 
Heartbeat CPU 1 instructions: 140000000 cycles: 110428378 heartbeat IPC: 1.14121 cumulative IPC: 1.14167 (Simulation time: 1 hr 0 min 10 sec) 
Heartbeat CPU 7 instructions: 100000000 cycles: 110596141 heartbeat IPC: 0.806826 cumulative IPC: 0.809245 (Simulation time: 1 hr 0 min 15 sec) 
Heartbeat CPU 2 instructions: 150000000 cycles: 113545232 heartbeat IPC: 1.46265 cumulative IPC: 1.21714 (Simulation time: 1 hr 1 min 50 sec) 
Heartbeat CPU 6 instructions: 260000000 cycles: 114678410 heartbeat IPC: 2.21205 cumulative IPC: 2.20158 (Simulation time: 1 hr 2 min 25 sec) 
Heartbeat CPU 3 instructions: 120000000 cycles: 114721275 heartbeat IPC: 1.0223 cumulative IPC: 0.882354 (Simulation time: 1 hr 2 min 27 sec) 
Heartbeat CPU 4 instructions: 190000003 cycles: 116159153 heartbeat IPC: 1.52308 cumulative IPC: 1.56323 (Simulation time: 1 hr 3 min 14 sec) 
Heartbeat CPU 5 instructions: 190000003 cycles: 116555639 heartbeat IPC: 1.56726 cumulative IPC: 1.55675 (Simulation time: 1 hr 3 min 27 sec) 
Heartbeat CPU 0 instructions: 130000003 cycles: 117503856 heartbeat IPC: 1.04889 cumulative IPC: 1.03785 (Simulation time: 1 hr 3 min 59 sec) 
Heartbeat CPU 6 instructions: 270000003 cycles: 119209151 heartbeat IPC: 2.20715 cumulative IPC: 2.20182 (Simulation time: 1 hr 4 min 53 sec) 
Heartbeat CPU 1 instructions: 150000002 cycles: 119248918 heartbeat IPC: 1.13372 cumulative IPC: 1.14102 (Simulation time: 1 hr 4 min 55 sec) 
Heartbeat CPU 2 instructions: 160000000 cycles: 120525861 heartbeat IPC: 1.43254 cumulative IPC: 1.23096 (Simulation time: 1 hr 5 min 35 sec) 
Heartbeat CPU 4 instructions: 200000000 cycles: 122582632 heartbeat IPC: 1.55679 cumulative IPC: 1.56286 (Simulation time: 1 hr 6 min 40 sec) 
Finished CPU 3 instructions: 100000001 cycles: 110924363 cumulative IPC: 0.901515 (Simulation time: 1 hr 6 min 43 sec) 
Heartbeat CPU 5 instructions: 200000000 cycles: 122841134 heartbeat IPC: 1.59096 cumulative IPC: 1.55868 (Simulation time: 1 hr 6 min 49 sec) 
Heartbeat CPU 3 instructions: 130000002 cycles: 123438763 heartbeat IPC: 1.14712 cumulative IPC: 0.903018 (Simulation time: 1 hr 7 min 7 sec) 
Heartbeat CPU 6 instructions: 280000000 cycles: 123742913 heartbeat IPC: 2.20567 cumulative IPC: 2.20197 (Simulation time: 1 hr 7 min 17 sec) 
Heartbeat CPU 7 instructions: 110000000 cycles: 123985591 heartbeat IPC: 0.746857 cumulative IPC: 0.801803 (Simulation time: 1 hr 7 min 25 sec) 
Heartbeat CPU 0 instructions: 140000000 cycles: 127054656 heartbeat IPC: 1.04703 cumulative IPC: 1.03861 (Simulation time: 1 hr 9 min 0 sec) 
Heartbeat CPU 2 instructions: 170000000 cycles: 127696586 heartbeat IPC: 1.39456 cumulative IPC: 1.24108 (Simulation time: 1 hr 9 min 20 sec) 
Heartbeat CPU 1 instructions: 160000000 cycles: 128063214 heartbeat IPC: 1.13452 cumulative IPC: 1.14053 (Simulation time: 1 hr 9 min 32 sec) 
Heartbeat CPU 6 instructions: 290000003 cycles: 128282415 heartbeat IPC: 2.20289 cumulative IPC: 2.20201 (Simulation time: 1 hr 9 min 39 sec) 
Heartbeat CPU 4 instructions: 210000001 cycles: 129049720 heartbeat IPC: 1.54629 cumulative IPC: 1.56195 (Simulation time: 1 hr 10 min 3 sec) 
Heartbeat CPU 5 instructions: 210000000 cycles: 129127858 heartbeat IPC: 1.59065 cumulative IPC: 1.56039 (Simulation time: 1 hr 10 min 5 sec) 
Heartbeat CPU 6 instructions: 300000000 cycles: 132814364 heartbeat IPC: 2.20656 cumulative IPC: 2.20218 (Simulation time: 1 hr 12 min 2 sec) 
Heartbeat CPU 3 instructions: 140000000 cycles: 133391593 heartbeat IPC: 1.00474 cumulative IPC: 0.91134 (Simulation time: 1 hr 12 min 20 sec) 
Heartbeat CPU 2 instructions: 180000000 cycles: 134388458 heartbeat IPC: 1.49435 cumulative IPC: 1.2549 (Simulation time: 1 hr 12 min 51 sec) 
Heartbeat CPU 5 instructions: 220000000 cycles: 135440522 heartbeat IPC: 1.58412 cumulative IPC: 1.56161 (Simulation time: 1 hr 13 min 25 sec) 
Heartbeat CPU 4 instructions: 220000000 cycles: 135461997 heartbeat IPC: 1.55951 cumulative IPC: 1.56182 (Simulation time: 1 hr 13 min 25 sec) 
Heartbeat CPU 0 instructions: 150000001 cycles: 136614730 heartbeat IPC: 1.04602 cumulative IPC: 1.03918 (Simulation time: 1 hr 14 min 2 sec) 
Heartbeat CPU 1 instructions: 170000002 cycles: 136923441 heartbeat IPC: 1.12864 cumulative IPC: 1.13969 (Simulation time: 1 hr 14 min 12 sec) 
Heartbeat CPU 6 instructions: 310000002 cycles: 137357287 heartbeat IPC: 2.20123 cumulative IPC: 2.20214 (Simulation time: 1 hr 14 min 25 sec) 
Heartbeat CPU 7 instructions: 120000000 cycles: 138472965 heartbeat IPC: 0.690256 cumulative IPC: 0.789052 (Simulation time: 1 hr 14 min 59 sec) 
Finished CPU 7 instructions: 100000002 cycles: 126734376 cumulative IPC: 0.789052 (Simulation time: 1 hr 14 min 59 sec) 

CPU 0 Branch Prediction Accuracy: 99.9834% MPKI: 0.00111458

CPU 1 Branch Prediction Accuracy: 91.7212% MPKI: 11.2607

CPU 2 Branch Prediction Accuracy: 99.1535% MPKI: 0.371982

CPU 3 Branch Prediction Accuracy: 94.0331% MPKI: 8.30327

CPU 4 Branch Prediction Accuracy: 96.8464% MPKI: 4.14577

CPU 5 Branch Prediction Accuracy: 96.9726% MPKI: 4.07392

CPU 6 Branch Prediction Accuracy: 99.6976% MPKI: 0.29872

CPU 7 Branch Prediction Accuracy: 98.7928% MPKI: 1.5094

ChampSim completed all CPUs

Total Simulation Statistics (not including warmup)

CPU 0 cumulative IPC: 1.03884 instructions: 131656454 cycles: 126734376
L1D TOTAL     ACCESS:   52813652  HIT:   42256521  MISS:   10557131
L1D LOAD      ACCESS:   42271157  HIT:   32578922  MISS:    9692235
L1D RFO       ACCESS:   10542495  HIT:    9677599  MISS:     864896
L1D PREFETCH  ACCESS:          0  HIT:          0  MISS:          0
L1D WRITEBACK ACCESS:          0  HIT:          0  MISS:          0
L1I TOTAL     ACCESS:   31458700  HIT:   28035645  MISS:    3423055
L1I LOAD      ACCESS:   31458700  HIT:   28035645  MISS:    3423055
L1I RFO       ACCESS:          0  HIT:          0  MISS:          0
L1I PREFETCH  ACCESS:          0  HIT:          0  MISS:          0
L1I WRITEBACK ACCESS:          0  HIT:          0  MISS:          0
L2C TOTAL     ACCESS:   27263667  HIT:   25766405  MISS:    1497262
L2C LOAD      ACCESS:   13114604  HIT:   12848695  MISS:     265909
L2C RFO       ACCESS:     864155  HIT:     740962  MISS:     123193
L2C PREFETCH  ACCESS:   12314032  HIT:   11207552  MISS:    1106480
L2C WRITEBACK ACCESS:     970876  HIT:     969196  MISS:       1680

Avg Lookahead Depth:	3.25387
TOTAL: 2.67399e+07	L2C: 2.09652e+07	LLC: 5.77463e+06	GOOD_L2C: 1.17492e+07
Printing all the perceptron weights to: perc_weights_0.csv
LLC TOTAL     ACCESS:    2654734  HIT:    2302342  MISS:     352392
LLC LOAD      ACCESS:     254341  HIT:     218835  MISS:      35506
LLC RFO       ACCESS:     113198  HIT:      35723  MISS:      77475
LLC PREFETCH  ACCESS:    2160322  HIT:    1921041  MISS:     239281
LLC WRITEBACK ACCESS:     126873  HIT:     126743  MISS:        130

CPU 1 cumulative IPC: 1.13966 instructions: 144434066 cycles: 126734376
L1D TOTAL     ACCESS:   24994932  HIT:   24987098  MISS:       7834
L1D LOAD      ACCESS:   20067877  HIT:   20066912  MISS:        965
L1D RFO       ACCESS:    4927055  HIT:    4920186  MISS:       6869
L1D PREFETCH  ACCESS:          0  HIT:          0  MISS:          0
L1D WRITEBACK ACCESS:          0  HIT:          0  MISS:          0
L1I TOTAL     ACCESS:   35392369  HIT:   35392369  MISS:          0
L1I LOAD      ACCESS:   35392369  HIT:   35392369  MISS:          0
L1I RFO       ACCESS:          0  HIT:          0  MISS:          0
L1I PREFETCH  ACCESS:          0  HIT:          0  MISS:          0
L1I WRITEBACK ACCESS:          0  HIT:          0  MISS:          0
L2C TOTAL     ACCESS:      16339  HIT:       9468  MISS:       6871
L2C LOAD      ACCESS:        965  HIT:        886  MISS:         79
L2C RFO       ACCESS:       6869  HIT:        699  MISS:       6170
L2C PREFETCH  ACCESS:       1642  HIT:       1020  MISS:        622
L2C WRITEBACK ACCESS:       6863  HIT:       6863  MISS:          0

Avg Lookahead Depth:	3.25387
TOTAL: 2.67399e+07	L2C: 2.09652e+07	LLC: 5.77463e+06	GOOD_L2C: 1.17492e+07
Printing all the perceptron weights to: perc_weights_0.csv
LLC TOTAL     ACCESS:      13398  HIT:        309  MISS:      13089
LLC LOAD      ACCESS:         79  HIT:         30  MISS:         49
LLC RFO       ACCESS:       6170  HIT:          0  MISS:       6170
LLC PREFETCH  ACCESS:        963  HIT:        226  MISS:        737
LLC WRITEBACK ACCESS:       6186  HIT:         53  MISS:       6133

CPU 2 cumulative IPC: 1.25414 instructions: 158942596 cycles: 126734376
L1D TOTAL     ACCESS:   41068237  HIT:   37389485  MISS:    3678752
L1D LOAD      ACCESS:   33955619  HIT:   30964387  MISS:    2991232
L1D RFO       ACCESS:    7112618  HIT:    6425098  MISS:     687520
L1D PREFETCH  ACCESS:          0  HIT:          0  MISS:          0
L1D WRITEBACK ACCESS:          0  HIT:          0  MISS:          0
L1I TOTAL     ACCESS:   37555322  HIT:   37549468  MISS:       5854
L1I LOAD      ACCESS:   37555322  HIT:   37549468  MISS:       5854
L1I RFO       ACCESS:          0  HIT:          0  MISS:          0
L1I PREFETCH  ACCESS:          0  HIT:          0  MISS:          0
L1I WRITEBACK ACCESS:          0  HIT:          0  MISS:          0
L2C TOTAL     ACCESS:    8834311  HIT:    5985367  MISS:    2848944
L2C LOAD      ACCESS:    2996957  HIT:    2731414  MISS:     265543
L2C RFO       ACCESS:     687520  HIT:     165942  MISS:     521578
L2C PREFETCH  ACCESS:    3749642  HIT:    1689890  MISS:    2059752
L2C WRITEBACK ACCESS:    1400192  HIT:    1398121  MISS:       2071

Avg Lookahead Depth:	3.25387
TOTAL: 2.67399e+07	L2C: 2.09652e+07	LLC: 5.77463e+06	GOOD_L2C: 1.17492e+07
Printing all the perceptron weights to: perc_weights_0.csv
LLC TOTAL     ACCESS:    4089198  HIT:    2909927  MISS:    1179271
LLC LOAD      ACCESS:     189425  HIT:     136210  MISS:      53215
LLC RFO       ACCESS:     521480  HIT:     262259  MISS:     259221
LLC PREFETCH  ACCESS:    2252015  HIT:    1385199  MISS:     866816
LLC WRITEBACK ACCESS:    1126278  HIT:    1126259  MISS:         19

CPU 3 cumulative IPC: 0.919413 instructions: 116521255 cycles: 126734376
L1D TOTAL     ACCESS:   22458734  HIT:   21715812  MISS:     742922
L1D LOAD      ACCESS:   14860934  HIT:   14311439  MISS:     549495
L1D RFO       ACCESS:    7597800  HIT:    7404373  MISS:     193427
L1D PREFETCH  ACCESS:          0  HIT:          0  MISS:          0
L1D WRITEBACK ACCESS:          0  HIT:          0  MISS:          0
L1I TOTAL     ACCESS:   20715741  HIT:   20715322  MISS:        419
L1I LOAD      ACCESS:   20715741  HIT:   20715322  MISS:        419
L1I RFO       ACCESS:          0  HIT:          0  MISS:          0
L1I PREFETCH  ACCESS:          0  HIT:          0  MISS:          0
L1I WRITEBACK ACCESS:          0  HIT:          0  MISS:          0
L2C TOTAL     ACCESS:    1594338  HIT:    1272797  MISS:     321541
L2C LOAD      ACCESS:     549892  HIT:     371023  MISS:     178869
L2C RFO       ACCESS:     193401  HIT:     145424  MISS:      47977
L2C PREFETCH  ACCESS:     303370  HIT:     210006  MISS:      93364
L2C WRITEBACK ACCESS:     547675  HIT:     546344  MISS:       1331

Avg Lookahead Depth:	3.25387
TOTAL: 2.67399e+07	L2C: 2.09652e+07	LLC: 5.77463e+06	GOOD_L2C: 1.17492e+07
Printing all the perceptron weights to: perc_weights_0.csv
LLC TOTAL     ACCESS:     607208  HIT:     399327  MISS:     207881
LLC LOAD      ACCESS:     178700  HIT:      98848  MISS:      79852
LLC RFO       ACCESS:      47971  HIT:      11935  MISS:      36036
LLC PREFETCH  ACCESS:     213458  HIT:     123202  MISS:      90256
LLC WRITEBACK ACCESS:     167079  HIT:     165342  MISS:       1737

CPU 4 cumulative IPC: 1.56176 instructions: 197928854 cycles: 126734376
L1D TOTAL     ACCESS:   58626061  HIT:   58626059  MISS:          2
L1D LOAD      ACCESS:   25467283  HIT:   25467281  MISS:          2
L1D RFO       ACCESS:   33158778  HIT:   33158778  MISS:          0
L1D PREFETCH  ACCESS:          0  HIT:          0  MISS:          0
L1D WRITEBACK ACCESS:          0  HIT:          0  MISS:          0
L1I TOTAL     ACCESS:   43325213  HIT:   43325213  MISS:          0
L1I LOAD      ACCESS:   43325213  HIT:   43325213  MISS:          0
L1I RFO       ACCESS:          0  HIT:          0  MISS:          0
L1I PREFETCH  ACCESS:          0  HIT:          0  MISS:          0
L1I WRITEBACK ACCESS:          0  HIT:          0  MISS:          0
L2C TOTAL     ACCESS:          2  HIT:          0  MISS:          2
L2C LOAD      ACCESS:          2  HIT:          0  MISS:          2
L2C RFO       ACCESS:          0  HIT:          0  MISS:          0
L2C PREFETCH  ACCESS:          0  HIT:          0  MISS:          0
L2C WRITEBACK ACCESS:          0  HIT:          0  MISS:          0

Avg Lookahead Depth:	3.25387
TOTAL: 2.67399e+07	L2C: 2.09652e+07	LLC: 5.77463e+06	GOOD_L2C: 1.17492e+07
Printing all the perceptron weights to: perc_weights_0.csv
LLC TOTAL     ACCESS:          2  HIT:          0  MISS:          2
LLC LOAD      ACCESS:          2  HIT:          0  MISS:          2
LLC RFO       ACCESS:          0  HIT:          0  MISS:          0
LLC PREFETCH  ACCESS:          0  HIT:          0  MISS:          0
LLC WRITEBACK ACCESS:          0  HIT:          0  MISS:          0

CPU 5 cumulative IPC: 1.56189 instructions: 197945434 cycles: 126734376
L1D TOTAL     ACCESS:   54543340  HIT:   54543219  MISS:        121
L1D LOAD      ACCESS:   23847972  HIT:   23847934  MISS:         38
L1D RFO       ACCESS:   30695368  HIT:   30695285  MISS:         83
L1D PREFETCH  ACCESS:          0  HIT:          0  MISS:          0
L1D WRITEBACK ACCESS:          0  HIT:          0  MISS:          0
L1I TOTAL     ACCESS:   42739457  HIT:   42737140  MISS:       2317
L1I LOAD      ACCESS:   42739457  HIT:   42737140  MISS:       2317
L1I RFO       ACCESS:          0  HIT:          0  MISS:          0
L1I PREFETCH  ACCESS:          0  HIT:          0  MISS:          0
L1I WRITEBACK ACCESS:          0  HIT:          0  MISS:          0
L2C TOTAL     ACCESS:       5926  HIT:       4645  MISS:       1281
L2C LOAD      ACCESS:       2355  HIT:       1974  MISS:        381
L2C RFO       ACCESS:         83  HIT:         13  MISS:         70
L2C PREFETCH  ACCESS:       3488  HIT:       2658  MISS:        830
L2C WRITEBACK ACCESS:          0  HIT:          0  MISS:          0

Avg Lookahead Depth:	3.25387
TOTAL: 2.67399e+07	L2C: 2.09652e+07	LLC: 5.77463e+06	GOOD_L2C: 1.17492e+07
Printing all the perceptron weights to: perc_weights_0.csv
LLC TOTAL     ACCESS:       1478  HIT:        116  MISS:       1362
LLC LOAD      ACCESS:        326  HIT:         36  MISS:        290
LLC RFO       ACCESS:         70  HIT:          2  MISS:         68
LLC PREFETCH  ACCESS:       1082  HIT:         78  MISS:       1004
LLC WRITEBACK ACCESS:          0  HIT:          0  MISS:          0

CPU 6 cumulative IPC: 2.2021 instructions: 279081514 cycles: 126734376
L1D TOTAL     ACCESS:   16730304  HIT:   14246416  MISS:    2483888
L1D LOAD      ACCESS:   16718209  HIT:   14235977  MISS:    2482232
L1D RFO       ACCESS:      12095  HIT:      10439  MISS:       1656
L1D PREFETCH  ACCESS:          0  HIT:          0  MISS:          0
L1D WRITEBACK ACCESS:          0  HIT:          0  MISS:          0
L1I TOTAL     ACCESS:   67511189  HIT:   67511189  MISS:          0
L1I LOAD      ACCESS:   67511189  HIT:   67511189  MISS:          0
L1I RFO       ACCESS:          0  HIT:          0  MISS:          0
L1I PREFETCH  ACCESS:          0  HIT:          0  MISS:          0
L1I WRITEBACK ACCESS:          0  HIT:          0  MISS:          0
L2C TOTAL     ACCESS:    5714628  HIT:    4436403  MISS:    1278225
L2C LOAD      ACCESS:    2482232  HIT:    2352308  MISS:     129924
L2C RFO       ACCESS:       1656  HIT:        439  MISS:       1217
L2C PREFETCH  ACCESS:    3226753  HIT:    2079669  MISS:    1147084
L2C WRITEBACK ACCESS:       3987  HIT:       3987  MISS:          0

Avg Lookahead Depth:	3.25387
TOTAL: 2.67399e+07	L2C: 2.09652e+07	LLC: 5.77463e+06	GOOD_L2C: 1.17492e+07
Printing all the perceptron weights to: perc_weights_0.csv
LLC TOTAL     ACCESS:    1467557  HIT:    1440899  MISS:      26658
LLC LOAD      ACCESS:     128736  HIT:     128115  MISS:        621
LLC RFO       ACCESS:       1217  HIT:       1119  MISS:         98
LLC PREFETCH  ACCESS:    1335042  HIT:    1309104  MISS:      25938
LLC WRITEBACK ACCESS:       2562  HIT:       2561  MISS:          1

CPU 7 cumulative IPC: 0.789052 instructions: 100000002 cycles: 126734376
L1D TOTAL     ACCESS:   37565889  HIT:   37558923  MISS:       6966
L1D LOAD      ACCESS:   15574711  HIT:   15568045  MISS:       6666
L1D RFO       ACCESS:   21991178  HIT:   21990878  MISS:        300
L1D PREFETCH  ACCESS:          0  HIT:          0  MISS:          0
L1D WRITEBACK ACCESS:          0  HIT:          0  MISS:          0
L1I TOTAL     ACCESS:   27559169  HIT:   27556334  MISS:       2835
L1I LOAD      ACCESS:   27559169  HIT:   27556334  MISS:       2835
L1I RFO       ACCESS:          0  HIT:          0  MISS:          0
L1I PREFETCH  ACCESS:          0  HIT:          0  MISS:          0
L1I WRITEBACK ACCESS:          0  HIT:          0  MISS:          0
L2C TOTAL     ACCESS:      21746  HIT:      11948  MISS:       9798
L2C LOAD      ACCESS:       9501  HIT:       4894  MISS:       4607
L2C RFO       ACCESS:        300  HIT:        113  MISS:        187
L2C PREFETCH  ACCESS:      11133  HIT:       6146  MISS:       4987
L2C WRITEBACK ACCESS:        812  HIT:        795  MISS:         17

Avg Lookahead Depth:	3.25387
TOTAL: 2.67399e+07	L2C: 2.09652e+07	LLC: 5.77463e+06	GOOD_L2C: 1.17492e+07
Printing all the perceptron weights to: perc_weights_0.csv
LLC TOTAL     ACCESS:      13344  HIT:       1159  MISS:      12185
LLC LOAD      ACCESS:       4550  HIT:        480  MISS:       4070
LLC RFO       ACCESS:        187  HIT:          7  MISS:        180
LLC PREFETCH  ACCESS:       7987  HIT:        635  MISS:       7352
LLC WRITEBACK ACCESS:        620  HIT:         37  MISS:        583

Region of Interest Statistics

CPU 0 cumulative IPC: 1.03683 instructions: 100000002 cycles: 96448161
L1D TOTAL     ACCESS:   40114832  HIT:   32096717  MISS:    8018115
L1D LOAD      ACCESS:   32107246  HIT:   24745943  MISS:    7361303
L1D RFO       ACCESS:    8007586  HIT:    7350774  MISS:     656812
L1D PREFETCH  ACCESS:          0  HIT:          0  MISS:          0
L1D WRITEBACK ACCESS:          0  HIT:          0  MISS:          0
L1D PREFETCH  REQUESTED:          0  ISSUED:          0  USEFUL:          0  USELESS:          0
L1I TOTAL     ACCESS:   23897121  HIT:   21297129  MISS:    2599992
L1I LOAD      ACCESS:   23897121  HIT:   21297129  MISS:    2599992
L1I RFO       ACCESS:          0  HIT:          0  MISS:          0
L1I PREFETCH  ACCESS:          0  HIT:          0  MISS:          0
L1I WRITEBACK ACCESS:          0  HIT:          0  MISS:          0
L1I PREFETCH  REQUESTED:          0  ISSUED:          0  USEFUL:          0  USELESS:          0
L2C TOTAL     ACCESS:   20758695  HIT:   19627929  MISS:    1130766
L2C LOAD      ACCESS:    9960771  HIT:    9761596  MISS:     199175
L2C RFO       ACCESS:     656250  HIT:     562653  MISS:      93597
L2C PREFETCH  ACCESS:    9404386  HIT:    8567672  MISS:     836714
L2C WRITEBACK ACCESS:     737288  HIT:     736008  MISS:       1280
L2C PREFETCH  REQUESTED:   17632061  ISSUED:   16661496  USEFUL:    1006622  USELESS:     293054
LLC TOTAL     ACCESS:    2006591  HIT:    1736792  MISS:     269799
LLC LOAD      ACCESS:     190685  HIT:     162812  MISS:      27873
LLC RFO       ACCESS:      85968  HIT:      27143  MISS:      58825
LLC PREFETCH  ACCESS:    1633533  HIT:    1450557  MISS:     182976
LLC WRITEBACK ACCESS:      96405  HIT:      96280  MISS:        125
LLC PREFETCH  REQUESTED:          0  ISSUED:          0  USEFUL:     247967  USELESS:    1074768
Major fault: 0 Minor fault: 6478

CPU 1 cumulative IPC: 1.14191 instructions: 100000001 cycles: 87572501
L1D TOTAL     ACCESS:   17329128  HIT:   17324836  MISS:       4292
L1D LOAD      ACCESS:   13906694  HIT:   13906172  MISS:        522
L1D RFO       ACCESS:    3422434  HIT:    3418664  MISS:       3770
L1D PREFETCH  ACCESS:          0  HIT:          0  MISS:          0
L1D WRITEBACK ACCESS:          0  HIT:          0  MISS:          0
L1D PREFETCH  REQUESTED:          0  ISSUED:          0  USEFUL:          0  USELESS:          0
L1I TOTAL     ACCESS:   24491310  HIT:   24491310  MISS:          0
L1I LOAD      ACCESS:   24491310  HIT:   24491310  MISS:          0
L1I RFO       ACCESS:          0  HIT:          0  MISS:          0
L1I PREFETCH  ACCESS:          0  HIT:          0  MISS:          0
L1I WRITEBACK ACCESS:          0  HIT:          0  MISS:          0
L1I PREFETCH  REQUESTED:          0  ISSUED:          0  USEFUL:          0  USELESS:          0
L2C TOTAL     ACCESS:       9019  HIT:       5214  MISS:       3805
L2C LOAD      ACCESS:        522  HIT:        486  MISS:         36
L2C RFO       ACCESS:       3770  HIT:        359  MISS:       3411
L2C PREFETCH  ACCESS:        963  HIT:        605  MISS:        358
L2C WRITEBACK ACCESS:       3764  HIT:       3764  MISS:          0
L2C PREFETCH  REQUESTED:      18557  ISSUED:      18557  USEFUL:       7019  USELESS:        244
LLC TOTAL     ACCESS:       7350  HIT:        112  MISS:       7238
LLC LOAD      ACCESS:         36  HIT:          8  MISS:         28
LLC RFO       ACCESS:       3411  HIT:          0  MISS:       3411
LLC PREFETCH  ACCESS:        511  HIT:         86  MISS:        425
LLC WRITEBACK ACCESS:       3392  HIT:         18  MISS:       3374
LLC PREFETCH  REQUESTED:          0  ISSUED:          0  USEFUL:     247967  USELESS:    1074768
Major fault: 0 Minor fault: 1262

CPU 2 cumulative IPC: 1.17561 instructions: 100000002 cycles: 85062473
L1D TOTAL     ACCESS:   26413195  HIT:   23584348  MISS:    2828847
L1D LOAD      ACCESS:   21387249  HIT:   19034956  MISS:    2352293
L1D RFO       ACCESS:    5025946  HIT:    4549392  MISS:     476554
L1D PREFETCH  ACCESS:          0  HIT:          0  MISS:          0
L1D WRITEBACK ACCESS:          0  HIT:          0  MISS:          0
L1D PREFETCH  REQUESTED:          0  ISSUED:          0  USEFUL:          0  USELESS:          0
L1I TOTAL     ACCESS:   23425230  HIT:   23420773  MISS:       4457
L1I LOAD      ACCESS:   23425230  HIT:   23420773  MISS:       4457
L1I RFO       ACCESS:          0  HIT:          0  MISS:          0
L1I PREFETCH  ACCESS:          0  HIT:          0  MISS:          0
L1I WRITEBACK ACCESS:          0  HIT:          0  MISS:          0
L1I PREFETCH  REQUESTED:          0  ISSUED:          0  USEFUL:          0  USELESS:          0
L2C TOTAL     ACCESS:    6809232  HIT:    4643911  MISS:    2165321
L2C LOAD      ACCESS:    2356650  HIT:    2131229  MISS:     225421
L2C RFO       ACCESS:     476554  HIT:     146562  MISS:     329992
L2C PREFETCH  ACCESS:    2916389  HIT:    1307197  MISS:    1609192
L2C WRITEBACK ACCESS:    1059639  HIT:    1058923  MISS:        716
L2C PREFETCH  REQUESTED:    4700865  ISSUED:    4665966  USEFUL:    2272850  USELESS:     118406
LLC TOTAL     ACCESS:    3065732  HIT:    2013963  MISS:    1051769
LLC LOAD      ACCESS:     157106  HIT:     109285  MISS:      47821
LLC RFO       ACCESS:     329894  HIT:      80141  MISS:     249753
LLC PREFETCH  ACCESS:    1767544  HIT:    1013368  MISS:     754176
LLC WRITEBACK ACCESS:     811188  HIT:     811169  MISS:         19
LLC PREFETCH  REQUESTED:          0  ISSUED:          0  USEFUL:     247967  USELESS:    1074768
Major fault: 0 Minor fault: 10249

CPU 3 cumulative IPC: 0.901515 instructions: 100000001 cycles: 110924363
L1D TOTAL     ACCESS:   19435983  HIT:   18802310  MISS:     633673
L1D LOAD      ACCESS:   12838602  HIT:   12366214  MISS:     472388
L1D RFO       ACCESS:    6597381  HIT:    6436096  MISS:     161285
L1D PREFETCH  ACCESS:          0  HIT:          0  MISS:          0
L1D WRITEBACK ACCESS:          0  HIT:          0  MISS:          0
L1D PREFETCH  REQUESTED:          0  ISSUED:          0  USEFUL:          0  USELESS:          0
L1I TOTAL     ACCESS:   17836129  HIT:   17835786  MISS:        343
L1I LOAD      ACCESS:   17836129  HIT:   17835786  MISS:        343
L1I RFO       ACCESS:          0  HIT:          0  MISS:          0
L1I PREFETCH  ACCESS:          0  HIT:          0  MISS:          0
L1I WRITEBACK ACCESS:          0  HIT:          0  MISS:          0
L1I PREFETCH  REQUESTED:          0  ISSUED:          0  USEFUL:          0  USELESS:          0
L2C TOTAL     ACCESS:    1354929  HIT:    1067365  MISS:     287564
L2C LOAD      ACCESS:     472709  HIT:     309874  MISS:     162835
L2C RFO       ACCESS:     161261  HIT:     120224  MISS:      41037
L2C PREFETCH  ACCESS:     257033  HIT:     174550  MISS:      82483
L2C WRITEBACK ACCESS:     463926  HIT:     462717  MISS:       1209
L2C PREFETCH  REQUESTED:     514554  ISSUED:     514554  USEFUL:      23346  USELESS:      85764
LLC TOTAL     ACCESS:     540354  HIT:     352163  MISS:     188191
LLC LOAD      ACCESS:     162692  HIT:      88860  MISS:      73832
LLC RFO       ACCESS:      41031  HIT:      10516  MISS:      30515
LLC PREFETCH  ACCESS:     187597  HIT:     105412  MISS:      82185
LLC WRITEBACK ACCESS:     149034  HIT:     147375  MISS:       1659
LLC PREFETCH  REQUESTED:          0  ISSUED:          0  USEFUL:     247967  USELESS:    1074768
Major fault: 0 Minor fault: 7234

CPU 4 cumulative IPC: 1.58023 instructions: 100000001 cycles: 63281785
L1D TOTAL     ACCESS:   29643766  HIT:   29643764  MISS:          2
L1D LOAD      ACCESS:   12859122  HIT:   12859120  MISS:          2
L1D RFO       ACCESS:   16784644  HIT:   16784644  MISS:          0
L1D PREFETCH  ACCESS:          0  HIT:          0  MISS:          0
L1D WRITEBACK ACCESS:          0  HIT:          0  MISS:          0
L1D PREFETCH  REQUESTED:          0  ISSUED:          0  USEFUL:          0  USELESS:          0
L1I TOTAL     ACCESS:   21912212  HIT:   21912212  MISS:          0
L1I LOAD      ACCESS:   21912212  HIT:   21912212  MISS:          0
L1I RFO       ACCESS:          0  HIT:          0  MISS:          0
L1I PREFETCH  ACCESS:          0  HIT:          0  MISS:          0
L1I WRITEBACK ACCESS:          0  HIT:          0  MISS:          0
L1I PREFETCH  REQUESTED:          0  ISSUED:          0  USEFUL:          0  USELESS:          0
L2C TOTAL     ACCESS:          2  HIT:          0  MISS:          2
L2C LOAD      ACCESS:          2  HIT:          0  MISS:          2
L2C RFO       ACCESS:          0  HIT:          0  MISS:          0
L2C PREFETCH  ACCESS:          0  HIT:          0  MISS:          0
L2C WRITEBACK ACCESS:          0  HIT:          0  MISS:          0
L2C PREFETCH  REQUESTED:        333  ISSUED:        333  USEFUL:        147  USELESS:          0
LLC TOTAL     ACCESS:          2  HIT:          0  MISS:          2
LLC LOAD      ACCESS:          2  HIT:          0  MISS:          2
LLC RFO       ACCESS:          0  HIT:          0  MISS:          0
LLC PREFETCH  ACCESS:          0  HIT:          0  MISS:          0
LLC WRITEBACK ACCESS:          0  HIT:          0  MISS:          0
LLC PREFETCH  REQUESTED:          0  ISSUED:          0  USEFUL:     247967  USELESS:    1074768
Major fault: 0 Minor fault: 11

CPU 5 cumulative IPC: 1.54808 instructions: 100000003 cycles: 64596011
L1D TOTAL     ACCESS:   28042208  HIT:   28042087  MISS:        121
L1D LOAD      ACCESS:   12328022  HIT:   12327984  MISS:         38
L1D RFO       ACCESS:   15714186  HIT:   15714103  MISS:         83
L1D PREFETCH  ACCESS:          0  HIT:          0  MISS:          0
L1D WRITEBACK ACCESS:          0  HIT:          0  MISS:          0
L1D PREFETCH  REQUESTED:          0  ISSUED:          0  USEFUL:          0  USELESS:          0
L1I TOTAL     ACCESS:   21666889  HIT:   21664572  MISS:       2317
L1I LOAD      ACCESS:   21666889  HIT:   21664572  MISS:       2317
L1I RFO       ACCESS:          0  HIT:          0  MISS:          0
L1I PREFETCH  ACCESS:          0  HIT:          0  MISS:          0
L1I WRITEBACK ACCESS:          0  HIT:          0  MISS:          0
L1I PREFETCH  REQUESTED:          0  ISSUED:          0  USEFUL:          0  USELESS:          0
L2C TOTAL     ACCESS:       5926  HIT:       4645  MISS:       1281
L2C LOAD      ACCESS:       2355  HIT:       1974  MISS:        381
L2C RFO       ACCESS:         83  HIT:         13  MISS:         70
L2C PREFETCH  ACCESS:       3488  HIT:       2658  MISS:        830
L2C WRITEBACK ACCESS:          0  HIT:          0  MISS:          0
L2C PREFETCH  REQUESTED:       4607  ISSUED:       4607  USEFUL:        728  USELESS:          0
LLC TOTAL     ACCESS:       1478  HIT:        116  MISS:       1362
LLC LOAD      ACCESS:        326  HIT:         36  MISS:        290
LLC RFO       ACCESS:         70  HIT:          2  MISS:         68
LLC PREFETCH  ACCESS:       1082  HIT:         78  MISS:       1004
LLC WRITEBACK ACCESS:          0  HIT:          0  MISS:          0
LLC PREFETCH  REQUESTED:          0  ISSUED:          0  USEFUL:     247967  USELESS:    1074768
Major fault: 0 Minor fault: 46

CPU 6 cumulative IPC: 2.19891 instructions: 100000002 cycles: 45477097
L1D TOTAL     ACCESS:    5994313  HIT:    5104317  MISS:     889996
L1D LOAD      ACCESS:    5989933  HIT:    5100530  MISS:     889403
L1D RFO       ACCESS:       4380  HIT:       3787  MISS:        593
L1D PREFETCH  ACCESS:          0  HIT:          0  MISS:          0
L1D WRITEBACK ACCESS:          0  HIT:          0  MISS:          0
L1D PREFETCH  REQUESTED:          0  ISSUED:          0  USEFUL:          0  USELESS:          0
L1I TOTAL     ACCESS:   24190943  HIT:   24190943  MISS:          0
L1I LOAD      ACCESS:   24190943  HIT:   24190943  MISS:          0
L1I RFO       ACCESS:          0  HIT:          0  MISS:          0
L1I PREFETCH  ACCESS:          0  HIT:          0  MISS:          0
L1I WRITEBACK ACCESS:          0  HIT:          0  MISS:          0
L1I PREFETCH  REQUESTED:          0  ISSUED:          0  USEFUL:          0  USELESS:          0
L2C TOTAL     ACCESS:    2054863  HIT:    1601819  MISS:     453044
L2C LOAD      ACCESS:     889403  HIT:     841765  MISS:      47638
L2C RFO       ACCESS:        593  HIT:        125  MISS:        468
L2C PREFETCH  ACCESS:    1163437  HIT:     758499  MISS:     404938
L2C WRITEBACK ACCESS:       1430  HIT:       1430  MISS:          0
L2C PREFETCH  REQUESTED:    3848562  ISSUED:    3848562  USEFUL:    1037022  USELESS:     247700
LLC TOTAL     ACCESS:     520436  HIT:     508973  MISS:      11463
LLC LOAD      ACCESS:      47035  HIT:      46754  MISS:        281
LLC RFO       ACCESS:        468  HIT:        433  MISS:         35
LLC PREFETCH  ACCESS:     471754  HIT:     460607  MISS:      11147
LLC WRITEBACK ACCESS:       1179  HIT:       1179  MISS:          0
LLC PREFETCH  REQUESTED:          0  ISSUED:          0  USEFUL:     247967  USELESS:    1074768
Major fault: 0 Minor fault: 358

CPU 7 cumulative IPC: 0.789052 instructions: 100000002 cycles: 126734376
L1D TOTAL     ACCESS:   37565889  HIT:   37558923  MISS:       6966
L1D LOAD      ACCESS:   15574711  HIT:   15568045  MISS:       6666
L1D RFO       ACCESS:   21991178  HIT:   21990878  MISS:        300
L1D PREFETCH  ACCESS:          0  HIT:          0  MISS:          0
L1D WRITEBACK ACCESS:          0  HIT:          0  MISS:          0
L1D PREFETCH  REQUESTED:          0  ISSUED:          0  USEFUL:          0  USELESS:          0
L1I TOTAL     ACCESS:   27559169  HIT:   27556334  MISS:       2835
L1I LOAD      ACCESS:   27559169  HIT:   27556334  MISS:       2835
L1I RFO       ACCESS:          0  HIT:          0  MISS:          0
L1I PREFETCH  ACCESS:          0  HIT:          0  MISS:          0
L1I WRITEBACK ACCESS:          0  HIT:          0  MISS:          0
L1I PREFETCH  REQUESTED:          0  ISSUED:          0  USEFUL:          0  USELESS:          0
L2C TOTAL     ACCESS:      21746  HIT:      11948  MISS:       9798
L2C LOAD      ACCESS:       9501  HIT:       4894  MISS:       4607
L2C RFO       ACCESS:        300  HIT:        113  MISS:        187
L2C PREFETCH  ACCESS:      11133  HIT:       6146  MISS:       4987
L2C WRITEBACK ACCESS:        812  HIT:        795  MISS:         17
L2C PREFETCH  REQUESTED:      20320  ISSUED:      20320  USEFUL:       1853  USELESS:       3654
LLC TOTAL     ACCESS:      13344  HIT:       1159  MISS:      12185
LLC LOAD      ACCESS:       4550  HIT:        480  MISS:       4070
LLC RFO       ACCESS:        187  HIT:          7  MISS:        180
LLC PREFETCH  ACCESS:       7987  HIT:        635  MISS:       7352
LLC WRITEBACK ACCESS:        620  HIT:         37  MISS:        583
LLC PREFETCH  REQUESTED:          0  ISSUED:          0  USEFUL:     247967  USELESS:    1074768
Major fault: 0 Minor fault: 919

Avg Lookahead Depth:	3.25387
TOTAL: 2.67399e+07	L2C: 2.09652e+07	LLC: 5.77463e+06	GOOD_L2C: 1.17492e+07
Printing all the perceptron weights to: perc_weights_0.csv

Avg Lookahead Depth:	3.25387
TOTAL: 2.67399e+07	L2C: 2.09652e+07	LLC: 5.77463e+06	GOOD_L2C: 1.17492e+07
Printing all the perceptron weights to: perc_weights_0.csv

Avg Lookahead Depth:	3.25387
TOTAL: 2.67399e+07	L2C: 2.09652e+07	LLC: 5.77463e+06	GOOD_L2C: 1.17492e+07
Printing all the perceptron weights to: perc_weights_0.csv

Avg Lookahead Depth:	3.25387
TOTAL: 2.67399e+07	L2C: 2.09652e+07	LLC: 5.77463e+06	GOOD_L2C: 1.17492e+07
Printing all the perceptron weights to: perc_weights_0.csv

Avg Lookahead Depth:	3.25387
TOTAL: 2.67399e+07	L2C: 2.09652e+07	LLC: 5.77463e+06	GOOD_L2C: 1.17492e+07
Printing all the perceptron weights to: perc_weights_0.csv

Avg Lookahead Depth:	3.25387
TOTAL: 2.67399e+07	L2C: 2.09652e+07	LLC: 5.77463e+06	GOOD_L2C: 1.17492e+07
Printing all the perceptron weights to: perc_weights_0.csv

Avg Lookahead Depth:	3.25387
TOTAL: 2.67399e+07	L2C: 2.09652e+07	LLC: 5.77463e+06	GOOD_L2C: 1.17492e+07
Printing all the perceptron weights to: perc_weights_0.csv

Avg Lookahead Depth:	3.25387
TOTAL: 2.67399e+07	L2C: 2.09652e+07	LLC: 5.77463e+06	GOOD_L2C: 1.17492e+07
Printing all the perceptron weights to: perc_weights_0.csv

DRAM Statistics
 CHANNEL 0
 RQ ROW_BUFFER_HIT:     460093  ROW_BUFFER_MISS:     432109
 DBUS_CONGESTED:    1258896
 WQ ROW_BUFFER_HIT:      52145  ROW_BUFFER_MISS:     301382  FULL:          0

 CHANNEL 1
 RQ ROW_BUFFER_HIT:     458554  ROW_BUFFER_MISS:     433311
 DBUS_CONGESTED:    1258896
 WQ ROW_BUFFER_HIT:      52073  ROW_BUFFER_MISS:     300614  FULL:          0

 AVG_CONGESTED_CYCLE: 13
