Initialize SIGNATURE TABLE
ST_SET: 1
ST_WAY: 256
ST_TAG_BIT: 16
ST_TAG_MASK: ffff

Initialize PATTERN TABLE
PT_SET: 512
PT_WAY: 4
SIG_DELTA_BIT: 7
C_SIG_BIT: 4
C_DELTA_BIT: 4

Initialize PREFETCH FILTER
FILTER_SET: 1024

Initialize PERCEPTRON
PERC_ENTRIES: 4096
PERC_FEATURES: 9

*** ChampSim Multicore Out-of-Order Simulator ***

Warmup Instructions: 20000000
Simulation Instructions: 100000000
Number of CPUs: 8
LLC sets: 16384
LLC ways: 16
Off-chip DRAM Size: 8192 MB Channels: 2 Width: 64-bit Data Rate: 1600 MT/s

CPU 0 runs /scratch/user/djimenez/champsim-traces/speccpu2017/xz/654.roms_s/654.roms_s-842B.champsimtrace.xz
CPU 1 runs /scratch/user/djimenez/champsim-traces/speccpu2017/xz/649.fotonik3d_s/649.fotonik3d_s-1176B.champsimtrace.xz
CPU 2 runs /scratch/user/djimenez/champsim-traces/speccpu2017/xz/641.leela_s/641.leela_s-334B.champsimtrace.xz
CPU 3 runs /scratch/user/djimenez/champsim-traces/speccpu2017/xz/607.cactuBSSN_s/607.cactuBSSN_s-2421B.champsimtrace.xz
CPU 4 runs /scratch/user/djimenez/champsim-traces/speccpu2017/xz/649.fotonik3d_s/649.fotonik3d_s-7084B.champsimtrace.xz
CPU 5 runs /scratch/user/djimenez/champsim-traces/speccpu2017/xz/623.xalancbmk_s/623.xalancbmk_s-10B.champsimtrace.xz
CPU 6 runs /scratch/user/djimenez/champsim-traces/speccpu2017/xz/654.roms_s/654.roms_s-1070B.champsimtrace.xz
CPU 7 runs /scratch/user/djimenez/champsim-traces/speccpu2017/xz/638.imagick_s/638.imagick_s-824B.champsimtrace.xz
Heartbeat CPU 0 instructions: 10000003 cycles: 3781097 heartbeat IPC: 2.64474 cumulative IPC: 2.64474 (Simulation time: 0 hr 3 min 9 sec) 
Heartbeat CPU 4 instructions: 10000000 cycles: 4191891 heartbeat IPC: 2.38556 cumulative IPC: 2.38556 (Simulation time: 0 hr 3 min 29 sec) 
Heartbeat CPU 1 instructions: 10000000 cycles: 4400162 heartbeat IPC: 2.27264 cumulative IPC: 2.27264 (Simulation time: 0 hr 3 min 39 sec) 
Heartbeat CPU 7 instructions: 10000000 cycles: 4705982 heartbeat IPC: 2.12495 cumulative IPC: 2.12495 (Simulation time: 0 hr 3 min 55 sec) 
Heartbeat CPU 5 instructions: 10000001 cycles: 4846316 heartbeat IPC: 2.06342 cumulative IPC: 2.06342 (Simulation time: 0 hr 4 min 1 sec) 
Heartbeat CPU 6 instructions: 10000001 cycles: 4948890 heartbeat IPC: 2.02066 cumulative IPC: 2.02066 (Simulation time: 0 hr 4 min 6 sec) 
Heartbeat CPU 3 instructions: 10000000 cycles: 5800789 heartbeat IPC: 1.7239 cumulative IPC: 1.7239 (Simulation time: 0 hr 4 min 48 sec) 
Heartbeat CPU 2 instructions: 10000001 cycles: 6392781 heartbeat IPC: 1.56426 cumulative IPC: 1.56426 (Simulation time: 0 hr 5 min 18 sec) 
Heartbeat CPU 0 instructions: 20000000 cycles: 7609132 heartbeat IPC: 2.61231 cumulative IPC: 2.62842 (Simulation time: 0 hr 6 min 18 sec) 
Heartbeat CPU 4 instructions: 20000000 cycles: 8381795 heartbeat IPC: 2.38669 cumulative IPC: 2.38612 (Simulation time: 0 hr 6 min 56 sec) 
Heartbeat CPU 1 instructions: 20000000 cycles: 8799734 heartbeat IPC: 2.27295 cumulative IPC: 2.2728 (Simulation time: 0 hr 7 min 16 sec) 
Heartbeat CPU 7 instructions: 20000000 cycles: 9401833 heartbeat IPC: 2.12954 cumulative IPC: 2.12724 (Simulation time: 0 hr 7 min 46 sec) 
Heartbeat CPU 5 instructions: 20000000 cycles: 9607050 heartbeat IPC: 2.10052 cumulative IPC: 2.0818 (Simulation time: 0 hr 7 min 55 sec) 
Heartbeat CPU 6 instructions: 20000000 cycles: 10008530 heartbeat IPC: 1.97643 cumulative IPC: 1.9983 (Simulation time: 0 hr 8 min 15 sec) 
Heartbeat CPU 0 instructions: 30000003 cycles: 11357116 heartbeat IPC: 2.6681 cumulative IPC: 0.880506 (Simulation time: 0 hr 9 min 21 sec) 
Heartbeat CPU 3 instructions: 20000000 cycles: 11600378 heartbeat IPC: 1.72426 cumulative IPC: 1.72408 (Simulation time: 0 hr 9 min 33 sec) 
Heartbeat CPU 4 instructions: 30000000 cycles: 12561023 heartbeat IPC: 2.39279 cumulative IPC: 0.796113 (Simulation time: 0 hr 10 min 19 sec) 
Heartbeat CPU 2 instructions: 20000000 cycles: 12790139 heartbeat IPC: 1.56315 cumulative IPC: 1.5637 (Simulation time: 0 hr 10 min 30 sec) 

Warmup complete CPU 0 instructions: 33877121 cycles: 12790140 (Simulation time: 0 hr 10 min 30 sec) 
Warmup complete CPU 1 instructions: 29069571 cycles: 12790140 (Simulation time: 0 hr 10 min 30 sec) 
Warmup complete CPU 2 instructions: 20000001 cycles: 12790140 (Simulation time: 0 hr 10 min 30 sec) 
Warmup complete CPU 3 instructions: 22051432 cycles: 12790139 (Simulation time: 0 hr 10 min 30 sec) 
Warmup complete CPU 4 instructions: 30548205 cycles: 12790139 (Simulation time: 0 hr 10 min 30 sec) 
Warmup complete CPU 5 instructions: 26464251 cycles: 12790139 (Simulation time: 0 hr 10 min 30 sec) 
Warmup complete CPU 6 instructions: 25513760 cycles: 12790139 (Simulation time: 0 hr 10 min 30 sec) 
Warmup complete CPU 7 instructions: 27192152 cycles: 12790139 (Simulation time: 0 hr 10 min 30 sec) 

Heartbeat CPU 1 instructions: 30000003 cycles: 13779140 heartbeat IPC: 2.00827 cumulative IPC: 0.940781 (Simulation time: 0 hr 10 min 57 sec) 
Heartbeat CPU 7 instructions: 30000002 cycles: 17497480 heartbeat IPC: 1.23523 cumulative IPC: 0.596483 (Simulation time: 0 hr 12 min 32 sec) 
Heartbeat CPU 6 instructions: 30000000 cycles: 18379174 heartbeat IPC: 1.19465 cumulative IPC: 0.802686 (Simulation time: 0 hr 12 min 54 sec) 
Heartbeat CPU 0 instructions: 40000000 cycles: 19527293 heartbeat IPC: 1.22396 cumulative IPC: 0.908823 (Simulation time: 0 hr 13 min 24 sec) 
Heartbeat CPU 4 instructions: 40000000 cycles: 20166489 heartbeat IPC: 1.31484 cumulative IPC: 1.28136 (Simulation time: 0 hr 13 min 41 sec) 
Heartbeat CPU 3 instructions: 30000001 cycles: 20665153 heartbeat IPC: 1.10317 cumulative IPC: 1.00934 (Simulation time: 0 hr 13 min 53 sec) 
Heartbeat CPU 1 instructions: 40000000 cycles: 24922549 heartbeat IPC: 0.897391 cumulative IPC: 0.900928 (Simulation time: 0 hr 15 min 40 sec) 
Heartbeat CPU 4 instructions: 50000001 cycles: 28032367 heartbeat IPC: 1.27131 cumulative IPC: 1.27618 (Simulation time: 0 hr 16 min 58 sec) 
Heartbeat CPU 5 instructions: 30000000 cycles: 29907533 heartbeat IPC: 0.492599 cumulative IPC: 0.206559 (Simulation time: 0 hr 17 min 48 sec) 
Heartbeat CPU 3 instructions: 40000000 cycles: 30513482 heartbeat IPC: 1.0154 cumulative IPC: 1.01271 (Simulation time: 0 hr 18 min 5 sec) 
Heartbeat CPU 0 instructions: 50000001 cycles: 31036399 heartbeat IPC: 0.868877 cumulative IPC: 0.883627 (Simulation time: 0 hr 18 min 19 sec) 
Heartbeat CPU 6 instructions: 40000000 cycles: 32038369 heartbeat IPC: 0.732108 cumulative IPC: 0.752601 (Simulation time: 0 hr 18 min 46 sec) 
Heartbeat CPU 7 instructions: 40000000 cycles: 34368218 heartbeat IPC: 0.592742 cumulative IPC: 0.593558 (Simulation time: 0 hr 19 min 47 sec) 
Heartbeat CPU 2 instructions: 30000000 cycles: 35899764 heartbeat IPC: 0.43272 cumulative IPC: 0.43272 (Simulation time: 0 hr 20 min 28 sec) 
Heartbeat CPU 4 instructions: 60000000 cycles: 35937662 heartbeat IPC: 1.26497 cumulative IPC: 1.27235 (Simulation time: 0 hr 20 min 29 sec) 
Heartbeat CPU 1 instructions: 50000001 cycles: 36007482 heartbeat IPC: 0.902126 cumulative IPC: 0.9015 (Simulation time: 0 hr 20 min 31 sec) 
Heartbeat CPU 3 instructions: 50000003 cycles: 40361879 heartbeat IPC: 1.01539 cumulative IPC: 1.01367 (Simulation time: 0 hr 22 min 28 sec) 
Heartbeat CPU 6 instructions: 50000000 cycles: 40494505 heartbeat IPC: 1.18257 cumulative IPC: 0.883841 (Simulation time: 0 hr 22 min 32 sec) 
Heartbeat CPU 0 instructions: 60000000 cycles: 41481758 heartbeat IPC: 0.957363 cumulative IPC: 0.910471 (Simulation time: 0 hr 22 min 58 sec) 
Heartbeat CPU 4 instructions: 70000001 cycles: 43734290 heartbeat IPC: 1.28261 cumulative IPC: 1.27494 (Simulation time: 0 hr 23 min 54 sec) 
Heartbeat CPU 1 instructions: 60000000 cycles: 47413598 heartbeat IPC: 0.876723 cumulative IPC: 0.893337 (Simulation time: 0 hr 25 min 22 sec) 
Heartbeat CPU 3 instructions: 60000000 cycles: 51142102 heartbeat IPC: 0.927624 cumulative IPC: 0.989482 (Simulation time: 0 hr 26 min 52 sec) 
Heartbeat CPU 7 instructions: 50000001 cycles: 51297331 heartbeat IPC: 0.590698 cumulative IPC: 0.592301 (Simulation time: 0 hr 26 min 56 sec) 
Heartbeat CPU 4 instructions: 80000000 cycles: 51809281 heartbeat IPC: 1.23839 cumulative IPC: 1.26737 (Simulation time: 0 hr 27 min 8 sec) 
Heartbeat CPU 0 instructions: 70000001 cycles: 51828408 heartbeat IPC: 0.966497 cumulative IPC: 0.92532 (Simulation time: 0 hr 27 min 9 sec) 
Heartbeat CPU 6 instructions: 60000000 cycles: 55911294 heartbeat IPC: 0.648643 cumulative IPC: 0.799752 (Simulation time: 0 hr 28 min 50 sec) 
Heartbeat CPU 2 instructions: 40000000 cycles: 59041255 heartbeat IPC: 0.432124 cumulative IPC: 0.432422 (Simulation time: 0 hr 30 min 7 sec) 
Heartbeat CPU 1 instructions: 70000000 cycles: 59277411 heartbeat IPC: 0.842899 cumulative IPC: 0.880465 (Simulation time: 0 hr 30 min 13 sec) 
Heartbeat CPU 4 instructions: 90000003 cycles: 59828779 heartbeat IPC: 1.24696 cumulative IPC: 1.26389 (Simulation time: 0 hr 30 min 27 sec) 
Heartbeat CPU 3 instructions: 70000000 cycles: 62115401 heartbeat IPC: 0.911303 cumulative IPC: 0.972089 (Simulation time: 0 hr 31 min 24 sec) 
Heartbeat CPU 0 instructions: 80000000 cycles: 62321456 heartbeat IPC: 0.953012 cumulative IPC: 0.931186 (Simulation time: 0 hr 31 min 29 sec) 
Heartbeat CPU 6 instructions: 70000001 cycles: 65298780 heartbeat IPC: 1.06525 cumulative IPC: 0.847218 (Simulation time: 0 hr 32 min 45 sec) 
Heartbeat CPU 4 instructions: 100000000 cycles: 67649263 heartbeat IPC: 1.27869 cumulative IPC: 1.266 (Simulation time: 0 hr 33 min 47 sec) 
Heartbeat CPU 7 instructions: 60000000 cycles: 68524173 heartbeat IPC: 0.580489 cumulative IPC: 0.58865 (Simulation time: 0 hr 34 min 8 sec) 
Heartbeat CPU 1 instructions: 80000000 cycles: 70349513 heartbeat IPC: 0.903171 cumulative IPC: 0.884833 (Simulation time: 0 hr 34 min 54 sec) 
Heartbeat CPU 0 instructions: 90000003 cycles: 72938638 heartbeat IPC: 0.94187 cumulative IPC: 0.933072 (Simulation time: 0 hr 35 min 56 sec) 
Heartbeat CPU 3 instructions: 80000000 cycles: 74065747 heartbeat IPC: 0.836796 cumulative IPC: 0.945704 (Simulation time: 0 hr 36 min 22 sec) 
Heartbeat CPU 4 instructions: 110000002 cycles: 75692911 heartbeat IPC: 1.24322 cumulative IPC: 1.26309 (Simulation time: 0 hr 37 min 0 sec) 
Heartbeat CPU 6 instructions: 80000000 cycles: 76931648 heartbeat IPC: 0.859633 cumulative IPC: 0.849469 (Simulation time: 0 hr 37 min 30 sec) 
Heartbeat CPU 5 instructions: 40000000 cycles: 79892584 heartbeat IPC: 0.20006 cumulative IPC: 0.201718 (Simulation time: 0 hr 38 min 43 sec) 
Heartbeat CPU 1 instructions: 90000002 cycles: 81928744 heartbeat IPC: 0.863615 cumulative IPC: 0.881279 (Simulation time: 0 hr 39 min 32 sec) 
Heartbeat CPU 2 instructions: 50000000 cycles: 82407808 heartbeat IPC: 0.427962 cumulative IPC: 0.430925 (Simulation time: 0 hr 39 min 43 sec) 
Heartbeat CPU 0 instructions: 100000000 cycles: 83078288 heartbeat IPC: 0.986227 cumulative IPC: 0.94074 (Simulation time: 0 hr 39 min 59 sec) 
Heartbeat CPU 4 instructions: 120000000 cycles: 83727739 heartbeat IPC: 1.24458 cumulative IPC: 1.26099 (Simulation time: 0 hr 40 min 15 sec) 
Heartbeat CPU 3 instructions: 90000000 cycles: 85396018 heartbeat IPC: 0.882591 cumulative IPC: 0.935855 (Simulation time: 0 hr 40 min 55 sec) 
Heartbeat CPU 7 instructions: 70000001 cycles: 85679334 heartbeat IPC: 0.582915 cumulative IPC: 0.5873 (Simulation time: 0 hr 41 min 2 sec) 
Heartbeat CPU 6 instructions: 90000001 cycles: 89888613 heartbeat IPC: 0.771786 cumulative IPC: 0.836414 (Simulation time: 0 hr 42 min 48 sec) 
Heartbeat CPU 4 instructions: 130000001 cycles: 91742501 heartbeat IPC: 1.2477 cumulative IPC: 1.25964 (Simulation time: 0 hr 43 min 36 sec) 
Finished CPU 4 instructions: 100000000 cycles: 79372740 cumulative IPC: 1.25988 (Simulation time: 0 hr 43 min 47 sec) 
Heartbeat CPU 1 instructions: 100000000 cycles: 93588809 heartbeat IPC: 0.857628 cumulative IPC: 0.877866 (Simulation time: 0 hr 44 min 24 sec) 
Heartbeat CPU 0 instructions: 110000001 cycles: 93921112 heartbeat IPC: 0.922269 cumulative IPC: 0.938272 (Simulation time: 0 hr 44 min 32 sec) 
Heartbeat CPU 3 instructions: 100000000 cycles: 96862154 heartbeat IPC: 0.872133 cumulative IPC: 0.927164 (Simulation time: 0 hr 45 min 49 sec) 
Heartbeat CPU 6 instructions: 100000000 cycles: 98461772 heartbeat IPC: 1.16643 cumulative IPC: 0.869439 (Simulation time: 0 hr 46 min 31 sec) 
Heartbeat CPU 4 instructions: 140000000 cycles: 99598203 heartbeat IPC: 1.27296 cumulative IPC: 1.26085 (Simulation time: 0 hr 46 min 59 sec) 
Heartbeat CPU 7 instructions: 80000000 cycles: 102954593 heartbeat IPC: 0.578862 cumulative IPC: 0.585684 (Simulation time: 0 hr 48 min 22 sec) 
Heartbeat CPU 0 instructions: 120000000 cycles: 104170383 heartbeat IPC: 0.975679 cumulative IPC: 0.942467 (Simulation time: 0 hr 48 min 51 sec) 
Heartbeat CPU 1 instructions: 110000001 cycles: 105108952 heartbeat IPC: 0.868045 cumulative IPC: 0.876641 (Simulation time: 0 hr 49 min 14 sec) 
Heartbeat CPU 2 instructions: 60000000 cycles: 105504523 heartbeat IPC: 0.432962 cumulative IPC: 0.431433 (Simulation time: 0 hr 49 min 24 sec) 
Heartbeat CPU 4 instructions: 150000002 cycles: 107690017 heartbeat IPC: 1.23582 cumulative IPC: 1.25871 (Simulation time: 0 hr 50 min 18 sec) 
Heartbeat CPU 3 instructions: 110000003 cycles: 108658448 heartbeat IPC: 0.847724 cumulative IPC: 0.917389 (Simulation time: 0 hr 50 min 41 sec) 
Heartbeat CPU 0 instructions: 130000002 cycles: 114216725 heartbeat IPC: 0.995387 cumulative IPC: 0.947709 (Simulation time: 0 hr 52 min 58 sec) 
Heartbeat CPU 6 instructions: 110000001 cycles: 114301403 heartbeat IPC: 0.631328 cumulative IPC: 0.832284 (Simulation time: 0 hr 53 min 0 sec) 
Heartbeat CPU 4 instructions: 160000000 cycles: 115725640 heartbeat IPC: 1.24446 cumulative IPC: 1.2576 (Simulation time: 0 hr 53 min 37 sec) 
Heartbeat CPU 1 instructions: 120000000 cycles: 116612555 heartbeat IPC: 0.869293 cumulative IPC: 0.875827 (Simulation time: 0 hr 54 min 0 sec) 
Finished CPU 0 instructions: 100000003 cycles: 105297726 cumulative IPC: 0.949688 (Simulation time: 0 hr 54 min 38 sec) 
Heartbeat CPU 3 instructions: 120000000 cycles: 120064592 heartbeat IPC: 0.87672 cumulative IPC: 0.913065 (Simulation time: 0 hr 55 min 30 sec) 
Heartbeat CPU 7 instructions: 90000000 cycles: 120097388 heartbeat IPC: 0.583335 cumulative IPC: 0.585309 (Simulation time: 0 hr 55 min 31 sec) 
Finished CPU 3 instructions: 100000000 cycles: 109407932 cumulative IPC: 0.91401 (Simulation time: 0 hr 56 min 26 sec) 
Heartbeat CPU 6 instructions: 120000000 cycles: 123107283 heartbeat IPC: 1.1356 cumulative IPC: 0.856496 (Simulation time: 0 hr 56 min 50 sec) 
Heartbeat CPU 4 instructions: 170000001 cycles: 123702758 heartbeat IPC: 1.25359 cumulative IPC: 1.25731 (Simulation time: 0 hr 57 min 7 sec) 
Heartbeat CPU 0 instructions: 140000000 cycles: 124850564 heartbeat IPC: 0.940394 cumulative IPC: 0.947015 (Simulation time: 0 hr 57 min 38 sec) 
Finished CPU 1 instructions: 100000000 cycles: 114292410 cumulative IPC: 0.874949 (Simulation time: 0 hr 58 min 37 sec) 
Heartbeat CPU 1 instructions: 130000003 cycles: 128199642 heartbeat IPC: 0.86303 cumulative IPC: 0.874542 (Simulation time: 0 hr 59 min 5 sec) 
Heartbeat CPU 2 instructions: 70000000 cycles: 128388624 heartbeat IPC: 0.436985 cumulative IPC: 0.432532 (Simulation time: 0 hr 59 min 9 sec) 
Finished CPU 6 instructions: 100000003 cycles: 115601117 cumulative IPC: 0.865044 (Simulation time: 0 hr 59 min 9 sec) 
Heartbeat CPU 3 instructions: 130000001 cycles: 130396015 heartbeat IPC: 0.967921 cumulative IPC: 0.917884 (Simulation time: 0 hr 59 min 59 sec) 
Heartbeat CPU 4 instructions: 180000000 cycles: 131708575 heartbeat IPC: 1.24909 cumulative IPC: 1.25676 (Simulation time: 1 hr 0 min 31 sec) 
Heartbeat CPU 0 instructions: 150000001 cycles: 135514331 heartbeat IPC: 0.937755 cumulative IPC: 0.94621 (Simulation time: 1 hr 2 min 4 sec) 
Heartbeat CPU 6 instructions: 130000001 cycles: 135793298 heartbeat IPC: 0.78827 cumulative IPC: 0.84946 (Simulation time: 1 hr 2 min 11 sec) 
Heartbeat CPU 7 instructions: 100000000 cycles: 137214768 heartbeat IPC: 0.584202 cumulative IPC: 0.585156 (Simulation time: 1 hr 2 min 47 sec) 
Heartbeat CPU 4 instructions: 190000001 cycles: 139760180 heartbeat IPC: 1.24199 cumulative IPC: 1.25582 (Simulation time: 1 hr 3 min 49 sec) 
Heartbeat CPU 1 instructions: 140000000 cycles: 139987805 heartbeat IPC: 0.848308 cumulative IPC: 0.872111 (Simulation time: 1 hr 3 min 55 sec) 
Heartbeat CPU 3 instructions: 140000000 cycles: 141773593 heartbeat IPC: 0.878922 cumulative IPC: 0.914447 (Simulation time: 1 hr 4 min 39 sec) 
Heartbeat CPU 5 instructions: 50000001 cycles: 143483329 heartbeat IPC: 0.157256 cumulative IPC: 0.180084 (Simulation time: 1 hr 5 min 22 sec) 
Heartbeat CPU 0 instructions: 160000000 cycles: 145755169 heartbeat IPC: 0.976483 cumulative IPC: 0.948542 (Simulation time: 1 hr 6 min 22 sec) 
Heartbeat CPU 4 instructions: 200000000 cycles: 147878100 heartbeat IPC: 1.23184 cumulative IPC: 1.25438 (Simulation time: 1 hr 7 min 16 sec) 
Heartbeat CPU 6 instructions: 140000000 cycles: 147977960 heartbeat IPC: 0.820704 cumulative IPC: 0.846868 (Simulation time: 1 hr 7 min 19 sec) 
Heartbeat CPU 2 instructions: 80000000 cycles: 151426752 heartbeat IPC: 0.434063 cumulative IPC: 0.432786 (Simulation time: 1 hr 8 min 47 sec) 
Heartbeat CPU 1 instructions: 150000001 cycles: 151520846 heartbeat IPC: 0.867074 cumulative IPC: 0.871692 (Simulation time: 1 hr 8 min 50 sec) 
Heartbeat CPU 3 instructions: 150000002 cycles: 153563536 heartbeat IPC: 0.848181 cumulative IPC: 0.908897 (Simulation time: 1 hr 9 min 43 sec) 
Heartbeat CPU 7 instructions: 110000003 cycles: 154448190 heartbeat IPC: 0.580268 cumulative IPC: 0.584562 (Simulation time: 1 hr 10 min 6 sec) 
Heartbeat CPU 4 instructions: 210000002 cycles: 155742841 heartbeat IPC: 1.2715 cumulative IPC: 1.25532 (Simulation time: 1 hr 10 min 40 sec) 
Heartbeat CPU 0 instructions: 170000003 cycles: 156222491 heartbeat IPC: 0.955355 cumulative IPC: 0.949039 (Simulation time: 1 hr 10 min 52 sec) 
Heartbeat CPU 6 instructions: 150000000 cycles: 157270450 heartbeat IPC: 1.07614 cumulative IPC: 0.861614 (Simulation time: 1 hr 11 min 18 sec) 
Heartbeat CPU 1 instructions: 160000000 cycles: 162872815 heartbeat IPC: 0.880904 cumulative IPC: 0.872389 (Simulation time: 1 hr 13 min 33 sec) 
Heartbeat CPU 4 instructions: 220000000 cycles: 163772049 heartbeat IPC: 1.24545 cumulative IPC: 1.2548 (Simulation time: 1 hr 13 min 55 sec) 
Heartbeat CPU 3 instructions: 160000000 cycles: 165816755 heartbeat IPC: 0.816112 cumulative IPC: 0.901468 (Simulation time: 1 hr 14 min 45 sec) 
Heartbeat CPU 0 instructions: 180000000 cycles: 167111306 heartbeat IPC: 0.918373 cumulative IPC: 0.946875 (Simulation time: 1 hr 15 min 17 sec) 
Heartbeat CPU 7 instructions: 120000000 cycles: 171738669 heartbeat IPC: 0.578353 cumulative IPC: 0.583886 (Simulation time: 1 hr 17 min 11 sec) 
Heartbeat CPU 4 instructions: 230000003 cycles: 171813814 heartbeat IPC: 1.24351 cumulative IPC: 1.25423 (Simulation time: 1 hr 17 min 12 sec) 
Heartbeat CPU 6 instructions: 160000000 cycles: 172619669 heartbeat IPC: 0.651499 cumulative IPC: 0.841435 (Simulation time: 1 hr 17 min 33 sec) 
Heartbeat CPU 1 instructions: 170000002 cycles: 174445013 heartbeat IPC: 0.86414 cumulative IPC: 0.871798 (Simulation time: 1 hr 18 min 19 sec) 
Heartbeat CPU 2 instructions: 90000000 cycles: 174558894 heartbeat IPC: 0.432299 cumulative IPC: 0.432716 (Simulation time: 1 hr 18 min 22 sec) 
Heartbeat CPU 0 instructions: 190000000 cycles: 177809036 heartbeat IPC: 0.934778 cumulative IPC: 0.946091 (Simulation time: 1 hr 19 min 46 sec) 
Heartbeat CPU 3 instructions: 170000003 cycles: 178244072 heartbeat IPC: 0.804679 cumulative IPC: 0.894198 (Simulation time: 1 hr 19 min 57 sec) 
Heartbeat CPU 4 instructions: 240000000 cycles: 179834019 heartbeat IPC: 1.24685 cumulative IPC: 1.25387 (Simulation time: 1 hr 20 min 38 sec) 
Heartbeat CPU 6 instructions: 170000003 cycles: 181451711 heartbeat IPC: 1.13224 cumulative IPC: 0.856664 (Simulation time: 1 hr 21 min 20 sec) 
Finished CPU 7 instructions: 100000003 cycles: 171380588 cumulative IPC: 0.583497 (Simulation time: 1 hr 22 min 30 sec) 
Heartbeat CPU 1 instructions: 180000000 cycles: 185499887 heartbeat IPC: 0.904578 cumulative IPC: 0.873896 (Simulation time: 1 hr 23 min 4 sec) 
Heartbeat CPU 4 instructions: 250000000 cycles: 187759302 heartbeat IPC: 1.26178 cumulative IPC: 1.25423 (Simulation time: 1 hr 23 min 58 sec) 
Heartbeat CPU 0 instructions: 200000000 cycles: 188270078 heartbeat IPC: 0.955928 cumulative IPC: 0.946677 (Simulation time: 1 hr 24 min 11 sec) 
Heartbeat CPU 7 instructions: 130000003 cycles: 189051164 heartbeat IPC: 0.577618 cumulative IPC: 0.58327 (Simulation time: 1 hr 24 min 29 sec) 
Heartbeat CPU 3 instructions: 180000000 cycles: 190822216 heartbeat IPC: 0.79503 cumulative IPC: 0.887192 (Simulation time: 1 hr 25 min 13 sec) 
Heartbeat CPU 6 instructions: 180000000 cycles: 194941364 heartbeat IPC: 0.741309 cumulative IPC: 0.848121 (Simulation time: 1 hr 26 min 55 sec) 
Heartbeat CPU 4 instructions: 260000000 cycles: 195822576 heartbeat IPC: 1.24019 cumulative IPC: 1.25361 (Simulation time: 1 hr 27 min 16 sec) 
Heartbeat CPU 1 instructions: 190000001 cycles: 197005136 heartbeat IPC: 0.869169 cumulative IPC: 0.873601 (Simulation time: 1 hr 27 min 45 sec) 
Heartbeat CPU 2 instructions: 100000000 cycles: 197968677 heartbeat IPC: 0.427172 cumulative IPC: 0.432016 (Simulation time: 1 hr 28 min 9 sec) 
Heartbeat CPU 0 instructions: 210000001 cycles: 198384684 heartbeat IPC: 0.988669 cumulative IPC: 0.948966 (Simulation time: 1 hr 28 min 19 sec) 
Heartbeat CPU 5 instructions: 60000000 cycles: 200928881 heartbeat IPC: 0.174078 cumulative IPC: 0.17825 (Simulation time: 1 hr 29 min 22 sec) 
Heartbeat CPU 3 instructions: 190000002 cycles: 203295423 heartbeat IPC: 0.801719 cumulative IPC: 0.881595 (Simulation time: 1 hr 30 min 23 sec) 
Heartbeat CPU 4 instructions: 270000000 cycles: 203877178 heartbeat IPC: 1.24153 cumulative IPC: 1.2531 (Simulation time: 1 hr 30 min 39 sec) 
Heartbeat CPU 6 instructions: 190000000 cycles: 206011437 heartbeat IPC: 0.903336 cumulative IPC: 0.851284 (Simulation time: 1 hr 31 min 35 sec) 
Heartbeat CPU 7 instructions: 140000000 cycles: 206289558 heartbeat IPC: 0.5801 cumulative IPC: 0.582988 (Simulation time: 1 hr 31 min 42 sec) 
Heartbeat CPU 1 instructions: 200000000 cycles: 208528833 heartbeat IPC: 0.867777 cumulative IPC: 0.873258 (Simulation time: 1 hr 32 min 41 sec) 
Heartbeat CPU 0 instructions: 220000000 cycles: 209034540 heartbeat IPC: 0.93898 cumulative IPC: 0.948424 (Simulation time: 1 hr 32 min 54 sec) 
Heartbeat CPU 4 instructions: 280000000 cycles: 211789667 heartbeat IPC: 1.26382 cumulative IPC: 1.25353 (Simulation time: 1 hr 34 min 7 sec) 
Heartbeat CPU 3 instructions: 200000000 cycles: 213761050 heartbeat IPC: 0.955509 cumulative IPC: 0.885444 (Simulation time: 1 hr 34 min 58 sec) 
Heartbeat CPU 6 instructions: 200000000 cycles: 215887697 heartbeat IPC: 1.01253 cumulative IPC: 0.859125 (Simulation time: 1 hr 35 min 52 sec) 
Heartbeat CPU 0 instructions: 230000003 cycles: 219068565 heartbeat IPC: 0.996609 cumulative IPC: 0.950768 (Simulation time: 1 hr 37 min 10 sec) 
Heartbeat CPU 4 instructions: 290000003 cycles: 219831786 heartbeat IPC: 1.24345 cumulative IPC: 1.25314 (Simulation time: 1 hr 37 min 28 sec) 
Heartbeat CPU 1 instructions: 210000002 cycles: 220287273 heartbeat IPC: 0.850453 cumulative IPC: 0.871966 (Simulation time: 1 hr 37 min 39 sec) 
Heartbeat CPU 2 instructions: 110000002 cycles: 221438624 heartbeat IPC: 0.426077 cumulative IPC: 0.431347 (Simulation time: 1 hr 38 min 8 sec) 
Heartbeat CPU 7 instructions: 150000000 cycles: 223430107 heartbeat IPC: 0.583412 cumulative IPC: 0.583023 (Simulation time: 1 hr 38 min 57 sec) 
Heartbeat CPU 3 instructions: 210000000 cycles: 224643002 heartbeat IPC: 0.918953 cumulative IPC: 0.887166 (Simulation time: 1 hr 39 min 26 sec) 
Heartbeat CPU 4 instructions: 300000000 cycles: 227769382 heartbeat IPC: 1.25983 cumulative IPC: 1.25339 (Simulation time: 1 hr 40 min 43 sec) 
Heartbeat CPU 0 instructions: 240000000 cycles: 229672882 heartbeat IPC: 0.943012 cumulative IPC: 0.950389 (Simulation time: 1 hr 41 min 30 sec) 
Heartbeat CPU 6 instructions: 210000002 cycles: 230649365 heartbeat IPC: 0.67743 cumulative IPC: 0.846814 (Simulation time: 1 hr 41 min 54 sec) 
Heartbeat CPU 1 instructions: 220000000 cycles: 231724411 heartbeat IPC: 0.874344 cumulative IPC: 0.87209 (Simulation time: 1 hr 42 min 22 sec) 
Heartbeat CPU 4 instructions: 310000003 cycles: 235772439 heartbeat IPC: 1.24952 cumulative IPC: 1.25325 (Simulation time: 1 hr 44 min 6 sec) 
Heartbeat CPU 3 instructions: 220000000 cycles: 237018215 heartbeat IPC: 0.808067 cumulative IPC: 0.8828 (Simulation time: 1 hr 44 min 39 sec) 
Heartbeat CPU 6 instructions: 220000000 cycles: 239174326 heartbeat IPC: 1.17303 cumulative IPC: 0.859098 (Simulation time: 1 hr 45 min 37 sec) 
Heartbeat CPU 0 instructions: 250000000 cycles: 240243074 heartbeat IPC: 0.946057 cumulative IPC: 0.950187 (Simulation time: 1 hr 46 min 5 sec) 
Heartbeat CPU 7 instructions: 160000000 cycles: 240690759 heartbeat IPC: 0.579352 cumulative IPC: 0.582745 (Simulation time: 1 hr 46 min 17 sec) 
Heartbeat CPU 1 instructions: 230000002 cycles: 242708280 heartbeat IPC: 0.910426 cumulative IPC: 0.873922 (Simulation time: 1 hr 47 min 9 sec) 
Heartbeat CPU 4 instructions: 320000000 cycles: 243651596 heartbeat IPC: 1.26917 cumulative IPC: 1.25379 (Simulation time: 1 hr 47 min 32 sec) 
Heartbeat CPU 2 instructions: 120000000 cycles: 244825807 heartbeat IPC: 0.427585 cumulative IPC: 0.430968 (Simulation time: 1 hr 48 min 0 sec) 
Finished CPU 2 instructions: 100000000 cycles: 232035676 cumulative IPC: 0.430968 (Simulation time: 1 hr 48 min 0 sec) 
Heartbeat CPU 3 instructions: 230000001 cycles: 248870607 heartbeat IPC: 0.843712 cumulative IPC: 0.880838 (Simulation time: 1 hr 49 min 37 sec) 
Heartbeat CPU 0 instructions: 260000000 cycles: 250467837 heartbeat IPC: 0.978018 cumulative IPC: 0.951384 (Simulation time: 1 hr 50 min 17 sec) 
Heartbeat CPU 4 instructions: 330000001 cycles: 251692470 heartbeat IPC: 1.24365 cumulative IPC: 1.25345 (Simulation time: 1 hr 50 min 47 sec) 
Heartbeat CPU 6 instructions: 230000001 cycles: 252705243 heartbeat IPC: 0.739048 cumulative IPC: 0.852328 (Simulation time: 1 hr 51 min 11 sec) 
Heartbeat CPU 1 instructions: 240000000 cycles: 254501625 heartbeat IPC: 0.847936 cumulative IPC: 0.872654 (Simulation time: 1 hr 51 min 56 sec) 
Heartbeat CPU 5 instructions: 70000000 cycles: 257165054 heartbeat IPC: 0.177821 cumulative IPC: 0.178151 (Simulation time: 1 hr 53 min 0 sec) 
Heartbeat CPU 7 instructions: 170000002 cycles: 257859012 heartbeat IPC: 0.582471 cumulative IPC: 0.582725 (Simulation time: 1 hr 53 min 17 sec) 
Heartbeat CPU 3 instructions: 240000000 cycles: 259737192 heartbeat IPC: 0.920252 cumulative IPC: 0.882572 (Simulation time: 1 hr 54 min 5 sec) 
Heartbeat CPU 4 instructions: 340000000 cycles: 259751951 heartbeat IPC: 1.24077 cumulative IPC: 1.25303 (Simulation time: 1 hr 54 min 5 sec) 
Heartbeat CPU 0 instructions: 270000002 cycles: 261001124 heartbeat IPC: 0.949371 cumulative IPC: 0.951299 (Simulation time: 1 hr 54 min 38 sec) 
Heartbeat CPU 6 instructions: 240000000 cycles: 263749491 heartbeat IPC: 0.905449 cumulative IPC: 0.854665 (Simulation time: 1 hr 55 min 53 sec) 
Heartbeat CPU 1 instructions: 250000000 cycles: 266196551 heartbeat IPC: 0.855072 cumulative IPC: 0.871842 (Simulation time: 1 hr 56 min 58 sec) 
Heartbeat CPU 4 instructions: 350000003 cycles: 267646268 heartbeat IPC: 1.26673 cumulative IPC: 1.25346 (Simulation time: 1 hr 57 min 36 sec) 
Heartbeat CPU 2 instructions: 130000000 cycles: 268057393 heartbeat IPC: 0.430448 cumulative IPC: 0.430921 (Simulation time: 1 hr 57 min 47 sec) 
Heartbeat CPU 3 instructions: 250000003 cycles: 270046822 heartbeat IPC: 0.969967 cumulative IPC: 0.886074 (Simulation time: 1 hr 58 min 39 sec) 
Heartbeat CPU 0 instructions: 280000000 cycles: 271332020 heartbeat IPC: 0.96797 cumulative IPC: 0.951965 (Simulation time: 1 hr 59 min 13 sec) 
Heartbeat CPU 6 instructions: 250000000 cycles: 272820978 heartbeat IPC: 1.10236 cumulative IPC: 0.863306 (Simulation time: 1 hr 59 min 51 sec) 
Heartbeat CPU 7 instructions: 180000000 cycles: 274848441 heartbeat IPC: 0.588601 cumulative IPC: 0.583106 (Simulation time: 2 hr 0 min 41 sec) 
Heartbeat CPU 4 instructions: 360000000 cycles: 275615335 heartbeat IPC: 1.25485 cumulative IPC: 1.2535 (Simulation time: 2 hr 0 min 59 sec) 
Heartbeat CPU 1 instructions: 260000000 cycles: 277915503 heartbeat IPC: 0.853319 cumulative IPC: 0.871024 (Simulation time: 2 hr 1 min 54 sec) 
Heartbeat CPU 3 instructions: 260000000 cycles: 280584801 heartbeat IPC: 0.948948 cumulative IPC: 0.888549 (Simulation time: 2 hr 2 min 58 sec) 
Heartbeat CPU 0 instructions: 290000003 cycles: 281366973 heartbeat IPC: 0.996517 cumulative IPC: 0.95363 (Simulation time: 2 hr 3 min 16 sec) 
Heartbeat CPU 4 instructions: 370000002 cycles: 283655496 heartbeat IPC: 1.24376 cumulative IPC: 1.25321 (Simulation time: 2 hr 4 min 10 sec) 
Heartbeat CPU 6 instructions: 260000000 cycles: 288364802 heartbeat IPC: 0.643342 cumulative IPC: 0.850899 (Simulation time: 2 hr 6 min 4 sec) 
Heartbeat CPU 1 instructions: 270000000 cycles: 290312575 heartbeat IPC: 0.806642 cumulative IPC: 0.868148 (Simulation time: 2 hr 6 min 52 sec) 
Heartbeat CPU 2 instructions: 140000000 cycles: 291022196 heartbeat IPC: 0.435449 cumulative IPC: 0.431295 (Simulation time: 2 hr 7 min 10 sec) 
Heartbeat CPU 0 instructions: 300000000 cycles: 291588898 heartbeat IPC: 0.978289 cumulative IPC: 0.954534 (Simulation time: 2 hr 7 min 25 sec) 
Heartbeat CPU 4 instructions: 380000000 cycles: 291641128 heartbeat IPC: 1.25225 cumulative IPC: 1.25318 (Simulation time: 2 hr 7 min 26 sec) 
Heartbeat CPU 7 instructions: 190000000 cycles: 292040437 heartbeat IPC: 0.581666 cumulative IPC: 0.583018 (Simulation time: 2 hr 7 min 36 sec) 
Heartbeat CPU 3 instructions: 270000003 cycles: 292057201 heartbeat IPC: 0.871657 cumulative IPC: 0.887855 (Simulation time: 2 hr 7 min 37 sec) 
Heartbeat CPU 6 instructions: 270000002 cycles: 296685064 heartbeat IPC: 1.20189 cumulative IPC: 0.861186 (Simulation time: 2 hr 9 min 38 sec) 
Heartbeat CPU 4 instructions: 390000003 cycles: 299226890 heartbeat IPC: 1.31826 cumulative IPC: 1.25491 (Simulation time: 2 hr 10 min 44 sec) 
Heartbeat CPU 0 instructions: 310000000 cycles: 301563427 heartbeat IPC: 1.00255 cumulative IPC: 0.956193 (Simulation time: 2 hr 11 min 42 sec) 
Heartbeat CPU 3 instructions: 280000000 cycles: 302360631 heartbeat IPC: 0.97055 cumulative IPC: 0.890797 (Simulation time: 2 hr 12 min 1 sec) 
Heartbeat CPU 1 instructions: 280000000 cycles: 302757772 heartbeat IPC: 0.803523 cumulative IPC: 0.865374 (Simulation time: 2 hr 12 min 11 sec) 
Heartbeat CPU 4 instructions: 400000000 cycles: 307229561 heartbeat IPC: 1.24958 cumulative IPC: 1.25476 (Simulation time: 2 hr 13 min 57 sec) 
Heartbeat CPU 7 instructions: 200000000 cycles: 309103194 heartbeat IPC: 0.586072 cumulative IPC: 0.583193 (Simulation time: 2 hr 14 min 42 sec) 
Heartbeat CPU 6 instructions: 280000000 cycles: 309270293 heartbeat IPC: 0.794582 cumulative IPC: 0.858358 (Simulation time: 2 hr 14 min 46 sec) 
Heartbeat CPU 0 instructions: 320000000 cycles: 311543868 heartbeat IPC: 1.00196 cumulative IPC: 0.957722 (Simulation time: 2 hr 15 min 40 sec) 
Heartbeat CPU 3 instructions: 290000000 cycles: 313707096 heartbeat IPC: 0.881332 cumulative IPC: 0.89044 (Simulation time: 2 hr 16 min 31 sec) 
Heartbeat CPU 2 instructions: 150000000 cycles: 313729821 heartbeat IPC: 0.440381 cumulative IPC: 0.43198 (Simulation time: 2 hr 16 min 32 sec) 
Heartbeat CPU 5 instructions: 80000000 cycles: 314372779 heartbeat IPC: 0.174802 cumulative IPC: 0.177516 (Simulation time: 2 hr 16 min 48 sec) 
Heartbeat CPU 1 instructions: 290000002 cycles: 314477476 heartbeat IPC: 0.853264 cumulative IPC: 0.864904 (Simulation time: 2 hr 16 min 50 sec) 
Heartbeat CPU 4 instructions: 410000001 cycles: 315229172 heartbeat IPC: 1.25006 cumulative IPC: 1.25464 (Simulation time: 2 hr 17 min 9 sec) 
Heartbeat CPU 6 instructions: 290000000 cycles: 321275215 heartbeat IPC: 0.832992 cumulative IPC: 0.857371 (Simulation time: 2 hr 19 min 44 sec) 
Heartbeat CPU 0 instructions: 330000001 cycles: 321525700 heartbeat IPC: 1.00182 cumulative IPC: 0.959147 (Simulation time: 2 hr 19 min 50 sec) 
Heartbeat CPU 4 instructions: 420000000 cycles: 323226590 heartbeat IPC: 1.2504 cumulative IPC: 1.25453 (Simulation time: 2 hr 20 min 34 sec) 
Heartbeat CPU 3 instructions: 300000000 cycles: 324106272 heartbeat IPC: 0.961615 cumulative IPC: 0.892818 (Simulation time: 2 hr 20 min 57 sec) 
Heartbeat CPU 1 instructions: 300000000 cycles: 326082875 heartbeat IPC: 0.861668 cumulative IPC: 0.864784 (Simulation time: 2 hr 21 min 48 sec) 
Heartbeat CPU 7 instructions: 210000001 cycles: 326180740 heartbeat IPC: 0.585564 cumulative IPC: 0.583323 (Simulation time: 2 hr 21 min 51 sec) 
Heartbeat CPU 6 instructions: 300000000 cycles: 329861085 heartbeat IPC: 1.1647 cumulative IPC: 0.865693 (Simulation time: 2 hr 23 min 28 sec) 
Heartbeat CPU 4 instructions: 430000003 cycles: 331037471 heartbeat IPC: 1.28027 cumulative IPC: 1.25516 (Simulation time: 2 hr 23 min 56 sec) 
Heartbeat CPU 0 instructions: 340000000 cycles: 331738748 heartbeat IPC: 0.97914 cumulative IPC: 0.959787 (Simulation time: 2 hr 24 min 13 sec) 
Heartbeat CPU 3 instructions: 310000002 cycles: 335017631 heartbeat IPC: 0.916476 cumulative IPC: 0.893619 (Simulation time: 2 hr 25 min 30 sec) 
Heartbeat CPU 2 instructions: 160000000 cycles: 336532670 heartbeat IPC: 0.438542 cumulative IPC: 0.432442 (Simulation time: 2 hr 26 min 6 sec) 
Heartbeat CPU 1 instructions: 310000000 cycles: 337754880 heartbeat IPC: 0.856751 cumulative IPC: 0.864495 (Simulation time: 2 hr 26 min 35 sec) 
Heartbeat CPU 4 instructions: 440000000 cycles: 339106477 heartbeat IPC: 1.23931 cumulative IPC: 1.25477 (Simulation time: 2 hr 27 min 8 sec) 
Heartbeat CPU 0 instructions: 350000000 cycles: 341782833 heartbeat IPC: 0.995611 cumulative IPC: 0.960881 (Simulation time: 2 hr 28 min 12 sec) 
Heartbeat CPU 7 instructions: 220000000 cycles: 343261107 heartbeat IPC: 0.585467 cumulative IPC: 0.583434 (Simulation time: 2 hr 28 min 46 sec) 
Heartbeat CPU 6 instructions: 310000001 cycles: 346029008 heartbeat IPC: 0.618509 cumulative IPC: 0.853701 (Simulation time: 2 hr 29 min 51 sec) 
Heartbeat CPU 3 instructions: 320000000 cycles: 346439574 heartbeat IPC: 0.875508 cumulative IPC: 0.892999 (Simulation time: 2 hr 30 min 1 sec) 
Heartbeat CPU 4 instructions: 450000002 cycles: 347100275 heartbeat IPC: 1.25097 cumulative IPC: 1.25468 (Simulation time: 2 hr 30 min 17 sec) 
Heartbeat CPU 1 instructions: 320000000 cycles: 349223372 heartbeat IPC: 0.871954 cumulative IPC: 0.864749 (Simulation time: 2 hr 31 min 10 sec) 
Heartbeat CPU 0 instructions: 360000000 cycles: 351880202 heartbeat IPC: 0.990357 cumulative IPC: 0.961759 (Simulation time: 2 hr 32 min 19 sec) 
Heartbeat CPU 6 instructions: 320000000 cycles: 354627164 heartbeat IPC: 1.16304 cumulative IPC: 0.861481 (Simulation time: 2 hr 33 min 28 sec) 
Heartbeat CPU 4 instructions: 460000000 cycles: 354962462 heartbeat IPC: 1.27191 cumulative IPC: 1.25507 (Simulation time: 2 hr 33 min 36 sec) 
Heartbeat CPU 3 instructions: 330000001 cycles: 358238478 heartbeat IPC: 0.847536 cumulative IPC: 0.891446 (Simulation time: 2 hr 34 min 59 sec) 
Heartbeat CPU 2 instructions: 170000003 cycles: 359392818 heartbeat IPC: 0.437443 cumulative IPC: 0.432772 (Simulation time: 2 hr 35 min 27 sec) 
Heartbeat CPU 1 instructions: 330000000 cycles: 360275755 heartbeat IPC: 0.904782 cumulative IPC: 0.866023 (Simulation time: 2 hr 35 min 48 sec) 
Heartbeat CPU 7 instructions: 230000000 cycles: 360519874 heartbeat IPC: 0.579416 cumulative IPC: 0.583234 (Simulation time: 2 hr 35 min 55 sec) 
Heartbeat CPU 0 instructions: 370000001 cycles: 362061596 heartbeat IPC: 0.982184 cumulative IPC: 0.962354 (Simulation time: 2 hr 36 min 31 sec) 
Heartbeat CPU 4 instructions: 470000002 cycles: 362871682 heartbeat IPC: 1.26435 cumulative IPC: 1.25528 (Simulation time: 2 hr 36 min 50 sec) 
Heartbeat CPU 5 instructions: 90000002 cycles: 364994031 heartbeat IPC: 0.197546 cumulative IPC: 0.180395 (Simulation time: 2 hr 37 min 41 sec) 
Heartbeat CPU 6 instructions: 330000003 cycles: 366411619 heartbeat IPC: 0.848576 cumulative IPC: 0.861051 (Simulation time: 2 hr 38 min 16 sec) 
Heartbeat CPU 3 instructions: 340000000 cycles: 370068067 heartbeat IPC: 0.845338 cumulative IPC: 0.889919 (Simulation time: 2 hr 39 min 42 sec) 
Heartbeat CPU 4 instructions: 480000000 cycles: 370933085 heartbeat IPC: 1.24048 cumulative IPC: 1.25495 (Simulation time: 2 hr 40 min 2 sec) 
Heartbeat CPU 1 instructions: 340000000 cycles: 372049546 heartbeat IPC: 0.849344 cumulative IPC: 0.865476 (Simulation time: 2 hr 40 min 28 sec) 
Heartbeat CPU 0 instructions: 380000000 cycles: 373669638 heartbeat IPC: 0.861472 cumulative IPC: 0.959109 (Simulation time: 2 hr 41 min 5 sec) 
Heartbeat CPU 7 instructions: 240000000 cycles: 377670332 heartbeat IPC: 0.583075 cumulative IPC: 0.583227 (Simulation time: 2 hr 42 min 43 sec) 
Heartbeat CPU 4 instructions: 490000001 cycles: 379022034 heartbeat IPC: 1.23625 cumulative IPC: 1.25454 (Simulation time: 2 hr 43 min 17 sec) 
Heartbeat CPU 6 instructions: 340000000 cycles: 379302297 heartbeat IPC: 0.775754 cumulative IPC: 0.858051 (Simulation time: 2 hr 43 min 24 sec) 
Heartbeat CPU 3 instructions: 350000003 cycles: 381276244 heartbeat IPC: 0.892206 cumulative IPC: 0.889989 (Simulation time: 2 hr 44 min 15 sec) 
Heartbeat CPU 2 instructions: 180000000 cycles: 382188424 heartbeat IPC: 0.438681 cumulative IPC: 0.433137 (Simulation time: 2 hr 44 min 38 sec) 
Heartbeat CPU 1 instructions: 350000003 cycles: 383723609 heartbeat IPC: 0.8566 cumulative IPC: 0.865197 (Simulation time: 2 hr 45 min 18 sec) 
Heartbeat CPU 0 instructions: 390000000 cycles: 384251104 heartbeat IPC: 0.945049 cumulative IPC: 0.958709 (Simulation time: 2 hr 45 min 32 sec) 
Heartbeat CPU 4 instructions: 500000000 cycles: 386828093 heartbeat IPC: 1.28106 cumulative IPC: 1.25509 (Simulation time: 2 hr 46 min 38 sec) 
Heartbeat CPU 6 instructions: 350000002 cycles: 387755081 heartbeat IPC: 1.18304 cumulative IPC: 0.865378 (Simulation time: 2 hr 47 min 2 sec) 
Heartbeat CPU 3 instructions: 360000000 cycles: 391984550 heartbeat IPC: 0.933854 cumulative IPC: 0.891228 (Simulation time: 2 hr 48 min 44 sec) 
Heartbeat CPU 0 instructions: 400000000 cycles: 394419473 heartbeat IPC: 0.983442 cumulative IPC: 0.959368 (Simulation time: 2 hr 49 min 40 sec) 
Heartbeat CPU 7 instructions: 250000000 cycles: 394796110 heartbeat IPC: 0.583915 cumulative IPC: 0.583257 (Simulation time: 2 hr 49 min 49 sec) 
Heartbeat CPU 4 instructions: 510000002 cycles: 394810849 heartbeat IPC: 1.2527 cumulative IPC: 1.25504 (Simulation time: 2 hr 49 min 49 sec) 
Heartbeat CPU 1 instructions: 360000000 cycles: 395233253 heartbeat IPC: 0.868836 cumulative IPC: 0.865306 (Simulation time: 2 hr 49 min 59 sec) 
Heartbeat CPU 4 instructions: 520000000 cycles: 402825086 heartbeat IPC: 1.24778 cumulative IPC: 1.25489 (Simulation time: 2 hr 53 min 0 sec) 
Heartbeat CPU 6 instructions: 360000000 cycles: 403267039 heartbeat IPC: 0.644664 cumulative IPC: 0.85661 (Simulation time: 2 hr 53 min 11 sec) 
Heartbeat CPU 3 instructions: 370000002 cycles: 403856996 heartbeat IPC: 0.842287 cumulative IPC: 0.889742 (Simulation time: 2 hr 53 min 25 sec) 
Heartbeat CPU 0 instructions: 410000001 cycles: 404523818 heartbeat IPC: 0.989673 cumulative IPC: 0.960149 (Simulation time: 2 hr 53 min 41 sec) 
Heartbeat CPU 2 instructions: 190000002 cycles: 405051848 heartbeat IPC: 0.43738 cumulative IPC: 0.433384 (Simulation time: 2 hr 53 min 54 sec) 
Heartbeat CPU 1 instructions: 370000001 cycles: 406754379 heartbeat IPC: 0.867971 cumulative IPC: 0.865384 (Simulation time: 2 hr 54 min 36 sec) 
Heartbeat CPU 4 instructions: 530000001 cycles: 410794293 heartbeat IPC: 1.25483 cumulative IPC: 1.25489 (Simulation time: 2 hr 56 min 18 sec) 
Heartbeat CPU 7 instructions: 260000000 cycles: 412022641 heartbeat IPC: 0.5805 cumulative IPC: 0.583139 (Simulation time: 2 hr 56 min 50 sec) 
Heartbeat CPU 6 instructions: 370000000 cycles: 412379394 heartbeat IPC: 1.09741 cumulative IPC: 0.862101 (Simulation time: 2 hr 56 min 59 sec) 
Heartbeat CPU 0 instructions: 420000000 cycles: 414565397 heartbeat IPC: 0.995859 cumulative IPC: 0.961042 (Simulation time: 2 hr 57 min 55 sec) 
Heartbeat CPU 3 instructions: 380000000 cycles: 415380989 heartbeat IPC: 0.867755 cumulative IPC: 0.889113 (Simulation time: 2 hr 58 min 16 sec) 
Heartbeat CPU 1 instructions: 380000000 cycles: 417922202 heartbeat IPC: 0.89543 cumulative IPC: 0.866212 (Simulation time: 2 hr 59 min 21 sec) 
Heartbeat CPU 4 instructions: 540000000 cycles: 418641972 heartbeat IPC: 1.27426 cumulative IPC: 1.25527 (Simulation time: 2 hr 59 min 39 sec) 
Heartbeat CPU 5 instructions: 100000000 cycles: 421989245 heartbeat IPC: 0.175453 cumulative IPC: 0.179707 (Simulation time: 3 hr 0 min 58 sec) 
Heartbeat CPU 6 instructions: 380000000 cycles: 423423412 heartbeat IPC: 0.905468 cumulative IPC: 0.863267 (Simulation time: 3 hr 1 min 31 sec) 
Heartbeat CPU 0 instructions: 430000003 cycles: 425747283 heartbeat IPC: 0.894304 cumulative IPC: 0.959235 (Simulation time: 3 hr 2 min 29 sec) 
Heartbeat CPU 3 instructions: 390000002 cycles: 426019434 heartbeat IPC: 0.939987 cumulative IPC: 0.890422 (Simulation time: 3 hr 2 min 35 sec) 
Heartbeat CPU 4 instructions: 550000003 cycles: 426725224 heartbeat IPC: 1.23713 cumulative IPC: 1.25491 (Simulation time: 3 hr 2 min 52 sec) 
Heartbeat CPU 2 instructions: 200000000 cycles: 429012915 heartbeat IPC: 0.417344 cumulative IPC: 0.432461 (Simulation time: 3 hr 3 min 46 sec) 
Heartbeat CPU 7 instructions: 270000000 cycles: 429066033 heartbeat IPC: 0.586738 cumulative IPC: 0.583286 (Simulation time: 3 hr 3 min 47 sec) 
Heartbeat CPU 1 instructions: 390000003 cycles: 430072554 heartbeat IPC: 0.823022 cumulative IPC: 0.864955 (Simulation time: 3 hr 4 min 10 sec) 
Heartbeat CPU 4 instructions: 560000000 cycles: 434927942 heartbeat IPC: 1.21911 cumulative IPC: 1.25422 (Simulation time: 3 hr 6 min 6 sec) 
Heartbeat CPU 0 instructions: 440000000 cycles: 436519307 heartbeat IPC: 0.92833 cumulative IPC: 0.958449 (Simulation time: 3 hr 6 min 47 sec) 
Heartbeat CPU 3 instructions: 400000000 cycles: 436733439 heartbeat IPC: 0.933358 cumulative IPC: 0.891507 (Simulation time: 3 hr 6 min 53 sec) 
Heartbeat CPU 6 instructions: 390000000 cycles: 437160931 heartbeat IPC: 0.727933 cumulative IPC: 0.858886 (Simulation time: 3 hr 7 min 4 sec) 
Heartbeat CPU 1 instructions: 400000000 cycles: 441830906 heartbeat IPC: 0.850459 cumulative IPC: 0.864558 (Simulation time: 3 hr 9 min 4 sec) 
Heartbeat CPU 4 instructions: 570000001 cycles: 442855395 heartbeat IPC: 1.26144 cumulative IPC: 1.25435 (Simulation time: 3 hr 9 min 30 sec) 
Heartbeat CPU 6 instructions: 400000000 cycles: 445685748 heartbeat IPC: 1.17305 cumulative IPC: 0.865073 (Simulation time: 3 hr 10 min 42 sec) 
Heartbeat CPU 7 instructions: 280000000 cycles: 446118118 heartbeat IPC: 0.586439 cumulative IPC: 0.58341 (Simulation time: 3 hr 10 min 53 sec) 
Heartbeat CPU 3 instructions: 410000002 cycles: 447051814 heartbeat IPC: 0.969145 cumulative IPC: 0.893352 (Simulation time: 3 hr 11 min 17 sec) 
Heartbeat CPU 0 instructions: 450000001 cycles: 449089763 heartbeat IPC: 0.795516 cumulative IPC: 0.953755 (Simulation time: 3 hr 12 min 7 sec) 
Heartbeat CPU 4 instructions: 580000000 cycles: 450699955 heartbeat IPC: 1.27477 cumulative IPC: 1.25471 (Simulation time: 3 hr 12 min 47 sec) 
Heartbeat CPU 1 instructions: 410000001 cycles: 453553870 heartbeat IPC: 0.853027 cumulative IPC: 0.864251 (Simulation time: 3 hr 13 min 54 sec) 
Heartbeat CPU 2 instructions: 210000000 cycles: 453759940 heartbeat IPC: 0.404089 cumulative IPC: 0.430869 (Simulation time: 3 hr 13 min 59 sec) 
Heartbeat CPU 3 instructions: 420000000 cycles: 457765138 heartbeat IPC: 0.933417 cumulative IPC: 0.894317 (Simulation time: 3 hr 15 min 33 sec) 
Heartbeat CPU 4 instructions: 590000002 cycles: 458795367 heartbeat IPC: 1.23527 cumulative IPC: 1.25436 (Simulation time: 3 hr 15 min 57 sec) 
Heartbeat CPU 0 instructions: 460000000 cycles: 459189366 heartbeat IPC: 0.990138 cumulative IPC: 0.954578 (Simulation time: 3 hr 16 min 7 sec) 
Heartbeat CPU 6 instructions: 410000002 cycles: 460373861 heartbeat IPC: 0.680823 cumulative IPC: 0.859026 (Simulation time: 3 hr 16 min 34 sec) 
Heartbeat CPU 7 instructions: 290000001 cycles: 463172923 heartbeat IPC: 0.586345 cumulative IPC: 0.583521 (Simulation time: 3 hr 17 min 42 sec) 
Heartbeat CPU 1 instructions: 420000000 cycles: 465362397 heartbeat IPC: 0.846846 cumulative IPC: 0.863797 (Simulation time: 3 hr 18 min 38 sec) 
Heartbeat CPU 4 instructions: 600000000 cycles: 466874533 heartbeat IPC: 1.23775 cumulative IPC: 1.25407 (Simulation time: 3 hr 19 min 16 sec) 
Heartbeat CPU 5 instructions: 110000000 cycles: 468030972 heartbeat IPC: 0.217194 cumulative IPC: 0.183498 (Simulation time: 3 hr 19 min 45 sec) 
Heartbeat CPU 3 instructions: 430000000 cycles: 468616743 heartbeat IPC: 0.921523 cumulative IPC: 0.894964 (Simulation time: 3 hr 20 min 0 sec) 
Heartbeat CPU 0 instructions: 470000001 cycles: 469350142 heartbeat IPC: 0.984177 cumulative IPC: 0.955237 (Simulation time: 3 hr 20 min 19 sec) 
Heartbeat CPU 6 instructions: 420000000 cycles: 470314144 heartbeat IPC: 1.00601 cumulative IPC: 0.86222 (Simulation time: 3 hr 20 min 44 sec) 
Heartbeat CPU 4 instructions: 610000003 cycles: 474678075 heartbeat IPC: 1.28147 cumulative IPC: 1.25453 (Simulation time: 3 hr 22 min 36 sec) 
Heartbeat CPU 1 instructions: 430000002 cycles: 476675533 heartbeat IPC: 0.883928 cumulative IPC: 0.864288 (Simulation time: 3 hr 23 min 28 sec) 
Heartbeat CPU 2 instructions: 220000000 cycles: 476869672 heartbeat IPC: 0.432718 cumulative IPC: 0.430961 (Simulation time: 3 hr 23 min 33 sec) 
Heartbeat CPU 3 instructions: 440000000 cycles: 478917631 heartbeat IPC: 0.97079 cumulative IPC: 0.89664 (Simulation time: 3 hr 24 min 25 sec) 
Heartbeat CPU 0 instructions: 480000000 cycles: 479637940 heartbeat IPC: 0.972025 cumulative IPC: 0.955607 (Simulation time: 3 hr 24 min 43 sec) 
Heartbeat CPU 7 instructions: 300000000 cycles: 480214296 heartbeat IPC: 0.586807 cumulative IPC: 0.583641 (Simulation time: 3 hr 24 min 56 sec) 
Heartbeat CPU 6 instructions: 430000000 cycles: 480372130 heartbeat IPC: 0.994235 cumulative IPC: 0.865059 (Simulation time: 3 hr 25 min 0 sec) 
Heartbeat CPU 4 instructions: 620000000 cycles: 482678951 heartbeat IPC: 1.24986 cumulative IPC: 1.25445 (Simulation time: 3 hr 25 min 53 sec) 
Heartbeat CPU 1 instructions: 440000000 cycles: 488740587 heartbeat IPC: 0.82884 cumulative IPC: 0.863389 (Simulation time: 3 hr 28 min 8 sec) 
Heartbeat CPU 3 instructions: 450000000 cycles: 490164038 heartbeat IPC: 0.889173 cumulative IPC: 0.896464 (Simulation time: 3 hr 28 min 39 sec) 
Heartbeat CPU 4 instructions: 630000001 cycles: 490948524 heartbeat IPC: 1.20925 cumulative IPC: 1.25367 (Simulation time: 3 hr 28 min 55 sec) 
Heartbeat CPU 6 instructions: 440000000 cycles: 495334651 heartbeat IPC: 0.668337 cumulative IPC: 0.85896 (Simulation time: 3 hr 30 min 29 sec) 
Heartbeat CPU 7 instructions: 310000002 cycles: 497281759 heartbeat IPC: 0.58591 cumulative IPC: 0.583721 (Simulation time: 3 hr 31 min 12 sec) 
Heartbeat CPU 4 instructions: 640000000 cycles: 499578918 heartbeat IPC: 1.1587 cumulative IPC: 1.25198 (Simulation time: 3 hr 32 min 10 sec) 
Heartbeat CPU 0 instructions: 490000001 cycles: 500237526 heartbeat IPC: 0.485447 cumulative IPC: 0.935738 (Simulation time: 3 hr 32 min 27 sec) 
Heartbeat CPU 2 instructions: 230000001 cycles: 500316072 heartbeat IPC: 0.426505 cumulative IPC: 0.430746 (Simulation time: 3 hr 32 min 29 sec) 
Heartbeat CPU 3 instructions: 460000000 cycles: 501505599 heartbeat IPC: 0.881713 cumulative IPC: 0.896122 (Simulation time: 3 hr 32 min 59 sec) 
Heartbeat CPU 1 instructions: 450000003 cycles: 501708275 heartbeat IPC: 0.771148 cumulative IPC: 0.860943 (Simulation time: 3 hr 33 min 4 sec) 
Heartbeat CPU 6 instructions: 450000000 cycles: 503933105 heartbeat IPC: 1.163 cumulative IPC: 0.864282 (Simulation time: 3 hr 34 min 0 sec) 
Heartbeat CPU 4 instructions: 650000000 cycles: 507384002 heartbeat IPC: 1.28122 cumulative IPC: 1.25245 (Simulation time: 3 hr 35 min 28 sec) 
Heartbeat CPU 3 instructions: 470000003 cycles: 512869224 heartbeat IPC: 0.880001 cumulative IPC: 0.895755 (Simulation time: 3 hr 37 min 33 sec) 
Heartbeat CPU 1 instructions: 460000000 cycles: 513337776 heartbeat IPC: 0.859882 cumulative IPC: 0.860918 (Simulation time: 3 hr 37 min 44 sec) 
Heartbeat CPU 0 instructions: 500000000 cycles: 514135145 heartbeat IPC: 0.719548 cumulative IPC: 0.929745 (Simulation time: 3 hr 38 min 3 sec) 
Heartbeat CPU 7 instructions: 320000000 cycles: 514402755 heartbeat IPC: 0.584078 cumulative IPC: 0.583733 (Simulation time: 3 hr 38 min 9 sec) 
Heartbeat CPU 4 instructions: 660000000 cycles: 515528816 heartbeat IPC: 1.22778 cumulative IPC: 1.25205 (Simulation time: 3 hr 38 min 36 sec) 
Heartbeat CPU 6 instructions: 460000000 cycles: 517751190 heartbeat IPC: 0.723689 cumulative IPC: 0.860435 (Simulation time: 3 hr 39 min 30 sec) 
Heartbeat CPU 5 instructions: 120000000 cycles: 518861418 heartbeat IPC: 0.196732 cumulative IPC: 0.184827 (Simulation time: 3 hr 39 min 57 sec) 
Heartbeat CPU 3 instructions: 480000000 cycles: 523287341 heartbeat IPC: 0.959866 cumulative IPC: 0.897064 (Simulation time: 3 hr 41 min 41 sec) 
Heartbeat CPU 4 instructions: 670000001 cycles: 523644462 heartbeat IPC: 1.23219 cumulative IPC: 1.25173 (Simulation time: 3 hr 41 min 50 sec) 
Heartbeat CPU 2 instructions: 240000000 cycles: 523879268 heartbeat IPC: 0.424391 cumulative IPC: 0.430453 (Simulation time: 3 hr 41 min 56 sec) 
Heartbeat CPU 1 instructions: 470000003 cycles: 525234999 heartbeat IPC: 0.840533 cumulative IPC: 0.860445 (Simulation time: 3 hr 42 min 29 sec) 
Heartbeat CPU 0 instructions: 510000000 cycles: 528104607 heartbeat IPC: 0.715847 cumulative IPC: 0.923946 (Simulation time: 3 hr 43 min 42 sec) 
Heartbeat CPU 6 instructions: 470000002 cycles: 528665104 heartbeat IPC: 0.916262 cumulative IPC: 0.861616 (Simulation time: 3 hr 43 min 57 sec) 
Heartbeat CPU 7 instructions: 330000001 cycles: 531412084 heartbeat IPC: 0.587913 cumulative IPC: 0.58387 (Simulation time: 3 hr 45 min 8 sec) 
Heartbeat CPU 4 instructions: 680000000 cycles: 531510668 heartbeat IPC: 1.27126 cumulative IPC: 1.25203 (Simulation time: 3 hr 45 min 11 sec) 
Heartbeat CPU 3 instructions: 490000002 cycles: 533668829 heartbeat IPC: 0.963253 cumulative IPC: 0.898383 (Simulation time: 3 hr 46 min 5 sec) 
Heartbeat CPU 1 instructions: 480000000 cycles: 536662227 heartbeat IPC: 0.875103 cumulative IPC: 0.860764 (Simulation time: 3 hr 47 min 20 sec) 
Heartbeat CPU 6 instructions: 480000000 cycles: 537969130 heartbeat IPC: 1.0748 cumulative IPC: 0.865393 (Simulation time: 3 hr 47 min 51 sec) 
Heartbeat CPU 4 instructions: 690000001 cycles: 539436215 heartbeat IPC: 1.26174 cumulative IPC: 1.25217 (Simulation time: 3 hr 48 min 26 sec) 
Heartbeat CPU 0 instructions: 520000000 cycles: 541984679 heartbeat IPC: 0.720457 cumulative IPC: 0.918609 (Simulation time: 3 hr 49 min 25 sec) 
Heartbeat CPU 3 instructions: 500000000 cycles: 544253564 heartbeat IPC: 0.944757 cumulative IPC: 0.899307 (Simulation time: 3 hr 50 min 18 sec) 
Heartbeat CPU 2 instructions: 250000000 cycles: 547305838 heartbeat IPC: 0.426866 cumulative IPC: 0.430296 (Simulation time: 3 hr 51 min 30 sec) 
Heartbeat CPU 4 instructions: 700000000 cycles: 547514901 heartbeat IPC: 1.23782 cumulative IPC: 1.25196 (Simulation time: 3 hr 51 min 35 sec) 
Heartbeat CPU 7 instructions: 340000000 cycles: 548473892 heartbeat IPC: 0.586104 cumulative IPC: 0.583941 (Simulation time: 3 hr 51 min 57 sec) 
Heartbeat CPU 1 instructions: 490000001 cycles: 548722950 heartbeat IPC: 0.829138 cumulative IPC: 0.860053 (Simulation time: 3 hr 52 min 3 sec) 
Heartbeat CPU 6 instructions: 490000000 cycles: 553497366 heartbeat IPC: 0.643988 cumulative IPC: 0.859035 (Simulation time: 3 hr 53 min 59 sec) 
Heartbeat CPU 3 instructions: 510000001 cycles: 554813513 heartbeat IPC: 0.946974 cumulative IPC: 0.900235 (Simulation time: 3 hr 54 min 31 sec) 
Heartbeat CPU 4 instructions: 710000002 cycles: 555609429 heartbeat IPC: 1.2354 cumulative IPC: 1.25171 (Simulation time: 3 hr 54 min 51 sec) 
Heartbeat CPU 0 instructions: 530000000 cycles: 555905148 heartbeat IPC: 0.718367 cumulative IPC: 0.913477 (Simulation time: 3 hr 54 min 58 sec) 
Finished CPU 5 instructions: 100000000 cycles: 546311556 cumulative IPC: 0.183046 (Simulation time: 3 hr 56 min 19 sec) 

CPU 0 Branch Prediction Accuracy: 99.575% MPKI: 0.591622

CPU 1 Branch Prediction Accuracy: 99.8908% MPKI: 0.0196205

CPU 2 Branch Prediction Accuracy: 86.2342% MPKI: 15.9106

CPU 3 Branch Prediction Accuracy: 99.7701% MPKI: 0.00357275

CPU 4 Branch Prediction Accuracy: 99.1861% MPKI: 0.0553414

CPU 5 Branch Prediction Accuracy: 99.2416% MPKI: 1.67803

CPU 6 Branch Prediction Accuracy: 99.8835% MPKI: 0.0612252

CPU 7 Branch Prediction Accuracy: 99.771% MPKI: 0.254951

ChampSim completed all CPUs

Total Simulation Statistics (not including warmup)

CPU 0 cumulative IPC: 0.912348 instructions: 498426388 cycles: 546311555
L1D TOTAL     ACCESS:   94219081  HIT:   93932115  MISS:     286966
L1D LOAD      ACCESS:   56320212  HIT:   56148374  MISS:     171838
L1D RFO       ACCESS:   37898869  HIT:   37783741  MISS:     115128
L1D PREFETCH  ACCESS:          0  HIT:          0  MISS:          0
L1D WRITEBACK ACCESS:          0  HIT:          0  MISS:          0
L1I TOTAL     ACCESS:  149521133  HIT:  149521062  MISS:         71
L1I LOAD      ACCESS:  149521133  HIT:  149521062  MISS:         71
L1I RFO       ACCESS:          0  HIT:          0  MISS:          0
L1I PREFETCH  ACCESS:          0  HIT:          0  MISS:          0
L1I WRITEBACK ACCESS:          0  HIT:          0  MISS:          0
L2C TOTAL     ACCESS:     572884  HIT:     278147  MISS:     294737
L2C LOAD      ACCESS:     171909  HIT:     125764  MISS:      46145
L2C RFO       ACCESS:     115128  HIT:       1115  MISS:     114013
L2C PREFETCH  ACCESS:     170661  HIT:      36292  MISS:     134369
L2C WRITEBACK ACCESS:     115186  HIT:     114976  MISS:        210

Avg Lookahead Depth:	2.34693
TOTAL: 8.84244e+07	L2C: 6.73916e+07	LLC: 2.10328e+07	GOOD_L2C: 3.80525e+07
Printing all the perceptron weights to: perc_weights_0.csv
LLC TOTAL     ACCESS:     433077  HIT:      98062  MISS:     335015
LLC LOAD      ACCESS:      20760  HIT:       6122  MISS:      14638
LLC RFO       ACCESS:     114012  HIT:        104  MISS:     113908
LLC PREFETCH  ACCESS:     184363  HIT:      17197  MISS:     167166
LLC WRITEBACK ACCESS:     113942  HIT:      74639  MISS:      39303

CPU 1 cumulative IPC: 0.859792 instructions: 469714468 cycles: 546311555
L1D TOTAL     ACCESS:  100212280  HIT:   94038751  MISS:    6173529
L1D LOAD      ACCESS:   67149825  HIT:   60985455  MISS:    6164370
L1D RFO       ACCESS:   33062455  HIT:   33053296  MISS:       9159
L1D PREFETCH  ACCESS:          0  HIT:          0  MISS:          0
L1D WRITEBACK ACCESS:          0  HIT:          0  MISS:          0
L1I TOTAL     ACCESS:   97508563  HIT:   97508286  MISS:        277
L1I LOAD      ACCESS:   97508563  HIT:   97508286  MISS:        277
L1I RFO       ACCESS:          0  HIT:          0  MISS:          0
L1I PREFETCH  ACCESS:          0  HIT:          0  MISS:          0
L1I WRITEBACK ACCESS:          0  HIT:          0  MISS:          0
L2C TOTAL     ACCESS:   16759553  HIT:   10753375  MISS:    6006178
L2C LOAD      ACCESS:    6164648  HIT:    5497375  MISS:     667273
L2C RFO       ACCESS:       9159  HIT:       2374  MISS:       6785
L2C PREFETCH  ACCESS:    6487648  HIT:    1155528  MISS:    5332120
L2C WRITEBACK ACCESS:    4098098  HIT:    4098098  MISS:          0

Avg Lookahead Depth:	2.34693
TOTAL: 8.84244e+07	L2C: 6.73916e+07	LLC: 2.10328e+07	GOOD_L2C: 3.80525e+07
Printing all the perceptron weights to: perc_weights_0.csv
LLC TOTAL     ACCESS:   10235316  HIT:    6135560  MISS:    4099756
LLC LOAD      ACCESS:     185570  HIT:      77930  MISS:     107640
LLC RFO       ACCESS:       6767  HIT:       6312  MISS:        455
LLC PREFETCH  ACCESS:    5947380  HIT:    1958792  MISS:    3988588
LLC WRITEBACK ACCESS:    4095599  HIT:    4092526  MISS:       3073

CPU 2 cumulative IPC: 0.43047 instructions: 235170468 cycles: 546311555
L1D TOTAL     ACCESS:   77475392  HIT:   76478675  MISS:     996717
L1D LOAD      ACCESS:   48892294  HIT:   48185759  MISS:     706535
L1D RFO       ACCESS:   28583098  HIT:   28292916  MISS:     290182
L1D PREFETCH  ACCESS:          0  HIT:          0  MISS:          0
L1D WRITEBACK ACCESS:          0  HIT:          0  MISS:          0
L1I TOTAL     ACCESS:   55841662  HIT:   55755809  MISS:      85853
L1I LOAD      ACCESS:   55841662  HIT:   55755809  MISS:      85853
L1I RFO       ACCESS:          0  HIT:          0  MISS:          0
L1I PREFETCH  ACCESS:          0  HIT:          0  MISS:          0
L1I WRITEBACK ACCESS:          0  HIT:          0  MISS:          0
L2C TOTAL     ACCESS:    2342689  HIT:    2273812  MISS:      68877
L2C LOAD      ACCESS:     792385  HIT:     776477  MISS:      15908
L2C RFO       ACCESS:     290173  HIT:     268060  MISS:      22113
L2C PREFETCH  ACCESS:     835052  HIT:     804481  MISS:      30571
L2C WRITEBACK ACCESS:     425079  HIT:     424794  MISS:        285

Avg Lookahead Depth:	2.34693
TOTAL: 8.84244e+07	L2C: 6.73916e+07	LLC: 2.10328e+07	GOOD_L2C: 3.80525e+07
Printing all the perceptron weights to: perc_weights_0.csv
LLC TOTAL     ACCESS:     115949  HIT:      42013  MISS:      73936
LLC LOAD      ACCESS:      13038  HIT:       2744  MISS:      10294
LLC RFO       ACCESS:      22112  HIT:        379  MISS:      21733
LLC PREFETCH  ACCESS:      53626  HIT:      18044  MISS:      35582
LLC WRITEBACK ACCESS:      27173  HIT:      20846  MISS:       6327

CPU 3 cumulative IPC: 0.900523 instructions: 491966097 cycles: 546311556
L1D TOTAL     ACCESS:  146420436  HIT:   90602580  MISS:   55817856
L1D LOAD      ACCESS:   91799495  HIT:   39952033  MISS:   51847462
L1D RFO       ACCESS:   54620941  HIT:   50650547  MISS:    3970394
L1D PREFETCH  ACCESS:          0  HIT:          0  MISS:          0
L1D WRITEBACK ACCESS:          0  HIT:          0  MISS:          0
L1I TOTAL     ACCESS:  123260417  HIT:  122484121  MISS:     776296
L1I LOAD      ACCESS:  123260417  HIT:  122484121  MISS:     776296
L1I RFO       ACCESS:          0  HIT:          0  MISS:          0
L1I PREFETCH  ACCESS:          0  HIT:          0  MISS:          0
L1I WRITEBACK ACCESS:          0  HIT:          0  MISS:          0
L2C TOTAL     ACCESS:   86112595  HIT:   67226433  MISS:   18886162
L2C LOAD      ACCESS:   52408758  HIT:   41441955  MISS:   10966803
L2C RFO       ACCESS:    3967361  HIT:    1304643  MISS:    2662718
L2C PREFETCH  ACCESS:   25250585  HIT:   19995463  MISS:    5255122
L2C WRITEBACK ACCESS:    4485891  HIT:    4484372  MISS:       1519

Avg Lookahead Depth:	2.34693
TOTAL: 8.84244e+07	L2C: 6.73916e+07	LLC: 2.10328e+07	GOOD_L2C: 3.80525e+07
Printing all the perceptron weights to: perc_weights_0.csv
LLC TOTAL     ACCESS:   27555680  HIT:   23910593  MISS:    3645087
LLC LOAD      ACCESS:   10806161  HIT:    9686211  MISS:    1119950
LLC RFO       ACCESS:    2423634  HIT:    2406082  MISS:      17552
LLC PREFETCH  ACCESS:   11570749  HIT:    9064185  MISS:    2506564
LLC WRITEBACK ACCESS:    2755136  HIT:    2754115  MISS:       1021

CPU 4 cumulative IPC: 1.25186 instructions: 683904304 cycles: 546311556
L1D TOTAL     ACCESS:  193656597  HIT:  182140007  MISS:   11516590
L1D LOAD      ACCESS:  160027534  HIT:  148510944  MISS:   11516590
L1D RFO       ACCESS:   33629063  HIT:   33629063  MISS:          0
L1D PREFETCH  ACCESS:          0  HIT:          0  MISS:          0
L1D WRITEBACK ACCESS:          0  HIT:          0  MISS:          0
L1I TOTAL     ACCESS:  144972305  HIT:  144972305  MISS:          0
L1I LOAD      ACCESS:  144972305  HIT:  144972305  MISS:          0
L1I RFO       ACCESS:          0  HIT:          0  MISS:          0
L1I PREFETCH  ACCESS:          0  HIT:          0  MISS:          0
L1I WRITEBACK ACCESS:          0  HIT:          0  MISS:          0
L2C TOTAL     ACCESS:   31896868  HIT:   19989251  MISS:   11907617
L2C LOAD      ACCESS:   11516590  HIT:   11052071  MISS:     464519
L2C RFO       ACCESS:          0  HIT:          0  MISS:          0
L2C PREFETCH  ACCESS:   16809386  HIT:    5367834  MISS:   11441552
L2C WRITEBACK ACCESS:    3570892  HIT:    3569346  MISS:       1546

Avg Lookahead Depth:	2.34693
TOTAL: 8.84244e+07	L2C: 6.73916e+07	LLC: 2.10328e+07	GOOD_L2C: 3.80525e+07
Printing all the perceptron weights to: perc_weights_0.csv
LLC TOTAL     ACCESS:   16948756  HIT:    5047263  MISS:   11901493
LLC LOAD      ACCESS:     354106  HIT:      26305  MISS:     327801
LLC RFO       ACCESS:          0  HIT:          0  MISS:          0
LLC PREFETCH  ACCESS:   13042015  HIT:    1468657  MISS:   11573358
LLC WRITEBACK ACCESS:    3552635  HIT:    3552301  MISS:        334

CPU 5 cumulative IPC: 0.183046 instructions: 100000000 cycles: 546311556
L1D TOTAL     ACCESS:   23417011  HIT:   20607608  MISS:    2809403
L1D LOAD      ACCESS:   18760974  HIT:   16011784  MISS:    2749190
L1D RFO       ACCESS:    4656037  HIT:    4595824  MISS:      60213
L1D PREFETCH  ACCESS:          0  HIT:          0  MISS:          0
L1D WRITEBACK ACCESS:          0  HIT:          0  MISS:          0
L1I TOTAL     ACCESS:   31957244  HIT:   31601214  MISS:     356030
L1I LOAD      ACCESS:   31957244  HIT:   31601214  MISS:     356030
L1I RFO       ACCESS:          0  HIT:          0  MISS:          0
L1I PREFETCH  ACCESS:          0  HIT:          0  MISS:          0
L1I WRITEBACK ACCESS:          0  HIT:          0  MISS:          0
L2C TOTAL     ACCESS:    5375006  HIT:    1507961  MISS:    3867045
L2C LOAD      ACCESS:    3105162  HIT:     784212  MISS:    2320950
L2C RFO       ACCESS:      60205  HIT:      29090  MISS:      31115
L2C PREFETCH  ACCESS:    2084741  HIT:     572201  MISS:    1512540
L2C WRITEBACK ACCESS:     124898  HIT:     122458  MISS:       2440

Avg Lookahead Depth:	2.34693
TOTAL: 8.84244e+07	L2C: 6.73916e+07	LLC: 2.10328e+07	GOOD_L2C: 3.80525e+07
Printing all the perceptron weights to: perc_weights_0.csv
LLC TOTAL     ACCESS:    4913156  HIT:     894373  MISS:    4018783
LLC LOAD      ACCESS:    2108557  HIT:     355077  MISS:    1753480
LLC RFO       ACCESS:      31035  HIT:       8286  MISS:      22749
LLC PREFETCH  ACCESS:    2715686  HIT:     473433  MISS:    2242253
LLC WRITEBACK ACCESS:      57878  HIT:      57577  MISS:        301

CPU 6 cumulative IPC: 0.862126 instructions: 470989539 cycles: 546311556
L1D TOTAL     ACCESS:  123270271  HIT:  110837898  MISS:   12432373
L1D LOAD      ACCESS:  116692429  HIT:  107399499  MISS:    9292930
L1D RFO       ACCESS:    6577842  HIT:    3438399  MISS:    3139443
L1D PREFETCH  ACCESS:          0  HIT:          0  MISS:          0
L1D WRITEBACK ACCESS:          0  HIT:          0  MISS:          0
L1I TOTAL     ACCESS:  121578442  HIT:  121578392  MISS:         50
L1I LOAD      ACCESS:  121578442  HIT:  121578392  MISS:         50
L1I RFO       ACCESS:          0  HIT:          0  MISS:          0
L1I PREFETCH  ACCESS:          0  HIT:          0  MISS:          0
L1I WRITEBACK ACCESS:          0  HIT:          0  MISS:          0
L2C TOTAL     ACCESS:   28084651  HIT:   17755620  MISS:   10329031
L2C LOAD      ACCESS:    9292847  HIT:    8773136  MISS:     519711
L2C RFO       ACCESS:    3139443  HIT:          0  MISS:    3139443
L2C PREFETCH  ACCESS:   12493224  HIT:    5823444  MISS:    6669780
L2C WRITEBACK ACCESS:    3159137  HIT:    3159040  MISS:         97

Avg Lookahead Depth:	2.34693
TOTAL: 8.84244e+07	L2C: 6.73916e+07	LLC: 2.10328e+07	GOOD_L2C: 3.80525e+07
Printing all the perceptron weights to: perc_weights_0.csv
LLC TOTAL     ACCESS:   13938211  HIT:    3568128  MISS:   10370083
LLC LOAD      ACCESS:     294610  HIT:      12100  MISS:     282510
LLC RFO       ACCESS:    3139443  HIT:          0  MISS:    3139443
LLC PREFETCH  ACCESS:    7364581  HIT:     416521  MISS:    6948060
LLC WRITEBACK ACCESS:    3139577  HIT:    3139507  MISS:         70

CPU 7 cumulative IPC: 0.584001 instructions: 319046721 cycles: 546311556
L1D TOTAL     ACCESS:   64195417  HIT:   64127009  MISS:      68408
L1D LOAD      ACCESS:   48230282  HIT:   48162075  MISS:      68207
L1D RFO       ACCESS:   15965135  HIT:   15964934  MISS:        201
L1D PREFETCH  ACCESS:          0  HIT:          0  MISS:          0
L1D WRITEBACK ACCESS:          0  HIT:          0  MISS:          0
L1I TOTAL     ACCESS:  137556162  HIT:  137556162  MISS:          0
L1I LOAD      ACCESS:  137556162  HIT:  137556162  MISS:          0
L1I RFO       ACCESS:          0  HIT:          0  MISS:          0
L1I PREFETCH  ACCESS:          0  HIT:          0  MISS:          0
L1I WRITEBACK ACCESS:          0  HIT:          0  MISS:          0
L2C TOTAL     ACCESS:     173868  HIT:     106114  MISS:      67754
L2C LOAD      ACCESS:      68207  HIT:      22071  MISS:      46136
L2C RFO       ACCESS:        201  HIT:        201  MISS:          0
L2C PREFETCH  ACCESS:      37493  HIT:      15875  MISS:      21618
L2C WRITEBACK ACCESS:      67967  HIT:      67967  MISS:          0

Avg Lookahead Depth:	2.34693
TOTAL: 8.84244e+07	L2C: 6.73916e+07	LLC: 2.10328e+07	GOOD_L2C: 3.80525e+07
Printing all the perceptron weights to: perc_weights_0.csv
LLC TOTAL     ACCESS:     152992  HIT:      17548  MISS:     135444
LLC LOAD      ACCESS:      46136  HIT:      12204  MISS:      33932
LLC RFO       ACCESS:          0  HIT:          0  MISS:          0
LLC PREFETCH  ACCESS:      39308  HIT:       5344  MISS:      33964
LLC WRITEBACK ACCESS:      67548  HIT:          0  MISS:      67548

Region of Interest Statistics

CPU 0 cumulative IPC: 0.949688 instructions: 100000003 cycles: 105297726
L1D TOTAL     ACCESS:   18310555  HIT:   18293524  MISS:      17031
L1D LOAD      ACCESS:   10876019  HIT:   10865923  MISS:      10096
L1D RFO       ACCESS:    7434536  HIT:    7427601  MISS:       6935
L1D PREFETCH  ACCESS:          0  HIT:          0  MISS:          0
L1D WRITEBACK ACCESS:          0  HIT:          0  MISS:          0
L1D PREFETCH  REQUESTED:          0  ISSUED:          0  USEFUL:          0  USELESS:          0
L1I TOTAL     ACCESS:   29270253  HIT:   29270253  MISS:          0
L1I LOAD      ACCESS:   29270253  HIT:   29270253  MISS:          0
L1I RFO       ACCESS:          0  HIT:          0  MISS:          0
L1I PREFETCH  ACCESS:          0  HIT:          0  MISS:          0
L1I WRITEBACK ACCESS:          0  HIT:          0  MISS:          0
L1I PREFETCH  REQUESTED:          0  ISSUED:          0  USEFUL:          0  USELESS:          0
L2C TOTAL     ACCESS:      37329  HIT:      20066  MISS:      17263
L2C LOAD      ACCESS:      10096  HIT:       7855  MISS:       2241
L2C RFO       ACCESS:       6935  HIT:        306  MISS:       6629
L2C PREFETCH  ACCESS:      13348  HIT:       4956  MISS:       8392
L2C WRITEBACK ACCESS:       6950  HIT:       6949  MISS:          1
L2C PREFETCH  REQUESTED:     243484  ISSUED:     243484  USEFUL:     127437  USELESS:       9105
LLC TOTAL     ACCESS:      28173  HIT:       4834  MISS:      23339
LLC LOAD      ACCESS:       1946  HIT:        617  MISS:       1329
LLC RFO       ACCESS:       6628  HIT:         36  MISS:       6592
LLC PREFETCH  ACCESS:      13159  HIT:       3730  MISS:       9429
LLC WRITEBACK ACCESS:       6440  HIT:        451  MISS:       5989
LLC PREFETCH  REQUESTED:          0  ISSUED:          0  USEFUL:    1745729  USELESS:   27094381
Major fault: 0 Minor fault: 4431

CPU 1 cumulative IPC: 0.874949 instructions: 100000000 cycles: 114292410
L1D TOTAL     ACCESS:   21311803  HIT:   19988428  MISS:    1323375
L1D LOAD      ACCESS:   14294514  HIT:   12972672  MISS:    1321842
L1D RFO       ACCESS:    7017289  HIT:    7015756  MISS:       1533
L1D PREFETCH  ACCESS:          0  HIT:          0  MISS:          0
L1D WRITEBACK ACCESS:          0  HIT:          0  MISS:          0
L1D PREFETCH  REQUESTED:          0  ISSUED:          0  USEFUL:          0  USELESS:          0
L1I TOTAL     ACCESS:   20669547  HIT:   20669547  MISS:          0
L1I LOAD      ACCESS:   20669547  HIT:   20669547  MISS:          0
L1I RFO       ACCESS:          0  HIT:          0  MISS:          0
L1I PREFETCH  ACCESS:          0  HIT:          0  MISS:          0
L1I WRITEBACK ACCESS:          0  HIT:          0  MISS:          0
L1I PREFETCH  REQUESTED:          0  ISSUED:          0  USEFUL:          0  USELESS:          0
L2C TOTAL     ACCESS:    3611327  HIT:    2322447  MISS:    1288880
L2C LOAD      ACCESS:    1321842  HIT:    1183416  MISS:     138426
L2C RFO       ACCESS:       1533  HIT:        350  MISS:       1183
L2C PREFETCH  ACCESS:    1409444  HIT:     260173  MISS:    1149271
L2C WRITEBACK ACCESS:     878508  HIT:     878508  MISS:          0
L2C PREFETCH  REQUESTED:    7907985  ISSUED:    7907985  USEFUL:    5675504  USELESS:      19966
LLC TOTAL     ACCESS:    2196330  HIT:    1318217  MISS:     878113
LLC LOAD      ACCESS:      39516  HIT:      16598  MISS:      22918
LLC RFO       ACCESS:       1172  HIT:       1172  MISS:          0
LLC PREFETCH  ACCESS:    1277500  HIT:     422309  MISS:     855191
LLC WRITEBACK ACCESS:     878142  HIT:     878138  MISS:          4
LLC PREFETCH  REQUESTED:          0  ISSUED:          0  USEFUL:    1745729  USELESS:   27094381
Major fault: 0 Minor fault: 68054

CPU 2 cumulative IPC: 0.430968 instructions: 100000000 cycles: 232035676
L1D TOTAL     ACCESS:   32862400  HIT:   32451472  MISS:     410928
L1D LOAD      ACCESS:   20750285  HIT:   20455342  MISS:     294943
L1D RFO       ACCESS:   12112115  HIT:   11996130  MISS:     115985
L1D PREFETCH  ACCESS:          0  HIT:          0  MISS:          0
L1D WRITEBACK ACCESS:          0  HIT:          0  MISS:          0
L1D PREFETCH  REQUESTED:          0  ISSUED:          0  USEFUL:          0  USELESS:          0
L1I TOTAL     ACCESS:   23688852  HIT:   23653572  MISS:      35280
L1I LOAD      ACCESS:   23688852  HIT:   23653572  MISS:      35280
L1I RFO       ACCESS:          0  HIT:          0  MISS:          0
L1I PREFETCH  ACCESS:          0  HIT:          0  MISS:          0
L1I WRITEBACK ACCESS:          0  HIT:          0  MISS:          0
L1I PREFETCH  REQUESTED:          0  ISSUED:          0  USEFUL:          0  USELESS:          0
L2C TOTAL     ACCESS:     973071  HIT:     962244  MISS:      10827
L2C LOAD      ACCESS:     330223  HIT:     325391  MISS:       4832
L2C RFO       ACCESS:     115978  HIT:     115525  MISS:        453
L2C PREFETCH  ACCESS:     350864  HIT:     345450  MISS:       5414
L2C WRITEBACK ACCESS:     176006  HIT:     175878  MISS:        128
L2C PREFETCH  REQUESTED:     962866  ISSUED:     962866  USEFUL:      20145  USELESS:      12148
LLC TOTAL     ACCESS:      21196  HIT:       3807  MISS:      17389
LLC LOAD      ACCESS:       4395  HIT:        464  MISS:       3931
LLC RFO       ACCESS:        452  HIT:         25  MISS:        427
LLC PREFETCH  ACCESS:      14233  HIT:       3153  MISS:      11080
LLC WRITEBACK ACCESS:       2116  HIT:        165  MISS:       1951
LLC PREFETCH  REQUESTED:          0  ISSUED:          0  USEFUL:    1745729  USELESS:   27094381
Major fault: 0 Minor fault: 1482

CPU 3 cumulative IPC: 0.91401 instructions: 100000000 cycles: 109407932
L1D TOTAL     ACCESS:   32346286  HIT:   21858540  MISS:   10487746
L1D LOAD      ACCESS:   22035998  HIT:   12316389  MISS:    9719609
L1D RFO       ACCESS:   10310288  HIT:    9542151  MISS:     768137
L1D PREFETCH  ACCESS:          0  HIT:          0  MISS:          0
L1D WRITEBACK ACCESS:          0  HIT:          0  MISS:          0
L1D PREFETCH  REQUESTED:          0  ISSUED:          0  USEFUL:          0  USELESS:          0
L1I TOTAL     ACCESS:   24770562  HIT:   23994266  MISS:     776296
L1I LOAD      ACCESS:   24770562  HIT:   23994266  MISS:     776296
L1I RFO       ACCESS:          0  HIT:          0  MISS:          0
L1I PREFETCH  ACCESS:          0  HIT:          0  MISS:          0
L1I WRITEBACK ACCESS:          0  HIT:          0  MISS:          0
L1I PREFETCH  REQUESTED:          0  ISSUED:          0  USEFUL:          0  USELESS:          0
L2C TOTAL     ACCESS:   18370379  HIT:   15224734  MISS:    3145645
L2C LOAD      ACCESS:   10462245  HIT:    8734687  MISS:    1727558
L2C RFO       ACCESS:     767551  HIT:     336069  MISS:     431482
L2C PREFETCH  ACCESS:    6275320  HIT:    5289225  MISS:     986095
L2C WRITEBACK ACCESS:     865263  HIT:     864753  MISS:        510
L2C PREFETCH  REQUESTED:   39762521  ISSUED:   39143445  USEFUL:    3104309  USELESS:    2343417
LLC TOTAL     ACCESS:    4633351  HIT:    4010466  MISS:     622885
LLC LOAD      ACCESS:    1699958  HIT:    1500826  MISS:     199132
LLC RFO       ACCESS:     390618  HIT:     373066  MISS:      17552
LLC PREFETCH  ACCESS:    2097157  HIT:    1691269  MISS:     405888
LLC WRITEBACK ACCESS:     445618  HIT:     445305  MISS:        313
LLC PREFETCH  REQUESTED:          0  ISSUED:          0  USEFUL:    1745729  USELESS:   27094381
Major fault: 0 Minor fault: 25176

CPU 4 cumulative IPC: 1.25988 instructions: 100000000 cycles: 79372740
L1D TOTAL     ACCESS:   28314096  HIT:   26628688  MISS:    1685408
L1D LOAD      ACCESS:   23396876  HIT:   21711468  MISS:    1685408
L1D RFO       ACCESS:    4917220  HIT:    4917220  MISS:          0
L1D PREFETCH  ACCESS:          0  HIT:          0  MISS:          0
L1D WRITEBACK ACCESS:          0  HIT:          0  MISS:          0
L1D PREFETCH  REQUESTED:          0  ISSUED:          0  USEFUL:          0  USELESS:          0
L1I TOTAL     ACCESS:   21203455  HIT:   21203455  MISS:          0
L1I LOAD      ACCESS:   21203455  HIT:   21203455  MISS:          0
L1I RFO       ACCESS:          0  HIT:          0  MISS:          0
L1I PREFETCH  ACCESS:          0  HIT:          0  MISS:          0
L1I WRITEBACK ACCESS:          0  HIT:          0  MISS:          0
L1I PREFETCH  REQUESTED:          0  ISSUED:          0  USEFUL:          0  USELESS:          0
L2C TOTAL     ACCESS:    4725072  HIT:    2983509  MISS:    1741563
L2C LOAD      ACCESS:    1685408  HIT:    1619467  MISS:      65941
L2C RFO       ACCESS:          0  HIT:          0  MISS:          0
L2C PREFETCH  ACCESS:    2517462  HIT:     842008  MISS:    1675454
L2C WRITEBACK ACCESS:     522202  HIT:     522034  MISS:        168
L2C PREFETCH  REQUESTED:   20028803  ISSUED:   20027818  USEFUL:   11221145  USELESS:     738029
LLC TOTAL     ACCESS:    2473649  HIT:     733115  MISS:    1740534
LLC LOAD      ACCESS:      50594  HIT:       3350  MISS:      47244
LLC RFO       ACCESS:          0  HIT:          0  MISS:          0
LLC PREFETCH  ACCESS:    1903402  HIT:     210151  MISS:    1693251
LLC WRITEBACK ACCESS:     519653  HIT:     519614  MISS:         39
LLC PREFETCH  REQUESTED:          0  ISSUED:          0  USEFUL:    1745729  USELESS:   27094381
Major fault: 0 Minor fault: 154275

CPU 5 cumulative IPC: 0.183046 instructions: 100000000 cycles: 546311556
L1D TOTAL     ACCESS:   23417011  HIT:   20607608  MISS:    2809403
L1D LOAD      ACCESS:   18760974  HIT:   16011784  MISS:    2749190
L1D RFO       ACCESS:    4656037  HIT:    4595824  MISS:      60213
L1D PREFETCH  ACCESS:          0  HIT:          0  MISS:          0
L1D WRITEBACK ACCESS:          0  HIT:          0  MISS:          0
L1D PREFETCH  REQUESTED:          0  ISSUED:          0  USEFUL:          0  USELESS:          0
L1I TOTAL     ACCESS:   31957244  HIT:   31601214  MISS:     356030
L1I LOAD      ACCESS:   31957244  HIT:   31601214  MISS:     356030
L1I RFO       ACCESS:          0  HIT:          0  MISS:          0
L1I PREFETCH  ACCESS:          0  HIT:          0  MISS:          0
L1I WRITEBACK ACCESS:          0  HIT:          0  MISS:          0
L1I PREFETCH  REQUESTED:          0  ISSUED:          0  USEFUL:          0  USELESS:          0
L2C TOTAL     ACCESS:    5375006  HIT:    1507961  MISS:    3867045
L2C LOAD      ACCESS:    3105162  HIT:     784212  MISS:    2320950
L2C RFO       ACCESS:      60205  HIT:      29090  MISS:      31115
L2C PREFETCH  ACCESS:    2084741  HIT:     572201  MISS:    1512540
L2C WRITEBACK ACCESS:     124898  HIT:     122458  MISS:       2440
L2C PREFETCH  REQUESTED:    5070268  ISSUED:    5066898  USEFUL:     578233  USELESS:    1476210
LLC TOTAL     ACCESS:    4913156  HIT:     894373  MISS:    4018783
LLC LOAD      ACCESS:    2108557  HIT:     355077  MISS:    1753480
LLC RFO       ACCESS:      31035  HIT:       8286  MISS:      22749
LLC PREFETCH  ACCESS:    2715686  HIT:     473433  MISS:    2242253
LLC WRITEBACK ACCESS:      57878  HIT:      57577  MISS:        301
LLC PREFETCH  REQUESTED:          0  ISSUED:          0  USEFUL:    1745729  USELESS:   27094381
Major fault: 0 Minor fault: 11121

CPU 6 cumulative IPC: 0.865044 instructions: 100000003 cycles: 115601117
L1D TOTAL     ACCESS:   25846349  HIT:   23647987  MISS:    2198362
L1D LOAD      ACCESS:   24442348  HIT:   22925864  MISS:    1516484
L1D RFO       ACCESS:    1404001  HIT:     722123  MISS:     681878
L1D PREFETCH  ACCESS:          0  HIT:          0  MISS:          0
L1D WRITEBACK ACCESS:          0  HIT:          0  MISS:          0
L1D PREFETCH  REQUESTED:          0  ISSUED:          0  USEFUL:          0  USELESS:          0
L1I TOTAL     ACCESS:   27771393  HIT:   27771393  MISS:          0
L1I LOAD      ACCESS:   27771393  HIT:   27771393  MISS:          0
L1I RFO       ACCESS:          0  HIT:          0  MISS:          0
L1I PREFETCH  ACCESS:          0  HIT:          0  MISS:          0
L1I WRITEBACK ACCESS:          0  HIT:          0  MISS:          0
L1I PREFETCH  REQUESTED:          0  ISSUED:          0  USEFUL:          0  USELESS:          0
L2C TOTAL     ACCESS:    4811290  HIT:    2558330  MISS:    2252960
L2C LOAD      ACCESS:    1516484  HIT:    1406898  MISS:     109586
L2C RFO       ACCESS:     681878  HIT:          0  MISS:     681878
L2C PREFETCH  ACCESS:    1927051  HIT:     465559  MISS:    1461492
L2C WRITEBACK ACCESS:     685877  HIT:     685873  MISS:          4
L2C PREFETCH  REQUESTED:   14381110  ISSUED:   14379643  USEFUL:    6706359  USELESS:     349459
LLC TOTAL     ACCESS:    3028158  HIT:     766679  MISS:    2261479
LLC LOAD      ACCESS:      64421  HIT:       2523  MISS:      61898
LLC RFO       ACCESS:     681878  HIT:          0  MISS:     681878
LLC PREFETCH  ACCESS:    1601418  HIT:      83733  MISS:    1517685
LLC WRITEBACK ACCESS:     680441  HIT:     680423  MISS:         18
LLC PREFETCH  REQUESTED:          0  ISSUED:          0  USEFUL:    1745729  USELESS:   27094381
Major fault: 0 Minor fault: 96027

CPU 7 cumulative IPC: 0.583497 instructions: 100000003 cycles: 171380588
L1D TOTAL     ACCESS:   20124666  HIT:   20103175  MISS:      21491
L1D LOAD      ACCESS:   15119091  HIT:   15097664  MISS:      21427
L1D RFO       ACCESS:    5005575  HIT:    5005511  MISS:         64
L1D PREFETCH  ACCESS:          0  HIT:          0  MISS:          0
L1D WRITEBACK ACCESS:          0  HIT:          0  MISS:          0
L1D PREFETCH  REQUESTED:          0  ISSUED:          0  USEFUL:          0  USELESS:          0
L1I TOTAL     ACCESS:   43141056  HIT:   43141056  MISS:          0
L1I LOAD      ACCESS:   43141056  HIT:   43141056  MISS:          0
L1I RFO       ACCESS:          0  HIT:          0  MISS:          0
L1I PREFETCH  ACCESS:          0  HIT:          0  MISS:          0
L1I WRITEBACK ACCESS:          0  HIT:          0  MISS:          0
L1I PREFETCH  REQUESTED:          0  ISSUED:          0  USEFUL:          0  USELESS:          0
L2C TOTAL     ACCESS:      56610  HIT:      35349  MISS:      21261
L2C LOAD      ACCESS:      21427  HIT:       6943  MISS:      14484
L2C RFO       ACCESS:         64  HIT:         64  MISS:          0
L2C PREFETCH  ACCESS:      13763  HIT:       6986  MISS:       6777
L2C WRITEBACK ACCESS:      21356  HIT:      21356  MISS:          0
L2C PREFETCH  REQUESTED:      67399  ISSUED:      67399  USEFUL:      25786  USELESS:        220
LLC TOTAL     ACCESS:      48120  HIT:       5664  MISS:      42456
LLC LOAD      ACCESS:      14484  HIT:       3334  MISS:      11150
LLC RFO       ACCESS:          0  HIT:          0  MISS:          0
LLC PREFETCH  ACCESS:      12479  HIT:       2330  MISS:      10149
LLC WRITEBACK ACCESS:      21157  HIT:          0  MISS:      21157
LLC PREFETCH  REQUESTED:          0  ISSUED:          0  USEFUL:    1745729  USELESS:   27094381
Major fault: 0 Minor fault: 1173

Avg Lookahead Depth:	2.34693
TOTAL: 8.84244e+07	L2C: 6.73916e+07	LLC: 2.10328e+07	GOOD_L2C: 3.80525e+07
Printing all the perceptron weights to: perc_weights_0.csv

Avg Lookahead Depth:	2.34693
TOTAL: 8.84244e+07	L2C: 6.73916e+07	LLC: 2.10328e+07	GOOD_L2C: 3.80525e+07
Printing all the perceptron weights to: perc_weights_0.csv

Avg Lookahead Depth:	2.34693
TOTAL: 8.84244e+07	L2C: 6.73916e+07	LLC: 2.10328e+07	GOOD_L2C: 3.80525e+07
Printing all the perceptron weights to: perc_weights_0.csv

Avg Lookahead Depth:	2.34693
TOTAL: 8.84244e+07	L2C: 6.73916e+07	LLC: 2.10328e+07	GOOD_L2C: 3.80525e+07
Printing all the perceptron weights to: perc_weights_0.csv

Avg Lookahead Depth:	2.34693
TOTAL: 8.84244e+07	L2C: 6.73916e+07	LLC: 2.10328e+07	GOOD_L2C: 3.80525e+07
Printing all the perceptron weights to: perc_weights_0.csv

Avg Lookahead Depth:	2.34693
TOTAL: 8.84244e+07	L2C: 6.73916e+07	LLC: 2.10328e+07	GOOD_L2C: 3.80525e+07
Printing all the perceptron weights to: perc_weights_0.csv

Avg Lookahead Depth:	2.34693
TOTAL: 8.84244e+07	L2C: 6.73916e+07	LLC: 2.10328e+07	GOOD_L2C: 3.80525e+07
Printing all the perceptron weights to: perc_weights_0.csv

Avg Lookahead Depth:	2.34693
TOTAL: 8.84244e+07	L2C: 6.73916e+07	LLC: 2.10328e+07	GOOD_L2C: 3.80525e+07
Printing all the perceptron weights to: perc_weights_0.csv

DRAM Statistics
 CHANNEL 0
 RQ ROW_BUFFER_HIT:    7653787  ROW_BUFFER_MISS:    9569715
 DBUS_CONGESTED:   36415299
 WQ ROW_BUFFER_HIT:     437668  ROW_BUFFER_MISS:    5299605  FULL:          0

 CHANNEL 1
 RQ ROW_BUFFER_HIT:    7613765  ROW_BUFFER_MISS:    9624339
 DBUS_CONGESTED:   36415299
 WQ ROW_BUFFER_HIT:     434102  ROW_BUFFER_MISS:    5302270  FULL:          0

 AVG_CONGESTED_CYCLE: 14
