Initialize SIGNATURE TABLE
ST_SET: 1
ST_WAY: 256
ST_TAG_BIT: 16
ST_TAG_MASK: ffff

Initialize PATTERN TABLE
PT_SET: 512
PT_WAY: 4
SIG_DELTA_BIT: 7
C_SIG_BIT: 4
C_DELTA_BIT: 4

Initialize PREFETCH FILTER
FILTER_SET: 1024

*** ChampSim Multicore Out-of-Order Simulator ***

Warmup Instructions: 200000000
Simulation Instructions: 1000000000
Number of CPUs: 1
LLC sets: 512
LLC ways: 16
Off-chip DRAM Size: 4096 MB Channels: 1 Width: 64-bit Data Rate: 1600 MT/s

CPU 0 runs /scratch/user/djimenez/champsim-traces/speccpu2017/xz/605.mcf_s/605.mcf_s-484B.champsimtrace.xz
Heartbeat CPU 0 instructions: 10000000 cycles: 6858322 heartbeat IPC: 1.45808 cumulative IPC: 1.45808 (Simulation time: 0 hr 0 min 26 sec) 
Heartbeat CPU 0 instructions: 20000000 cycles: 13626577 heartbeat IPC: 1.47749 cumulative IPC: 1.46772 (Simulation time: 0 hr 0 min 51 sec) 
Heartbeat CPU 0 instructions: 30000000 cycles: 20331953 heartbeat IPC: 1.49134 cumulative IPC: 1.47551 (Simulation time: 0 hr 1 min 17 sec) 
Heartbeat CPU 0 instructions: 40000000 cycles: 27191064 heartbeat IPC: 1.45791 cumulative IPC: 1.47107 (Simulation time: 0 hr 1 min 42 sec) 
Heartbeat CPU 0 instructions: 50000003 cycles: 33954562 heartbeat IPC: 1.47853 cumulative IPC: 1.47256 (Simulation time: 0 hr 2 min 8 sec) 
Heartbeat CPU 0 instructions: 60000000 cycles: 40739094 heartbeat IPC: 1.47394 cumulative IPC: 1.47279 (Simulation time: 0 hr 2 min 33 sec) 
Heartbeat CPU 0 instructions: 70000002 cycles: 47330039 heartbeat IPC: 1.51723 cumulative IPC: 1.47898 (Simulation time: 0 hr 3 min 0 sec) 
Heartbeat CPU 0 instructions: 80000000 cycles: 54108773 heartbeat IPC: 1.4752 cumulative IPC: 1.4785 (Simulation time: 0 hr 3 min 25 sec) 
Heartbeat CPU 0 instructions: 90000000 cycles: 60782590 heartbeat IPC: 1.49839 cumulative IPC: 1.48069 (Simulation time: 0 hr 3 min 51 sec) 
Heartbeat CPU 0 instructions: 100000000 cycles: 67543325 heartbeat IPC: 1.47913 cumulative IPC: 1.48053 (Simulation time: 0 hr 4 min 17 sec) 
Heartbeat CPU 0 instructions: 110000001 cycles: 74248149 heartbeat IPC: 1.49146 cumulative IPC: 1.48152 (Simulation time: 0 hr 4 min 43 sec) 
Heartbeat CPU 0 instructions: 120000000 cycles: 81094452 heartbeat IPC: 1.46064 cumulative IPC: 1.47976 (Simulation time: 0 hr 5 min 8 sec) 
Heartbeat CPU 0 instructions: 130000000 cycles: 87943511 heartbeat IPC: 1.46005 cumulative IPC: 1.47822 (Simulation time: 0 hr 5 min 34 sec) 
Heartbeat CPU 0 instructions: 140000000 cycles: 94641788 heartbeat IPC: 1.49292 cumulative IPC: 1.47926 (Simulation time: 0 hr 5 min 59 sec) 
Heartbeat CPU 0 instructions: 150000000 cycles: 101494254 heartbeat IPC: 1.45933 cumulative IPC: 1.47792 (Simulation time: 0 hr 6 min 25 sec) 
Heartbeat CPU 0 instructions: 160000000 cycles: 108351750 heartbeat IPC: 1.45826 cumulative IPC: 1.47667 (Simulation time: 0 hr 6 min 50 sec) 
Heartbeat CPU 0 instructions: 170000000 cycles: 115058811 heartbeat IPC: 1.49097 cumulative IPC: 1.47751 (Simulation time: 0 hr 7 min 16 sec) 
Heartbeat CPU 0 instructions: 180000000 cycles: 121830443 heartbeat IPC: 1.47675 cumulative IPC: 1.47746 (Simulation time: 0 hr 7 min 42 sec) 
Heartbeat CPU 0 instructions: 190000002 cycles: 128595513 heartbeat IPC: 1.47818 cumulative IPC: 1.4775 (Simulation time: 0 hr 8 min 7 sec) 
Heartbeat CPU 0 instructions: 200000000 cycles: 135083971 heartbeat IPC: 1.5412 cumulative IPC: 1.48056 (Simulation time: 0 hr 8 min 33 sec) 

Warmup complete CPU 0 instructions: 200000003 cycles: 135083972 (Simulation time: 0 hr 8 min 33 sec) 

Heartbeat CPU 0 instructions: 210000001 cycles: 161472120 heartbeat IPC: 0.378958 cumulative IPC: 0.378958 (Simulation time: 0 hr 9 min 13 sec) 
Heartbeat CPU 0 instructions: 220000000 cycles: 181511088 heartbeat IPC: 0.499028 cumulative IPC: 0.430783 (Simulation time: 0 hr 9 min 48 sec) 
Heartbeat CPU 0 instructions: 230000001 cycles: 202446687 heartbeat IPC: 0.477655 cumulative IPC: 0.44535 (Simulation time: 0 hr 10 min 23 sec) 
Heartbeat CPU 0 instructions: 240000000 cycles: 224151860 heartbeat IPC: 0.46072 cumulative IPC: 0.449096 (Simulation time: 0 hr 10 min 59 sec) 
Heartbeat CPU 0 instructions: 250000000 cycles: 247608647 heartbeat IPC: 0.426316 cumulative IPC: 0.444347 (Simulation time: 0 hr 11 min 37 sec) 
Heartbeat CPU 0 instructions: 260000000 cycles: 266069394 heartbeat IPC: 0.54169 cumulative IPC: 0.458066 (Simulation time: 0 hr 12 min 10 sec) 
Heartbeat CPU 0 instructions: 270000000 cycles: 289981283 heartbeat IPC: 0.418202 cumulative IPC: 0.451912 (Simulation time: 0 hr 12 min 47 sec) 
Heartbeat CPU 0 instructions: 280000000 cycles: 311497733 heartbeat IPC: 0.464761 cumulative IPC: 0.453479 (Simulation time: 0 hr 13 min 23 sec) 
Heartbeat CPU 0 instructions: 290000000 cycles: 335500348 heartbeat IPC: 0.416621 cumulative IPC: 0.449065 (Simulation time: 0 hr 14 min 1 sec) 
Heartbeat CPU 0 instructions: 300000000 cycles: 357297431 heartbeat IPC: 0.458777 cumulative IPC: 0.450018 (Simulation time: 0 hr 14 min 38 sec) 
Heartbeat CPU 0 instructions: 310000003 cycles: 379502794 heartbeat IPC: 0.450342 cumulative IPC: 0.450047 (Simulation time: 0 hr 15 min 15 sec) 
Heartbeat CPU 0 instructions: 320000000 cycles: 404617933 heartbeat IPC: 0.398166 cumulative IPC: 0.445213 (Simulation time: 0 hr 15 min 53 sec) 
Heartbeat CPU 0 instructions: 330000000 cycles: 424524764 heartbeat IPC: 0.50234 cumulative IPC: 0.449142 (Simulation time: 0 hr 16 min 28 sec) 
Heartbeat CPU 0 instructions: 340000000 cycles: 449427409 heartbeat IPC: 0.401564 cumulative IPC: 0.445373 (Simulation time: 0 hr 17 min 7 sec) 
Heartbeat CPU 0 instructions: 350000002 cycles: 473039974 heartbeat IPC: 0.423503 cumulative IPC: 0.443845 (Simulation time: 0 hr 17 min 45 sec) 
Heartbeat CPU 0 instructions: 360000000 cycles: 496094732 heartbeat IPC: 0.43375 cumulative IPC: 0.4432 (Simulation time: 0 hr 18 min 22 sec) 
Heartbeat CPU 0 instructions: 370000000 cycles: 517115136 heartbeat IPC: 0.475728 cumulative IPC: 0.44499 (Simulation time: 0 hr 18 min 57 sec) 
Heartbeat CPU 0 instructions: 380000000 cycles: 539206921 heartbeat IPC: 0.452657 cumulative IPC: 0.445409 (Simulation time: 0 hr 19 min 35 sec) 
Heartbeat CPU 0 instructions: 390000002 cycles: 560938584 heartbeat IPC: 0.460158 cumulative IPC: 0.446162 (Simulation time: 0 hr 20 min 10 sec) 
Heartbeat CPU 0 instructions: 400000000 cycles: 583557770 heartbeat IPC: 0.442102 cumulative IPC: 0.445957 (Simulation time: 0 hr 20 min 46 sec) 
Heartbeat CPU 0 instructions: 410000000 cycles: 603611197 heartbeat IPC: 0.498668 cumulative IPC: 0.448213 (Simulation time: 0 hr 21 min 21 sec) 
Heartbeat CPU 0 instructions: 420000000 cycles: 624861603 heartbeat IPC: 0.470579 cumulative IPC: 0.449183 (Simulation time: 0 hr 21 min 56 sec) 
Heartbeat CPU 0 instructions: 430000001 cycles: 644607050 heartbeat IPC: 0.506446 cumulative IPC: 0.451403 (Simulation time: 0 hr 22 min 31 sec) 
Heartbeat CPU 0 instructions: 440000000 cycles: 667007497 heartbeat IPC: 0.44642 cumulative IPC: 0.451193 (Simulation time: 0 hr 23 min 6 sec) 
Heartbeat CPU 0 instructions: 450000001 cycles: 690180525 heartbeat IPC: 0.431536 cumulative IPC: 0.450372 (Simulation time: 0 hr 23 min 44 sec) 
Heartbeat CPU 0 instructions: 460000000 cycles: 713502023 heartbeat IPC: 0.428789 cumulative IPC: 0.449502 (Simulation time: 0 hr 24 min 21 sec) 
Heartbeat CPU 0 instructions: 470000001 cycles: 735414395 heartbeat IPC: 0.456363 cumulative IPC: 0.449752 (Simulation time: 0 hr 24 min 56 sec) 
Heartbeat CPU 0 instructions: 480000000 cycles: 755947456 heartbeat IPC: 0.487019 cumulative IPC: 0.450985 (Simulation time: 0 hr 25 min 32 sec) 
Heartbeat CPU 0 instructions: 490000001 cycles: 776624561 heartbeat IPC: 0.483627 cumulative IPC: 0.452037 (Simulation time: 0 hr 26 min 7 sec) 
Heartbeat CPU 0 instructions: 500000000 cycles: 798353837 heartbeat IPC: 0.460209 cumulative IPC: 0.452305 (Simulation time: 0 hr 26 min 42 sec) 
Heartbeat CPU 0 instructions: 510000001 cycles: 818112021 heartbeat IPC: 0.506119 cumulative IPC: 0.453861 (Simulation time: 0 hr 27 min 16 sec) 
Heartbeat CPU 0 instructions: 520000000 cycles: 842503823 heartbeat IPC: 0.409974 cumulative IPC: 0.452348 (Simulation time: 0 hr 27 min 54 sec) 
Heartbeat CPU 0 instructions: 530000001 cycles: 862039752 heartbeat IPC: 0.511877 cumulative IPC: 0.453948 (Simulation time: 0 hr 28 min 29 sec) 
Heartbeat CPU 0 instructions: 540000000 cycles: 885762056 heartbeat IPC: 0.421544 cumulative IPC: 0.452924 (Simulation time: 0 hr 29 min 7 sec) 
Heartbeat CPU 0 instructions: 550000000 cycles: 905264754 heartbeat IPC: 0.51275 cumulative IPC: 0.454439 (Simulation time: 0 hr 29 min 41 sec) 
Heartbeat CPU 0 instructions: 560000000 cycles: 929890953 heartbeat IPC: 0.406072 cumulative IPC: 0.45294 (Simulation time: 0 hr 30 min 20 sec) 
Heartbeat CPU 0 instructions: 570000000 cycles: 950470407 heartbeat IPC: 0.485922 cumulative IPC: 0.453773 (Simulation time: 0 hr 30 min 55 sec) 
Heartbeat CPU 0 instructions: 580000000 cycles: 974273139 heartbeat IPC: 0.42012 cumulative IPC: 0.452818 (Simulation time: 0 hr 31 min 33 sec) 
Heartbeat CPU 0 instructions: 590000003 cycles: 994856343 heartbeat IPC: 0.485833 cumulative IPC: 0.453608 (Simulation time: 0 hr 32 min 8 sec) 
Heartbeat CPU 0 instructions: 600000000 cycles: 1016815474 heartbeat IPC: 0.455391 cumulative IPC: 0.453653 (Simulation time: 0 hr 32 min 45 sec) 
Heartbeat CPU 0 instructions: 610000001 cycles: 1036733128 heartbeat IPC: 0.502067 cumulative IPC: 0.454722 (Simulation time: 0 hr 33 min 19 sec) 
Heartbeat CPU 0 instructions: 620000000 cycles: 1058222861 heartbeat IPC: 0.465338 cumulative IPC: 0.454969 (Simulation time: 0 hr 33 min 55 sec) 
Heartbeat CPU 0 instructions: 630000003 cycles: 1079133478 heartbeat IPC: 0.478226 cumulative IPC: 0.455485 (Simulation time: 0 hr 34 min 31 sec) 
Heartbeat CPU 0 instructions: 640000000 cycles: 1099227843 heartbeat IPC: 0.497652 cumulative IPC: 0.456363 (Simulation time: 0 hr 35 min 6 sec) 
Heartbeat CPU 0 instructions: 650000001 cycles: 1119007730 heartbeat IPC: 0.505564 cumulative IPC: 0.457353 (Simulation time: 0 hr 35 min 40 sec) 
Heartbeat CPU 0 instructions: 660000000 cycles: 1138079635 heartbeat IPC: 0.524331 cumulative IPC: 0.458626 (Simulation time: 0 hr 36 min 14 sec) 
Heartbeat CPU 0 instructions: 670000000 cycles: 1160802274 heartbeat IPC: 0.44009 cumulative IPC: 0.458215 (Simulation time: 0 hr 36 min 51 sec) 
Heartbeat CPU 0 instructions: 680000000 cycles: 1182753903 heartbeat IPC: 0.455547 cumulative IPC: 0.45816 (Simulation time: 0 hr 37 min 28 sec) 
Heartbeat CPU 0 instructions: 690000002 cycles: 1204830248 heartbeat IPC: 0.452974 cumulative IPC: 0.458053 (Simulation time: 0 hr 38 min 4 sec) 
Heartbeat CPU 0 instructions: 700000000 cycles: 1229652571 heartbeat IPC: 0.402863 cumulative IPC: 0.456801 (Simulation time: 0 hr 38 min 44 sec) 
Heartbeat CPU 0 instructions: 710000002 cycles: 1251719449 heartbeat IPC: 0.453168 cumulative IPC: 0.456729 (Simulation time: 0 hr 39 min 21 sec) 
Heartbeat CPU 0 instructions: 720000000 cycles: 1273158800 heartbeat IPC: 0.466432 cumulative IPC: 0.456912 (Simulation time: 0 hr 39 min 56 sec) 
Heartbeat CPU 0 instructions: 730000000 cycles: 1294521649 heartbeat IPC: 0.468102 cumulative IPC: 0.457118 (Simulation time: 0 hr 40 min 32 sec) 
Heartbeat CPU 0 instructions: 740000000 cycles: 1318173207 heartbeat IPC: 0.422805 cumulative IPC: 0.456432 (Simulation time: 0 hr 41 min 9 sec) 
Heartbeat CPU 0 instructions: 750000003 cycles: 1338513291 heartbeat IPC: 0.49164 cumulative IPC: 0.457027 (Simulation time: 0 hr 41 min 44 sec) 
Heartbeat CPU 0 instructions: 760000000 cycles: 1356882300 heartbeat IPC: 0.544395 cumulative IPC: 0.458341 (Simulation time: 0 hr 42 min 17 sec) 
Heartbeat CPU 0 instructions: 770000001 cycles: 1378493563 heartbeat IPC: 0.462722 cumulative IPC: 0.458417 (Simulation time: 0 hr 42 min 54 sec) 
Heartbeat CPU 0 instructions: 780000000 cycles: 1398856274 heartbeat IPC: 0.491094 cumulative IPC: 0.458943 (Simulation time: 0 hr 43 min 28 sec) 
Heartbeat CPU 0 instructions: 790000003 cycles: 1418835957 heartbeat IPC: 0.500509 cumulative IPC: 0.45959 (Simulation time: 0 hr 44 min 4 sec) 
Heartbeat CPU 0 instructions: 800000000 cycles: 1441468323 heartbeat IPC: 0.441845 cumulative IPC: 0.459283 (Simulation time: 0 hr 44 min 40 sec) 
Heartbeat CPU 0 instructions: 810000001 cycles: 1464222849 heartbeat IPC: 0.439473 cumulative IPC: 0.458944 (Simulation time: 0 hr 45 min 17 sec) 
Heartbeat CPU 0 instructions: 820000000 cycles: 1490039642 heartbeat IPC: 0.387345 cumulative IPC: 0.45758 (Simulation time: 0 hr 45 min 57 sec) 
Heartbeat CPU 0 instructions: 830000000 cycles: 1511413091 heartbeat IPC: 0.46787 cumulative IPC: 0.457739 (Simulation time: 0 hr 46 min 33 sec) 
Heartbeat CPU 0 instructions: 840000000 cycles: 1536155039 heartbeat IPC: 0.404172 cumulative IPC: 0.456793 (Simulation time: 0 hr 47 min 12 sec) 
Heartbeat CPU 0 instructions: 850000001 cycles: 1556626447 heartbeat IPC: 0.488486 cumulative IPC: 0.45725 (Simulation time: 0 hr 47 min 48 sec) 
Heartbeat CPU 0 instructions: 860000000 cycles: 1579302572 heartbeat IPC: 0.440992 cumulative IPC: 0.456995 (Simulation time: 0 hr 48 min 25 sec) 
Heartbeat CPU 0 instructions: 870000001 cycles: 1599365607 heartbeat IPC: 0.498429 cumulative IPC: 0.457562 (Simulation time: 0 hr 49 min 0 sec) 
Heartbeat CPU 0 instructions: 880000000 cycles: 1623189095 heartbeat IPC: 0.419754 cumulative IPC: 0.456957 (Simulation time: 0 hr 49 min 37 sec) 
Heartbeat CPU 0 instructions: 890000001 cycles: 1642413777 heartbeat IPC: 0.520165 cumulative IPC: 0.457763 (Simulation time: 0 hr 50 min 11 sec) 
Heartbeat CPU 0 instructions: 900000000 cycles: 1662919747 heartbeat IPC: 0.487663 cumulative IPC: 0.458164 (Simulation time: 0 hr 50 min 46 sec) 
Heartbeat CPU 0 instructions: 910000000 cycles: 1684230146 heartbeat IPC: 0.469254 cumulative IPC: 0.458317 (Simulation time: 0 hr 51 min 21 sec) 
Heartbeat CPU 0 instructions: 920000000 cycles: 1707535015 heartbeat IPC: 0.429095 cumulative IPC: 0.457884 (Simulation time: 0 hr 51 min 58 sec) 
Heartbeat CPU 0 instructions: 930000001 cycles: 1730563519 heartbeat IPC: 0.434244 cumulative IPC: 0.457543 (Simulation time: 0 hr 52 min 35 sec) 
Heartbeat CPU 0 instructions: 940000000 cycles: 1748956124 heartbeat IPC: 0.543697 cumulative IPC: 0.458525 (Simulation time: 0 hr 53 min 8 sec) 
Heartbeat CPU 0 instructions: 950000001 cycles: 1771419477 heartbeat IPC: 0.44517 cumulative IPC: 0.458341 (Simulation time: 0 hr 53 min 45 sec) 
Heartbeat CPU 0 instructions: 960000000 cycles: 1792316489 heartbeat IPC: 0.478537 cumulative IPC: 0.458596 (Simulation time: 0 hr 54 min 19 sec) 
Heartbeat CPU 0 instructions: 970000000 cycles: 1811430929 heartbeat IPC: 0.523165 cumulative IPC: 0.459332 (Simulation time: 0 hr 54 min 54 sec) 
Heartbeat CPU 0 instructions: 980000000 cycles: 1832257625 heartbeat IPC: 0.480153 cumulative IPC: 0.459588 (Simulation time: 0 hr 55 min 29 sec) 
Heartbeat CPU 0 instructions: 990000001 cycles: 1854712537 heartbeat IPC: 0.445337 cumulative IPC: 0.459402 (Simulation time: 0 hr 56 min 6 sec) 
Heartbeat CPU 0 instructions: 1000000000 cycles: 1874890277 heartbeat IPC: 0.495596 cumulative IPC: 0.459821 (Simulation time: 0 hr 56 min 40 sec) 
Heartbeat CPU 0 instructions: 1010000001 cycles: 1894911551 heartbeat IPC: 0.499469 cumulative IPC: 0.460272 (Simulation time: 0 hr 57 min 15 sec) 
Heartbeat CPU 0 instructions: 1020000000 cycles: 1914769023 heartbeat IPC: 0.503589 cumulative IPC: 0.460756 (Simulation time: 0 hr 57 min 49 sec) 
Heartbeat CPU 0 instructions: 1030000000 cycles: 1934441918 heartbeat IPC: 0.508314 cumulative IPC: 0.461276 (Simulation time: 0 hr 58 min 24 sec) 
Heartbeat CPU 0 instructions: 1040000000 cycles: 1954989424 heartbeat IPC: 0.486677 cumulative IPC: 0.461562 (Simulation time: 0 hr 59 min 0 sec) 
Heartbeat CPU 0 instructions: 1050000003 cycles: 1977368467 heartbeat IPC: 0.446847 cumulative IPC: 0.461384 (Simulation time: 0 hr 59 min 37 sec) 
Heartbeat CPU 0 instructions: 1060000000 cycles: 2001427714 heartbeat IPC: 0.41564 cumulative IPC: 0.460794 (Simulation time: 1 hr 0 min 15 sec) 
Heartbeat CPU 0 instructions: 1070000001 cycles: 2022513454 heartbeat IPC: 0.474254 cumulative IPC: 0.460944 (Simulation time: 1 hr 0 min 50 sec) 
Heartbeat CPU 0 instructions: 1080000000 cycles: 2044214436 heartbeat IPC: 0.460809 cumulative IPC: 0.460943 (Simulation time: 1 hr 1 min 26 sec) 
Heartbeat CPU 0 instructions: 1090000000 cycles: 2065817031 heartbeat IPC: 0.462907 cumulative IPC: 0.460965 (Simulation time: 1 hr 2 min 3 sec) 
Heartbeat CPU 0 instructions: 1100000000 cycles: 2083883355 heartbeat IPC: 0.553516 cumulative IPC: 0.461823 (Simulation time: 1 hr 2 min 36 sec) 
Heartbeat CPU 0 instructions: 1110000000 cycles: 2109119974 heartbeat IPC: 0.39625 cumulative IPC: 0.460984 (Simulation time: 1 hr 3 min 16 sec) 
Heartbeat CPU 0 instructions: 1120000000 cycles: 2127618407 heartbeat IPC: 0.540586 cumulative IPC: 0.461724 (Simulation time: 1 hr 3 min 50 sec) 
Heartbeat CPU 0 instructions: 1130000001 cycles: 2149927203 heartbeat IPC: 0.448254 cumulative IPC: 0.461574 (Simulation time: 1 hr 4 min 26 sec) 
Heartbeat CPU 0 instructions: 1140000000 cycles: 2169360038 heartbeat IPC: 0.514593 cumulative IPC: 0.462081 (Simulation time: 1 hr 5 min 0 sec) 
Heartbeat CPU 0 instructions: 1150000000 cycles: 2189998857 heartbeat IPC: 0.484524 cumulative IPC: 0.462306 (Simulation time: 1 hr 5 min 36 sec) 
Heartbeat CPU 0 instructions: 1160000000 cycles: 2210935522 heartbeat IPC: 0.477631 cumulative IPC: 0.462461 (Simulation time: 1 hr 6 min 11 sec) 
Heartbeat CPU 0 instructions: 1170000002 cycles: 2237179525 heartbeat IPC: 0.38104 cumulative IPC: 0.461444 (Simulation time: 1 hr 6 min 52 sec) 
Heartbeat CPU 0 instructions: 1180000000 cycles: 2276337272 heartbeat IPC: 0.255377 cumulative IPC: 0.457676 (Simulation time: 1 hr 7 min 47 sec) 
Heartbeat CPU 0 instructions: 1190000000 cycles: 2314574057 heartbeat IPC: 0.261528 cumulative IPC: 0.454235 (Simulation time: 1 hr 8 min 41 sec) 
Heartbeat CPU 0 instructions: 1200000000 cycles: 2355951538 heartbeat IPC: 0.241677 cumulative IPC: 0.450274 (Simulation time: 1 hr 9 min 39 sec) 
Finished CPU 0 instructions: 1000000000 cycles: 2220867583 cumulative IPC: 0.450274 (Simulation time: 1 hr 9 min 39 sec) 

CPU 0 Branch Prediction Accuracy: 98.5984% MPKI: 1.4041

ChampSim completed all CPUs

Region of Interest Statistics

CPU 0 cumulative IPC: 0.450274 instructions: 1000000000 cycles: 2220867583
L1D TOTAL     ACCESS:  494018139  HIT:  465147150  MISS:   28870989
L1D LOAD      ACCESS:  218309656  HIT:  191951431  MISS:   26358225
L1D RFO       ACCESS:  275708483  HIT:  273195719  MISS:    2512764
L1D PREFETCH  ACCESS:          0  HIT:          0  MISS:          0
L1D WRITEBACK ACCESS:          0  HIT:          0  MISS:          0
L1D PREFETCH  REQUESTED:          0  ISSUED:          0  USEFUL:          0  USELESS:          0
L1I TOTAL     ACCESS:  325409371  HIT:  325409371  MISS:          0
L1I LOAD      ACCESS:  325409371  HIT:  325409371  MISS:          0
L1I RFO       ACCESS:          0  HIT:          0  MISS:          0
L1I PREFETCH  ACCESS:          0  HIT:          0  MISS:          0
L1I WRITEBACK ACCESS:          0  HIT:          0  MISS:          0
L1I PREFETCH  REQUESTED:          0  ISSUED:          0  USEFUL:          0  USELESS:          0
L2C TOTAL     ACCESS:   42009086  HIT:   13952285  MISS:   28056801
L2C LOAD      ACCESS:   26358039  HIT:    5062737  MISS:   21295302
L2C RFO       ACCESS:    2512672  HIT:      48987  MISS:    2463685
L2C PREFETCH  ACCESS:    6654215  HIT:    2374835  MISS:    4279380
L2C WRITEBACK ACCESS:    6484160  HIT:    6465726  MISS:      18434
L2C PREFETCH  REQUESTED:  107668606  ISSUED:  107666814  USEFUL:    5188609  USELESS:     106977
LLC TOTAL     ACCESS:   85801665  HIT:   54456283  MISS:   31345382
LLC LOAD      ACCESS:   20348724  HIT:   10351444  MISS:    9997280
LLC RFO       ACCESS:    2463473  HIT:     166347  MISS:    2297126
LLC PREFETCH  ACCESS:   57185870  HIT:   38243876  MISS:   18941994
LLC WRITEBACK ACCESS:    5803598  HIT:    5694616  MISS:     108982
LLC PREFETCH  REQUESTED:          0  ISSUED:          0  USEFUL:   12911834  USELESS:   10020669
Major fault: 0 Minor fault: 273262

DRAM Statistics
 CHANNEL 0
 RQ ROW_BUFFER_HIT:   26553030  ROW_BUFFER_MISS:    4678902
 DBUS_CONGESTED:   23703691
 WQ ROW_BUFFER_HIT:    3032271  ROW_BUFFER_MISS:    2747332  FULL:          0

 AVG_CONGESTED_CYCLE: 13
