Initialize SIGNATURE TABLE
ST_SET: 1
ST_WAY: 256
ST_TAG_BIT: 16
ST_TAG_MASK: ffff

Initialize PATTERN TABLE
PT_SET: 512
PT_WAY: 4
SIG_DELTA_BIT: 7
C_SIG_BIT: 4
C_DELTA_BIT: 4

Initialize PREFETCH FILTER
FILTER_SET: 1024

*** ChampSim Multicore Out-of-Order Simulator ***

Warmup Instructions: 200000000
Simulation Instructions: 1000000000
Number of CPUs: 1
LLC sets: 512
LLC ways: 16
Off-chip DRAM Size: 4096 MB Channels: 1 Width: 64-bit Data Rate: 1600 MT/s

CPU 0 runs /scratch/user/djimenez/champsim-traces/speccpu2017/xz/625.x264_s/625.x264_s-33B.champsimtrace.xz
Heartbeat CPU 0 instructions: 10000000 cycles: 3804660 heartbeat IPC: 2.62836 cumulative IPC: 2.62836 (Simulation time: 0 hr 0 min 17 sec) 
Heartbeat CPU 0 instructions: 20000000 cycles: 7612275 heartbeat IPC: 2.62632 cumulative IPC: 2.62734 (Simulation time: 0 hr 0 min 35 sec) 
Heartbeat CPU 0 instructions: 30000003 cycles: 11518372 heartbeat IPC: 2.5601 cumulative IPC: 2.60454 (Simulation time: 0 hr 0 min 55 sec) 
Heartbeat CPU 0 instructions: 40000000 cycles: 15450312 heartbeat IPC: 2.54327 cumulative IPC: 2.58894 (Simulation time: 0 hr 1 min 15 sec) 
Heartbeat CPU 0 instructions: 50000003 cycles: 19376568 heartbeat IPC: 2.54696 cumulative IPC: 2.58044 (Simulation time: 0 hr 1 min 35 sec) 
Heartbeat CPU 0 instructions: 60000000 cycles: 23294142 heartbeat IPC: 2.5526 cumulative IPC: 2.57575 (Simulation time: 0 hr 1 min 55 sec) 
Heartbeat CPU 0 instructions: 70000003 cycles: 27219485 heartbeat IPC: 2.54755 cumulative IPC: 2.57169 (Simulation time: 0 hr 2 min 15 sec) 
Heartbeat CPU 0 instructions: 80000000 cycles: 31141437 heartbeat IPC: 2.54975 cumulative IPC: 2.56892 (Simulation time: 0 hr 2 min 35 sec) 
Heartbeat CPU 0 instructions: 90000003 cycles: 35065378 heartbeat IPC: 2.54846 cumulative IPC: 2.56663 (Simulation time: 0 hr 2 min 55 sec) 
Heartbeat CPU 0 instructions: 100000000 cycles: 38994626 heartbeat IPC: 2.54502 cumulative IPC: 2.56446 (Simulation time: 0 hr 3 min 15 sec) 
Heartbeat CPU 0 instructions: 110000002 cycles: 42931094 heartbeat IPC: 2.54035 cumulative IPC: 2.56225 (Simulation time: 0 hr 3 min 36 sec) 
Heartbeat CPU 0 instructions: 120000000 cycles: 47024231 heartbeat IPC: 2.44311 cumulative IPC: 2.55188 (Simulation time: 0 hr 3 min 57 sec) 
Heartbeat CPU 0 instructions: 130000000 cycles: 50835645 heartbeat IPC: 2.6237 cumulative IPC: 2.55726 (Simulation time: 0 hr 4 min 18 sec) 
Heartbeat CPU 0 instructions: 140000000 cycles: 54647349 heartbeat IPC: 2.6235 cumulative IPC: 2.56188 (Simulation time: 0 hr 4 min 39 sec) 
Heartbeat CPU 0 instructions: 150000000 cycles: 58462824 heartbeat IPC: 2.62091 cumulative IPC: 2.56573 (Simulation time: 0 hr 4 min 59 sec) 
Heartbeat CPU 0 instructions: 160000000 cycles: 62272544 heartbeat IPC: 2.62486 cumulative IPC: 2.56935 (Simulation time: 0 hr 5 min 20 sec) 
Heartbeat CPU 0 instructions: 170000002 cycles: 66095902 heartbeat IPC: 2.6155 cumulative IPC: 2.57202 (Simulation time: 0 hr 5 min 41 sec) 
Heartbeat CPU 0 instructions: 180000000 cycles: 69940852 heartbeat IPC: 2.60081 cumulative IPC: 2.5736 (Simulation time: 0 hr 6 min 2 sec) 
Heartbeat CPU 0 instructions: 190000000 cycles: 73774947 heartbeat IPC: 2.60818 cumulative IPC: 2.5754 (Simulation time: 0 hr 6 min 22 sec) 
Heartbeat CPU 0 instructions: 200000000 cycles: 77603413 heartbeat IPC: 2.61201 cumulative IPC: 2.57721 (Simulation time: 0 hr 6 min 42 sec) 

Warmup complete CPU 0 instructions: 200000001 cycles: 77603414 (Simulation time: 0 hr 6 min 42 sec) 

Heartbeat CPU 0 instructions: 210000001 cycles: 84910427 heartbeat IPC: 1.36855 cumulative IPC: 1.36855 (Simulation time: 0 hr 7 min 7 sec) 
Heartbeat CPU 0 instructions: 220000000 cycles: 92226589 heartbeat IPC: 1.36684 cumulative IPC: 1.36769 (Simulation time: 0 hr 7 min 32 sec) 
Heartbeat CPU 0 instructions: 230000001 cycles: 99660403 heartbeat IPC: 1.3452 cumulative IPC: 1.36011 (Simulation time: 0 hr 7 min 56 sec) 
Heartbeat CPU 0 instructions: 240000000 cycles: 107161480 heartbeat IPC: 1.33314 cumulative IPC: 1.35327 (Simulation time: 0 hr 8 min 21 sec) 
Heartbeat CPU 0 instructions: 250000000 cycles: 114594209 heartbeat IPC: 1.3454 cumulative IPC: 1.35169 (Simulation time: 0 hr 8 min 46 sec) 
Heartbeat CPU 0 instructions: 260000000 cycles: 121963619 heartbeat IPC: 1.35696 cumulative IPC: 1.35256 (Simulation time: 0 hr 9 min 11 sec) 
Heartbeat CPU 0 instructions: 270000000 cycles: 129273711 heartbeat IPC: 1.36797 cumulative IPC: 1.35474 (Simulation time: 0 hr 9 min 35 sec) 
Heartbeat CPU 0 instructions: 280000000 cycles: 136616548 heartbeat IPC: 1.36187 cumulative IPC: 1.35563 (Simulation time: 0 hr 10 min 0 sec) 
Heartbeat CPU 0 instructions: 290000003 cycles: 143929416 heartbeat IPC: 1.36745 cumulative IPC: 1.35693 (Simulation time: 0 hr 10 min 24 sec) 
Heartbeat CPU 0 instructions: 300000000 cycles: 151263197 heartbeat IPC: 1.36355 cumulative IPC: 1.35759 (Simulation time: 0 hr 10 min 49 sec) 
Heartbeat CPU 0 instructions: 310000001 cycles: 158591095 heartbeat IPC: 1.36465 cumulative IPC: 1.35823 (Simulation time: 0 hr 11 min 13 sec) 
Heartbeat CPU 0 instructions: 320000000 cycles: 165941431 heartbeat IPC: 1.36048 cumulative IPC: 1.35842 (Simulation time: 0 hr 11 min 37 sec) 
Heartbeat CPU 0 instructions: 330000000 cycles: 173290794 heartbeat IPC: 1.36066 cumulative IPC: 1.35859 (Simulation time: 0 hr 12 min 2 sec) 
Heartbeat CPU 0 instructions: 340000000 cycles: 180638624 heartbeat IPC: 1.36095 cumulative IPC: 1.35876 (Simulation time: 0 hr 12 min 26 sec) 
Heartbeat CPU 0 instructions: 350000000 cycles: 188026251 heartbeat IPC: 1.35361 cumulative IPC: 1.35841 (Simulation time: 0 hr 12 min 50 sec) 
Heartbeat CPU 0 instructions: 360000000 cycles: 195654381 heartbeat IPC: 1.31094 cumulative IPC: 1.35535 (Simulation time: 0 hr 13 min 15 sec) 
Heartbeat CPU 0 instructions: 370000002 cycles: 204417541 heartbeat IPC: 1.14114 cumulative IPC: 1.34054 (Simulation time: 0 hr 13 min 41 sec) 
Heartbeat CPU 0 instructions: 380000000 cycles: 211763808 heartbeat IPC: 1.36124 cumulative IPC: 1.34168 (Simulation time: 0 hr 14 min 6 sec) 
Heartbeat CPU 0 instructions: 390000001 cycles: 218491082 heartbeat IPC: 1.48649 cumulative IPC: 1.34859 (Simulation time: 0 hr 14 min 30 sec) 
Heartbeat CPU 0 instructions: 400000000 cycles: 225240152 heartbeat IPC: 1.48169 cumulative IPC: 1.35468 (Simulation time: 0 hr 14 min 53 sec) 
Heartbeat CPU 0 instructions: 410000000 cycles: 232274965 heartbeat IPC: 1.4215 cumulative IPC: 1.35772 (Simulation time: 0 hr 15 min 18 sec) 
Heartbeat CPU 0 instructions: 420000000 cycles: 239001237 heartbeat IPC: 1.48671 cumulative IPC: 1.36309 (Simulation time: 0 hr 15 min 41 sec) 
Heartbeat CPU 0 instructions: 430000002 cycles: 245916670 heartbeat IPC: 1.44604 cumulative IPC: 1.3665 (Simulation time: 0 hr 16 min 5 sec) 
Heartbeat CPU 0 instructions: 440000000 cycles: 252848600 heartbeat IPC: 1.4426 cumulative IPC: 1.36951 (Simulation time: 0 hr 16 min 29 sec) 
Heartbeat CPU 0 instructions: 450000000 cycles: 259549845 heartbeat IPC: 1.49226 cumulative IPC: 1.37403 (Simulation time: 0 hr 16 min 53 sec) 
Heartbeat CPU 0 instructions: 460000000 cycles: 266226069 heartbeat IPC: 1.49785 cumulative IPC: 1.37841 (Simulation time: 0 hr 17 min 17 sec) 
Heartbeat CPU 0 instructions: 470000000 cycles: 273010235 heartbeat IPC: 1.47402 cumulative IPC: 1.38173 (Simulation time: 0 hr 17 min 41 sec) 
Heartbeat CPU 0 instructions: 480000000 cycles: 279695579 heartbeat IPC: 1.49581 cumulative IPC: 1.38551 (Simulation time: 0 hr 18 min 4 sec) 
Heartbeat CPU 0 instructions: 490000002 cycles: 286587151 heartbeat IPC: 1.45105 cumulative IPC: 1.38767 (Simulation time: 0 hr 18 min 27 sec) 
Heartbeat CPU 0 instructions: 500000000 cycles: 293410187 heartbeat IPC: 1.46562 cumulative IPC: 1.39013 (Simulation time: 0 hr 18 min 51 sec) 
Heartbeat CPU 0 instructions: 510000001 cycles: 300176011 heartbeat IPC: 1.47802 cumulative IPC: 1.3928 (Simulation time: 0 hr 19 min 14 sec) 
Heartbeat CPU 0 instructions: 520000000 cycles: 307021280 heartbeat IPC: 1.46086 cumulative IPC: 1.39483 (Simulation time: 0 hr 19 min 38 sec) 
Heartbeat CPU 0 instructions: 530000003 cycles: 313879590 heartbeat IPC: 1.45809 cumulative IPC: 1.39667 (Simulation time: 0 hr 20 min 1 sec) 
Heartbeat CPU 0 instructions: 540000000 cycles: 320512715 heartbeat IPC: 1.50758 cumulative IPC: 1.3997 (Simulation time: 0 hr 20 min 25 sec) 
Heartbeat CPU 0 instructions: 550000000 cycles: 327287560 heartbeat IPC: 1.47605 cumulative IPC: 1.40177 (Simulation time: 0 hr 20 min 48 sec) 
Heartbeat CPU 0 instructions: 560000000 cycles: 336597421 heartbeat IPC: 1.07413 cumulative IPC: 1.38999 (Simulation time: 0 hr 21 min 15 sec) 
Heartbeat CPU 0 instructions: 570000002 cycles: 341558007 heartbeat IPC: 2.01589 cumulative IPC: 1.40176 (Simulation time: 0 hr 21 min 38 sec) 
Heartbeat CPU 0 instructions: 580000000 cycles: 348524594 heartbeat IPC: 1.43542 cumulative IPC: 1.40262 (Simulation time: 0 hr 22 min 2 sec) 
Heartbeat CPU 0 instructions: 590000003 cycles: 355049479 heartbeat IPC: 1.53259 cumulative IPC: 1.40568 (Simulation time: 0 hr 22 min 27 sec) 
Heartbeat CPU 0 instructions: 600000000 cycles: 361723313 heartbeat IPC: 1.49839 cumulative IPC: 1.40786 (Simulation time: 0 hr 22 min 51 sec) 
Heartbeat CPU 0 instructions: 610000001 cycles: 368532666 heartbeat IPC: 1.46857 cumulative IPC: 1.40928 (Simulation time: 0 hr 23 min 16 sec) 
Heartbeat CPU 0 instructions: 620000000 cycles: 375142496 heartbeat IPC: 1.5129 cumulative IPC: 1.41158 (Simulation time: 0 hr 23 min 40 sec) 
Heartbeat CPU 0 instructions: 630000001 cycles: 381852415 heartbeat IPC: 1.49033 cumulative IPC: 1.41332 (Simulation time: 0 hr 24 min 5 sec) 
Heartbeat CPU 0 instructions: 640000000 cycles: 388420587 heartbeat IPC: 1.52249 cumulative IPC: 1.41562 (Simulation time: 0 hr 24 min 29 sec) 
Heartbeat CPU 0 instructions: 650000001 cycles: 395036136 heartbeat IPC: 1.51159 cumulative IPC: 1.41762 (Simulation time: 0 hr 24 min 54 sec) 
Heartbeat CPU 0 instructions: 660000000 cycles: 401692508 heartbeat IPC: 1.50232 cumulative IPC: 1.41936 (Simulation time: 0 hr 25 min 18 sec) 
Heartbeat CPU 0 instructions: 670000000 cycles: 408365246 heartbeat IPC: 1.49864 cumulative IPC: 1.42096 (Simulation time: 0 hr 25 min 42 sec) 
Heartbeat CPU 0 instructions: 680000000 cycles: 414813751 heartbeat IPC: 1.55075 cumulative IPC: 1.42344 (Simulation time: 0 hr 26 min 7 sec) 
Heartbeat CPU 0 instructions: 690000002 cycles: 421415660 heartbeat IPC: 1.51471 cumulative IPC: 1.4252 (Simulation time: 0 hr 26 min 31 sec) 
Heartbeat CPU 0 instructions: 700000000 cycles: 428062614 heartbeat IPC: 1.50445 cumulative IPC: 1.4267 (Simulation time: 0 hr 26 min 55 sec) 
Heartbeat CPU 0 instructions: 710000000 cycles: 434718331 heartbeat IPC: 1.50247 cumulative IPC: 1.42811 (Simulation time: 0 hr 27 min 19 sec) 
Heartbeat CPU 0 instructions: 720000000 cycles: 443919902 heartbeat IPC: 1.08677 cumulative IPC: 1.41954 (Simulation time: 0 hr 27 min 47 sec) 
Heartbeat CPU 0 instructions: 730000001 cycles: 449887526 heartbeat IPC: 1.67571 cumulative IPC: 1.42364 (Simulation time: 0 hr 28 min 10 sec) 
Heartbeat CPU 0 instructions: 740000000 cycles: 455557205 heartbeat IPC: 1.76377 cumulative IPC: 1.42875 (Simulation time: 0 hr 28 min 33 sec) 
Heartbeat CPU 0 instructions: 750000003 cycles: 462799470 heartbeat IPC: 1.38078 cumulative IPC: 1.42784 (Simulation time: 0 hr 28 min 59 sec) 
Heartbeat CPU 0 instructions: 760000000 cycles: 470087476 heartbeat IPC: 1.37212 cumulative IPC: 1.42681 (Simulation time: 0 hr 29 min 24 sec) 
Heartbeat CPU 0 instructions: 770000003 cycles: 477356597 heartbeat IPC: 1.37568 cumulative IPC: 1.42588 (Simulation time: 0 hr 29 min 50 sec) 
Heartbeat CPU 0 instructions: 780000000 cycles: 484617011 heartbeat IPC: 1.37733 cumulative IPC: 1.42501 (Simulation time: 0 hr 30 min 16 sec) 
Heartbeat CPU 0 instructions: 790000003 cycles: 491839287 heartbeat IPC: 1.38461 cumulative IPC: 1.42431 (Simulation time: 0 hr 30 min 42 sec) 
Heartbeat CPU 0 instructions: 800000000 cycles: 499076809 heartbeat IPC: 1.38169 cumulative IPC: 1.42358 (Simulation time: 0 hr 31 min 8 sec) 
Heartbeat CPU 0 instructions: 810000000 cycles: 506316617 heartbeat IPC: 1.38125 cumulative IPC: 1.42286 (Simulation time: 0 hr 31 min 34 sec) 
Heartbeat CPU 0 instructions: 820000000 cycles: 516639334 heartbeat IPC: 0.968737 cumulative IPC: 1.41219 (Simulation time: 0 hr 32 min 4 sec) 
Heartbeat CPU 0 instructions: 830000002 cycles: 521571280 heartbeat IPC: 2.0276 cumulative IPC: 1.41902 (Simulation time: 0 hr 32 min 27 sec) 
Heartbeat CPU 0 instructions: 840000000 cycles: 527611058 heartbeat IPC: 1.65569 cumulative IPC: 1.4222 (Simulation time: 0 hr 32 min 51 sec) 
Heartbeat CPU 0 instructions: 850000003 cycles: 534815196 heartbeat IPC: 1.38809 cumulative IPC: 1.42166 (Simulation time: 0 hr 33 min 17 sec) 
Heartbeat CPU 0 instructions: 860000000 cycles: 542113262 heartbeat IPC: 1.37023 cumulative IPC: 1.42085 (Simulation time: 0 hr 33 min 43 sec) 
Heartbeat CPU 0 instructions: 870000001 cycles: 549370412 heartbeat IPC: 1.37795 cumulative IPC: 1.42019 (Simulation time: 0 hr 34 min 9 sec) 
Heartbeat CPU 0 instructions: 880000000 cycles: 556621293 heartbeat IPC: 1.37914 cumulative IPC: 1.41957 (Simulation time: 0 hr 34 min 35 sec) 
Heartbeat CPU 0 instructions: 890000001 cycles: 563857035 heartbeat IPC: 1.38203 cumulative IPC: 1.41901 (Simulation time: 0 hr 35 min 1 sec) 
Heartbeat CPU 0 instructions: 900000000 cycles: 571085980 heartbeat IPC: 1.38333 cumulative IPC: 1.41849 (Simulation time: 0 hr 35 min 27 sec) 
Heartbeat CPU 0 instructions: 910000002 cycles: 578325059 heartbeat IPC: 1.38139 cumulative IPC: 1.41795 (Simulation time: 0 hr 35 min 53 sec) 
Heartbeat CPU 0 instructions: 920000000 cycles: 588066141 heartbeat IPC: 1.02658 cumulative IPC: 1.41048 (Simulation time: 0 hr 36 min 21 sec) 
Heartbeat CPU 0 instructions: 930000000 cycles: 592817626 heartbeat IPC: 2.10461 cumulative IPC: 1.41689 (Simulation time: 0 hr 36 min 45 sec) 
Heartbeat CPU 0 instructions: 940000000 cycles: 599734407 heartbeat IPC: 1.44576 cumulative IPC: 1.41727 (Simulation time: 0 hr 37 min 8 sec) 
Heartbeat CPU 0 instructions: 950000000 cycles: 607113165 heartbeat IPC: 1.35524 cumulative IPC: 1.4164 (Simulation time: 0 hr 37 min 32 sec) 
Heartbeat CPU 0 instructions: 960000000 cycles: 614463886 heartbeat IPC: 1.36041 cumulative IPC: 1.41564 (Simulation time: 0 hr 37 min 56 sec) 
Heartbeat CPU 0 instructions: 970000000 cycles: 621773281 heartbeat IPC: 1.3681 cumulative IPC: 1.415 (Simulation time: 0 hr 38 min 20 sec) 
Heartbeat CPU 0 instructions: 980000000 cycles: 629105021 heartbeat IPC: 1.36393 cumulative IPC: 1.41432 (Simulation time: 0 hr 38 min 45 sec) 
Heartbeat CPU 0 instructions: 990000002 cycles: 636463332 heartbeat IPC: 1.35901 cumulative IPC: 1.41359 (Simulation time: 0 hr 39 min 9 sec) 
Heartbeat CPU 0 instructions: 1000000000 cycles: 643802010 heartbeat IPC: 1.36264 cumulative IPC: 1.41293 (Simulation time: 0 hr 39 min 33 sec) 
Heartbeat CPU 0 instructions: 1010000002 cycles: 651143036 heartbeat IPC: 1.36221 cumulative IPC: 1.41228 (Simulation time: 0 hr 39 min 57 sec) 
Heartbeat CPU 0 instructions: 1020000000 cycles: 658512168 heartbeat IPC: 1.35701 cumulative IPC: 1.41158 (Simulation time: 0 hr 40 min 21 sec) 
Heartbeat CPU 0 instructions: 1030000003 cycles: 665918867 heartbeat IPC: 1.35013 cumulative IPC: 1.41081 (Simulation time: 0 hr 40 min 45 sec) 
Heartbeat CPU 0 instructions: 1040000000 cycles: 673349876 heartbeat IPC: 1.34571 cumulative IPC: 1.41 (Simulation time: 0 hr 41 min 10 sec) 
Heartbeat CPU 0 instructions: 1050000003 cycles: 680753232 heartbeat IPC: 1.35074 cumulative IPC: 1.40927 (Simulation time: 0 hr 41 min 34 sec) 
Heartbeat CPU 0 instructions: 1060000000 cycles: 688111482 heartbeat IPC: 1.35902 cumulative IPC: 1.40866 (Simulation time: 0 hr 41 min 58 sec) 
Heartbeat CPU 0 instructions: 1070000001 cycles: 695451932 heartbeat IPC: 1.36231 cumulative IPC: 1.40811 (Simulation time: 0 hr 42 min 22 sec) 
Heartbeat CPU 0 instructions: 1080000000 cycles: 702841151 heartbeat IPC: 1.35332 cumulative IPC: 1.40746 (Simulation time: 0 hr 42 min 46 sec) 
Heartbeat CPU 0 instructions: 1090000002 cycles: 710228287 heartbeat IPC: 1.3537 cumulative IPC: 1.40684 (Simulation time: 0 hr 43 min 11 sec) 
Heartbeat CPU 0 instructions: 1100000000 cycles: 717600857 heartbeat IPC: 1.35638 cumulative IPC: 1.40626 (Simulation time: 0 hr 43 min 35 sec) 
Heartbeat CPU 0 instructions: 1110000002 cycles: 724974692 heartbeat IPC: 1.35615 cumulative IPC: 1.40568 (Simulation time: 0 hr 43 min 58 sec) 
Heartbeat CPU 0 instructions: 1120000000 cycles: 732367897 heartbeat IPC: 1.35259 cumulative IPC: 1.40509 (Simulation time: 0 hr 44 min 21 sec) 
Heartbeat CPU 0 instructions: 1130000001 cycles: 739814493 heartbeat IPC: 1.3429 cumulative IPC: 1.40439 (Simulation time: 0 hr 44 min 44 sec) 
Heartbeat CPU 0 instructions: 1140000000 cycles: 747237745 heartbeat IPC: 1.34712 cumulative IPC: 1.40375 (Simulation time: 0 hr 45 min 7 sec) 
Heartbeat CPU 0 instructions: 1150000002 cycles: 754662342 heartbeat IPC: 1.34687 cumulative IPC: 1.40313 (Simulation time: 0 hr 45 min 29 sec) 
Heartbeat CPU 0 instructions: 1160000000 cycles: 762047706 heartbeat IPC: 1.35403 cumulative IPC: 1.4026 (Simulation time: 0 hr 45 min 52 sec) 
Heartbeat CPU 0 instructions: 1170000000 cycles: 769431434 heartbeat IPC: 1.35433 cumulative IPC: 1.40208 (Simulation time: 0 hr 46 min 15 sec) 
Heartbeat CPU 0 instructions: 1180000000 cycles: 776803492 heartbeat IPC: 1.35647 cumulative IPC: 1.4016 (Simulation time: 0 hr 46 min 37 sec) 
Heartbeat CPU 0 instructions: 1190000000 cycles: 784187704 heartbeat IPC: 1.35424 cumulative IPC: 1.40111 (Simulation time: 0 hr 47 min 0 sec) 
Heartbeat CPU 0 instructions: 1200000000 cycles: 791588370 heartbeat IPC: 1.35123 cumulative IPC: 1.40059 (Simulation time: 0 hr 47 min 22 sec) 
Finished CPU 0 instructions: 1000000000 cycles: 713984964 cumulative IPC: 1.40059 (Simulation time: 0 hr 47 min 22 sec) 

CPU 0 Branch Prediction Accuracy: 97.5951% MPKI: 0.835225

ChampSim completed all CPUs

Region of Interest Statistics

CPU 0 cumulative IPC: 1.40059 instructions: 1000000000 cycles: 713984964
L1D TOTAL     ACCESS:  162380481  HIT:  159543287  MISS:    2837194
L1D LOAD      ACCESS:   89649395  HIT:   87648012  MISS:    2001383
L1D RFO       ACCESS:   72731086  HIT:   71895275  MISS:     835811
L1D PREFETCH  ACCESS:          0  HIT:          0  MISS:          0
L1D WRITEBACK ACCESS:          0  HIT:          0  MISS:          0
L1D PREFETCH  REQUESTED:          0  ISSUED:          0  USEFUL:          0  USELESS:          0
L1I TOTAL     ACCESS:  235425565  HIT:  234066328  MISS:    1359237
L1I LOAD      ACCESS:  235425565  HIT:  234066328  MISS:    1359237
L1I RFO       ACCESS:          0  HIT:          0  MISS:          0
L1I PREFETCH  ACCESS:          0  HIT:          0  MISS:          0
L1I WRITEBACK ACCESS:          0  HIT:          0  MISS:          0
L1I PREFETCH  REQUESTED:          0  ISSUED:          0  USEFUL:          0  USELESS:          0
L2C TOTAL     ACCESS:    7632718  HIT:    6197136  MISS:    1435582
L2C LOAD      ACCESS:    3360589  HIT:    2555136  MISS:     805453
L2C RFO       ACCESS:     833586  HIT:     408771  MISS:     424815
L2C PREFETCH  ACCESS:    2466481  HIT:    2265879  MISS:     200602
L2C WRITEBACK ACCESS:     972062  HIT:     967350  MISS:       4712
L2C PREFETCH  REQUESTED:    8925576  ISSUED:    8836327  USEFUL:     208620  USELESS:       4700
LLC TOTAL     ACCESS:    4904399  HIT:    3499525  MISS:    1404874
LLC LOAD      ACCESS:     751418  HIT:     532133  MISS:     219285
LLC RFO       ACCESS:     424808  HIT:      14514  MISS:     410294
LLC PREFETCH  ACCESS:    3208644  HIT:    2448488  MISS:     760156
LLC WRITEBACK ACCESS:     519529  HIT:     504390  MISS:      15139
LLC PREFETCH  REQUESTED:          0  ISSUED:          0  USEFUL:     488328  USELESS:     314365
Major fault: 0 Minor fault: 9927

DRAM Statistics
 CHANNEL 0
 RQ ROW_BUFFER_HIT:    1031678  ROW_BUFFER_MISS:     357807
 DBUS_CONGESTED:    1129190
 WQ ROW_BUFFER_HIT:     304398  ROW_BUFFER_MISS:     201993  FULL:          0

 AVG_CONGESTED_CYCLE: 13
