Initialize SIGNATURE TABLE
ST_SET: 1
ST_WAY: 256
ST_TAG_BIT: 16
ST_TAG_MASK: ffff

Initialize PATTERN TABLE
PT_SET: 512
PT_WAY: 4
SIG_DELTA_BIT: 7
C_SIG_BIT: 4
C_DELTA_BIT: 4

Initialize PREFETCH FILTER
FILTER_SET: 1024

*** ChampSim Multicore Out-of-Order Simulator ***

Warmup Instructions: 200000000
Simulation Instructions: 1000000000
Number of CPUs: 1
LLC sets: 512
LLC ways: 16
Off-chip DRAM Size: 4096 MB Channels: 1 Width: 64-bit Data Rate: 1600 MT/s

CPU 0 runs /scratch/user/djimenez/champsim-traces/speccpu2017/xz/641.leela_s/641.leela_s-149B.champsimtrace.xz
Heartbeat CPU 0 instructions: 10000000 cycles: 6140045 heartbeat IPC: 1.62865 cumulative IPC: 1.62865 (Simulation time: 0 hr 0 min 13 sec) 
Heartbeat CPU 0 instructions: 20000000 cycles: 13319061 heartbeat IPC: 1.39295 cumulative IPC: 1.50161 (Simulation time: 0 hr 0 min 31 sec) 
Heartbeat CPU 0 instructions: 30000001 cycles: 19960400 heartbeat IPC: 1.50572 cumulative IPC: 1.50298 (Simulation time: 0 hr 0 min 49 sec) 
Heartbeat CPU 0 instructions: 40000000 cycles: 26431009 heartbeat IPC: 1.54545 cumulative IPC: 1.51337 (Simulation time: 0 hr 1 min 5 sec) 
Heartbeat CPU 0 instructions: 50000000 cycles: 32885915 heartbeat IPC: 1.54921 cumulative IPC: 1.52041 (Simulation time: 0 hr 1 min 21 sec) 
Heartbeat CPU 0 instructions: 60000000 cycles: 39315735 heartbeat IPC: 1.55525 cumulative IPC: 1.52611 (Simulation time: 0 hr 1 min 37 sec) 
Heartbeat CPU 0 instructions: 70000002 cycles: 45736286 heartbeat IPC: 1.5575 cumulative IPC: 1.53051 (Simulation time: 0 hr 1 min 53 sec) 
Heartbeat CPU 0 instructions: 80000000 cycles: 52155431 heartbeat IPC: 1.55784 cumulative IPC: 1.53388 (Simulation time: 0 hr 2 min 9 sec) 
Heartbeat CPU 0 instructions: 90000000 cycles: 58558862 heartbeat IPC: 1.56166 cumulative IPC: 1.53692 (Simulation time: 0 hr 2 min 25 sec) 
Heartbeat CPU 0 instructions: 100000000 cycles: 64982916 heartbeat IPC: 1.55665 cumulative IPC: 1.53887 (Simulation time: 0 hr 2 min 41 sec) 
Heartbeat CPU 0 instructions: 110000000 cycles: 71418225 heartbeat IPC: 1.55393 cumulative IPC: 1.54022 (Simulation time: 0 hr 2 min 56 sec) 
Heartbeat CPU 0 instructions: 120000000 cycles: 77841298 heartbeat IPC: 1.55689 cumulative IPC: 1.5416 (Simulation time: 0 hr 3 min 12 sec) 
Heartbeat CPU 0 instructions: 130000001 cycles: 84267429 heartbeat IPC: 1.55615 cumulative IPC: 1.54271 (Simulation time: 0 hr 3 min 28 sec) 
Heartbeat CPU 0 instructions: 140000000 cycles: 90682542 heartbeat IPC: 1.55882 cumulative IPC: 1.54385 (Simulation time: 0 hr 3 min 44 sec) 
Heartbeat CPU 0 instructions: 150000003 cycles: 97078244 heartbeat IPC: 1.56355 cumulative IPC: 1.54515 (Simulation time: 0 hr 4 min 0 sec) 
Heartbeat CPU 0 instructions: 160000000 cycles: 103468533 heartbeat IPC: 1.56487 cumulative IPC: 1.54636 (Simulation time: 0 hr 4 min 16 sec) 
Heartbeat CPU 0 instructions: 170000002 cycles: 109869493 heartbeat IPC: 1.56227 cumulative IPC: 1.54729 (Simulation time: 0 hr 4 min 31 sec) 
Heartbeat CPU 0 instructions: 180000000 cycles: 116275492 heartbeat IPC: 1.56104 cumulative IPC: 1.54805 (Simulation time: 0 hr 4 min 47 sec) 
Heartbeat CPU 0 instructions: 190000000 cycles: 122661726 heartbeat IPC: 1.56587 cumulative IPC: 1.54898 (Simulation time: 0 hr 5 min 3 sec) 
Heartbeat CPU 0 instructions: 200000000 cycles: 129055906 heartbeat IPC: 1.56392 cumulative IPC: 1.54972 (Simulation time: 0 hr 5 min 18 sec) 

Warmup complete CPU 0 instructions: 200000001 cycles: 129055907 (Simulation time: 0 hr 5 min 18 sec) 

Heartbeat CPU 0 instructions: 210000001 cycles: 152340116 heartbeat IPC: 0.429476 cumulative IPC: 0.429476 (Simulation time: 0 hr 5 min 46 sec) 
Heartbeat CPU 0 instructions: 220000000 cycles: 175643424 heartbeat IPC: 0.429124 cumulative IPC: 0.4293 (Simulation time: 0 hr 6 min 14 sec) 
Heartbeat CPU 0 instructions: 230000000 cycles: 198903923 heartbeat IPC: 0.429913 cumulative IPC: 0.429504 (Simulation time: 0 hr 6 min 42 sec) 
Heartbeat CPU 0 instructions: 240000000 cycles: 222073809 heartbeat IPC: 0.431595 cumulative IPC: 0.430025 (Simulation time: 0 hr 7 min 10 sec) 
Heartbeat CPU 0 instructions: 250000000 cycles: 245355201 heartbeat IPC: 0.429528 cumulative IPC: 0.429925 (Simulation time: 0 hr 7 min 38 sec) 
Heartbeat CPU 0 instructions: 260000000 cycles: 268744905 heartbeat IPC: 0.427539 cumulative IPC: 0.429526 (Simulation time: 0 hr 8 min 5 sec) 
Heartbeat CPU 0 instructions: 270000000 cycles: 292015705 heartbeat IPC: 0.429723 cumulative IPC: 0.429554 (Simulation time: 0 hr 8 min 33 sec) 
Heartbeat CPU 0 instructions: 280000000 cycles: 315125306 heartbeat IPC: 0.432721 cumulative IPC: 0.429947 (Simulation time: 0 hr 9 min 1 sec) 
Heartbeat CPU 0 instructions: 290000002 cycles: 338387585 heartbeat IPC: 0.429881 cumulative IPC: 0.42994 (Simulation time: 0 hr 9 min 29 sec) 
Heartbeat CPU 0 instructions: 300000000 cycles: 361657209 heartbeat IPC: 0.429745 cumulative IPC: 0.42992 (Simulation time: 0 hr 9 min 57 sec) 
Heartbeat CPU 0 instructions: 310000002 cycles: 384818850 heartbeat IPC: 0.431748 cumulative IPC: 0.430086 (Simulation time: 0 hr 10 min 25 sec) 
Heartbeat CPU 0 instructions: 320000000 cycles: 407968587 heartbeat IPC: 0.43197 cumulative IPC: 0.430242 (Simulation time: 0 hr 10 min 53 sec) 
Heartbeat CPU 0 instructions: 330000001 cycles: 431093408 heartbeat IPC: 0.432436 cumulative IPC: 0.43041 (Simulation time: 0 hr 11 min 20 sec) 
Heartbeat CPU 0 instructions: 340000000 cycles: 454130981 heartbeat IPC: 0.434073 cumulative IPC: 0.43067 (Simulation time: 0 hr 11 min 48 sec) 
Heartbeat CPU 0 instructions: 350000000 cycles: 477557360 heartbeat IPC: 0.426869 cumulative IPC: 0.430414 (Simulation time: 0 hr 12 min 16 sec) 
Heartbeat CPU 0 instructions: 360000000 cycles: 500922259 heartbeat IPC: 0.427992 cumulative IPC: 0.430262 (Simulation time: 0 hr 12 min 44 sec) 
Heartbeat CPU 0 instructions: 370000001 cycles: 524218135 heartbeat IPC: 0.429261 cumulative IPC: 0.430203 (Simulation time: 0 hr 13 min 12 sec) 
Heartbeat CPU 0 instructions: 380000000 cycles: 547424997 heartbeat IPC: 0.430907 cumulative IPC: 0.430242 (Simulation time: 0 hr 13 min 40 sec) 
Heartbeat CPU 0 instructions: 390000002 cycles: 570571996 heartbeat IPC: 0.432022 cumulative IPC: 0.430335 (Simulation time: 0 hr 14 min 8 sec) 
Heartbeat CPU 0 instructions: 400000000 cycles: 593577779 heartbeat IPC: 0.434673 cumulative IPC: 0.43055 (Simulation time: 0 hr 14 min 35 sec) 
Heartbeat CPU 0 instructions: 410000002 cycles: 616739020 heartbeat IPC: 0.431756 cumulative IPC: 0.430607 (Simulation time: 0 hr 15 min 3 sec) 
Heartbeat CPU 0 instructions: 420000000 cycles: 639769867 heartbeat IPC: 0.4342 cumulative IPC: 0.43077 (Simulation time: 0 hr 15 min 31 sec) 
Heartbeat CPU 0 instructions: 430000000 cycles: 662822326 heartbeat IPC: 0.433793 cumulative IPC: 0.4309 (Simulation time: 0 hr 15 min 59 sec) 
Heartbeat CPU 0 instructions: 440000000 cycles: 685685799 heartbeat IPC: 0.437379 cumulative IPC: 0.431166 (Simulation time: 0 hr 16 min 26 sec) 
Heartbeat CPU 0 instructions: 450000002 cycles: 709494901 heartbeat IPC: 0.420008 cumulative IPC: 0.430708 (Simulation time: 0 hr 16 min 55 sec) 
Heartbeat CPU 0 instructions: 460000000 cycles: 732559733 heartbeat IPC: 0.43356 cumulative IPC: 0.430817 (Simulation time: 0 hr 17 min 23 sec) 
Heartbeat CPU 0 instructions: 470000002 cycles: 755473979 heartbeat IPC: 0.43641 cumulative IPC: 0.431022 (Simulation time: 0 hr 17 min 51 sec) 
Heartbeat CPU 0 instructions: 480000000 cycles: 778453244 heartbeat IPC: 0.435175 cumulative IPC: 0.431169 (Simulation time: 0 hr 18 min 18 sec) 
Heartbeat CPU 0 instructions: 490000000 cycles: 801470060 heartbeat IPC: 0.434465 cumulative IPC: 0.431282 (Simulation time: 0 hr 18 min 46 sec) 
Heartbeat CPU 0 instructions: 500000000 cycles: 824425591 heartbeat IPC: 0.435625 cumulative IPC: 0.431425 (Simulation time: 0 hr 19 min 14 sec) 
Heartbeat CPU 0 instructions: 510000001 cycles: 847515603 heartbeat IPC: 0.433088 cumulative IPC: 0.431479 (Simulation time: 0 hr 19 min 42 sec) 
Heartbeat CPU 0 instructions: 520000000 cycles: 870649110 heartbeat IPC: 0.432273 cumulative IPC: 0.431503 (Simulation time: 0 hr 20 min 10 sec) 
Heartbeat CPU 0 instructions: 530000000 cycles: 893783925 heartbeat IPC: 0.432249 cumulative IPC: 0.431526 (Simulation time: 0 hr 20 min 37 sec) 
Heartbeat CPU 0 instructions: 540000000 cycles: 916922393 heartbeat IPC: 0.432181 cumulative IPC: 0.431545 (Simulation time: 0 hr 21 min 5 sec) 
Heartbeat CPU 0 instructions: 550000001 cycles: 939875025 heartbeat IPC: 0.43568 cumulative IPC: 0.431662 (Simulation time: 0 hr 21 min 33 sec) 
Heartbeat CPU 0 instructions: 560000000 cycles: 962859868 heartbeat IPC: 0.435069 cumulative IPC: 0.431756 (Simulation time: 0 hr 22 min 1 sec) 
Heartbeat CPU 0 instructions: 570000002 cycles: 985887606 heartbeat IPC: 0.434259 cumulative IPC: 0.431823 (Simulation time: 0 hr 22 min 28 sec) 
Heartbeat CPU 0 instructions: 580000000 cycles: 1008900775 heartbeat IPC: 0.434534 cumulative IPC: 0.431894 (Simulation time: 0 hr 22 min 56 sec) 
Heartbeat CPU 0 instructions: 590000000 cycles: 1031985733 heartbeat IPC: 0.433183 cumulative IPC: 0.431927 (Simulation time: 0 hr 23 min 24 sec) 
Heartbeat CPU 0 instructions: 600000000 cycles: 1054911653 heartbeat IPC: 0.436188 cumulative IPC: 0.432033 (Simulation time: 0 hr 23 min 52 sec) 
Heartbeat CPU 0 instructions: 610000003 cycles: 1077794092 heartbeat IPC: 0.437016 cumulative IPC: 0.432153 (Simulation time: 0 hr 24 min 20 sec) 
Heartbeat CPU 0 instructions: 620000000 cycles: 1100545847 heartbeat IPC: 0.439526 cumulative IPC: 0.432326 (Simulation time: 0 hr 24 min 47 sec) 
Heartbeat CPU 0 instructions: 630000001 cycles: 1123175325 heartbeat IPC: 0.441902 cumulative IPC: 0.432544 (Simulation time: 0 hr 25 min 15 sec) 
Heartbeat CPU 0 instructions: 640000000 cycles: 1146086824 heartbeat IPC: 0.436462 cumulative IPC: 0.432632 (Simulation time: 0 hr 25 min 43 sec) 
Heartbeat CPU 0 instructions: 650000000 cycles: 1168950772 heartbeat IPC: 0.43737 cumulative IPC: 0.432736 (Simulation time: 0 hr 26 min 11 sec) 
Heartbeat CPU 0 instructions: 660000000 cycles: 1191701515 heartbeat IPC: 0.439546 cumulative IPC: 0.432882 (Simulation time: 0 hr 26 min 38 sec) 
Heartbeat CPU 0 instructions: 670000000 cycles: 1214413100 heartbeat IPC: 0.440304 cumulative IPC: 0.433037 (Simulation time: 0 hr 27 min 6 sec) 
Heartbeat CPU 0 instructions: 680000000 cycles: 1237115453 heartbeat IPC: 0.440483 cumulative IPC: 0.43319 (Simulation time: 0 hr 27 min 33 sec) 
Heartbeat CPU 0 instructions: 690000000 cycles: 1259771106 heartbeat IPC: 0.441391 cumulative IPC: 0.433354 (Simulation time: 0 hr 28 min 1 sec) 
Heartbeat CPU 0 instructions: 700000000 cycles: 1282412434 heartbeat IPC: 0.44167 cumulative IPC: 0.433517 (Simulation time: 0 hr 28 min 29 sec) 
Heartbeat CPU 0 instructions: 710000000 cycles: 1304949967 heartbeat IPC: 0.443704 cumulative IPC: 0.433713 (Simulation time: 0 hr 28 min 57 sec) 
Heartbeat CPU 0 instructions: 720000000 cycles: 1327508826 heartbeat IPC: 0.443285 cumulative IPC: 0.433893 (Simulation time: 0 hr 29 min 26 sec) 
Heartbeat CPU 0 instructions: 730000003 cycles: 1349952874 heartbeat IPC: 0.445553 cumulative IPC: 0.434107 (Simulation time: 0 hr 29 min 53 sec) 
Heartbeat CPU 0 instructions: 740000000 cycles: 1372358821 heartbeat IPC: 0.44631 cumulative IPC: 0.434327 (Simulation time: 0 hr 30 min 21 sec) 
Heartbeat CPU 0 instructions: 750000000 cycles: 1394795258 heartbeat IPC: 0.445704 cumulative IPC: 0.434529 (Simulation time: 0 hr 30 min 49 sec) 
Heartbeat CPU 0 instructions: 760000000 cycles: 1416998094 heartbeat IPC: 0.450393 cumulative IPC: 0.434802 (Simulation time: 0 hr 31 min 16 sec) 
Heartbeat CPU 0 instructions: 770000001 cycles: 1439331597 heartbeat IPC: 0.447758 cumulative IPC: 0.435023 (Simulation time: 0 hr 31 min 44 sec) 
Heartbeat CPU 0 instructions: 780000000 cycles: 1461617525 heartbeat IPC: 0.448714 cumulative IPC: 0.435252 (Simulation time: 0 hr 32 min 11 sec) 
Heartbeat CPU 0 instructions: 790000000 cycles: 1483916280 heartbeat IPC: 0.448456 cumulative IPC: 0.435469 (Simulation time: 0 hr 32 min 39 sec) 
Heartbeat CPU 0 instructions: 800000000 cycles: 1505997481 heartbeat IPC: 0.452874 cumulative IPC: 0.435748 (Simulation time: 0 hr 33 min 6 sec) 
Heartbeat CPU 0 instructions: 810000000 cycles: 1528560163 heartbeat IPC: 0.44321 cumulative IPC: 0.435869 (Simulation time: 0 hr 33 min 34 sec) 
Heartbeat CPU 0 instructions: 820000000 cycles: 1551354974 heartbeat IPC: 0.438696 cumulative IPC: 0.435914 (Simulation time: 0 hr 34 min 2 sec) 
Heartbeat CPU 0 instructions: 830000000 cycles: 1574422384 heartbeat IPC: 0.433512 cumulative IPC: 0.435876 (Simulation time: 0 hr 34 min 29 sec) 
Heartbeat CPU 0 instructions: 840000000 cycles: 1597587981 heartbeat IPC: 0.431675 cumulative IPC: 0.435809 (Simulation time: 0 hr 34 min 57 sec) 
Heartbeat CPU 0 instructions: 850000000 cycles: 1620750209 heartbeat IPC: 0.431737 cumulative IPC: 0.435746 (Simulation time: 0 hr 35 min 25 sec) 
Heartbeat CPU 0 instructions: 860000000 cycles: 1643811928 heartbeat IPC: 0.433619 cumulative IPC: 0.435714 (Simulation time: 0 hr 35 min 53 sec) 
Heartbeat CPU 0 instructions: 870000003 cycles: 1666893394 heartbeat IPC: 0.433248 cumulative IPC: 0.435677 (Simulation time: 0 hr 36 min 21 sec) 
Heartbeat CPU 0 instructions: 880000000 cycles: 1690561170 heartbeat IPC: 0.422515 cumulative IPC: 0.435477 (Simulation time: 0 hr 36 min 49 sec) 
Heartbeat CPU 0 instructions: 890000000 cycles: 1712844742 heartbeat IPC: 0.448761 cumulative IPC: 0.435664 (Simulation time: 0 hr 37 min 17 sec) 
Heartbeat CPU 0 instructions: 900000000 cycles: 1735572907 heartbeat IPC: 0.439983 cumulative IPC: 0.435725 (Simulation time: 0 hr 37 min 45 sec) 
Heartbeat CPU 0 instructions: 910000001 cycles: 1757730605 heartbeat IPC: 0.45131 cumulative IPC: 0.435937 (Simulation time: 0 hr 38 min 12 sec) 
Heartbeat CPU 0 instructions: 920000000 cycles: 1779919286 heartbeat IPC: 0.45068 cumulative IPC: 0.436135 (Simulation time: 0 hr 38 min 39 sec) 
Heartbeat CPU 0 instructions: 930000001 cycles: 1801974969 heartbeat IPC: 0.453398 cumulative IPC: 0.436363 (Simulation time: 0 hr 39 min 6 sec) 
Heartbeat CPU 0 instructions: 940000000 cycles: 1824339193 heartbeat IPC: 0.447143 cumulative IPC: 0.436505 (Simulation time: 0 hr 39 min 34 sec) 
Heartbeat CPU 0 instructions: 950000001 cycles: 1846982494 heartbeat IPC: 0.441632 cumulative IPC: 0.436573 (Simulation time: 0 hr 40 min 1 sec) 
Heartbeat CPU 0 instructions: 960000000 cycles: 1869134457 heartbeat IPC: 0.451427 cumulative IPC: 0.436762 (Simulation time: 0 hr 40 min 29 sec) 
Heartbeat CPU 0 instructions: 970000001 cycles: 1891769567 heartbeat IPC: 0.441792 cumulative IPC: 0.436826 (Simulation time: 0 hr 40 min 56 sec) 
Heartbeat CPU 0 instructions: 980000000 cycles: 1913855063 heartbeat IPC: 0.452786 cumulative IPC: 0.437024 (Simulation time: 0 hr 41 min 23 sec) 
Heartbeat CPU 0 instructions: 990000000 cycles: 1936643884 heartbeat IPC: 0.438812 cumulative IPC: 0.437046 (Simulation time: 0 hr 41 min 50 sec) 
Heartbeat CPU 0 instructions: 1000000000 cycles: 1958853037 heartbeat IPC: 0.450265 cumulative IPC: 0.437207 (Simulation time: 0 hr 42 min 16 sec) 
Heartbeat CPU 0 instructions: 1010000000 cycles: 1980970819 heartbeat IPC: 0.452125 cumulative IPC: 0.437385 (Simulation time: 0 hr 42 min 41 sec) 
Heartbeat CPU 0 instructions: 1020000000 cycles: 2003655520 heartbeat IPC: 0.440826 cumulative IPC: 0.437427 (Simulation time: 0 hr 43 min 6 sec) 
Heartbeat CPU 0 instructions: 1030000002 cycles: 2026747800 heartbeat IPC: 0.433045 cumulative IPC: 0.437373 (Simulation time: 0 hr 43 min 31 sec) 
Heartbeat CPU 0 instructions: 1040000000 cycles: 2049858173 heartbeat IPC: 0.432706 cumulative IPC: 0.437317 (Simulation time: 0 hr 43 min 56 sec) 
Heartbeat CPU 0 instructions: 1050000000 cycles: 2072996195 heartbeat IPC: 0.432189 cumulative IPC: 0.437256 (Simulation time: 0 hr 44 min 21 sec) 
Heartbeat CPU 0 instructions: 1060000000 cycles: 2096096033 heartbeat IPC: 0.432903 cumulative IPC: 0.437205 (Simulation time: 0 hr 44 min 46 sec) 
Heartbeat CPU 0 instructions: 1070000001 cycles: 2119158074 heartbeat IPC: 0.433613 cumulative IPC: 0.437163 (Simulation time: 0 hr 45 min 12 sec) 
Heartbeat CPU 0 instructions: 1080000000 cycles: 2142197583 heartbeat IPC: 0.434037 cumulative IPC: 0.437128 (Simulation time: 0 hr 45 min 36 sec) 
Heartbeat CPU 0 instructions: 1090000002 cycles: 2165213724 heartbeat IPC: 0.434478 cumulative IPC: 0.437098 (Simulation time: 0 hr 46 min 1 sec) 
Heartbeat CPU 0 instructions: 1100000000 cycles: 2188266461 heartbeat IPC: 0.433788 cumulative IPC: 0.437061 (Simulation time: 0 hr 46 min 26 sec) 
Heartbeat CPU 0 instructions: 1110000001 cycles: 2211333946 heartbeat IPC: 0.433511 cumulative IPC: 0.437021 (Simulation time: 0 hr 46 min 51 sec) 
Heartbeat CPU 0 instructions: 1120000000 cycles: 2234418409 heartbeat IPC: 0.433192 cumulative IPC: 0.436979 (Simulation time: 0 hr 47 min 16 sec) 
Heartbeat CPU 0 instructions: 1130000000 cycles: 2257453463 heartbeat IPC: 0.434121 cumulative IPC: 0.436948 (Simulation time: 0 hr 47 min 41 sec) 
Heartbeat CPU 0 instructions: 1140000000 cycles: 2280412257 heartbeat IPC: 0.435563 cumulative IPC: 0.436934 (Simulation time: 0 hr 48 min 5 sec) 
Heartbeat CPU 0 instructions: 1150000000 cycles: 2303262677 heartbeat IPC: 0.437629 cumulative IPC: 0.436941 (Simulation time: 0 hr 48 min 30 sec) 
Heartbeat CPU 0 instructions: 1160000000 cycles: 2326053089 heartbeat IPC: 0.438781 cumulative IPC: 0.43696 (Simulation time: 0 hr 48 min 55 sec) 
Heartbeat CPU 0 instructions: 1170000002 cycles: 2348736012 heartbeat IPC: 0.44086 cumulative IPC: 0.437 (Simulation time: 0 hr 49 min 20 sec) 
Heartbeat CPU 0 instructions: 1180000000 cycles: 2371498007 heartbeat IPC: 0.439329 cumulative IPC: 0.437024 (Simulation time: 0 hr 49 min 44 sec) 
Heartbeat CPU 0 instructions: 1190000000 cycles: 2393952671 heartbeat IPC: 0.445342 cumulative IPC: 0.437106 (Simulation time: 0 hr 50 min 9 sec) 
Heartbeat CPU 0 instructions: 1200000000 cycles: 2416301474 heartbeat IPC: 0.447451 cumulative IPC: 0.437207 (Simulation time: 0 hr 50 min 34 sec) 
Finished CPU 0 instructions: 1000000000 cycles: 2287245575 cumulative IPC: 0.437207 (Simulation time: 0 hr 50 min 34 sec) 

CPU 0 Branch Prediction Accuracy: 84.9318% MPKI: 16.3246

ChampSim completed all CPUs

Region of Interest Statistics

CPU 0 cumulative IPC: 0.437207 instructions: 1000000000 cycles: 2287245575
L1D TOTAL     ACCESS:  320067638  HIT:  316081839  MISS:    3985799
L1D LOAD      ACCESS:  205022537  HIT:  201772340  MISS:    3250197
L1D RFO       ACCESS:  115045101  HIT:  114309499  MISS:     735602
L1D PREFETCH  ACCESS:          0  HIT:          0  MISS:          0
L1D WRITEBACK ACCESS:          0  HIT:          0  MISS:          0
L1D PREFETCH  REQUESTED:          0  ISSUED:          0  USEFUL:          0  USELESS:          0
L1I TOTAL     ACCESS:  233125188  HIT:  232923551  MISS:     201637
L1I LOAD      ACCESS:  233125188  HIT:  232923551  MISS:     201637
L1I RFO       ACCESS:          0  HIT:          0  MISS:          0
L1I PREFETCH  ACCESS:          0  HIT:          0  MISS:          0
L1I WRITEBACK ACCESS:          0  HIT:          0  MISS:          0
L1I PREFETCH  REQUESTED:          0  ISSUED:          0  USEFUL:          0  USELESS:          0
L2C TOTAL     ACCESS:    8118617  HIT:    8036848  MISS:      81769
L2C LOAD      ACCESS:    3451824  HIT:    3397292  MISS:      54532
L2C RFO       ACCESS:     735601  HIT:     718389  MISS:      17212
L2C PREFETCH  ACCESS:    2587518  HIT:    2577704  MISS:       9814
L2C WRITEBACK ACCESS:    1343674  HIT:    1343463  MISS:        211
L2C PREFETCH  REQUESTED:    4038754  ISSUED:    4038754  USEFUL:      49518  USELESS:        710
LLC TOTAL     ACCESS:     551326  HIT:     490199  MISS:      61127
LLC LOAD      ACCESS:      52659  HIT:      40317  MISS:      12342
LLC RFO       ACCESS:      17210  HIT:        728  MISS:      16482
LLC PREFETCH  ACCESS:     454342  HIT:     425810  MISS:      28532
LLC WRITEBACK ACCESS:      27115  HIT:      23344  MISS:       3771
LLC PREFETCH  REQUESTED:          0  ISSUED:          0  USEFUL:      31246  USELESS:      50381
Major fault: 0 Minor fault: 1491

DRAM Statistics
 CHANNEL 0
 RQ ROW_BUFFER_HIT:      30586  ROW_BUFFER_MISS:      26642
 DBUS_CONGESTED:      29881
 WQ ROW_BUFFER_HIT:       7623  ROW_BUFFER_MISS:      15917  FULL:          0

 AVG_CONGESTED_CYCLE: 14
