Initialize SIGNATURE TABLE
ST_SET: 1
ST_WAY: 256
ST_TAG_BIT: 16
ST_TAG_MASK: ffff

Initialize PATTERN TABLE
PT_SET: 512
PT_WAY: 4
SIG_DELTA_BIT: 7
C_SIG_BIT: 4
C_DELTA_BIT: 4

Initialize PREFETCH FILTER
FILTER_SET: 1024

*** ChampSim Multicore Out-of-Order Simulator ***

Warmup Instructions: 200000000
Simulation Instructions: 1000000000
Number of CPUs: 1
LLC sets: 512
LLC ways: 16
Off-chip DRAM Size: 4096 MB Channels: 1 Width: 64-bit Data Rate: 1600 MT/s

CPU 0 runs /scratch/user/djimenez/champsim-traces/speccpu2017/xz/641.leela_s/641.leela_s-862B.champsimtrace.xz
Heartbeat CPU 0 instructions: 10000000 cycles: 6412061 heartbeat IPC: 1.55956 cumulative IPC: 1.55956 (Simulation time: 0 hr 0 min 14 sec) 
Heartbeat CPU 0 instructions: 20000000 cycles: 12821792 heartbeat IPC: 1.56013 cumulative IPC: 1.55984 (Simulation time: 0 hr 0 min 28 sec) 
Heartbeat CPU 0 instructions: 30000000 cycles: 19224151 heartbeat IPC: 1.56192 cumulative IPC: 1.56054 (Simulation time: 0 hr 0 min 42 sec) 
Heartbeat CPU 0 instructions: 40000000 cycles: 25607298 heartbeat IPC: 1.56663 cumulative IPC: 1.56205 (Simulation time: 0 hr 0 min 56 sec) 
Heartbeat CPU 0 instructions: 50000001 cycles: 31981409 heartbeat IPC: 1.56885 cumulative IPC: 1.56341 (Simulation time: 0 hr 1 min 10 sec) 
Heartbeat CPU 0 instructions: 60000000 cycles: 38379294 heartbeat IPC: 1.56302 cumulative IPC: 1.56334 (Simulation time: 0 hr 1 min 24 sec) 
Heartbeat CPU 0 instructions: 70000000 cycles: 44805463 heartbeat IPC: 1.55614 cumulative IPC: 1.56231 (Simulation time: 0 hr 1 min 38 sec) 
Heartbeat CPU 0 instructions: 80000000 cycles: 51191550 heartbeat IPC: 1.5659 cumulative IPC: 1.56276 (Simulation time: 0 hr 1 min 52 sec) 
Heartbeat CPU 0 instructions: 90000000 cycles: 57600200 heartbeat IPC: 1.56039 cumulative IPC: 1.56249 (Simulation time: 0 hr 2 min 6 sec) 
Heartbeat CPU 0 instructions: 100000000 cycles: 63982987 heartbeat IPC: 1.56671 cumulative IPC: 1.56292 (Simulation time: 0 hr 2 min 20 sec) 
Heartbeat CPU 0 instructions: 110000001 cycles: 70327810 heartbeat IPC: 1.57609 cumulative IPC: 1.5641 (Simulation time: 0 hr 2 min 34 sec) 
Heartbeat CPU 0 instructions: 120000000 cycles: 76659221 heartbeat IPC: 1.57943 cumulative IPC: 1.56537 (Simulation time: 0 hr 2 min 48 sec) 
Heartbeat CPU 0 instructions: 130000001 cycles: 83055634 heartbeat IPC: 1.56338 cumulative IPC: 1.56522 (Simulation time: 0 hr 3 min 1 sec) 
Heartbeat CPU 0 instructions: 140000000 cycles: 89440927 heartbeat IPC: 1.5661 cumulative IPC: 1.56528 (Simulation time: 0 hr 3 min 15 sec) 
Heartbeat CPU 0 instructions: 150000001 cycles: 95825237 heartbeat IPC: 1.56634 cumulative IPC: 1.56535 (Simulation time: 0 hr 3 min 29 sec) 
Heartbeat CPU 0 instructions: 160000000 cycles: 102220183 heartbeat IPC: 1.56373 cumulative IPC: 1.56525 (Simulation time: 0 hr 3 min 43 sec) 
Heartbeat CPU 0 instructions: 170000001 cycles: 108614139 heartbeat IPC: 1.56398 cumulative IPC: 1.56517 (Simulation time: 0 hr 3 min 57 sec) 
Heartbeat CPU 0 instructions: 180000000 cycles: 114991605 heartbeat IPC: 1.56802 cumulative IPC: 1.56533 (Simulation time: 0 hr 4 min 11 sec) 
Heartbeat CPU 0 instructions: 190000001 cycles: 121399653 heartbeat IPC: 1.56054 cumulative IPC: 1.56508 (Simulation time: 0 hr 4 min 25 sec) 
Heartbeat CPU 0 instructions: 200000000 cycles: 127777280 heartbeat IPC: 1.56798 cumulative IPC: 1.56522 (Simulation time: 0 hr 4 min 39 sec) 

Warmup complete CPU 0 instructions: 200000004 cycles: 127777281 (Simulation time: 0 hr 4 min 39 sec) 

Heartbeat CPU 0 instructions: 210000000 cycles: 151158936 heartbeat IPC: 0.427686 cumulative IPC: 0.427686 (Simulation time: 0 hr 5 min 4 sec) 
Heartbeat CPU 0 instructions: 220000000 cycles: 174557845 heartbeat IPC: 0.42737 cumulative IPC: 0.427528 (Simulation time: 0 hr 5 min 29 sec) 
Heartbeat CPU 0 instructions: 230000002 cycles: 197894901 heartbeat IPC: 0.428503 cumulative IPC: 0.427852 (Simulation time: 0 hr 5 min 54 sec) 
Heartbeat CPU 0 instructions: 240000000 cycles: 221180643 heartbeat IPC: 0.429447 cumulative IPC: 0.42825 (Simulation time: 0 hr 6 min 20 sec) 
Heartbeat CPU 0 instructions: 250000000 cycles: 244696524 heartbeat IPC: 0.425245 cumulative IPC: 0.427646 (Simulation time: 0 hr 6 min 45 sec) 
Heartbeat CPU 0 instructions: 260000000 cycles: 267962209 heartbeat IPC: 0.429818 cumulative IPC: 0.428006 (Simulation time: 0 hr 7 min 10 sec) 
Heartbeat CPU 0 instructions: 270000001 cycles: 291221330 heartbeat IPC: 0.429939 cumulative IPC: 0.428281 (Simulation time: 0 hr 7 min 35 sec) 
Heartbeat CPU 0 instructions: 280000000 cycles: 314529842 heartbeat IPC: 0.429028 cumulative IPC: 0.428374 (Simulation time: 0 hr 8 min 0 sec) 
Heartbeat CPU 0 instructions: 290000001 cycles: 337805976 heartbeat IPC: 0.429625 cumulative IPC: 0.428513 (Simulation time: 0 hr 8 min 25 sec) 
Heartbeat CPU 0 instructions: 300000000 cycles: 361153997 heartbeat IPC: 0.428302 cumulative IPC: 0.428492 (Simulation time: 0 hr 8 min 50 sec) 
Heartbeat CPU 0 instructions: 310000000 cycles: 384339727 heartbeat IPC: 0.4313 cumulative IPC: 0.428746 (Simulation time: 0 hr 9 min 15 sec) 
Heartbeat CPU 0 instructions: 320000000 cycles: 407644378 heartbeat IPC: 0.429099 cumulative IPC: 0.428775 (Simulation time: 0 hr 9 min 40 sec) 
Heartbeat CPU 0 instructions: 330000002 cycles: 430909619 heartbeat IPC: 0.429826 cumulative IPC: 0.428856 (Simulation time: 0 hr 10 min 5 sec) 
Heartbeat CPU 0 instructions: 340000000 cycles: 454125856 heartbeat IPC: 0.430733 cumulative IPC: 0.428989 (Simulation time: 0 hr 10 min 30 sec) 
Heartbeat CPU 0 instructions: 350000000 cycles: 477452433 heartbeat IPC: 0.428696 cumulative IPC: 0.42897 (Simulation time: 0 hr 10 min 56 sec) 
Heartbeat CPU 0 instructions: 360000000 cycles: 500723471 heartbeat IPC: 0.429719 cumulative IPC: 0.429016 (Simulation time: 0 hr 11 min 21 sec) 
Heartbeat CPU 0 instructions: 370000003 cycles: 524022843 heartbeat IPC: 0.429196 cumulative IPC: 0.429027 (Simulation time: 0 hr 11 min 46 sec) 
Heartbeat CPU 0 instructions: 380000000 cycles: 547405764 heartbeat IPC: 0.427662 cumulative IPC: 0.428951 (Simulation time: 0 hr 12 min 11 sec) 
Heartbeat CPU 0 instructions: 390000001 cycles: 570745551 heartbeat IPC: 0.428453 cumulative IPC: 0.428925 (Simulation time: 0 hr 12 min 36 sec) 
Heartbeat CPU 0 instructions: 400000000 cycles: 593992743 heartbeat IPC: 0.430159 cumulative IPC: 0.428986 (Simulation time: 0 hr 13 min 1 sec) 
Heartbeat CPU 0 instructions: 410000001 cycles: 617286995 heartbeat IPC: 0.429291 cumulative IPC: 0.429001 (Simulation time: 0 hr 13 min 26 sec) 
Heartbeat CPU 0 instructions: 420000000 cycles: 640759971 heartbeat IPC: 0.426022 cumulative IPC: 0.428864 (Simulation time: 0 hr 13 min 51 sec) 
Heartbeat CPU 0 instructions: 430000000 cycles: 664190825 heartbeat IPC: 0.426788 cumulative IPC: 0.428774 (Simulation time: 0 hr 14 min 16 sec) 
Heartbeat CPU 0 instructions: 440000000 cycles: 687605901 heartbeat IPC: 0.427075 cumulative IPC: 0.428703 (Simulation time: 0 hr 14 min 41 sec) 
Heartbeat CPU 0 instructions: 450000000 cycles: 710773559 heartbeat IPC: 0.431636 cumulative IPC: 0.428819 (Simulation time: 0 hr 15 min 6 sec) 
Heartbeat CPU 0 instructions: 460000000 cycles: 733987770 heartbeat IPC: 0.430771 cumulative IPC: 0.428894 (Simulation time: 0 hr 15 min 31 sec) 
Heartbeat CPU 0 instructions: 470000000 cycles: 761624013 heartbeat IPC: 0.361844 cumulative IPC: 0.42597 (Simulation time: 0 hr 16 min 1 sec) 
Heartbeat CPU 0 instructions: 480000000 cycles: 784867778 heartbeat IPC: 0.430223 cumulative IPC: 0.426121 (Simulation time: 0 hr 16 min 26 sec) 
Heartbeat CPU 0 instructions: 490000000 cycles: 808131173 heartbeat IPC: 0.42986 cumulative IPC: 0.426249 (Simulation time: 0 hr 16 min 51 sec) 
Heartbeat CPU 0 instructions: 500000000 cycles: 831440504 heartbeat IPC: 0.429013 cumulative IPC: 0.42634 (Simulation time: 0 hr 17 min 16 sec) 
Heartbeat CPU 0 instructions: 510000003 cycles: 854742327 heartbeat IPC: 0.429151 cumulative IPC: 0.42643 (Simulation time: 0 hr 17 min 41 sec) 
Heartbeat CPU 0 instructions: 520000000 cycles: 878010494 heartbeat IPC: 0.429772 cumulative IPC: 0.426534 (Simulation time: 0 hr 18 min 6 sec) 
Heartbeat CPU 0 instructions: 530000001 cycles: 901322079 heartbeat IPC: 0.428971 cumulative IPC: 0.426607 (Simulation time: 0 hr 18 min 31 sec) 
Heartbeat CPU 0 instructions: 540000000 cycles: 924517619 heartbeat IPC: 0.431117 cumulative IPC: 0.426739 (Simulation time: 0 hr 18 min 56 sec) 
Heartbeat CPU 0 instructions: 550000000 cycles: 947799285 heartbeat IPC: 0.429523 cumulative IPC: 0.426818 (Simulation time: 0 hr 19 min 22 sec) 
Heartbeat CPU 0 instructions: 560000000 cycles: 970960368 heartbeat IPC: 0.431759 cumulative IPC: 0.426954 (Simulation time: 0 hr 19 min 47 sec) 
Heartbeat CPU 0 instructions: 570000001 cycles: 994300202 heartbeat IPC: 0.428452 cumulative IPC: 0.426994 (Simulation time: 0 hr 20 min 12 sec) 
Heartbeat CPU 0 instructions: 580000000 cycles: 1017550554 heartbeat IPC: 0.430101 cumulative IPC: 0.427075 (Simulation time: 0 hr 20 min 37 sec) 
Heartbeat CPU 0 instructions: 590000000 cycles: 1040836297 heartbeat IPC: 0.429447 cumulative IPC: 0.427136 (Simulation time: 0 hr 21 min 2 sec) 
Heartbeat CPU 0 instructions: 600000000 cycles: 1064082842 heartbeat IPC: 0.430171 cumulative IPC: 0.427211 (Simulation time: 0 hr 21 min 27 sec) 
Heartbeat CPU 0 instructions: 610000001 cycles: 1087212152 heartbeat IPC: 0.432352 cumulative IPC: 0.427335 (Simulation time: 0 hr 21 min 52 sec) 
Heartbeat CPU 0 instructions: 620000000 cycles: 1110495438 heartbeat IPC: 0.429493 cumulative IPC: 0.427386 (Simulation time: 0 hr 22 min 17 sec) 
Heartbeat CPU 0 instructions: 630000002 cycles: 1133829034 heartbeat IPC: 0.428567 cumulative IPC: 0.427413 (Simulation time: 0 hr 22 min 42 sec) 
Heartbeat CPU 0 instructions: 640000000 cycles: 1157030268 heartbeat IPC: 0.431011 cumulative IPC: 0.427494 (Simulation time: 0 hr 23 min 7 sec) 
Heartbeat CPU 0 instructions: 650000000 cycles: 1180333964 heartbeat IPC: 0.429116 cumulative IPC: 0.42753 (Simulation time: 0 hr 23 min 32 sec) 
Heartbeat CPU 0 instructions: 660000000 cycles: 1203625197 heartbeat IPC: 0.429346 cumulative IPC: 0.42757 (Simulation time: 0 hr 23 min 57 sec) 
Heartbeat CPU 0 instructions: 670000001 cycles: 1226837943 heartbeat IPC: 0.430798 cumulative IPC: 0.427638 (Simulation time: 0 hr 24 min 22 sec) 
Heartbeat CPU 0 instructions: 680000000 cycles: 1250124697 heartbeat IPC: 0.429429 cumulative IPC: 0.427675 (Simulation time: 0 hr 24 min 47 sec) 
Heartbeat CPU 0 instructions: 690000002 cycles: 1273306072 heartbeat IPC: 0.431381 cumulative IPC: 0.42775 (Simulation time: 0 hr 25 min 12 sec) 
Heartbeat CPU 0 instructions: 700000000 cycles: 1296600926 heartbeat IPC: 0.429279 cumulative IPC: 0.427781 (Simulation time: 0 hr 25 min 37 sec) 
Heartbeat CPU 0 instructions: 710000000 cycles: 1319952834 heartbeat IPC: 0.428231 cumulative IPC: 0.427789 (Simulation time: 0 hr 26 min 2 sec) 
Heartbeat CPU 0 instructions: 720000000 cycles: 1343239252 heartbeat IPC: 0.429435 cumulative IPC: 0.427821 (Simulation time: 0 hr 26 min 27 sec) 
Heartbeat CPU 0 instructions: 730000000 cycles: 1366546487 heartbeat IPC: 0.429051 cumulative IPC: 0.427844 (Simulation time: 0 hr 26 min 52 sec) 
Heartbeat CPU 0 instructions: 740000000 cycles: 1389866500 heartbeat IPC: 0.428816 cumulative IPC: 0.427862 (Simulation time: 0 hr 27 min 17 sec) 
Heartbeat CPU 0 instructions: 750000000 cycles: 1413239715 heartbeat IPC: 0.42784 cumulative IPC: 0.427862 (Simulation time: 0 hr 27 min 42 sec) 
Heartbeat CPU 0 instructions: 760000000 cycles: 1436454532 heartbeat IPC: 0.430759 cumulative IPC: 0.427913 (Simulation time: 0 hr 28 min 7 sec) 
Heartbeat CPU 0 instructions: 770000001 cycles: 1459818032 heartbeat IPC: 0.428018 cumulative IPC: 0.427915 (Simulation time: 0 hr 28 min 33 sec) 
Heartbeat CPU 0 instructions: 780000000 cycles: 1483311321 heartbeat IPC: 0.425653 cumulative IPC: 0.427876 (Simulation time: 0 hr 28 min 58 sec) 
Heartbeat CPU 0 instructions: 790000000 cycles: 1506609367 heartbeat IPC: 0.429221 cumulative IPC: 0.427898 (Simulation time: 0 hr 29 min 23 sec) 
Heartbeat CPU 0 instructions: 800000000 cycles: 1529980452 heartbeat IPC: 0.427879 cumulative IPC: 0.427898 (Simulation time: 0 hr 29 min 48 sec) 
Heartbeat CPU 0 instructions: 810000002 cycles: 1553245131 heartbeat IPC: 0.429836 cumulative IPC: 0.42793 (Simulation time: 0 hr 30 min 13 sec) 
Heartbeat CPU 0 instructions: 820000000 cycles: 1576389175 heartbeat IPC: 0.432077 cumulative IPC: 0.427996 (Simulation time: 0 hr 30 min 38 sec) 
Heartbeat CPU 0 instructions: 830000000 cycles: 1599670188 heartbeat IPC: 0.429535 cumulative IPC: 0.42802 (Simulation time: 0 hr 31 min 3 sec) 
Heartbeat CPU 0 instructions: 840000000 cycles: 1622913723 heartbeat IPC: 0.430227 cumulative IPC: 0.428055 (Simulation time: 0 hr 31 min 28 sec) 
Heartbeat CPU 0 instructions: 850000002 cycles: 1646029747 heartbeat IPC: 0.4326 cumulative IPC: 0.428124 (Simulation time: 0 hr 31 min 53 sec) 
Heartbeat CPU 0 instructions: 860000000 cycles: 1669283195 heartbeat IPC: 0.430044 cumulative IPC: 0.428153 (Simulation time: 0 hr 32 min 18 sec) 
Heartbeat CPU 0 instructions: 870000002 cycles: 1692517733 heartbeat IPC: 0.430394 cumulative IPC: 0.428186 (Simulation time: 0 hr 32 min 43 sec) 
Heartbeat CPU 0 instructions: 880000000 cycles: 1715703506 heartbeat IPC: 0.431299 cumulative IPC: 0.428231 (Simulation time: 0 hr 33 min 9 sec) 
Heartbeat CPU 0 instructions: 890000001 cycles: 1738866350 heartbeat IPC: 0.431726 cumulative IPC: 0.428282 (Simulation time: 0 hr 33 min 34 sec) 
Heartbeat CPU 0 instructions: 900000000 cycles: 1762066866 heartbeat IPC: 0.431025 cumulative IPC: 0.428321 (Simulation time: 0 hr 33 min 59 sec) 
Heartbeat CPU 0 instructions: 910000000 cycles: 1785206231 heartbeat IPC: 0.432164 cumulative IPC: 0.428374 (Simulation time: 0 hr 34 min 24 sec) 
Heartbeat CPU 0 instructions: 920000000 cycles: 1808478172 heartbeat IPC: 0.429702 cumulative IPC: 0.428393 (Simulation time: 0 hr 34 min 49 sec) 
Heartbeat CPU 0 instructions: 930000001 cycles: 1832060025 heartbeat IPC: 0.424055 cumulative IPC: 0.428333 (Simulation time: 0 hr 35 min 14 sec) 
Heartbeat CPU 0 instructions: 940000000 cycles: 1855329981 heartbeat IPC: 0.429739 cumulative IPC: 0.428352 (Simulation time: 0 hr 35 min 39 sec) 
Heartbeat CPU 0 instructions: 950000000 cycles: 1878584420 heartbeat IPC: 0.430025 cumulative IPC: 0.428374 (Simulation time: 0 hr 36 min 4 sec) 
Heartbeat CPU 0 instructions: 960000000 cycles: 1901847857 heartbeat IPC: 0.429859 cumulative IPC: 0.428393 (Simulation time: 0 hr 36 min 29 sec) 
Heartbeat CPU 0 instructions: 970000000 cycles: 1925040152 heartbeat IPC: 0.431178 cumulative IPC: 0.428429 (Simulation time: 0 hr 36 min 54 sec) 
Heartbeat CPU 0 instructions: 980000000 cycles: 1948281171 heartbeat IPC: 0.430274 cumulative IPC: 0.428453 (Simulation time: 0 hr 37 min 19 sec) 
Heartbeat CPU 0 instructions: 990000001 cycles: 1971541125 heartbeat IPC: 0.429924 cumulative IPC: 0.428471 (Simulation time: 0 hr 37 min 44 sec) 
Heartbeat CPU 0 instructions: 1000000000 cycles: 1994873894 heartbeat IPC: 0.428582 cumulative IPC: 0.428473 (Simulation time: 0 hr 38 min 10 sec) 
Heartbeat CPU 0 instructions: 1010000002 cycles: 2018323760 heartbeat IPC: 0.426442 cumulative IPC: 0.428448 (Simulation time: 0 hr 38 min 35 sec) 
Heartbeat CPU 0 instructions: 1020000000 cycles: 2041569550 heartbeat IPC: 0.430185 cumulative IPC: 0.428469 (Simulation time: 0 hr 39 min 0 sec) 
Heartbeat CPU 0 instructions: 1030000002 cycles: 2064812648 heartbeat IPC: 0.430235 cumulative IPC: 0.42849 (Simulation time: 0 hr 39 min 25 sec) 
Heartbeat CPU 0 instructions: 1040000000 cycles: 2088104794 heartbeat IPC: 0.429329 cumulative IPC: 0.4285 (Simulation time: 0 hr 39 min 50 sec) 
Heartbeat CPU 0 instructions: 1050000000 cycles: 2111229834 heartbeat IPC: 0.432432 cumulative IPC: 0.428546 (Simulation time: 0 hr 40 min 15 sec) 
Heartbeat CPU 0 instructions: 1060000000 cycles: 2134581246 heartbeat IPC: 0.42824 cumulative IPC: 0.428542 (Simulation time: 0 hr 40 min 40 sec) 
Heartbeat CPU 0 instructions: 1070000000 cycles: 2157991886 heartbeat IPC: 0.427156 cumulative IPC: 0.428526 (Simulation time: 0 hr 41 min 5 sec) 
Heartbeat CPU 0 instructions: 1080000000 cycles: 2181371007 heartbeat IPC: 0.427732 cumulative IPC: 0.428517 (Simulation time: 0 hr 41 min 30 sec) 
Heartbeat CPU 0 instructions: 1090000000 cycles: 2204613425 heartbeat IPC: 0.430248 cumulative IPC: 0.428536 (Simulation time: 0 hr 41 min 55 sec) 
Heartbeat CPU 0 instructions: 1100000000 cycles: 2227864173 heartbeat IPC: 0.430094 cumulative IPC: 0.428554 (Simulation time: 0 hr 42 min 20 sec) 
Heartbeat CPU 0 instructions: 1110000000 cycles: 2251140813 heartbeat IPC: 0.429615 cumulative IPC: 0.428565 (Simulation time: 0 hr 42 min 46 sec) 
Heartbeat CPU 0 instructions: 1120000000 cycles: 2274400632 heartbeat IPC: 0.429926 cumulative IPC: 0.42858 (Simulation time: 0 hr 43 min 11 sec) 
Heartbeat CPU 0 instructions: 1130000002 cycles: 2297631404 heartbeat IPC: 0.430464 cumulative IPC: 0.4286 (Simulation time: 0 hr 43 min 36 sec) 
Heartbeat CPU 0 instructions: 1140000000 cycles: 2320941083 heartbeat IPC: 0.429006 cumulative IPC: 0.428605 (Simulation time: 0 hr 44 min 1 sec) 
Heartbeat CPU 0 instructions: 1150000003 cycles: 2344116455 heartbeat IPC: 0.431493 cumulative IPC: 0.428635 (Simulation time: 0 hr 44 min 26 sec) 
Heartbeat CPU 0 instructions: 1160000000 cycles: 2367438562 heartbeat IPC: 0.428778 cumulative IPC: 0.428636 (Simulation time: 0 hr 44 min 51 sec) 
Heartbeat CPU 0 instructions: 1170000000 cycles: 2390788841 heartbeat IPC: 0.42826 cumulative IPC: 0.428632 (Simulation time: 0 hr 45 min 16 sec) 
Heartbeat CPU 0 instructions: 1180000000 cycles: 2414003715 heartbeat IPC: 0.430758 cumulative IPC: 0.428654 (Simulation time: 0 hr 45 min 41 sec) 
Heartbeat CPU 0 instructions: 1190000002 cycles: 2437205880 heartbeat IPC: 0.430994 cumulative IPC: 0.428677 (Simulation time: 0 hr 46 min 6 sec) 
Heartbeat CPU 0 instructions: 1200000000 cycles: 2460530131 heartbeat IPC: 0.428738 cumulative IPC: 0.428678 (Simulation time: 0 hr 46 min 31 sec) 
Finished CPU 0 instructions: 1000000000 cycles: 2332752860 cumulative IPC: 0.428678 (Simulation time: 0 hr 46 min 31 sec) 

CPU 0 Branch Prediction Accuracy: 84.5137% MPKI: 16.324

ChampSim completed all CPUs

Region of Interest Statistics

CPU 0 cumulative IPC: 0.428678 instructions: 1000000000 cycles: 2332752860
L1D TOTAL     ACCESS:  334034127  HIT:  331248915  MISS:    2785212
L1D LOAD      ACCESS:  218354362  HIT:  215907066  MISS:    2447296
L1D RFO       ACCESS:  115679765  HIT:  115341849  MISS:     337916
L1D PREFETCH  ACCESS:          0  HIT:          0  MISS:          0
L1D WRITEBACK ACCESS:          0  HIT:          0  MISS:          0
L1D PREFETCH  REQUESTED:          0  ISSUED:          0  USEFUL:          0  USELESS:          0
L1I TOTAL     ACCESS:  228245445  HIT:  228184003  MISS:      61442
L1I LOAD      ACCESS:  228245445  HIT:  228184003  MISS:      61442
L1I RFO       ACCESS:          0  HIT:          0  MISS:          0
L1I PREFETCH  ACCESS:          0  HIT:          0  MISS:          0
L1I WRITEBACK ACCESS:          0  HIT:          0  MISS:          0
L1I PREFETCH  REQUESTED:          0  ISSUED:          0  USEFUL:          0  USELESS:          0
L2C TOTAL     ACCESS:    5613704  HIT:    5467052  MISS:     146652
L2C LOAD      ACCESS:    2508726  HIT:    2429240  MISS:      79486
L2C RFO       ACCESS:     337914  HIT:     296363  MISS:      41551
L2C PREFETCH  ACCESS:    2193114  HIT:    2167705  MISS:      25409
L2C WRITEBACK ACCESS:     573950  HIT:     573744  MISS:        206
L2C PREFETCH  REQUESTED:    3582986  ISSUED:    3582986  USEFUL:      26784  USELESS:        555
LLC TOTAL     ACCESS:     959156  HIT:     846391  MISS:     112765
LLC LOAD      ACCESS:      76130  HIT:      61021  MISS:      15109
LLC RFO       ACCESS:      41551  HIT:        991  MISS:      40560
LLC PREFETCH  ACCESS:     792230  HIT:     737545  MISS:      54685
LLC WRITEBACK ACCESS:      49245  HIT:      46834  MISS:       2411
LLC PREFETCH  REQUESTED:          0  ISSUED:          0  USEFUL:      18979  USELESS:      37267
Major fault: 0 Minor fault: 1889

DRAM Statistics
 CHANNEL 0
 RQ ROW_BUFFER_HIT:      77903  ROW_BUFFER_MISS:      32354
 DBUS_CONGESTED:      72086
 WQ ROW_BUFFER_HIT:      27586  ROW_BUFFER_MISS:      18284  FULL:          0

 AVG_CONGESTED_CYCLE: 14
