Initialize SIGNATURE TABLE
ST_SET: 1
ST_WAY: 256
ST_TAG_BIT: 16
ST_TAG_MASK: ffff

Initialize PATTERN TABLE
PT_SET: 512
PT_WAY: 4
SIG_DELTA_BIT: 7
C_SIG_BIT: 4
C_DELTA_BIT: 4

Initialize PREFETCH FILTER
FILTER_SET: 1024

*** ChampSim Multicore Out-of-Order Simulator ***

Warmup Instructions: 200000000
Simulation Instructions: 1000000000
Number of CPUs: 1
LLC sets: 512
LLC ways: 16
Off-chip DRAM Size: 4096 MB Channels: 1 Width: 64-bit Data Rate: 1600 MT/s

CPU 0 runs /scratch/user/djimenez/champsim-traces/speccpu2017/xz/641.leela_s/641.leela_s-334B.champsimtrace.xz
Heartbeat CPU 0 instructions: 10000001 cycles: 6392472 heartbeat IPC: 1.56434 cumulative IPC: 1.56434 (Simulation time: 0 hr 0 min 14 sec) 
Heartbeat CPU 0 instructions: 20000000 cycles: 12789622 heartbeat IPC: 1.5632 cumulative IPC: 1.56377 (Simulation time: 0 hr 0 min 28 sec) 
Heartbeat CPU 0 instructions: 30000000 cycles: 19158140 heartbeat IPC: 1.57022 cumulative IPC: 1.56591 (Simulation time: 0 hr 0 min 42 sec) 
Heartbeat CPU 0 instructions: 40000000 cycles: 25546609 heartbeat IPC: 1.56532 cumulative IPC: 1.56577 (Simulation time: 0 hr 0 min 55 sec) 
Heartbeat CPU 0 instructions: 50000000 cycles: 31971954 heartbeat IPC: 1.55634 cumulative IPC: 1.56387 (Simulation time: 0 hr 1 min 9 sec) 
Heartbeat CPU 0 instructions: 60000000 cycles: 38341298 heartbeat IPC: 1.57002 cumulative IPC: 1.56489 (Simulation time: 0 hr 1 min 23 sec) 
Heartbeat CPU 0 instructions: 70000000 cycles: 44688081 heartbeat IPC: 1.5756 cumulative IPC: 1.56641 (Simulation time: 0 hr 1 min 37 sec) 
Heartbeat CPU 0 instructions: 80000000 cycles: 51045472 heartbeat IPC: 1.57297 cumulative IPC: 1.56723 (Simulation time: 0 hr 1 min 51 sec) 
Heartbeat CPU 0 instructions: 90000003 cycles: 57428891 heartbeat IPC: 1.56656 cumulative IPC: 1.56716 (Simulation time: 0 hr 2 min 5 sec) 
Heartbeat CPU 0 instructions: 100000000 cycles: 63867541 heartbeat IPC: 1.55312 cumulative IPC: 1.56574 (Simulation time: 0 hr 2 min 18 sec) 
Heartbeat CPU 0 instructions: 110000000 cycles: 70320268 heartbeat IPC: 1.54973 cumulative IPC: 1.56427 (Simulation time: 0 hr 2 min 32 sec) 
Heartbeat CPU 0 instructions: 120000000 cycles: 76749741 heartbeat IPC: 1.55534 cumulative IPC: 1.56352 (Simulation time: 0 hr 2 min 46 sec) 
Heartbeat CPU 0 instructions: 130000000 cycles: 83159992 heartbeat IPC: 1.56 cumulative IPC: 1.56325 (Simulation time: 0 hr 3 min 0 sec) 
Heartbeat CPU 0 instructions: 140000000 cycles: 89521368 heartbeat IPC: 1.57199 cumulative IPC: 1.56387 (Simulation time: 0 hr 3 min 14 sec) 
Heartbeat CPU 0 instructions: 150000000 cycles: 95836921 heartbeat IPC: 1.58339 cumulative IPC: 1.56516 (Simulation time: 0 hr 3 min 28 sec) 
Heartbeat CPU 0 instructions: 160000000 cycles: 102168412 heartbeat IPC: 1.57941 cumulative IPC: 1.56604 (Simulation time: 0 hr 3 min 42 sec) 
Heartbeat CPU 0 instructions: 170000003 cycles: 108515163 heartbeat IPC: 1.57561 cumulative IPC: 1.5666 (Simulation time: 0 hr 3 min 56 sec) 
Heartbeat CPU 0 instructions: 180000000 cycles: 114847211 heartbeat IPC: 1.57927 cumulative IPC: 1.5673 (Simulation time: 0 hr 4 min 9 sec) 
Heartbeat CPU 0 instructions: 190000003 cycles: 121174160 heartbeat IPC: 1.58054 cumulative IPC: 1.56799 (Simulation time: 0 hr 4 min 23 sec) 
Heartbeat CPU 0 instructions: 200000000 cycles: 127649237 heartbeat IPC: 1.54438 cumulative IPC: 1.56679 (Simulation time: 0 hr 4 min 38 sec) 

Warmup complete CPU 0 instructions: 200000001 cycles: 127649240 (Simulation time: 0 hr 4 min 38 sec) 

Heartbeat CPU 0 instructions: 210000000 cycles: 152144282 heartbeat IPC: 0.408246 cumulative IPC: 0.408246 (Simulation time: 0 hr 5 min 5 sec) 
Heartbeat CPU 0 instructions: 220000000 cycles: 175102685 heartbeat IPC: 0.43557 cumulative IPC: 0.421466 (Simulation time: 0 hr 5 min 30 sec) 
Heartbeat CPU 0 instructions: 230000001 cycles: 198388841 heartbeat IPC: 0.42944 cumulative IPC: 0.424091 (Simulation time: 0 hr 5 min 55 sec) 
Heartbeat CPU 0 instructions: 240000000 cycles: 221875627 heartbeat IPC: 0.425771 cumulative IPC: 0.42451 (Simulation time: 0 hr 6 min 20 sec) 
Heartbeat CPU 0 instructions: 250000000 cycles: 245146063 heartbeat IPC: 0.42973 cumulative IPC: 0.425543 (Simulation time: 0 hr 6 min 45 sec) 
Heartbeat CPU 0 instructions: 260000000 cycles: 267821699 heartbeat IPC: 0.441002 cumulative IPC: 0.428044 (Simulation time: 0 hr 7 min 11 sec) 
Heartbeat CPU 0 instructions: 270000000 cycles: 290765463 heartbeat IPC: 0.435848 cumulative IPC: 0.429142 (Simulation time: 0 hr 7 min 36 sec) 
Heartbeat CPU 0 instructions: 280000000 cycles: 313627151 heartbeat IPC: 0.437413 cumulative IPC: 0.430159 (Simulation time: 0 hr 8 min 1 sec) 
Heartbeat CPU 0 instructions: 290000001 cycles: 336302297 heartbeat IPC: 0.441012 cumulative IPC: 0.431338 (Simulation time: 0 hr 8 min 26 sec) 
Heartbeat CPU 0 instructions: 300000000 cycles: 358791848 heartbeat IPC: 0.444651 cumulative IPC: 0.432633 (Simulation time: 0 hr 8 min 51 sec) 
Heartbeat CPU 0 instructions: 310000000 cycles: 381539569 heartbeat IPC: 0.439604 cumulative IPC: 0.433258 (Simulation time: 0 hr 9 min 17 sec) 
Heartbeat CPU 0 instructions: 320000000 cycles: 404354517 heartbeat IPC: 0.438309 cumulative IPC: 0.433674 (Simulation time: 0 hr 9 min 42 sec) 
Heartbeat CPU 0 instructions: 330000000 cycles: 427491593 heartbeat IPC: 0.432207 cumulative IPC: 0.433561 (Simulation time: 0 hr 10 min 7 sec) 
Heartbeat CPU 0 instructions: 340000000 cycles: 450228739 heartbeat IPC: 0.439809 cumulative IPC: 0.434002 (Simulation time: 0 hr 10 min 32 sec) 
Heartbeat CPU 0 instructions: 350000000 cycles: 472689801 heartbeat IPC: 0.445215 cumulative IPC: 0.434731 (Simulation time: 0 hr 10 min 57 sec) 
Heartbeat CPU 0 instructions: 360000000 cycles: 495434899 heartbeat IPC: 0.439655 cumulative IPC: 0.435036 (Simulation time: 0 hr 11 min 22 sec) 
Heartbeat CPU 0 instructions: 370000002 cycles: 518134875 heartbeat IPC: 0.440529 cumulative IPC: 0.435355 (Simulation time: 0 hr 11 min 48 sec) 
Heartbeat CPU 0 instructions: 380000000 cycles: 541309641 heartbeat IPC: 0.431504 cumulative IPC: 0.43514 (Simulation time: 0 hr 12 min 13 sec) 
Heartbeat CPU 0 instructions: 390000001 cycles: 564154852 heartbeat IPC: 0.437729 cumulative IPC: 0.435275 (Simulation time: 0 hr 12 min 38 sec) 
Heartbeat CPU 0 instructions: 400000000 cycles: 586932237 heartbeat IPC: 0.439032 cumulative IPC: 0.435461 (Simulation time: 0 hr 13 min 3 sec) 
Heartbeat CPU 0 instructions: 410000000 cycles: 609636579 heartbeat IPC: 0.440444 cumulative IPC: 0.435696 (Simulation time: 0 hr 13 min 28 sec) 
Heartbeat CPU 0 instructions: 420000000 cycles: 632517017 heartbeat IPC: 0.437055 cumulative IPC: 0.435758 (Simulation time: 0 hr 13 min 54 sec) 
Heartbeat CPU 0 instructions: 430000001 cycles: 655142602 heartbeat IPC: 0.441978 cumulative IPC: 0.436024 (Simulation time: 0 hr 14 min 19 sec) 
Heartbeat CPU 0 instructions: 440000000 cycles: 680360134 heartbeat IPC: 0.396549 cumulative IPC: 0.434223 (Simulation time: 0 hr 14 min 47 sec) 
Heartbeat CPU 0 instructions: 450000000 cycles: 703502847 heartbeat IPC: 0.432101 cumulative IPC: 0.434138 (Simulation time: 0 hr 15 min 12 sec) 
Heartbeat CPU 0 instructions: 460000000 cycles: 726480282 heartbeat IPC: 0.43521 cumulative IPC: 0.434179 (Simulation time: 0 hr 15 min 37 sec) 
Heartbeat CPU 0 instructions: 470000000 cycles: 749637602 heartbeat IPC: 0.431829 cumulative IPC: 0.434092 (Simulation time: 0 hr 16 min 2 sec) 
Heartbeat CPU 0 instructions: 480000000 cycles: 772457218 heartbeat IPC: 0.438219 cumulative IPC: 0.434238 (Simulation time: 0 hr 16 min 27 sec) 
Heartbeat CPU 0 instructions: 490000001 cycles: 795387693 heartbeat IPC: 0.436101 cumulative IPC: 0.434302 (Simulation time: 0 hr 16 min 53 sec) 
Heartbeat CPU 0 instructions: 500000000 cycles: 818370901 heartbeat IPC: 0.4351 cumulative IPC: 0.434328 (Simulation time: 0 hr 17 min 18 sec) 
Heartbeat CPU 0 instructions: 510000001 cycles: 841228905 heartbeat IPC: 0.437484 cumulative IPC: 0.434429 (Simulation time: 0 hr 17 min 43 sec) 
Heartbeat CPU 0 instructions: 520000000 cycles: 864036337 heartbeat IPC: 0.438454 cumulative IPC: 0.434554 (Simulation time: 0 hr 18 min 8 sec) 
Heartbeat CPU 0 instructions: 530000003 cycles: 886740961 heartbeat IPC: 0.440439 cumulative IPC: 0.43473 (Simulation time: 0 hr 18 min 33 sec) 
Heartbeat CPU 0 instructions: 540000000 cycles: 909520058 heartbeat IPC: 0.438999 cumulative IPC: 0.434854 (Simulation time: 0 hr 18 min 59 sec) 
Heartbeat CPU 0 instructions: 550000000 cycles: 932128645 heartbeat IPC: 0.44231 cumulative IPC: 0.435064 (Simulation time: 0 hr 19 min 24 sec) 
Heartbeat CPU 0 instructions: 560000000 cycles: 954719947 heartbeat IPC: 0.442648 cumulative IPC: 0.435271 (Simulation time: 0 hr 19 min 49 sec) 
Heartbeat CPU 0 instructions: 570000002 cycles: 977346817 heartbeat IPC: 0.441952 cumulative IPC: 0.435449 (Simulation time: 0 hr 20 min 14 sec) 
Heartbeat CPU 0 instructions: 580000000 cycles: 999880254 heartbeat IPC: 0.443785 cumulative IPC: 0.435664 (Simulation time: 0 hr 20 min 40 sec) 
Heartbeat CPU 0 instructions: 590000000 cycles: 1022704830 heartbeat IPC: 0.438124 cumulative IPC: 0.435727 (Simulation time: 0 hr 21 min 5 sec) 
Heartbeat CPU 0 instructions: 600000000 cycles: 1045442888 heartbeat IPC: 0.439791 cumulative IPC: 0.435828 (Simulation time: 0 hr 21 min 30 sec) 
Heartbeat CPU 0 instructions: 610000003 cycles: 1068407206 heartbeat IPC: 0.435458 cumulative IPC: 0.435819 (Simulation time: 0 hr 21 min 56 sec) 
Heartbeat CPU 0 instructions: 620000000 cycles: 1091374456 heartbeat IPC: 0.435402 cumulative IPC: 0.435809 (Simulation time: 0 hr 22 min 21 sec) 
Heartbeat CPU 0 instructions: 630000000 cycles: 1114865753 heartbeat IPC: 0.42569 cumulative IPC: 0.435568 (Simulation time: 0 hr 22 min 46 sec) 
Heartbeat CPU 0 instructions: 640000000 cycles: 1138227763 heartbeat IPC: 0.428045 cumulative IPC: 0.435394 (Simulation time: 0 hr 23 min 11 sec) 
Heartbeat CPU 0 instructions: 650000000 cycles: 1161552851 heartbeat IPC: 0.428723 cumulative IPC: 0.435244 (Simulation time: 0 hr 23 min 36 sec) 
Heartbeat CPU 0 instructions: 660000000 cycles: 1184694872 heartbeat IPC: 0.432114 cumulative IPC: 0.435175 (Simulation time: 0 hr 24 min 1 sec) 
Heartbeat CPU 0 instructions: 670000003 cycles: 1207913410 heartbeat IPC: 0.43069 cumulative IPC: 0.435079 (Simulation time: 0 hr 24 min 26 sec) 
Heartbeat CPU 0 instructions: 680000000 cycles: 1233480550 heartbeat IPC: 0.391127 cumulative IPC: 0.434063 (Simulation time: 0 hr 24 min 54 sec) 
Heartbeat CPU 0 instructions: 690000000 cycles: 1256633052 heartbeat IPC: 0.431919 cumulative IPC: 0.434019 (Simulation time: 0 hr 25 min 19 sec) 
Heartbeat CPU 0 instructions: 700000000 cycles: 1279715333 heartbeat IPC: 0.433233 cumulative IPC: 0.434003 (Simulation time: 0 hr 25 min 44 sec) 
Heartbeat CPU 0 instructions: 710000000 cycles: 1302888561 heartbeat IPC: 0.431532 cumulative IPC: 0.433954 (Simulation time: 0 hr 26 min 9 sec) 
Heartbeat CPU 0 instructions: 720000000 cycles: 1326032447 heartbeat IPC: 0.43208 cumulative IPC: 0.433918 (Simulation time: 0 hr 26 min 34 sec) 
Heartbeat CPU 0 instructions: 730000003 cycles: 1349103434 heartbeat IPC: 0.433445 cumulative IPC: 0.433909 (Simulation time: 0 hr 26 min 59 sec) 
Heartbeat CPU 0 instructions: 740000000 cycles: 1372006328 heartbeat IPC: 0.436626 cumulative IPC: 0.433959 (Simulation time: 0 hr 27 min 25 sec) 
Heartbeat CPU 0 instructions: 750000002 cycles: 1395001107 heartbeat IPC: 0.434881 cumulative IPC: 0.433976 (Simulation time: 0 hr 27 min 50 sec) 
Heartbeat CPU 0 instructions: 760000000 cycles: 1417762210 heartbeat IPC: 0.439346 cumulative IPC: 0.434071 (Simulation time: 0 hr 28 min 15 sec) 
Heartbeat CPU 0 instructions: 770000000 cycles: 1440650653 heartbeat IPC: 0.436902 cumulative IPC: 0.43412 (Simulation time: 0 hr 28 min 40 sec) 
Heartbeat CPU 0 instructions: 780000000 cycles: 1463557332 heartbeat IPC: 0.436554 cumulative IPC: 0.434162 (Simulation time: 0 hr 29 min 5 sec) 
Heartbeat CPU 0 instructions: 790000001 cycles: 1486606708 heartbeat IPC: 0.433851 cumulative IPC: 0.434156 (Simulation time: 0 hr 29 min 30 sec) 
Heartbeat CPU 0 instructions: 800000000 cycles: 1509549328 heartbeat IPC: 0.43587 cumulative IPC: 0.434185 (Simulation time: 0 hr 29 min 55 sec) 
Heartbeat CPU 0 instructions: 810000001 cycles: 1532351714 heartbeat IPC: 0.438551 cumulative IPC: 0.434256 (Simulation time: 0 hr 30 min 20 sec) 
Heartbeat CPU 0 instructions: 820000000 cycles: 1555261855 heartbeat IPC: 0.436488 cumulative IPC: 0.434291 (Simulation time: 0 hr 30 min 46 sec) 
Heartbeat CPU 0 instructions: 830000002 cycles: 1577980887 heartbeat IPC: 0.44016 cumulative IPC: 0.434383 (Simulation time: 0 hr 31 min 11 sec) 
Heartbeat CPU 0 instructions: 840000000 cycles: 1600832209 heartbeat IPC: 0.437611 cumulative IPC: 0.434433 (Simulation time: 0 hr 31 min 36 sec) 
Heartbeat CPU 0 instructions: 850000001 cycles: 1623854236 heartbeat IPC: 0.434367 cumulative IPC: 0.434432 (Simulation time: 0 hr 32 min 1 sec) 
Heartbeat CPU 0 instructions: 860000000 cycles: 1646739922 heartbeat IPC: 0.436954 cumulative IPC: 0.43447 (Simulation time: 0 hr 32 min 26 sec) 
Heartbeat CPU 0 instructions: 870000002 cycles: 1669547068 heartbeat IPC: 0.438459 cumulative IPC: 0.434529 (Simulation time: 0 hr 32 min 51 sec) 
Heartbeat CPU 0 instructions: 880000000 cycles: 1692353558 heartbeat IPC: 0.438472 cumulative IPC: 0.434587 (Simulation time: 0 hr 33 min 16 sec) 
Heartbeat CPU 0 instructions: 890000002 cycles: 1715219026 heartbeat IPC: 0.437341 cumulative IPC: 0.434627 (Simulation time: 0 hr 33 min 41 sec) 
Heartbeat CPU 0 instructions: 900000000 cycles: 1738159864 heartbeat IPC: 0.435904 cumulative IPC: 0.434645 (Simulation time: 0 hr 34 min 7 sec) 
Heartbeat CPU 0 instructions: 910000000 cycles: 1761103996 heartbeat IPC: 0.435841 cumulative IPC: 0.434662 (Simulation time: 0 hr 34 min 32 sec) 
Heartbeat CPU 0 instructions: 920000000 cycles: 1803148050 heartbeat IPC: 0.237846 cumulative IPC: 0.429723 (Simulation time: 0 hr 35 min 18 sec) 
Heartbeat CPU 0 instructions: 930000000 cycles: 1828540254 heartbeat IPC: 0.393822 cumulative IPC: 0.429187 (Simulation time: 0 hr 35 min 44 sec) 
Heartbeat CPU 0 instructions: 940000000 cycles: 1852483857 heartbeat IPC: 0.417648 cumulative IPC: 0.429027 (Simulation time: 0 hr 36 min 9 sec) 
Heartbeat CPU 0 instructions: 950000001 cycles: 1876302308 heartbeat IPC: 0.419843 cumulative IPC: 0.428902 (Simulation time: 0 hr 36 min 35 sec) 
Heartbeat CPU 0 instructions: 960000000 cycles: 1900063700 heartbeat IPC: 0.420851 cumulative IPC: 0.428794 (Simulation time: 0 hr 37 min 0 sec) 
Heartbeat CPU 0 instructions: 970000001 cycles: 1923601539 heartbeat IPC: 0.424848 cumulative IPC: 0.428742 (Simulation time: 0 hr 37 min 25 sec) 
Heartbeat CPU 0 instructions: 980000000 cycles: 1947059930 heartbeat IPC: 0.426287 cumulative IPC: 0.42871 (Simulation time: 0 hr 37 min 50 sec) 
Heartbeat CPU 0 instructions: 990000000 cycles: 1970328010 heartbeat IPC: 0.429773 cumulative IPC: 0.428724 (Simulation time: 0 hr 38 min 15 sec) 
Heartbeat CPU 0 instructions: 1000000000 cycles: 1993717732 heartbeat IPC: 0.427538 cumulative IPC: 0.428709 (Simulation time: 0 hr 38 min 40 sec) 
Heartbeat CPU 0 instructions: 1010000000 cycles: 2017022242 heartbeat IPC: 0.429101 cumulative IPC: 0.428714 (Simulation time: 0 hr 39 min 5 sec) 
Heartbeat CPU 0 instructions: 1020000000 cycles: 2040388555 heartbeat IPC: 0.427967 cumulative IPC: 0.428705 (Simulation time: 0 hr 39 min 30 sec) 
Heartbeat CPU 0 instructions: 1030000002 cycles: 2063190337 heartbeat IPC: 0.438562 cumulative IPC: 0.428821 (Simulation time: 0 hr 39 min 55 sec) 
Heartbeat CPU 0 instructions: 1040000000 cycles: 2085932377 heartbeat IPC: 0.439714 cumulative IPC: 0.428947 (Simulation time: 0 hr 40 min 21 sec) 
Heartbeat CPU 0 instructions: 1050000000 cycles: 2108703790 heartbeat IPC: 0.439147 cumulative IPC: 0.429064 (Simulation time: 0 hr 40 min 46 sec) 
Heartbeat CPU 0 instructions: 1060000000 cycles: 2131553311 heartbeat IPC: 0.437646 cumulative IPC: 0.429162 (Simulation time: 0 hr 41 min 11 sec) 
Heartbeat CPU 0 instructions: 1070000000 cycles: 2153735477 heartbeat IPC: 0.450813 cumulative IPC: 0.429399 (Simulation time: 0 hr 41 min 36 sec) 
Heartbeat CPU 0 instructions: 1080000000 cycles: 2175889161 heartbeat IPC: 0.451392 cumulative IPC: 0.429637 (Simulation time: 0 hr 42 min 2 sec) 
Heartbeat CPU 0 instructions: 1090000001 cycles: 2198782180 heartbeat IPC: 0.436814 cumulative IPC: 0.429716 (Simulation time: 0 hr 42 min 27 sec) 
Heartbeat CPU 0 instructions: 1100000000 cycles: 2221217886 heartbeat IPC: 0.445718 cumulative IPC: 0.429888 (Simulation time: 0 hr 42 min 52 sec) 
Heartbeat CPU 0 instructions: 1110000000 cycles: 2243206870 heartbeat IPC: 0.454773 cumulative IPC: 0.430147 (Simulation time: 0 hr 43 min 18 sec) 
Heartbeat CPU 0 instructions: 1120000000 cycles: 2265427785 heartbeat IPC: 0.450026 cumulative IPC: 0.430353 (Simulation time: 0 hr 43 min 43 sec) 
Heartbeat CPU 0 instructions: 1130000001 cycles: 2287838210 heartbeat IPC: 0.446221 cumulative IPC: 0.430518 (Simulation time: 0 hr 44 min 8 sec) 
Heartbeat CPU 0 instructions: 1140000000 cycles: 2310313411 heartbeat IPC: 0.444935 cumulative IPC: 0.430666 (Simulation time: 0 hr 44 min 33 sec) 
Heartbeat CPU 0 instructions: 1150000001 cycles: 2332324491 heartbeat IPC: 0.454317 cumulative IPC: 0.430902 (Simulation time: 0 hr 44 min 59 sec) 
Heartbeat CPU 0 instructions: 1160000000 cycles: 2354450211 heartbeat IPC: 0.451963 cumulative IPC: 0.431112 (Simulation time: 0 hr 45 min 24 sec) 
Heartbeat CPU 0 instructions: 1170000000 cycles: 2376535724 heartbeat IPC: 0.452785 cumulative IPC: 0.431325 (Simulation time: 0 hr 45 min 49 sec) 
Heartbeat CPU 0 instructions: 1180000000 cycles: 2402044439 heartbeat IPC: 0.392023 cumulative IPC: 0.430884 (Simulation time: 0 hr 46 min 17 sec) 
Heartbeat CPU 0 instructions: 1190000002 cycles: 2425176335 heartbeat IPC: 0.432304 cumulative IPC: 0.430898 (Simulation time: 0 hr 46 min 42 sec) 
Heartbeat CPU 0 instructions: 1200000000 cycles: 2447707106 heartbeat IPC: 0.443837 cumulative IPC: 0.431024 (Simulation time: 0 hr 47 min 7 sec) 
Finished CPU 0 instructions: 1000000001 cycles: 2320057879 cumulative IPC: 0.431024 (Simulation time: 0 hr 47 min 7 sec) 

CPU 0 Branch Prediction Accuracy: 86.3411% MPKI: 15.9116

ChampSim completed all CPUs

Region of Interest Statistics

CPU 0 cumulative IPC: 0.431024 instructions: 1000000001 cycles: 2320057879
L1D TOTAL     ACCESS:  329125110  HIT:  324433646  MISS:    4691464
L1D LOAD      ACCESS:  208211129  HIT:  204957995  MISS:    3253134
L1D RFO       ACCESS:  120913981  HIT:  119475651  MISS:    1438330
L1D PREFETCH  ACCESS:          0  HIT:          0  MISS:          0
L1D WRITEBACK ACCESS:          0  HIT:          0  MISS:          0
L1D PREFETCH  REQUESTED:          0  ISSUED:          0  USEFUL:          0  USELESS:          0
L1I TOTAL     ACCESS:  238993737  HIT:  238627872  MISS:     365865
L1I LOAD      ACCESS:  238993737  HIT:  238627872  MISS:     365865
L1I RFO       ACCESS:          0  HIT:          0  MISS:          0
L1I PREFETCH  ACCESS:          0  HIT:          0  MISS:          0
L1I WRITEBACK ACCESS:          0  HIT:          0  MISS:          0
L1I PREFETCH  REQUESTED:          0  ISSUED:          0  USEFUL:          0  USELESS:          0
L2C TOTAL     ACCESS:    9340997  HIT:    8757065  MISS:     583932
L2C LOAD      ACCESS:    3618973  HIT:    3449937  MISS:     169036
L2C RFO       ACCESS:    1438242  HIT:    1174225  MISS:     264017
L2C PREFETCH  ACCESS:    2229762  HIT:    2079285  MISS:     150477
L2C WRITEBACK ACCESS:    2054020  HIT:    2053618  MISS:        402
L2C PREFETCH  REQUESTED:    5239102  ISSUED:    5239087  USEFUL:     153168  USELESS:       2034
LLC TOTAL     ACCESS:    3018647  HIT:    2414459  MISS:     604188
LLC LOAD      ACCESS:     166934  HIT:     119153  MISS:      47781
LLC RFO       ACCESS:     264017  HIT:       3700  MISS:     260317
LLC PREFETCH  ACCESS:    2289727  HIT:    2000870  MISS:     288857
LLC WRITEBACK ACCESS:     297969  HIT:     290736  MISS:       7233
LLC PREFETCH  REQUESTED:          0  ISSUED:          0  USEFUL:     107391  USELESS:     190217
Major fault: 0 Minor fault: 1774

DRAM Statistics
 CHANNEL 0
 RQ ROW_BUFFER_HIT:     470624  ROW_BUFFER_MISS:     126200
 DBUS_CONGESTED:     461800
 WQ ROW_BUFFER_HIT:     192284  ROW_BUFFER_MISS:      97375  FULL:          0

 AVG_CONGESTED_CYCLE: 13
