Initialize SIGNATURE TABLE
ST_SET: 1
ST_WAY: 256
ST_TAG_BIT: 16
ST_TAG_MASK: ffff

Initialize PATTERN TABLE
PT_SET: 512
PT_WAY: 4
SIG_DELTA_BIT: 7
C_SIG_BIT: 4
C_DELTA_BIT: 4

Initialize PREFETCH FILTER
FILTER_SET: 1024

*** ChampSim Multicore Out-of-Order Simulator ***

Warmup Instructions: 200000000
Simulation Instructions: 1000000000
Number of CPUs: 1
LLC sets: 512
LLC ways: 16
Off-chip DRAM Size: 4096 MB Channels: 1 Width: 64-bit Data Rate: 1600 MT/s

CPU 0 runs /scratch/user/djimenez/champsim-traces/speccpu2017/xz/649.fotonik3d_s/649.fotonik3d_s-10881B.champsimtrace.xz
Heartbeat CPU 0 instructions: 10000001 cycles: 8410580 heartbeat IPC: 1.18898 cumulative IPC: 1.18898 (Simulation time: 0 hr 0 min 31 sec) 
Heartbeat CPU 0 instructions: 20000000 cycles: 16790809 heartbeat IPC: 1.19328 cumulative IPC: 1.19113 (Simulation time: 0 hr 1 min 2 sec) 
Heartbeat CPU 0 instructions: 30000000 cycles: 25164459 heartbeat IPC: 1.19422 cumulative IPC: 1.19216 (Simulation time: 0 hr 1 min 33 sec) 
Heartbeat CPU 0 instructions: 40000000 cycles: 33548555 heartbeat IPC: 1.19273 cumulative IPC: 1.1923 (Simulation time: 0 hr 2 min 4 sec) 
Heartbeat CPU 0 instructions: 50000001 cycles: 41968347 heartbeat IPC: 1.18768 cumulative IPC: 1.19137 (Simulation time: 0 hr 2 min 35 sec) 
Heartbeat CPU 0 instructions: 60000000 cycles: 50354814 heartbeat IPC: 1.1924 cumulative IPC: 1.19154 (Simulation time: 0 hr 3 min 6 sec) 
Heartbeat CPU 0 instructions: 70000003 cycles: 58727133 heartbeat IPC: 1.19441 cumulative IPC: 1.19195 (Simulation time: 0 hr 3 min 37 sec) 
Heartbeat CPU 0 instructions: 80000000 cycles: 67116736 heartbeat IPC: 1.19195 cumulative IPC: 1.19195 (Simulation time: 0 hr 4 min 8 sec) 
Heartbeat CPU 0 instructions: 90000001 cycles: 75523534 heartbeat IPC: 1.18951 cumulative IPC: 1.19168 (Simulation time: 0 hr 4 min 39 sec) 
Heartbeat CPU 0 instructions: 100000000 cycles: 83905024 heartbeat IPC: 1.19311 cumulative IPC: 1.19182 (Simulation time: 0 hr 5 min 10 sec) 
Heartbeat CPU 0 instructions: 110000002 cycles: 92289700 heartbeat IPC: 1.19265 cumulative IPC: 1.1919 (Simulation time: 0 hr 5 min 41 sec) 
Heartbeat CPU 0 instructions: 120000000 cycles: 100683717 heartbeat IPC: 1.19132 cumulative IPC: 1.19185 (Simulation time: 0 hr 6 min 12 sec) 
Heartbeat CPU 0 instructions: 130000001 cycles: 109089031 heartbeat IPC: 1.18972 cumulative IPC: 1.19169 (Simulation time: 0 hr 6 min 43 sec) 
Heartbeat CPU 0 instructions: 140000000 cycles: 117469900 heartbeat IPC: 1.19319 cumulative IPC: 1.19179 (Simulation time: 0 hr 7 min 14 sec) 
Heartbeat CPU 0 instructions: 150000002 cycles: 125842117 heartbeat IPC: 1.19443 cumulative IPC: 1.19197 (Simulation time: 0 hr 7 min 45 sec) 
Heartbeat CPU 0 instructions: 160000000 cycles: 134238794 heartbeat IPC: 1.19095 cumulative IPC: 1.19191 (Simulation time: 0 hr 8 min 16 sec) 
Heartbeat CPU 0 instructions: 170000000 cycles: 142645556 heartbeat IPC: 1.18952 cumulative IPC: 1.19177 (Simulation time: 0 hr 8 min 47 sec) 
Heartbeat CPU 0 instructions: 180000000 cycles: 151022174 heartbeat IPC: 1.1938 cumulative IPC: 1.19188 (Simulation time: 0 hr 9 min 18 sec) 
Heartbeat CPU 0 instructions: 190000001 cycles: 159406623 heartbeat IPC: 1.19268 cumulative IPC: 1.19192 (Simulation time: 0 hr 9 min 49 sec) 
Heartbeat CPU 0 instructions: 200000000 cycles: 167800996 heartbeat IPC: 1.19127 cumulative IPC: 1.19189 (Simulation time: 0 hr 10 min 20 sec) 

Warmup complete CPU 0 instructions: 200000001 cycles: 167801015 (Simulation time: 0 hr 10 min 20 sec) 

Heartbeat CPU 0 instructions: 210000002 cycles: 186287506 heartbeat IPC: 0.540935 cumulative IPC: 0.540936 (Simulation time: 0 hr 11 min 0 sec) 
Heartbeat CPU 0 instructions: 220000000 cycles: 204771107 heartbeat IPC: 0.54102 cumulative IPC: 0.540978 (Simulation time: 0 hr 11 min 39 sec) 
Heartbeat CPU 0 instructions: 230000002 cycles: 223273071 heartbeat IPC: 0.540483 cumulative IPC: 0.540813 (Simulation time: 0 hr 12 min 18 sec) 
Heartbeat CPU 0 instructions: 240000000 cycles: 241772777 heartbeat IPC: 0.540549 cumulative IPC: 0.540747 (Simulation time: 0 hr 12 min 58 sec) 
Heartbeat CPU 0 instructions: 250000001 cycles: 260286525 heartbeat IPC: 0.540139 cumulative IPC: 0.540625 (Simulation time: 0 hr 13 min 37 sec) 
Heartbeat CPU 0 instructions: 260000000 cycles: 278845991 heartbeat IPC: 0.538809 cumulative IPC: 0.540322 (Simulation time: 0 hr 14 min 16 sec) 
Heartbeat CPU 0 instructions: 270000001 cycles: 297333638 heartbeat IPC: 0.540902 cumulative IPC: 0.540404 (Simulation time: 0 hr 14 min 56 sec) 
Heartbeat CPU 0 instructions: 280000000 cycles: 345665832 heartbeat IPC: 0.206901 cumulative IPC: 0.44978 (Simulation time: 0 hr 15 min 50 sec) 
Heartbeat CPU 0 instructions: 290000000 cycles: 402022411 heartbeat IPC: 0.177442 cumulative IPC: 0.384252 (Simulation time: 0 hr 16 min 48 sec) 
Heartbeat CPU 0 instructions: 300000000 cycles: 420422683 heartbeat IPC: 0.54347 cumulative IPC: 0.395849 (Simulation time: 0 hr 17 min 27 sec) 
Heartbeat CPU 0 instructions: 310000002 cycles: 438810267 heartbeat IPC: 0.543845 cumulative IPC: 0.40589 (Simulation time: 0 hr 18 min 7 sec) 
Heartbeat CPU 0 instructions: 320000000 cycles: 457158769 heartbeat IPC: 0.545004 cumulative IPC: 0.414712 (Simulation time: 0 hr 18 min 46 sec) 
Heartbeat CPU 0 instructions: 330000000 cycles: 475516783 heartbeat IPC: 0.544721 cumulative IPC: 0.422468 (Simulation time: 0 hr 19 min 25 sec) 
Heartbeat CPU 0 instructions: 340000000 cycles: 493898491 heartbeat IPC: 0.544019 cumulative IPC: 0.429319 (Simulation time: 0 hr 20 min 5 sec) 
Heartbeat CPU 0 instructions: 350000003 cycles: 512326343 heartbeat IPC: 0.542657 cumulative IPC: 0.435382 (Simulation time: 0 hr 20 min 44 sec) 
Heartbeat CPU 0 instructions: 360000000 cycles: 530769417 heartbeat IPC: 0.542209 cumulative IPC: 0.44081 (Simulation time: 0 hr 21 min 24 sec) 
Heartbeat CPU 0 instructions: 370000000 cycles: 549245209 heartbeat IPC: 0.541249 cumulative IPC: 0.445675 (Simulation time: 0 hr 22 min 3 sec) 
Heartbeat CPU 0 instructions: 380000000 cycles: 567694409 heartbeat IPC: 0.542029 cumulative IPC: 0.45012 (Simulation time: 0 hr 22 min 43 sec) 
Heartbeat CPU 0 instructions: 390000001 cycles: 586074235 heartbeat IPC: 0.544075 cumulative IPC: 0.454249 (Simulation time: 0 hr 23 min 22 sec) 
Heartbeat CPU 0 instructions: 400000000 cycles: 604521335 heartbeat IPC: 0.542091 cumulative IPC: 0.457959 (Simulation time: 0 hr 24 min 1 sec) 
Heartbeat CPU 0 instructions: 410000000 cycles: 622944204 heartbeat IPC: 0.542804 cumulative IPC: 0.461393 (Simulation time: 0 hr 24 min 41 sec) 
Heartbeat CPU 0 instructions: 420000000 cycles: 641349499 heartbeat IPC: 0.543322 cumulative IPC: 0.464578 (Simulation time: 0 hr 25 min 20 sec) 
Heartbeat CPU 0 instructions: 430000003 cycles: 659830980 heartbeat IPC: 0.541082 cumulative IPC: 0.467451 (Simulation time: 0 hr 26 min 0 sec) 
Heartbeat CPU 0 instructions: 440000000 cycles: 678317647 heartbeat IPC: 0.54093 cumulative IPC: 0.470112 (Simulation time: 0 hr 26 min 39 sec) 
Heartbeat CPU 0 instructions: 450000002 cycles: 696753954 heartbeat IPC: 0.542408 cumulative IPC: 0.472632 (Simulation time: 0 hr 27 min 18 sec) 
Heartbeat CPU 0 instructions: 460000000 cycles: 715183212 heartbeat IPC: 0.542615 cumulative IPC: 0.474988 (Simulation time: 0 hr 27 min 58 sec) 
Heartbeat CPU 0 instructions: 470000003 cycles: 733645008 heartbeat IPC: 0.541659 cumulative IPC: 0.477163 (Simulation time: 0 hr 28 min 37 sec) 
Heartbeat CPU 0 instructions: 480000000 cycles: 752048138 heartbeat IPC: 0.543386 cumulative IPC: 0.479249 (Simulation time: 0 hr 29 min 17 sec) 
Heartbeat CPU 0 instructions: 490000002 cycles: 770425179 heartbeat IPC: 0.544157 cumulative IPC: 0.481229 (Simulation time: 0 hr 29 min 56 sec) 
Heartbeat CPU 0 instructions: 500000000 cycles: 788822936 heartbeat IPC: 0.543544 cumulative IPC: 0.483075 (Simulation time: 0 hr 30 min 36 sec) 
Heartbeat CPU 0 instructions: 510000000 cycles: 807216138 heartbeat IPC: 0.543679 cumulative IPC: 0.484818 (Simulation time: 0 hr 31 min 15 sec) 
Heartbeat CPU 0 instructions: 520000000 cycles: 825629006 heartbeat IPC: 0.543098 cumulative IPC: 0.486449 (Simulation time: 0 hr 31 min 55 sec) 
Heartbeat CPU 0 instructions: 530000002 cycles: 844039155 heartbeat IPC: 0.543179 cumulative IPC: 0.487994 (Simulation time: 0 hr 32 min 34 sec) 
Heartbeat CPU 0 instructions: 540000000 cycles: 862427779 heartbeat IPC: 0.543814 cumulative IPC: 0.489471 (Simulation time: 0 hr 33 min 14 sec) 
Heartbeat CPU 0 instructions: 550000000 cycles: 880844023 heartbeat IPC: 0.542999 cumulative IPC: 0.490854 (Simulation time: 0 hr 33 min 53 sec) 
Heartbeat CPU 0 instructions: 560000000 cycles: 899297787 heartbeat IPC: 0.541895 cumulative IPC: 0.492142 (Simulation time: 0 hr 34 min 33 sec) 
Heartbeat CPU 0 instructions: 570000001 cycles: 917747795 heartbeat IPC: 0.542005 cumulative IPC: 0.493368 (Simulation time: 0 hr 35 min 12 sec) 
Heartbeat CPU 0 instructions: 580000000 cycles: 936206850 heartbeat IPC: 0.541739 cumulative IPC: 0.49453 (Simulation time: 0 hr 35 min 52 sec) 
Heartbeat CPU 0 instructions: 590000003 cycles: 954702030 heartbeat IPC: 0.540682 cumulative IPC: 0.495615 (Simulation time: 0 hr 36 min 31 sec) 
Heartbeat CPU 0 instructions: 600000000 cycles: 973072780 heartbeat IPC: 0.544343 cumulative IPC: 0.496727 (Simulation time: 0 hr 37 min 10 sec) 
Heartbeat CPU 0 instructions: 610000000 cycles: 989661678 heartbeat IPC: 0.602813 cumulative IPC: 0.498868 (Simulation time: 0 hr 37 min 49 sec) 
Heartbeat CPU 0 instructions: 620000000 cycles: 1001830802 heartbeat IPC: 0.821752 cumulative IPC: 0.503579 (Simulation time: 0 hr 38 min 26 sec) 
Heartbeat CPU 0 instructions: 630000002 cycles: 1014017024 heartbeat IPC: 0.820599 cumulative IPC: 0.508144 (Simulation time: 0 hr 39 min 3 sec) 
Heartbeat CPU 0 instructions: 640000000 cycles: 1026173973 heartbeat IPC: 0.822575 cumulative IPC: 0.512598 (Simulation time: 0 hr 39 min 40 sec) 
Heartbeat CPU 0 instructions: 650000003 cycles: 1038362144 heartbeat IPC: 0.820468 cumulative IPC: 0.516908 (Simulation time: 0 hr 40 min 17 sec) 
Heartbeat CPU 0 instructions: 660000000 cycles: 1050530976 heartbeat IPC: 0.821771 cumulative IPC: 0.521111 (Simulation time: 0 hr 40 min 54 sec) 
Heartbeat CPU 0 instructions: 670000002 cycles: 1062710845 heartbeat IPC: 0.821027 cumulative IPC: 0.525193 (Simulation time: 0 hr 41 min 31 sec) 
Heartbeat CPU 0 instructions: 680000000 cycles: 1075031662 heartbeat IPC: 0.811634 cumulative IPC: 0.529083 (Simulation time: 0 hr 42 min 8 sec) 
Heartbeat CPU 0 instructions: 690000003 cycles: 1087381841 heartbeat IPC: 0.809705 cumulative IPC: 0.532851 (Simulation time: 0 hr 42 min 43 sec) 
Heartbeat CPU 0 instructions: 700000000 cycles: 1099131129 heartbeat IPC: 0.851115 cumulative IPC: 0.536867 (Simulation time: 0 hr 43 min 18 sec) 
Heartbeat CPU 0 instructions: 710000003 cycles: 1110844451 heartbeat IPC: 0.853729 cumulative IPC: 0.540802 (Simulation time: 0 hr 43 min 52 sec) 
Heartbeat CPU 0 instructions: 720000000 cycles: 1122592232 heartbeat IPC: 0.851224 cumulative IPC: 0.544622 (Simulation time: 0 hr 44 min 26 sec) 
Heartbeat CPU 0 instructions: 730000001 cycles: 1134312256 heartbeat IPC: 0.853241 cumulative IPC: 0.548364 (Simulation time: 0 hr 45 min 1 sec) 
Heartbeat CPU 0 instructions: 740000000 cycles: 1146044009 heartbeat IPC: 0.852387 cumulative IPC: 0.55201 (Simulation time: 0 hr 45 min 35 sec) 
Heartbeat CPU 0 instructions: 750000003 cycles: 1157776084 heartbeat IPC: 0.852364 cumulative IPC: 0.55557 (Simulation time: 0 hr 46 min 10 sec) 
Heartbeat CPU 0 instructions: 760000000 cycles: 1169503092 heartbeat IPC: 0.852732 cumulative IPC: 0.559048 (Simulation time: 0 hr 46 min 44 sec) 
Heartbeat CPU 0 instructions: 770000000 cycles: 1181289388 heartbeat IPC: 0.848443 cumulative IPC: 0.562414 (Simulation time: 0 hr 47 min 19 sec) 
Heartbeat CPU 0 instructions: 780000000 cycles: 1193518345 heartbeat IPC: 0.817731 cumulative IPC: 0.565458 (Simulation time: 0 hr 47 min 56 sec) 
Heartbeat CPU 0 instructions: 790000000 cycles: 1205774654 heartbeat IPC: 0.815906 cumulative IPC: 0.568415 (Simulation time: 0 hr 48 min 33 sec) 
Heartbeat CPU 0 instructions: 800000000 cycles: 1218091100 heartbeat IPC: 0.811923 cumulative IPC: 0.571271 (Simulation time: 0 hr 49 min 10 sec) 
Heartbeat CPU 0 instructions: 810000001 cycles: 1230385561 heartbeat IPC: 0.813375 cumulative IPC: 0.574072 (Simulation time: 0 hr 49 min 47 sec) 
Heartbeat CPU 0 instructions: 820000000 cycles: 1242653518 heartbeat IPC: 0.815132 cumulative IPC: 0.576823 (Simulation time: 0 hr 50 min 24 sec) 
Heartbeat CPU 0 instructions: 830000003 cycles: 1254918878 heartbeat IPC: 0.815304 cumulative IPC: 0.579514 (Simulation time: 0 hr 51 min 1 sec) 
Heartbeat CPU 0 instructions: 840000000 cycles: 1267178422 heartbeat IPC: 0.815691 cumulative IPC: 0.582148 (Simulation time: 0 hr 51 min 38 sec) 
Heartbeat CPU 0 instructions: 850000003 cycles: 1279453483 heartbeat IPC: 0.81466 cumulative IPC: 0.584715 (Simulation time: 0 hr 52 min 15 sec) 
Heartbeat CPU 0 instructions: 860000000 cycles: 1291720259 heartbeat IPC: 0.81521 cumulative IPC: 0.587231 (Simulation time: 0 hr 52 min 52 sec) 
Heartbeat CPU 0 instructions: 870000000 cycles: 1303974760 heartbeat IPC: 0.816027 cumulative IPC: 0.589699 (Simulation time: 0 hr 53 min 29 sec) 
Heartbeat CPU 0 instructions: 880000000 cycles: 1316235273 heartbeat IPC: 0.815627 cumulative IPC: 0.592111 (Simulation time: 0 hr 54 min 6 sec) 
Heartbeat CPU 0 instructions: 890000000 cycles: 1328517674 heartbeat IPC: 0.814173 cumulative IPC: 0.59446 (Simulation time: 0 hr 54 min 43 sec) 
Heartbeat CPU 0 instructions: 900000000 cycles: 1340793277 heartbeat IPC: 0.814624 cumulative IPC: 0.596764 (Simulation time: 0 hr 55 min 20 sec) 
Heartbeat CPU 0 instructions: 910000002 cycles: 1353049379 heartbeat IPC: 0.81592 cumulative IPC: 0.599031 (Simulation time: 0 hr 55 min 57 sec) 
Heartbeat CPU 0 instructions: 920000000 cycles: 1365314183 heartbeat IPC: 0.815341 cumulative IPC: 0.601246 (Simulation time: 0 hr 56 min 34 sec) 
Heartbeat CPU 0 instructions: 930000001 cycles: 1377623163 heartbeat IPC: 0.812415 cumulative IPC: 0.603394 (Simulation time: 0 hr 57 min 11 sec) 
Heartbeat CPU 0 instructions: 940000000 cycles: 1389899017 heartbeat IPC: 0.814607 cumulative IPC: 0.605516 (Simulation time: 0 hr 57 min 48 sec) 
Heartbeat CPU 0 instructions: 950000003 cycles: 1402172624 heartbeat IPC: 0.814757 cumulative IPC: 0.607597 (Simulation time: 0 hr 58 min 25 sec) 
Heartbeat CPU 0 instructions: 960000000 cycles: 1414470887 heartbeat IPC: 0.813123 cumulative IPC: 0.609624 (Simulation time: 0 hr 59 min 2 sec) 
Heartbeat CPU 0 instructions: 970000000 cycles: 1426760637 heartbeat IPC: 0.813686 cumulative IPC: 0.611616 (Simulation time: 0 hr 59 min 39 sec) 
Heartbeat CPU 0 instructions: 980000000 cycles: 1439050306 heartbeat IPC: 0.813692 cumulative IPC: 0.61357 (Simulation time: 1 hr 0 min 16 sec) 
Heartbeat CPU 0 instructions: 990000000 cycles: 1451348594 heartbeat IPC: 0.813121 cumulative IPC: 0.615482 (Simulation time: 1 hr 0 min 53 sec) 
Heartbeat CPU 0 instructions: 1000000000 cycles: 1463680017 heartbeat IPC: 0.810936 cumulative IPC: 0.617342 (Simulation time: 1 hr 1 min 30 sec) 
Heartbeat CPU 0 instructions: 1010000002 cycles: 1476037074 heartbeat IPC: 0.809254 cumulative IPC: 0.619154 (Simulation time: 1 hr 2 min 7 sec) 
Heartbeat CPU 0 instructions: 1020000000 cycles: 1488349941 heartbeat IPC: 0.812158 cumulative IPC: 0.620954 (Simulation time: 1 hr 2 min 44 sec) 
Heartbeat CPU 0 instructions: 1030000001 cycles: 1501719824 heartbeat IPC: 0.74795 cumulative IPC: 0.622227 (Simulation time: 1 hr 3 min 21 sec) 
Heartbeat CPU 0 instructions: 1040000000 cycles: 1514716159 heartbeat IPC: 0.769448 cumulative IPC: 0.623647 (Simulation time: 1 hr 3 min 59 sec) 
Heartbeat CPU 0 instructions: 1050000000 cycles: 1527567067 heartbeat IPC: 0.778155 cumulative IPC: 0.625108 (Simulation time: 1 hr 4 min 36 sec) 
Heartbeat CPU 0 instructions: 1060000000 cycles: 1540447033 heartbeat IPC: 0.7764 cumulative IPC: 0.626527 (Simulation time: 1 hr 5 min 14 sec) 
Heartbeat CPU 0 instructions: 1070000001 cycles: 1553324708 heartbeat IPC: 0.776538 cumulative IPC: 0.627921 (Simulation time: 1 hr 5 min 51 sec) 
Heartbeat CPU 0 instructions: 1080000000 cycles: 1566187436 heartbeat IPC: 0.77744 cumulative IPC: 0.629297 (Simulation time: 1 hr 6 min 29 sec) 
Heartbeat CPU 0 instructions: 1090000002 cycles: 1579044830 heartbeat IPC: 0.777763 cumulative IPC: 0.630649 (Simulation time: 1 hr 7 min 6 sec) 
Heartbeat CPU 0 instructions: 1100000000 cycles: 1591941122 heartbeat IPC: 0.775417 cumulative IPC: 0.63196 (Simulation time: 1 hr 7 min 44 sec) 
Heartbeat CPU 0 instructions: 1110000001 cycles: 1604880377 heartbeat IPC: 0.772842 cumulative IPC: 0.633229 (Simulation time: 1 hr 8 min 21 sec) 
Heartbeat CPU 0 instructions: 1120000000 cycles: 1617767967 heartbeat IPC: 0.77594 cumulative IPC: 0.634497 (Simulation time: 1 hr 8 min 59 sec) 
Heartbeat CPU 0 instructions: 1130000002 cycles: 1630651723 heartbeat IPC: 0.776171 cumulative IPC: 0.635745 (Simulation time: 1 hr 9 min 36 sec) 
Heartbeat CPU 0 instructions: 1140000000 cycles: 1643524798 heartbeat IPC: 0.776815 cumulative IPC: 0.636976 (Simulation time: 1 hr 10 min 13 sec) 
Heartbeat CPU 0 instructions: 1150000003 cycles: 1656405213 heartbeat IPC: 0.776373 cumulative IPC: 0.638182 (Simulation time: 1 hr 10 min 51 sec) 
Heartbeat CPU 0 instructions: 1160000000 cycles: 1669281352 heartbeat IPC: 0.77663 cumulative IPC: 0.639369 (Simulation time: 1 hr 11 min 28 sec) 
Heartbeat CPU 0 instructions: 1170000003 cycles: 1682149762 heartbeat IPC: 0.777097 cumulative IPC: 0.640539 (Simulation time: 1 hr 12 min 6 sec) 
Heartbeat CPU 0 instructions: 1180000000 cycles: 1695000924 heartbeat IPC: 0.77814 cumulative IPC: 0.641697 (Simulation time: 1 hr 12 min 43 sec) 
Heartbeat CPU 0 instructions: 1190000003 cycles: 1707876244 heartbeat IPC: 0.77668 cumulative IPC: 0.642826 (Simulation time: 1 hr 13 min 20 sec) 
Heartbeat CPU 0 instructions: 1200000000 cycles: 1720761397 heartbeat IPC: 0.776087 cumulative IPC: 0.643931 (Simulation time: 1 hr 13 min 58 sec) 
Finished CPU 0 instructions: 1000000000 cycles: 1552960410 cumulative IPC: 0.643931 (Simulation time: 1 hr 13 min 58 sec) 

CPU 0 Branch Prediction Accuracy: 99.7591% MPKI: 0.02718

ChampSim completed all CPUs

Region of Interest Statistics

CPU 0 cumulative IPC: 0.643931 instructions: 1000000000 cycles: 1552960410
L1D TOTAL     ACCESS:  563053237  HIT:  542325517  MISS:   20727720
L1D LOAD      ACCESS:  498708905  HIT:  477981511  MISS:   20727394
L1D RFO       ACCESS:   64344332  HIT:   64344006  MISS:        326
L1D PREFETCH  ACCESS:          0  HIT:          0  MISS:          0
L1D WRITEBACK ACCESS:          0  HIT:          0  MISS:          0
L1D PREFETCH  REQUESTED:          0  ISSUED:          0  USEFUL:          0  USELESS:          0
L1I TOTAL     ACCESS:  290861498  HIT:  290861164  MISS:        334
L1I LOAD      ACCESS:  290861498  HIT:  290861164  MISS:        334
L1I RFO       ACCESS:          0  HIT:          0  MISS:          0
L1I PREFETCH  ACCESS:          0  HIT:          0  MISS:          0
L1I WRITEBACK ACCESS:          0  HIT:          0  MISS:          0
L1I PREFETCH  REQUESTED:          0  ISSUED:          0  USEFUL:          0  USELESS:          0
L2C TOTAL     ACCESS:   48354415  HIT:   30591103  MISS:   17763312
L2C LOAD      ACCESS:   20727724  HIT:   11335538  MISS:    9392186
L2C RFO       ACCESS:        319  HIT:        296  MISS:         23
L2C PREFETCH  ACCESS:   18828919  HIT:   10457832  MISS:    8371087
L2C WRITEBACK ACCESS:    8797453  HIT:    8797437  MISS:         16
L2C PREFETCH  REQUESTED:  100635219  ISSUED:  100395344  USEFUL:    9400074  USELESS:     290897
LLC TOTAL     ACCESS:   94310796  HIT:   73130899  MISS:   21179897
LLC LOAD      ACCESS:    9306616  HIT:    6808035  MISS:    2498581
LLC RFO       ACCESS:         23  HIT:         11  MISS:         12
LLC PREFETCH  ACCESS:   76210784  HIT:   57831097  MISS:   18379687
LLC WRITEBACK ACCESS:    8793373  HIT:    8491756  MISS:     301617
LLC PREFETCH  REQUESTED:          0  ISSUED:          0  USEFUL:    8311121  USELESS:   13906229
Major fault: 0 Minor fault: 864441

DRAM Statistics
 CHANNEL 0
 RQ ROW_BUFFER_HIT:   15744477  ROW_BUFFER_MISS:    5133802
 DBUS_CONGESTED:   18481971
 WQ ROW_BUFFER_HIT:    4616579  ROW_BUFFER_MISS:    4175972  FULL:          0

 AVG_CONGESTED_CYCLE: 13
