
*** ChampSim Multicore Out-of-Order Simulator ***

Warmup Instructions: 200000000
Simulation Instructions: 1000000000
Number of CPUs: 1
LLC sets: 2048
LLC ways: 16
Off-chip DRAM Size: 4096 MB Channels: 1 Width: 64-bit Data Rate: 1600 MT/s

CPU 0 runs /scratch/user/djimenez/champsim-traces/speccpu2017/xz/621.wrf_s/621.wrf_s-8100B.champsimtrace.xz
Heartbeat CPU 0 instructions: 10000000 cycles: 5172912 heartbeat IPC: 1.93315 cumulative IPC: 1.93315 (Simulation time: 0 hr 0 min 18 sec) 
Heartbeat CPU 0 instructions: 20000000 cycles: 10285447 heartbeat IPC: 1.95598 cumulative IPC: 1.94449 (Simulation time: 0 hr 0 min 36 sec) 
Heartbeat CPU 0 instructions: 30000001 cycles: 15539862 heartbeat IPC: 1.90316 cumulative IPC: 1.93052 (Simulation time: 0 hr 0 min 55 sec) 
Heartbeat CPU 0 instructions: 40000000 cycles: 20626057 heartbeat IPC: 1.96611 cumulative IPC: 1.93929 (Simulation time: 0 hr 1 min 12 sec) 
Heartbeat CPU 0 instructions: 50000002 cycles: 25839536 heartbeat IPC: 1.91811 cumulative IPC: 1.93502 (Simulation time: 0 hr 1 min 30 sec) 
Heartbeat CPU 0 instructions: 60000000 cycles: 30900066 heartbeat IPC: 1.97608 cumulative IPC: 1.94174 (Simulation time: 0 hr 1 min 48 sec) 
Heartbeat CPU 0 instructions: 70000001 cycles: 36107358 heartbeat IPC: 1.92038 cumulative IPC: 1.93866 (Simulation time: 0 hr 2 min 6 sec) 
Heartbeat CPU 0 instructions: 80000000 cycles: 41218539 heartbeat IPC: 1.95649 cumulative IPC: 1.94087 (Simulation time: 0 hr 2 min 24 sec) 
Heartbeat CPU 0 instructions: 90000001 cycles: 46397375 heartbeat IPC: 1.93094 cumulative IPC: 1.93976 (Simulation time: 0 hr 2 min 42 sec) 
Heartbeat CPU 0 instructions: 100000000 cycles: 51566718 heartbeat IPC: 1.93448 cumulative IPC: 1.93924 (Simulation time: 0 hr 2 min 59 sec) 
Heartbeat CPU 0 instructions: 110000003 cycles: 56764854 heartbeat IPC: 1.92377 cumulative IPC: 1.93782 (Simulation time: 0 hr 3 min 17 sec) 
Heartbeat CPU 0 instructions: 120000000 cycles: 61863255 heartbeat IPC: 1.9614 cumulative IPC: 1.93976 (Simulation time: 0 hr 3 min 35 sec) 
Heartbeat CPU 0 instructions: 130000001 cycles: 67151636 heartbeat IPC: 1.89094 cumulative IPC: 1.93592 (Simulation time: 0 hr 3 min 53 sec) 
Heartbeat CPU 0 instructions: 140000000 cycles: 72308043 heartbeat IPC: 1.93933 cumulative IPC: 1.93616 (Simulation time: 0 hr 4 min 11 sec) 
Heartbeat CPU 0 instructions: 150000001 cycles: 77476079 heartbeat IPC: 1.93497 cumulative IPC: 1.93608 (Simulation time: 0 hr 4 min 29 sec) 
Heartbeat CPU 0 instructions: 160000000 cycles: 82690872 heartbeat IPC: 1.91762 cumulative IPC: 1.93492 (Simulation time: 0 hr 4 min 47 sec) 
Heartbeat CPU 0 instructions: 170000002 cycles: 87876927 heartbeat IPC: 1.92825 cumulative IPC: 1.93452 (Simulation time: 0 hr 5 min 5 sec) 
Heartbeat CPU 0 instructions: 180000000 cycles: 93174637 heartbeat IPC: 1.88761 cumulative IPC: 1.93186 (Simulation time: 0 hr 5 min 24 sec) 
Heartbeat CPU 0 instructions: 190000001 cycles: 98307752 heartbeat IPC: 1.94814 cumulative IPC: 1.93271 (Simulation time: 0 hr 5 min 42 sec) 
Heartbeat CPU 0 instructions: 200000000 cycles: 103535150 heartbeat IPC: 1.913 cumulative IPC: 1.93171 (Simulation time: 0 hr 6 min 0 sec) 

Warmup complete CPU 0 instructions: 200000001 cycles: 103535151 (Simulation time: 0 hr 6 min 0 sec) 

Heartbeat CPU 0 instructions: 210000003 cycles: 118113677 heartbeat IPC: 0.685941 cumulative IPC: 0.685941 (Simulation time: 0 hr 6 min 27 sec) 
Heartbeat CPU 0 instructions: 220000000 cycles: 132465915 heartbeat IPC: 0.696755 cumulative IPC: 0.691306 (Simulation time: 0 hr 6 min 54 sec) 
Heartbeat CPU 0 instructions: 230000002 cycles: 146978024 heartbeat IPC: 0.68908 cumulative IPC: 0.690562 (Simulation time: 0 hr 7 min 22 sec) 
Heartbeat CPU 0 instructions: 240000000 cycles: 161240882 heartbeat IPC: 0.701122 cumulative IPC: 0.693172 (Simulation time: 0 hr 7 min 49 sec) 
Heartbeat CPU 0 instructions: 250000000 cycles: 175814516 heartbeat IPC: 0.686171 cumulative IPC: 0.69176 (Simulation time: 0 hr 8 min 17 sec) 
Heartbeat CPU 0 instructions: 260000000 cycles: 190132385 heartbeat IPC: 0.698428 cumulative IPC: 0.692863 (Simulation time: 0 hr 8 min 44 sec) 
Heartbeat CPU 0 instructions: 270000000 cycles: 204627809 heartbeat IPC: 0.689873 cumulative IPC: 0.692434 (Simulation time: 0 hr 9 min 11 sec) 
Heartbeat CPU 0 instructions: 280000000 cycles: 218868469 heartbeat IPC: 0.702215 cumulative IPC: 0.693642 (Simulation time: 0 hr 9 min 38 sec) 
Heartbeat CPU 0 instructions: 290000000 cycles: 233406625 heartbeat IPC: 0.687845 cumulative IPC: 0.692993 (Simulation time: 0 hr 10 min 6 sec) 
Heartbeat CPU 0 instructions: 300000000 cycles: 247915837 heartbeat IPC: 0.689217 cumulative IPC: 0.692613 (Simulation time: 0 hr 10 min 34 sec) 
Heartbeat CPU 0 instructions: 310000000 cycles: 261958332 heartbeat IPC: 0.712124 cumulative IPC: 0.694343 (Simulation time: 0 hr 11 min 1 sec) 
Heartbeat CPU 0 instructions: 320000000 cycles: 276430129 heartbeat IPC: 0.690999 cumulative IPC: 0.694063 (Simulation time: 0 hr 11 min 28 sec) 
Heartbeat CPU 0 instructions: 330000003 cycles: 290562038 heartbeat IPC: 0.707619 cumulative IPC: 0.695087 (Simulation time: 0 hr 11 min 56 sec) 
Heartbeat CPU 0 instructions: 340000000 cycles: 304944250 heartbeat IPC: 0.695303 cumulative IPC: 0.695103 (Simulation time: 0 hr 12 min 23 sec) 
Heartbeat CPU 0 instructions: 350000001 cycles: 318703000 heartbeat IPC: 0.72681 cumulative IPC: 0.69713 (Simulation time: 0 hr 12 min 49 sec) 
Heartbeat CPU 0 instructions: 360000000 cycles: 333249548 heartbeat IPC: 0.687448 cumulative IPC: 0.696517 (Simulation time: 0 hr 13 min 17 sec) 
Heartbeat CPU 0 instructions: 370000002 cycles: 346944972 heartbeat IPC: 0.730171 cumulative IPC: 0.698411 (Simulation time: 0 hr 13 min 43 sec) 
Heartbeat CPU 0 instructions: 380000000 cycles: 361302724 heartbeat IPC: 0.696488 cumulative IPC: 0.698304 (Simulation time: 0 hr 14 min 10 sec) 
Heartbeat CPU 0 instructions: 390000003 cycles: 377346171 heartbeat IPC: 0.623308 cumulative IPC: 0.693909 (Simulation time: 0 hr 14 min 40 sec) 
Heartbeat CPU 0 instructions: 400000000 cycles: 392630825 heartbeat IPC: 0.654251 cumulative IPC: 0.691813 (Simulation time: 0 hr 15 min 9 sec) 
Heartbeat CPU 0 instructions: 410000001 cycles: 407959406 heartbeat IPC: 0.652376 cumulative IPC: 0.689827 (Simulation time: 0 hr 15 min 38 sec) 
Heartbeat CPU 0 instructions: 420000000 cycles: 426822734 heartbeat IPC: 0.530129 cumulative IPC: 0.680509 (Simulation time: 0 hr 16 min 9 sec) 
Heartbeat CPU 0 instructions: 430000002 cycles: 444642805 heartbeat IPC: 0.561165 cumulative IPC: 0.674274 (Simulation time: 0 hr 16 min 39 sec) 
Heartbeat CPU 0 instructions: 440000000 cycles: 464771655 heartbeat IPC: 0.496799 cumulative IPC: 0.664385 (Simulation time: 0 hr 17 min 14 sec) 
Heartbeat CPU 0 instructions: 450000001 cycles: 481060828 heartbeat IPC: 0.613905 cumulative IPC: 0.662207 (Simulation time: 0 hr 17 min 45 sec) 
Heartbeat CPU 0 instructions: 460000000 cycles: 497285515 heartbeat IPC: 0.616345 cumulative IPC: 0.660317 (Simulation time: 0 hr 18 min 16 sec) 
Heartbeat CPU 0 instructions: 470000003 cycles: 514252171 heartbeat IPC: 0.589392 cumulative IPC: 0.657387 (Simulation time: 0 hr 18 min 47 sec) 
Heartbeat CPU 0 instructions: 480000000 cycles: 539116035 heartbeat IPC: 0.40219 cumulative IPC: 0.64282 (Simulation time: 0 hr 19 min 22 sec) 
Heartbeat CPU 0 instructions: 490000000 cycles: 556237860 heartbeat IPC: 0.58405 cumulative IPC: 0.640597 (Simulation time: 0 hr 19 min 48 sec) 
Heartbeat CPU 0 instructions: 500000000 cycles: 573785422 heartbeat IPC: 0.56988 cumulative IPC: 0.637958 (Simulation time: 0 hr 20 min 18 sec) 
Heartbeat CPU 0 instructions: 510000001 cycles: 591327325 heartbeat IPC: 0.570064 cumulative IPC: 0.635517 (Simulation time: 0 hr 20 min 47 sec) 
Heartbeat CPU 0 instructions: 520000000 cycles: 608859850 heartbeat IPC: 0.570368 cumulative IPC: 0.633256 (Simulation time: 0 hr 21 min 17 sec) 
Heartbeat CPU 0 instructions: 530000003 cycles: 626401459 heartbeat IPC: 0.570073 cumulative IPC: 0.631136 (Simulation time: 0 hr 21 min 47 sec) 
Heartbeat CPU 0 instructions: 540000000 cycles: 643947106 heartbeat IPC: 0.569942 cumulative IPC: 0.62915 (Simulation time: 0 hr 22 min 16 sec) 
Heartbeat CPU 0 instructions: 550000000 cycles: 661447634 heartbeat IPC: 0.571411 cumulative IPC: 0.627339 (Simulation time: 0 hr 22 min 46 sec) 
Heartbeat CPU 0 instructions: 560000000 cycles: 678975404 heartbeat IPC: 0.570523 cumulative IPC: 0.625608 (Simulation time: 0 hr 23 min 15 sec) 
Heartbeat CPU 0 instructions: 570000003 cycles: 696467492 heartbeat IPC: 0.571687 cumulative IPC: 0.624017 (Simulation time: 0 hr 23 min 45 sec) 
Heartbeat CPU 0 instructions: 580000000 cycles: 713929387 heartbeat IPC: 0.572675 cumulative IPC: 0.622548 (Simulation time: 0 hr 24 min 14 sec) 
Heartbeat CPU 0 instructions: 590000000 cycles: 731382935 heartbeat IPC: 0.572949 cumulative IPC: 0.62117 (Simulation time: 0 hr 24 min 43 sec) 
Heartbeat CPU 0 instructions: 600000000 cycles: 748877153 heartbeat IPC: 0.571617 cumulative IPC: 0.619826 (Simulation time: 0 hr 25 min 13 sec) 
Heartbeat CPU 0 instructions: 610000002 cycles: 766352822 heartbeat IPC: 0.572224 cumulative IPC: 0.618571 (Simulation time: 0 hr 25 min 42 sec) 
Heartbeat CPU 0 instructions: 620000000 cycles: 783850601 heartbeat IPC: 0.571501 cumulative IPC: 0.617361 (Simulation time: 0 hr 26 min 11 sec) 
Heartbeat CPU 0 instructions: 630000003 cycles: 801355009 heartbeat IPC: 0.571285 cumulative IPC: 0.616205 (Simulation time: 0 hr 26 min 40 sec) 
Heartbeat CPU 0 instructions: 640000000 cycles: 818855206 heartbeat IPC: 0.571422 cumulative IPC: 0.615109 (Simulation time: 0 hr 27 min 10 sec) 
Heartbeat CPU 0 instructions: 650000002 cycles: 836353048 heartbeat IPC: 0.571499 cumulative IPC: 0.614068 (Simulation time: 0 hr 27 min 39 sec) 
Heartbeat CPU 0 instructions: 660000000 cycles: 853851655 heartbeat IPC: 0.571474 cumulative IPC: 0.613075 (Simulation time: 0 hr 28 min 8 sec) 
Heartbeat CPU 0 instructions: 670000000 cycles: 871353062 heartbeat IPC: 0.571383 cumulative IPC: 0.612124 (Simulation time: 0 hr 28 min 38 sec) 
Heartbeat CPU 0 instructions: 680000000 cycles: 888886297 heartbeat IPC: 0.570345 cumulative IPC: 0.611192 (Simulation time: 0 hr 29 min 7 sec) 
Heartbeat CPU 0 instructions: 690000000 cycles: 906412212 heartbeat IPC: 0.570584 cumulative IPC: 0.610305 (Simulation time: 0 hr 29 min 36 sec) 
Heartbeat CPU 0 instructions: 700000000 cycles: 923945454 heartbeat IPC: 0.570345 cumulative IPC: 0.609451 (Simulation time: 0 hr 30 min 6 sec) 
Heartbeat CPU 0 instructions: 710000000 cycles: 941477762 heartbeat IPC: 0.570376 cumulative IPC: 0.608634 (Simulation time: 0 hr 30 min 35 sec) 
Heartbeat CPU 0 instructions: 720000000 cycles: 959011271 heartbeat IPC: 0.570337 cumulative IPC: 0.607849 (Simulation time: 0 hr 31 min 4 sec) 
Heartbeat CPU 0 instructions: 730000000 cycles: 976535773 heartbeat IPC: 0.57063 cumulative IPC: 0.607102 (Simulation time: 0 hr 31 min 33 sec) 
Heartbeat CPU 0 instructions: 740000000 cycles: 994056305 heartbeat IPC: 0.570759 cumulative IPC: 0.606386 (Simulation time: 0 hr 32 min 3 sec) 
Heartbeat CPU 0 instructions: 750000000 cycles: 1011553473 heartbeat IPC: 0.571521 cumulative IPC: 0.605715 (Simulation time: 0 hr 32 min 32 sec) 
Heartbeat CPU 0 instructions: 760000000 cycles: 1029018414 heartbeat IPC: 0.572576 cumulative IPC: 0.605089 (Simulation time: 0 hr 33 min 1 sec) 
Heartbeat CPU 0 instructions: 770000003 cycles: 1046305451 heartbeat IPC: 0.578468 cumulative IPC: 0.604601 (Simulation time: 0 hr 33 min 30 sec) 
Heartbeat CPU 0 instructions: 780000000 cycles: 1063601434 heartbeat IPC: 0.578169 cumulative IPC: 0.604125 (Simulation time: 0 hr 33 min 59 sec) 
Heartbeat CPU 0 instructions: 790000000 cycles: 1080899488 heartbeat IPC: 0.5781 cumulative IPC: 0.603664 (Simulation time: 0 hr 34 min 28 sec) 
Heartbeat CPU 0 instructions: 800000000 cycles: 1098174005 heartbeat IPC: 0.578887 cumulative IPC: 0.603234 (Simulation time: 0 hr 34 min 57 sec) 
Heartbeat CPU 0 instructions: 810000000 cycles: 1115366222 heartbeat IPC: 0.581659 cumulative IPC: 0.602867 (Simulation time: 0 hr 35 min 26 sec) 
Heartbeat CPU 0 instructions: 820000000 cycles: 1132479353 heartbeat IPC: 0.584347 cumulative IPC: 0.602559 (Simulation time: 0 hr 35 min 55 sec) 
Heartbeat CPU 0 instructions: 830000001 cycles: 1149704092 heartbeat IPC: 0.58056 cumulative IPC: 0.602197 (Simulation time: 0 hr 36 min 23 sec) 
Heartbeat CPU 0 instructions: 840000000 cycles: 1166946719 heartbeat IPC: 0.579958 cumulative IPC: 0.601837 (Simulation time: 0 hr 36 min 52 sec) 
Heartbeat CPU 0 instructions: 850000000 cycles: 1184232548 heartbeat IPC: 0.578509 cumulative IPC: 0.601463 (Simulation time: 0 hr 37 min 21 sec) 
Heartbeat CPU 0 instructions: 860000000 cycles: 1201446461 heartbeat IPC: 0.580925 cumulative IPC: 0.601141 (Simulation time: 0 hr 37 min 50 sec) 
Heartbeat CPU 0 instructions: 870000000 cycles: 1218691189 heartbeat IPC: 0.579887 cumulative IPC: 0.600813 (Simulation time: 0 hr 38 min 19 sec) 
Heartbeat CPU 0 instructions: 880000000 cycles: 1235937942 heartbeat IPC: 0.579819 cumulative IPC: 0.600493 (Simulation time: 0 hr 38 min 48 sec) 
Heartbeat CPU 0 instructions: 890000000 cycles: 1253197205 heartbeat IPC: 0.579399 cumulative IPC: 0.600176 (Simulation time: 0 hr 39 min 17 sec) 
Heartbeat CPU 0 instructions: 900000000 cycles: 1270437299 heartbeat IPC: 0.580043 cumulative IPC: 0.599879 (Simulation time: 0 hr 39 min 46 sec) 
Heartbeat CPU 0 instructions: 910000000 cycles: 1287722409 heartbeat IPC: 0.578533 cumulative IPC: 0.599567 (Simulation time: 0 hr 40 min 15 sec) 
Heartbeat CPU 0 instructions: 920000000 cycles: 1304706305 heartbeat IPC: 0.588793 cumulative IPC: 0.599415 (Simulation time: 0 hr 40 min 43 sec) 
Heartbeat CPU 0 instructions: 930000001 cycles: 1321661154 heartbeat IPC: 0.589802 cumulative IPC: 0.599281 (Simulation time: 0 hr 41 min 11 sec) 
Heartbeat CPU 0 instructions: 940000000 cycles: 1338660822 heartbeat IPC: 0.588247 cumulative IPC: 0.599129 (Simulation time: 0 hr 41 min 40 sec) 
Heartbeat CPU 0 instructions: 950000001 cycles: 1355597998 heartbeat IPC: 0.590417 cumulative IPC: 0.599011 (Simulation time: 0 hr 42 min 8 sec) 
Heartbeat CPU 0 instructions: 960000000 cycles: 1372502308 heartbeat IPC: 0.591565 cumulative IPC: 0.598912 (Simulation time: 0 hr 42 min 37 sec) 
Heartbeat CPU 0 instructions: 970000003 cycles: 1389269520 heartbeat IPC: 0.596402 cumulative IPC: 0.59888 (Simulation time: 0 hr 43 min 5 sec) 
Heartbeat CPU 0 instructions: 980000000 cycles: 1406035307 heartbeat IPC: 0.596453 cumulative IPC: 0.598848 (Simulation time: 0 hr 43 min 33 sec) 
Heartbeat CPU 0 instructions: 990000000 cycles: 1422816883 heartbeat IPC: 0.595892 cumulative IPC: 0.598811 (Simulation time: 0 hr 44 min 1 sec) 
Heartbeat CPU 0 instructions: 1000000000 cycles: 1439787339 heartbeat IPC: 0.589259 cumulative IPC: 0.598689 (Simulation time: 0 hr 44 min 30 sec) 
Heartbeat CPU 0 instructions: 1010000001 cycles: 1456736089 heartbeat IPC: 0.590014 cumulative IPC: 0.598581 (Simulation time: 0 hr 44 min 59 sec) 
Heartbeat CPU 0 instructions: 1020000000 cycles: 1473651229 heartbeat IPC: 0.591186 cumulative IPC: 0.598489 (Simulation time: 0 hr 45 min 27 sec) 
Heartbeat CPU 0 instructions: 1030000003 cycles: 1490468167 heartbeat IPC: 0.594639 cumulative IPC: 0.598443 (Simulation time: 0 hr 45 min 55 sec) 
Heartbeat CPU 0 instructions: 1040000000 cycles: 1507291771 heartbeat IPC: 0.594403 cumulative IPC: 0.598394 (Simulation time: 0 hr 46 min 24 sec) 
Heartbeat CPU 0 instructions: 1050000000 cycles: 1524063084 heartbeat IPC: 0.596256 cumulative IPC: 0.598369 (Simulation time: 0 hr 46 min 53 sec) 
Heartbeat CPU 0 instructions: 1060000000 cycles: 1541002837 heartbeat IPC: 0.590327 cumulative IPC: 0.598274 (Simulation time: 0 hr 47 min 23 sec) 
Heartbeat CPU 0 instructions: 1070000002 cycles: 1557783143 heartbeat IPC: 0.595937 cumulative IPC: 0.598247 (Simulation time: 0 hr 47 min 52 sec) 
Heartbeat CPU 0 instructions: 1080000000 cycles: 1574441233 heartbeat IPC: 0.600309 cumulative IPC: 0.598271 (Simulation time: 0 hr 48 min 21 sec) 
Heartbeat CPU 0 instructions: 1090000002 cycles: 1591079562 heartbeat IPC: 0.601022 cumulative IPC: 0.598301 (Simulation time: 0 hr 48 min 50 sec) 
Heartbeat CPU 0 instructions: 1100000000 cycles: 1607720308 heartbeat IPC: 0.600935 cumulative IPC: 0.598331 (Simulation time: 0 hr 49 min 19 sec) 
Heartbeat CPU 0 instructions: 1110000002 cycles: 1620635289 heartbeat IPC: 0.774295 cumulative IPC: 0.599829 (Simulation time: 0 hr 49 min 47 sec) 
Heartbeat CPU 0 instructions: 1120000000 cycles: 1631336691 heartbeat IPC: 0.934457 cumulative IPC: 0.602172 (Simulation time: 0 hr 50 min 11 sec) 
Heartbeat CPU 0 instructions: 1130000003 cycles: 1641886079 heartbeat IPC: 0.947923 cumulative IPC: 0.604543 (Simulation time: 0 hr 50 min 36 sec) 
Heartbeat CPU 0 instructions: 1140000000 cycles: 1652137491 heartbeat IPC: 0.975475 cumulative IPC: 0.606999 (Simulation time: 0 hr 51 min 0 sec) 
Heartbeat CPU 0 instructions: 1150000002 cycles: 1662730326 heartbeat IPC: 0.944035 cumulative IPC: 0.609289 (Simulation time: 0 hr 51 min 25 sec) 
Heartbeat CPU 0 instructions: 1160000000 cycles: 1672878005 heartbeat IPC: 0.985447 cumulative IPC: 0.611721 (Simulation time: 0 hr 51 min 49 sec) 
Heartbeat CPU 0 instructions: 1170000000 cycles: 1683321268 heartbeat IPC: 0.957555 cumulative IPC: 0.614007 (Simulation time: 0 hr 52 min 13 sec) 
Heartbeat CPU 0 instructions: 1180000000 cycles: 1693571944 heartbeat IPC: 0.975545 cumulative IPC: 0.616338 (Simulation time: 0 hr 52 min 38 sec) 
Heartbeat CPU 0 instructions: 1190000000 cycles: 1703703029 heartbeat IPC: 0.987061 cumulative IPC: 0.618685 (Simulation time: 0 hr 53 min 2 sec) 
Heartbeat CPU 0 instructions: 1200000000 cycles: 1713787782 heartbeat IPC: 0.991596 cumulative IPC: 0.621021 (Simulation time: 0 hr 53 min 26 sec) 
Finished CPU 0 instructions: 1000000000 cycles: 1610252639 cumulative IPC: 0.621021 (Simulation time: 0 hr 53 min 26 sec) 

CPU 0 Branch Prediction Accuracy: 98.6517% MPKI: 1.45344

ChampSim completed all CPUs

Region of Interest Statistics

CPU 0 cumulative IPC: 0.621021 instructions: 1000000000 cycles: 1610252639
L1D TOTAL     ACCESS:  211228069  HIT:  206798401  MISS:    4429668
L1D LOAD      ACCESS:  156008820  HIT:  153469925  MISS:    2538895
L1D RFO       ACCESS:   55219249  HIT:   53328476  MISS:    1890773
L1D PREFETCH  ACCESS:          0  HIT:          0  MISS:          0
L1D WRITEBACK ACCESS:          0  HIT:          0  MISS:          0
L1D PREFETCH  REQUESTED:          0  ISSUED:          0  USEFUL:          0  USELESS:          0
L1I TOTAL     ACCESS:  352299775  HIT:  351674544  MISS:     625231
L1I LOAD      ACCESS:  352299775  HIT:  351674544  MISS:     625231
L1I RFO       ACCESS:          0  HIT:          0  MISS:          0
L1I PREFETCH  ACCESS:          0  HIT:          0  MISS:          0
L1I WRITEBACK ACCESS:          0  HIT:          0  MISS:          0
L1I PREFETCH  REQUESTED:          0  ISSUED:          0  USEFUL:          0  USELESS:          0
L2C TOTAL     ACCESS:    7366034  HIT:    5235102  MISS:    2130932
L2C LOAD      ACCESS:    3164022  HIT:    1999241  MISS:    1164781
L2C RFO       ACCESS:    1863265  HIT:     898585  MISS:     964680
L2C PREFETCH  ACCESS:          0  HIT:          0  MISS:          0
L2C WRITEBACK ACCESS:    2338747  HIT:    2337276  MISS:       1471
L2C PREFETCH  REQUESTED:          0  ISSUED:          0  USEFUL:          0  USELESS:          0
LLC TOTAL     ACCESS:    3441854  HIT:    2065180  MISS:    1376674
LLC LOAD      ACCESS:    1164780  HIT:     339290  MISS:     825490
LLC RFO       ACCESS:     964680  HIT:     413784  MISS:     550896
LLC PREFETCH  ACCESS:          0  HIT:          0  MISS:          0
LLC WRITEBACK ACCESS:    1312394  HIT:    1312106  MISS:        288
LLC PREFETCH  REQUESTED:          0  ISSUED:          0  USEFUL:          0  USELESS:          0
Major fault: 0 Minor fault: 13313

DRAM Statistics
 CHANNEL 0
 RQ ROW_BUFFER_HIT:    1001636  ROW_BUFFER_MISS:     374663
 DBUS_CONGESTED:    1192926
 WQ ROW_BUFFER_HIT:     423183  ROW_BUFFER_MISS:     398687  FULL:          0

 AVG_CONGESTED_CYCLE: 13
