
*** ChampSim Multicore Out-of-Order Simulator ***

Warmup Instructions: 200000000
Simulation Instructions: 1000000000
Number of CPUs: 1
LLC sets: 2048
LLC ways: 16
Off-chip DRAM Size: 4096 MB Channels: 1 Width: 64-bit Data Rate: 1600 MT/s

CPU 0 runs /scratch/user/djimenez/champsim-traces/speccpu2017/xz/631.deepsjeng_s/631.deepsjeng_s-928B.champsimtrace.xz
Heartbeat CPU 0 instructions: 10000003 cycles: 5309228 heartbeat IPC: 1.88351 cumulative IPC: 1.88351 (Simulation time: 0 hr 0 min 15 sec) 
Heartbeat CPU 0 instructions: 20000000 cycles: 10751930 heartbeat IPC: 1.83732 cumulative IPC: 1.86013 (Simulation time: 0 hr 0 min 31 sec) 
Heartbeat CPU 0 instructions: 30000000 cycles: 16026458 heartbeat IPC: 1.8959 cumulative IPC: 1.8719 (Simulation time: 0 hr 0 min 46 sec) 
Heartbeat CPU 0 instructions: 40000000 cycles: 21318771 heartbeat IPC: 1.88953 cumulative IPC: 1.87628 (Simulation time: 0 hr 1 min 2 sec) 
Heartbeat CPU 0 instructions: 50000001 cycles: 26617329 heartbeat IPC: 1.88731 cumulative IPC: 1.87848 (Simulation time: 0 hr 1 min 17 sec) 
Heartbeat CPU 0 instructions: 60000000 cycles: 31795200 heartbeat IPC: 1.9313 cumulative IPC: 1.88708 (Simulation time: 0 hr 1 min 32 sec) 
Heartbeat CPU 0 instructions: 70000000 cycles: 36945592 heartbeat IPC: 1.9416 cumulative IPC: 1.89468 (Simulation time: 0 hr 1 min 47 sec) 
Heartbeat CPU 0 instructions: 80000000 cycles: 42121588 heartbeat IPC: 1.932 cumulative IPC: 1.89926 (Simulation time: 0 hr 2 min 2 sec) 
Heartbeat CPU 0 instructions: 90000000 cycles: 47308739 heartbeat IPC: 1.92784 cumulative IPC: 1.9024 (Simulation time: 0 hr 2 min 17 sec) 
Heartbeat CPU 0 instructions: 100000000 cycles: 52545880 heartbeat IPC: 1.90944 cumulative IPC: 1.9031 (Simulation time: 0 hr 2 min 33 sec) 
Heartbeat CPU 0 instructions: 110000001 cycles: 57760974 heartbeat IPC: 1.91751 cumulative IPC: 1.9044 (Simulation time: 0 hr 2 min 48 sec) 
Heartbeat CPU 0 instructions: 120000000 cycles: 62963028 heartbeat IPC: 1.92232 cumulative IPC: 1.90588 (Simulation time: 0 hr 3 min 4 sec) 
Heartbeat CPU 0 instructions: 130000002 cycles: 68163963 heartbeat IPC: 1.92273 cumulative IPC: 1.90717 (Simulation time: 0 hr 3 min 19 sec) 
Heartbeat CPU 0 instructions: 140000000 cycles: 73415921 heartbeat IPC: 1.90405 cumulative IPC: 1.90694 (Simulation time: 0 hr 3 min 35 sec) 
Heartbeat CPU 0 instructions: 150000002 cycles: 78609520 heartbeat IPC: 1.92545 cumulative IPC: 1.90817 (Simulation time: 0 hr 3 min 50 sec) 
Heartbeat CPU 0 instructions: 160000000 cycles: 83812586 heartbeat IPC: 1.92194 cumulative IPC: 1.90902 (Simulation time: 0 hr 4 min 5 sec) 
Heartbeat CPU 0 instructions: 170000002 cycles: 89077190 heartbeat IPC: 1.89948 cumulative IPC: 1.90846 (Simulation time: 0 hr 4 min 21 sec) 
Heartbeat CPU 0 instructions: 180000000 cycles: 94376281 heartbeat IPC: 1.88712 cumulative IPC: 1.90726 (Simulation time: 0 hr 4 min 36 sec) 
Heartbeat CPU 0 instructions: 190000003 cycles: 99656880 heartbeat IPC: 1.89373 cumulative IPC: 1.90654 (Simulation time: 0 hr 4 min 51 sec) 
Heartbeat CPU 0 instructions: 200000000 cycles: 105001860 heartbeat IPC: 1.87091 cumulative IPC: 1.90473 (Simulation time: 0 hr 5 min 7 sec) 

Warmup complete CPU 0 instructions: 200000001 cycles: 105001862 (Simulation time: 0 hr 5 min 7 sec) 

Heartbeat CPU 0 instructions: 210000001 cycles: 122000111 heartbeat IPC: 0.588296 cumulative IPC: 0.588296 (Simulation time: 0 hr 5 min 33 sec) 
Heartbeat CPU 0 instructions: 220000000 cycles: 139200646 heartbeat IPC: 0.581377 cumulative IPC: 0.584816 (Simulation time: 0 hr 5 min 58 sec) 
Heartbeat CPU 0 instructions: 230000003 cycles: 156449886 heartbeat IPC: 0.579736 cumulative IPC: 0.583113 (Simulation time: 0 hr 6 min 24 sec) 
Heartbeat CPU 0 instructions: 240000000 cycles: 173210905 heartbeat IPC: 0.596622 cumulative IPC: 0.586433 (Simulation time: 0 hr 6 min 50 sec) 
Heartbeat CPU 0 instructions: 250000002 cycles: 190047948 heartbeat IPC: 0.593929 cumulative IPC: 0.587917 (Simulation time: 0 hr 7 min 17 sec) 
Heartbeat CPU 0 instructions: 260000000 cycles: 206932661 heartbeat IPC: 0.592252 cumulative IPC: 0.588635 (Simulation time: 0 hr 7 min 42 sec) 
Heartbeat CPU 0 instructions: 270000000 cycles: 223819445 heartbeat IPC: 0.592179 cumulative IPC: 0.589138 (Simulation time: 0 hr 8 min 7 sec) 
Heartbeat CPU 0 instructions: 280000000 cycles: 240793192 heartbeat IPC: 0.589145 cumulative IPC: 0.589139 (Simulation time: 0 hr 8 min 34 sec) 
Heartbeat CPU 0 instructions: 290000001 cycles: 257849695 heartbeat IPC: 0.586287 cumulative IPC: 0.588821 (Simulation time: 0 hr 9 min 0 sec) 
Heartbeat CPU 0 instructions: 300000000 cycles: 274627311 heartbeat IPC: 0.596032 cumulative IPC: 0.589534 (Simulation time: 0 hr 9 min 26 sec) 
Heartbeat CPU 0 instructions: 310000000 cycles: 291625246 heartbeat IPC: 0.588307 cumulative IPC: 0.589422 (Simulation time: 0 hr 9 min 51 sec) 
Heartbeat CPU 0 instructions: 320000000 cycles: 308919313 heartbeat IPC: 0.578233 cumulative IPC: 0.588473 (Simulation time: 0 hr 10 min 17 sec) 
Heartbeat CPU 0 instructions: 330000002 cycles: 326246849 heartbeat IPC: 0.577116 cumulative IPC: 0.587584 (Simulation time: 0 hr 10 min 43 sec) 
Heartbeat CPU 0 instructions: 340000000 cycles: 343232879 heartbeat IPC: 0.588719 cumulative IPC: 0.587665 (Simulation time: 0 hr 11 min 8 sec) 
Heartbeat CPU 0 instructions: 350000003 cycles: 360325300 heartbeat IPC: 0.585055 cumulative IPC: 0.58749 (Simulation time: 0 hr 11 min 34 sec) 
Heartbeat CPU 0 instructions: 360000000 cycles: 377357319 heartbeat IPC: 0.587129 cumulative IPC: 0.587468 (Simulation time: 0 hr 11 min 59 sec) 
Heartbeat CPU 0 instructions: 370000001 cycles: 394518676 heartbeat IPC: 0.582705 cumulative IPC: 0.587185 (Simulation time: 0 hr 12 min 25 sec) 
Heartbeat CPU 0 instructions: 380000000 cycles: 411486027 heartbeat IPC: 0.589367 cumulative IPC: 0.587306 (Simulation time: 0 hr 12 min 51 sec) 
Heartbeat CPU 0 instructions: 390000001 cycles: 428609035 heartbeat IPC: 0.58401 cumulative IPC: 0.587132 (Simulation time: 0 hr 13 min 17 sec) 
Heartbeat CPU 0 instructions: 400000000 cycles: 445882201 heartbeat IPC: 0.578933 cumulative IPC: 0.586716 (Simulation time: 0 hr 13 min 42 sec) 
Heartbeat CPU 0 instructions: 410000001 cycles: 463233953 heartbeat IPC: 0.576311 cumulative IPC: 0.586212 (Simulation time: 0 hr 14 min 7 sec) 
Heartbeat CPU 0 instructions: 420000000 cycles: 480306534 heartbeat IPC: 0.585734 cumulative IPC: 0.58619 (Simulation time: 0 hr 14 min 33 sec) 
Heartbeat CPU 0 instructions: 430000002 cycles: 497424895 heartbeat IPC: 0.584168 cumulative IPC: 0.586102 (Simulation time: 0 hr 14 min 59 sec) 
Heartbeat CPU 0 instructions: 440000000 cycles: 514478823 heartbeat IPC: 0.586375 cumulative IPC: 0.586114 (Simulation time: 0 hr 15 min 24 sec) 
Heartbeat CPU 0 instructions: 450000000 cycles: 531802563 heartbeat IPC: 0.577243 cumulative IPC: 0.585754 (Simulation time: 0 hr 15 min 50 sec) 
Heartbeat CPU 0 instructions: 460000000 cycles: 548940581 heartbeat IPC: 0.583498 cumulative IPC: 0.585666 (Simulation time: 0 hr 16 min 15 sec) 
Heartbeat CPU 0 instructions: 470000001 cycles: 566039582 heartbeat IPC: 0.58483 cumulative IPC: 0.585635 (Simulation time: 0 hr 16 min 41 sec) 
Heartbeat CPU 0 instructions: 480000000 cycles: 582962205 heartbeat IPC: 0.590925 cumulative IPC: 0.585823 (Simulation time: 0 hr 17 min 8 sec) 
Heartbeat CPU 0 instructions: 490000000 cycles: 599908007 heartbeat IPC: 0.590117 cumulative IPC: 0.58597 (Simulation time: 0 hr 17 min 33 sec) 
Heartbeat CPU 0 instructions: 500000000 cycles: 616870624 heartbeat IPC: 0.589532 cumulative IPC: 0.586088 (Simulation time: 0 hr 17 min 59 sec) 
Heartbeat CPU 0 instructions: 510000000 cycles: 633634589 heartbeat IPC: 0.596518 cumulative IPC: 0.586418 (Simulation time: 0 hr 18 min 24 sec) 
Heartbeat CPU 0 instructions: 520000000 cycles: 650376256 heartbeat IPC: 0.597312 cumulative IPC: 0.586753 (Simulation time: 0 hr 18 min 50 sec) 
Heartbeat CPU 0 instructions: 530000000 cycles: 667302883 heartbeat IPC: 0.590785 cumulative IPC: 0.586874 (Simulation time: 0 hr 19 min 16 sec) 
Heartbeat CPU 0 instructions: 540000000 cycles: 684192854 heartbeat IPC: 0.592067 cumulative IPC: 0.587026 (Simulation time: 0 hr 19 min 41 sec) 
Heartbeat CPU 0 instructions: 550000000 cycles: 701014210 heartbeat IPC: 0.594482 cumulative IPC: 0.587236 (Simulation time: 0 hr 20 min 7 sec) 
Heartbeat CPU 0 instructions: 560000000 cycles: 717786301 heartbeat IPC: 0.596229 cumulative IPC: 0.587482 (Simulation time: 0 hr 20 min 32 sec) 
Heartbeat CPU 0 instructions: 570000000 cycles: 734511061 heartbeat IPC: 0.597916 cumulative IPC: 0.587759 (Simulation time: 0 hr 20 min 58 sec) 
Heartbeat CPU 0 instructions: 580000000 cycles: 751552259 heartbeat IPC: 0.586813 cumulative IPC: 0.587735 (Simulation time: 0 hr 21 min 24 sec) 
Heartbeat CPU 0 instructions: 590000000 cycles: 768494588 heartbeat IPC: 0.590238 cumulative IPC: 0.587798 (Simulation time: 0 hr 21 min 49 sec) 
Heartbeat CPU 0 instructions: 600000000 cycles: 785289910 heartbeat IPC: 0.595404 cumulative IPC: 0.587986 (Simulation time: 0 hr 22 min 15 sec) 
Heartbeat CPU 0 instructions: 610000000 cycles: 802149389 heartbeat IPC: 0.593138 cumulative IPC: 0.588111 (Simulation time: 0 hr 22 min 40 sec) 
Heartbeat CPU 0 instructions: 620000000 cycles: 819049220 heartbeat IPC: 0.591722 cumulative IPC: 0.588196 (Simulation time: 0 hr 23 min 5 sec) 
Heartbeat CPU 0 instructions: 630000001 cycles: 835791114 heartbeat IPC: 0.597304 cumulative IPC: 0.588405 (Simulation time: 0 hr 23 min 30 sec) 
Heartbeat CPU 0 instructions: 640000000 cycles: 852709413 heartbeat IPC: 0.591076 cumulative IPC: 0.588465 (Simulation time: 0 hr 23 min 56 sec) 
Heartbeat CPU 0 instructions: 650000003 cycles: 869562215 heartbeat IPC: 0.593373 cumulative IPC: 0.588574 (Simulation time: 0 hr 24 min 21 sec) 
Heartbeat CPU 0 instructions: 660000000 cycles: 886488473 heartbeat IPC: 0.590798 cumulative IPC: 0.588622 (Simulation time: 0 hr 24 min 47 sec) 
Heartbeat CPU 0 instructions: 670000003 cycles: 903154469 heartbeat IPC: 0.600024 cumulative IPC: 0.58886 (Simulation time: 0 hr 25 min 12 sec) 
Heartbeat CPU 0 instructions: 680000000 cycles: 920085386 heartbeat IPC: 0.590635 cumulative IPC: 0.588897 (Simulation time: 0 hr 25 min 38 sec) 
Heartbeat CPU 0 instructions: 690000001 cycles: 936945497 heartbeat IPC: 0.593116 cumulative IPC: 0.588982 (Simulation time: 0 hr 26 min 3 sec) 
Heartbeat CPU 0 instructions: 700000000 cycles: 953895344 heartbeat IPC: 0.589976 cumulative IPC: 0.589002 (Simulation time: 0 hr 26 min 28 sec) 
Heartbeat CPU 0 instructions: 710000001 cycles: 970707180 heartbeat IPC: 0.594819 cumulative IPC: 0.589115 (Simulation time: 0 hr 26 min 54 sec) 
Heartbeat CPU 0 instructions: 720000000 cycles: 987612521 heartbeat IPC: 0.591529 cumulative IPC: 0.589161 (Simulation time: 0 hr 27 min 19 sec) 
Heartbeat CPU 0 instructions: 730000003 cycles: 1004413993 heartbeat IPC: 0.595186 cumulative IPC: 0.589274 (Simulation time: 0 hr 27 min 45 sec) 
Heartbeat CPU 0 instructions: 740000000 cycles: 1021341014 heartbeat IPC: 0.590771 cumulative IPC: 0.589301 (Simulation time: 0 hr 28 min 10 sec) 
Heartbeat CPU 0 instructions: 750000001 cycles: 1038220382 heartbeat IPC: 0.592439 cumulative IPC: 0.589358 (Simulation time: 0 hr 28 min 36 sec) 
Heartbeat CPU 0 instructions: 760000000 cycles: 1054930268 heartbeat IPC: 0.598448 cumulative IPC: 0.589518 (Simulation time: 0 hr 29 min 1 sec) 
Heartbeat CPU 0 instructions: 770000002 cycles: 1071930453 heartbeat IPC: 0.588229 cumulative IPC: 0.589495 (Simulation time: 0 hr 29 min 26 sec) 
Heartbeat CPU 0 instructions: 780000000 cycles: 1088775201 heartbeat IPC: 0.593657 cumulative IPC: 0.589567 (Simulation time: 0 hr 29 min 52 sec) 
Heartbeat CPU 0 instructions: 790000000 cycles: 1105550548 heartbeat IPC: 0.596113 cumulative IPC: 0.589676 (Simulation time: 0 hr 30 min 18 sec) 
Heartbeat CPU 0 instructions: 800000000 cycles: 1122572246 heartbeat IPC: 0.587485 cumulative IPC: 0.58964 (Simulation time: 0 hr 30 min 44 sec) 
Heartbeat CPU 0 instructions: 810000002 cycles: 1139492305 heartbeat IPC: 0.591015 cumulative IPC: 0.589662 (Simulation time: 0 hr 31 min 9 sec) 
Heartbeat CPU 0 instructions: 820000000 cycles: 1156270397 heartbeat IPC: 0.596015 cumulative IPC: 0.589764 (Simulation time: 0 hr 31 min 35 sec) 
Heartbeat CPU 0 instructions: 830000001 cycles: 1172596346 heartbeat IPC: 0.612522 cumulative IPC: 0.590112 (Simulation time: 0 hr 32 min 2 sec) 
Heartbeat CPU 0 instructions: 840000000 cycles: 1189445694 heartbeat IPC: 0.593495 cumulative IPC: 0.590164 (Simulation time: 0 hr 32 min 28 sec) 
Heartbeat CPU 0 instructions: 850000001 cycles: 1206696828 heartbeat IPC: 0.579672 cumulative IPC: 0.59 (Simulation time: 0 hr 32 min 54 sec) 
Heartbeat CPU 0 instructions: 860000000 cycles: 1223910506 heartbeat IPC: 0.580933 cumulative IPC: 0.58986 (Simulation time: 0 hr 33 min 19 sec) 
Heartbeat CPU 0 instructions: 870000000 cycles: 1240878787 heartbeat IPC: 0.589335 cumulative IPC: 0.589853 (Simulation time: 0 hr 33 min 46 sec) 
Heartbeat CPU 0 instructions: 880000000 cycles: 1257922959 heartbeat IPC: 0.586711 cumulative IPC: 0.589806 (Simulation time: 0 hr 34 min 11 sec) 
Heartbeat CPU 0 instructions: 890000000 cycles: 1275077324 heartbeat IPC: 0.582942 cumulative IPC: 0.589706 (Simulation time: 0 hr 34 min 37 sec) 
Heartbeat CPU 0 instructions: 900000000 cycles: 1292365157 heartbeat IPC: 0.578442 cumulative IPC: 0.589542 (Simulation time: 0 hr 35 min 2 sec) 
Heartbeat CPU 0 instructions: 910000000 cycles: 1309883131 heartbeat IPC: 0.570842 cumulative IPC: 0.58927 (Simulation time: 0 hr 35 min 28 sec) 
Heartbeat CPU 0 instructions: 920000000 cycles: 1327129231 heartbeat IPC: 0.579841 cumulative IPC: 0.589137 (Simulation time: 0 hr 35 min 55 sec) 
Heartbeat CPU 0 instructions: 930000000 cycles: 1344240570 heartbeat IPC: 0.584408 cumulative IPC: 0.589071 (Simulation time: 0 hr 36 min 21 sec) 
Heartbeat CPU 0 instructions: 940000000 cycles: 1361381720 heartbeat IPC: 0.583391 cumulative IPC: 0.588994 (Simulation time: 0 hr 36 min 47 sec) 
Heartbeat CPU 0 instructions: 950000000 cycles: 1378385030 heartbeat IPC: 0.588121 cumulative IPC: 0.588982 (Simulation time: 0 hr 37 min 13 sec) 
Heartbeat CPU 0 instructions: 960000000 cycles: 1395262955 heartbeat IPC: 0.59249 cumulative IPC: 0.589028 (Simulation time: 0 hr 37 min 40 sec) 
Heartbeat CPU 0 instructions: 970000001 cycles: 1412078250 heartbeat IPC: 0.594697 cumulative IPC: 0.589101 (Simulation time: 0 hr 38 min 6 sec) 
Heartbeat CPU 0 instructions: 980000000 cycles: 1429114336 heartbeat IPC: 0.586989 cumulative IPC: 0.589074 (Simulation time: 0 hr 38 min 32 sec) 
Heartbeat CPU 0 instructions: 990000001 cycles: 1446251245 heartbeat IPC: 0.583536 cumulative IPC: 0.589003 (Simulation time: 0 hr 38 min 58 sec) 
Heartbeat CPU 0 instructions: 1000000000 cycles: 1463947847 heartbeat IPC: 0.56508 cumulative IPC: 0.588692 (Simulation time: 0 hr 39 min 23 sec) 
Heartbeat CPU 0 instructions: 1010000000 cycles: 1481145556 heartbeat IPC: 0.581473 cumulative IPC: 0.588601 (Simulation time: 0 hr 39 min 49 sec) 
Heartbeat CPU 0 instructions: 1020000000 cycles: 1498444081 heartbeat IPC: 0.578084 cumulative IPC: 0.588471 (Simulation time: 0 hr 40 min 14 sec) 
Heartbeat CPU 0 instructions: 1030000000 cycles: 1515857811 heartbeat IPC: 0.57426 cumulative IPC: 0.588295 (Simulation time: 0 hr 40 min 40 sec) 
Heartbeat CPU 0 instructions: 1040000000 cycles: 1533312747 heartbeat IPC: 0.572904 cumulative IPC: 0.588107 (Simulation time: 0 hr 41 min 5 sec) 
Heartbeat CPU 0 instructions: 1050000000 cycles: 1550716106 heartbeat IPC: 0.574602 cumulative IPC: 0.587945 (Simulation time: 0 hr 41 min 31 sec) 
Heartbeat CPU 0 instructions: 1060000000 cycles: 1568357806 heartbeat IPC: 0.566839 cumulative IPC: 0.58769 (Simulation time: 0 hr 41 min 56 sec) 
Heartbeat CPU 0 instructions: 1070000003 cycles: 1585884805 heartbeat IPC: 0.570548 cumulative IPC: 0.587487 (Simulation time: 0 hr 42 min 21 sec) 
Heartbeat CPU 0 instructions: 1080000000 cycles: 1603464512 heartbeat IPC: 0.568838 cumulative IPC: 0.587269 (Simulation time: 0 hr 42 min 46 sec) 
Heartbeat CPU 0 instructions: 1090000001 cycles: 1620679712 heartbeat IPC: 0.580882 cumulative IPC: 0.587196 (Simulation time: 0 hr 43 min 12 sec) 
Heartbeat CPU 0 instructions: 1100000000 cycles: 1637776739 heartbeat IPC: 0.584897 cumulative IPC: 0.58717 (Simulation time: 0 hr 43 min 39 sec) 
Heartbeat CPU 0 instructions: 1110000000 cycles: 1655101498 heartbeat IPC: 0.577209 cumulative IPC: 0.587059 (Simulation time: 0 hr 44 min 5 sec) 
Heartbeat CPU 0 instructions: 1120000000 cycles: 1672476730 heartbeat IPC: 0.575532 cumulative IPC: 0.586931 (Simulation time: 0 hr 44 min 30 sec) 
Heartbeat CPU 0 instructions: 1130000003 cycles: 1689948774 heartbeat IPC: 0.572343 cumulative IPC: 0.58677 (Simulation time: 0 hr 44 min 55 sec) 
Heartbeat CPU 0 instructions: 1140000000 cycles: 1707053570 heartbeat IPC: 0.584631 cumulative IPC: 0.586748 (Simulation time: 0 hr 45 min 21 sec) 
Heartbeat CPU 0 instructions: 1150000000 cycles: 1724317127 heartbeat IPC: 0.579255 cumulative IPC: 0.586668 (Simulation time: 0 hr 45 min 48 sec) 
Heartbeat CPU 0 instructions: 1160000000 cycles: 1741191985 heartbeat IPC: 0.592598 cumulative IPC: 0.586729 (Simulation time: 0 hr 46 min 14 sec) 
Heartbeat CPU 0 instructions: 1170000000 cycles: 1758242362 heartbeat IPC: 0.586497 cumulative IPC: 0.586726 (Simulation time: 0 hr 46 min 40 sec) 
Heartbeat CPU 0 instructions: 1180000000 cycles: 1775276901 heartbeat IPC: 0.587043 cumulative IPC: 0.58673 (Simulation time: 0 hr 47 min 6 sec) 
Heartbeat CPU 0 instructions: 1190000001 cycles: 1792145687 heartbeat IPC: 0.592811 cumulative IPC: 0.586791 (Simulation time: 0 hr 47 min 32 sec) 
Heartbeat CPU 0 instructions: 1200000000 cycles: 1809264340 heartbeat IPC: 0.584158 cumulative IPC: 0.586764 (Simulation time: 0 hr 47 min 58 sec) 
Finished CPU 0 instructions: 1000000000 cycles: 1704262486 cumulative IPC: 0.586764 (Simulation time: 0 hr 47 min 58 sec) 

CPU 0 Branch Prediction Accuracy: 91.9385% MPKI: 8.717

ChampSim completed all CPUs

Region of Interest Statistics

CPU 0 cumulative IPC: 0.586764 instructions: 1000000000 cycles: 1704262486
L1D TOTAL     ACCESS:  304250753  HIT:  302901922  MISS:    1348831
L1D LOAD      ACCESS:  186539101  HIT:  185603064  MISS:     936037
L1D RFO       ACCESS:  117711652  HIT:  117298858  MISS:     412794
L1D PREFETCH  ACCESS:          0  HIT:          0  MISS:          0
L1D WRITEBACK ACCESS:          0  HIT:          0  MISS:          0
L1D PREFETCH  REQUESTED:          0  ISSUED:          0  USEFUL:          0  USELESS:          0
L1I TOTAL     ACCESS:  244143841  HIT:  243220582  MISS:     923259
L1I LOAD      ACCESS:  244143841  HIT:  243220582  MISS:     923259
L1I RFO       ACCESS:          0  HIT:          0  MISS:          0
L1I PREFETCH  ACCESS:          0  HIT:          0  MISS:          0
L1I WRITEBACK ACCESS:          0  HIT:          0  MISS:          0
L1I PREFETCH  REQUESTED:          0  ISSUED:          0  USEFUL:          0  USELESS:          0
L2C TOTAL     ACCESS:    2943673  HIT:    2638126  MISS:     305547
L2C LOAD      ACCESS:    1859288  HIT:    1569803  MISS:     289485
L2C RFO       ACCESS:     412791  HIT:     397302  MISS:      15489
L2C PREFETCH  ACCESS:          0  HIT:          0  MISS:          0
L2C WRITEBACK ACCESS:     671594  HIT:     671021  MISS:        573
L2C PREFETCH  REQUESTED:          0  ISSUED:          0  USEFUL:          0  USELESS:          0
LLC TOTAL     ACCESS:     512511  HIT:     248410  MISS:     264101
LLC LOAD      ACCESS:     289485  HIT:      29270  MISS:     260215
LLC RFO       ACCESS:      15489  HIT:      12920  MISS:       2569
LLC PREFETCH  ACCESS:          0  HIT:          0  MISS:          0
LLC WRITEBACK ACCESS:     207537  HIT:     206220  MISS:       1317
LLC PREFETCH  REQUESTED:          0  ISSUED:          0  USEFUL:          0  USELESS:          0
Major fault: 0 Minor fault: 175692

DRAM Statistics
 CHANNEL 0
 RQ ROW_BUFFER_HIT:     121798  ROW_BUFFER_MISS:     140983
 DBUS_CONGESTED:     190658
 WQ ROW_BUFFER_HIT:       9124  ROW_BUFFER_MISS:     175786  FULL:          0

 AVG_CONGESTED_CYCLE: 14
