
*** ChampSim Multicore Out-of-Order Simulator ***

Warmup Instructions: 200000000
Simulation Instructions: 1000000000
Number of CPUs: 1
LLC sets: 2048
LLC ways: 16
Off-chip DRAM Size: 4096 MB Channels: 1 Width: 64-bit Data Rate: 1600 MT/s

CPU 0 runs /scratch/user/djimenez/champsim-traces/speccpu2017/xz/641.leela_s/641.leela_s-149B.champsimtrace.xz
Heartbeat CPU 0 instructions: 10000000 cycles: 6140412 heartbeat IPC: 1.62856 cumulative IPC: 1.62856 (Simulation time: 0 hr 0 min 13 sec) 
Heartbeat CPU 0 instructions: 20000000 cycles: 13368185 heartbeat IPC: 1.38355 cumulative IPC: 1.49609 (Simulation time: 0 hr 0 min 30 sec) 
Heartbeat CPU 0 instructions: 30000001 cycles: 20012849 heartbeat IPC: 1.50497 cumulative IPC: 1.49904 (Simulation time: 0 hr 0 min 45 sec) 
Heartbeat CPU 0 instructions: 40000000 cycles: 26482984 heartbeat IPC: 1.54556 cumulative IPC: 1.5104 (Simulation time: 0 hr 0 min 59 sec) 
Heartbeat CPU 0 instructions: 50000000 cycles: 32937781 heartbeat IPC: 1.54924 cumulative IPC: 1.51801 (Simulation time: 0 hr 1 min 13 sec) 
Heartbeat CPU 0 instructions: 60000000 cycles: 39367575 heartbeat IPC: 1.55526 cumulative IPC: 1.5241 (Simulation time: 0 hr 1 min 27 sec) 
Heartbeat CPU 0 instructions: 70000002 cycles: 45788109 heartbeat IPC: 1.5575 cumulative IPC: 1.52878 (Simulation time: 0 hr 1 min 41 sec) 
Heartbeat CPU 0 instructions: 80000000 cycles: 52207229 heartbeat IPC: 1.55785 cumulative IPC: 1.53235 (Simulation time: 0 hr 1 min 54 sec) 
Heartbeat CPU 0 instructions: 90000000 cycles: 58610650 heartbeat IPC: 1.56167 cumulative IPC: 1.53556 (Simulation time: 0 hr 2 min 8 sec) 
Heartbeat CPU 0 instructions: 100000000 cycles: 65034684 heartbeat IPC: 1.55665 cumulative IPC: 1.53764 (Simulation time: 0 hr 2 min 22 sec) 
Heartbeat CPU 0 instructions: 110000000 cycles: 71469996 heartbeat IPC: 1.55393 cumulative IPC: 1.53911 (Simulation time: 0 hr 2 min 36 sec) 
Heartbeat CPU 0 instructions: 120000000 cycles: 77893066 heartbeat IPC: 1.55689 cumulative IPC: 1.54057 (Simulation time: 0 hr 2 min 49 sec) 
Heartbeat CPU 0 instructions: 130000001 cycles: 84319181 heartbeat IPC: 1.55615 cumulative IPC: 1.54176 (Simulation time: 0 hr 3 min 3 sec) 
Heartbeat CPU 0 instructions: 140000000 cycles: 90734272 heartbeat IPC: 1.55882 cumulative IPC: 1.54297 (Simulation time: 0 hr 3 min 17 sec) 
Heartbeat CPU 0 instructions: 150000003 cycles: 97129966 heartbeat IPC: 1.56355 cumulative IPC: 1.54432 (Simulation time: 0 hr 3 min 31 sec) 
Heartbeat CPU 0 instructions: 160000000 cycles: 103520238 heartbeat IPC: 1.56488 cumulative IPC: 1.54559 (Simulation time: 0 hr 3 min 44 sec) 
Heartbeat CPU 0 instructions: 170000002 cycles: 109921186 heartbeat IPC: 1.56227 cumulative IPC: 1.54656 (Simulation time: 0 hr 3 min 58 sec) 
Heartbeat CPU 0 instructions: 180000000 cycles: 116327164 heartbeat IPC: 1.56104 cumulative IPC: 1.54736 (Simulation time: 0 hr 4 min 12 sec) 
Heartbeat CPU 0 instructions: 190000000 cycles: 122713392 heartbeat IPC: 1.56587 cumulative IPC: 1.54832 (Simulation time: 0 hr 4 min 25 sec) 
Heartbeat CPU 0 instructions: 200000000 cycles: 129107577 heartbeat IPC: 1.56392 cumulative IPC: 1.5491 (Simulation time: 0 hr 4 min 39 sec) 

Warmup complete CPU 0 instructions: 200000001 cycles: 129107578 (Simulation time: 0 hr 4 min 39 sec) 

Heartbeat CPU 0 instructions: 210000001 cycles: 152388148 heartbeat IPC: 0.429543 cumulative IPC: 0.429543 (Simulation time: 0 hr 5 min 4 sec) 
Heartbeat CPU 0 instructions: 220000000 cycles: 175687168 heartbeat IPC: 0.429203 cumulative IPC: 0.429373 (Simulation time: 0 hr 5 min 29 sec) 
Heartbeat CPU 0 instructions: 230000000 cycles: 198943808 heartbeat IPC: 0.429985 cumulative IPC: 0.429576 (Simulation time: 0 hr 5 min 53 sec) 
Heartbeat CPU 0 instructions: 240000000 cycles: 222111744 heartbeat IPC: 0.431631 cumulative IPC: 0.430088 (Simulation time: 0 hr 6 min 18 sec) 
Heartbeat CPU 0 instructions: 250000000 cycles: 245391067 heartbeat IPC: 0.429566 cumulative IPC: 0.429984 (Simulation time: 0 hr 6 min 43 sec) 
Heartbeat CPU 0 instructions: 260000000 cycles: 268777078 heartbeat IPC: 0.427606 cumulative IPC: 0.429586 (Simulation time: 0 hr 7 min 8 sec) 
Heartbeat CPU 0 instructions: 270000000 cycles: 292044357 heartbeat IPC: 0.429788 cumulative IPC: 0.429614 (Simulation time: 0 hr 7 min 33 sec) 
Heartbeat CPU 0 instructions: 280000000 cycles: 315149893 heartbeat IPC: 0.432797 cumulative IPC: 0.43001 (Simulation time: 0 hr 7 min 58 sec) 
Heartbeat CPU 0 instructions: 290000002 cycles: 338407222 heartbeat IPC: 0.429972 cumulative IPC: 0.430006 (Simulation time: 0 hr 8 min 23 sec) 
Heartbeat CPU 0 instructions: 300000000 cycles: 361673743 heartbeat IPC: 0.429802 cumulative IPC: 0.429985 (Simulation time: 0 hr 8 min 47 sec) 
Heartbeat CPU 0 instructions: 310000002 cycles: 384832273 heartbeat IPC: 0.431806 cumulative IPC: 0.43015 (Simulation time: 0 hr 9 min 12 sec) 
Heartbeat CPU 0 instructions: 320000000 cycles: 407979026 heartbeat IPC: 0.432026 cumulative IPC: 0.430306 (Simulation time: 0 hr 9 min 37 sec) 
Heartbeat CPU 0 instructions: 330000001 cycles: 431099792 heartbeat IPC: 0.432512 cumulative IPC: 0.430475 (Simulation time: 0 hr 10 min 2 sec) 
Heartbeat CPU 0 instructions: 340000000 cycles: 454134620 heartbeat IPC: 0.434125 cumulative IPC: 0.430733 (Simulation time: 0 hr 10 min 27 sec) 
Heartbeat CPU 0 instructions: 350000000 cycles: 477555926 heartbeat IPC: 0.426962 cumulative IPC: 0.43048 (Simulation time: 0 hr 10 min 51 sec) 
Heartbeat CPU 0 instructions: 360000000 cycles: 500917824 heartbeat IPC: 0.428047 cumulative IPC: 0.430327 (Simulation time: 0 hr 11 min 16 sec) 
Heartbeat CPU 0 instructions: 370000001 cycles: 524209128 heartbeat IPC: 0.429345 cumulative IPC: 0.430269 (Simulation time: 0 hr 11 min 41 sec) 
Heartbeat CPU 0 instructions: 380000000 cycles: 547412008 heartbeat IPC: 0.430981 cumulative IPC: 0.430309 (Simulation time: 0 hr 12 min 6 sec) 
Heartbeat CPU 0 instructions: 390000002 cycles: 570554748 heartbeat IPC: 0.432101 cumulative IPC: 0.430403 (Simulation time: 0 hr 12 min 31 sec) 
Heartbeat CPU 0 instructions: 400000000 cycles: 593555530 heartbeat IPC: 0.434768 cumulative IPC: 0.430619 (Simulation time: 0 hr 12 min 56 sec) 
Heartbeat CPU 0 instructions: 410000002 cycles: 616711641 heartbeat IPC: 0.431852 cumulative IPC: 0.430677 (Simulation time: 0 hr 13 min 21 sec) 
Heartbeat CPU 0 instructions: 420000000 cycles: 639738092 heartbeat IPC: 0.434283 cumulative IPC: 0.43084 (Simulation time: 0 hr 13 min 45 sec) 
Heartbeat CPU 0 instructions: 430000000 cycles: 662784848 heartbeat IPC: 0.433901 cumulative IPC: 0.430972 (Simulation time: 0 hr 14 min 10 sec) 
Heartbeat CPU 0 instructions: 440000000 cycles: 685645658 heartbeat IPC: 0.43743 cumulative IPC: 0.431237 (Simulation time: 0 hr 14 min 35 sec) 
Heartbeat CPU 0 instructions: 450000002 cycles: 709390687 heartbeat IPC: 0.421141 cumulative IPC: 0.430824 (Simulation time: 0 hr 15 min 0 sec) 
Heartbeat CPU 0 instructions: 460000000 cycles: 732379255 heartbeat IPC: 0.434999 cumulative IPC: 0.430983 (Simulation time: 0 hr 15 min 25 sec) 
Heartbeat CPU 0 instructions: 470000002 cycles: 755265573 heartbeat IPC: 0.436942 cumulative IPC: 0.431201 (Simulation time: 0 hr 15 min 50 sec) 
Heartbeat CPU 0 instructions: 480000000 cycles: 778225544 heartbeat IPC: 0.435541 cumulative IPC: 0.431355 (Simulation time: 0 hr 16 min 14 sec) 
Heartbeat CPU 0 instructions: 490000000 cycles: 801231072 heartbeat IPC: 0.434678 cumulative IPC: 0.431468 (Simulation time: 0 hr 16 min 39 sec) 
Heartbeat CPU 0 instructions: 500000000 cycles: 824177373 heartbeat IPC: 0.4358 cumulative IPC: 0.431611 (Simulation time: 0 hr 17 min 4 sec) 
Heartbeat CPU 0 instructions: 510000001 cycles: 847258373 heartbeat IPC: 0.433257 cumulative IPC: 0.431664 (Simulation time: 0 hr 17 min 29 sec) 
Heartbeat CPU 0 instructions: 520000000 cycles: 870381652 heartbeat IPC: 0.432465 cumulative IPC: 0.431689 (Simulation time: 0 hr 17 min 54 sec) 
Heartbeat CPU 0 instructions: 530000000 cycles: 893509555 heartbeat IPC: 0.432378 cumulative IPC: 0.43171 (Simulation time: 0 hr 18 min 18 sec) 
Heartbeat CPU 0 instructions: 540000000 cycles: 916640950 heartbeat IPC: 0.432313 cumulative IPC: 0.431728 (Simulation time: 0 hr 18 min 43 sec) 
Heartbeat CPU 0 instructions: 550000001 cycles: 939587621 heartbeat IPC: 0.435793 cumulative IPC: 0.431843 (Simulation time: 0 hr 19 min 8 sec) 
Heartbeat CPU 0 instructions: 560000000 cycles: 962567264 heartbeat IPC: 0.435168 cumulative IPC: 0.431935 (Simulation time: 0 hr 19 min 33 sec) 
Heartbeat CPU 0 instructions: 570000002 cycles: 985589654 heartbeat IPC: 0.43436 cumulative IPC: 0.432 (Simulation time: 0 hr 19 min 57 sec) 
Heartbeat CPU 0 instructions: 580000000 cycles: 1008596593 heartbeat IPC: 0.434651 cumulative IPC: 0.432069 (Simulation time: 0 hr 20 min 22 sec) 
Heartbeat CPU 0 instructions: 590000000 cycles: 1031674625 heartbeat IPC: 0.433313 cumulative IPC: 0.432101 (Simulation time: 0 hr 20 min 47 sec) 
Heartbeat CPU 0 instructions: 600000000 cycles: 1054597024 heartbeat IPC: 0.436255 cumulative IPC: 0.432204 (Simulation time: 0 hr 21 min 12 sec) 
Heartbeat CPU 0 instructions: 610000003 cycles: 1077476272 heartbeat IPC: 0.437077 cumulative IPC: 0.432321 (Simulation time: 0 hr 21 min 37 sec) 
Heartbeat CPU 0 instructions: 620000000 cycles: 1100223709 heartbeat IPC: 0.43961 cumulative IPC: 0.432492 (Simulation time: 0 hr 22 min 1 sec) 
Heartbeat CPU 0 instructions: 630000001 cycles: 1122848455 heartbeat IPC: 0.441994 cumulative IPC: 0.432708 (Simulation time: 0 hr 22 min 26 sec) 
Heartbeat CPU 0 instructions: 640000000 cycles: 1145756178 heartbeat IPC: 0.436534 cumulative IPC: 0.432795 (Simulation time: 0 hr 22 min 51 sec) 
Heartbeat CPU 0 instructions: 650000000 cycles: 1168617185 heartbeat IPC: 0.437426 cumulative IPC: 0.432896 (Simulation time: 0 hr 23 min 16 sec) 
Heartbeat CPU 0 instructions: 660000000 cycles: 1191364009 heartbeat IPC: 0.439622 cumulative IPC: 0.43304 (Simulation time: 0 hr 23 min 40 sec) 
Heartbeat CPU 0 instructions: 670000000 cycles: 1214070450 heartbeat IPC: 0.440404 cumulative IPC: 0.433195 (Simulation time: 0 hr 24 min 5 sec) 
Heartbeat CPU 0 instructions: 680000000 cycles: 1236770061 heartbeat IPC: 0.440536 cumulative IPC: 0.433345 (Simulation time: 0 hr 24 min 29 sec) 
Heartbeat CPU 0 instructions: 690000000 cycles: 1259424189 heartbeat IPC: 0.441421 cumulative IPC: 0.433507 (Simulation time: 0 hr 24 min 54 sec) 
Heartbeat CPU 0 instructions: 700000000 cycles: 1282062141 heartbeat IPC: 0.441736 cumulative IPC: 0.433668 (Simulation time: 0 hr 25 min 18 sec) 
Heartbeat CPU 0 instructions: 710000000 cycles: 1304596194 heartbeat IPC: 0.443773 cumulative IPC: 0.433862 (Simulation time: 0 hr 25 min 43 sec) 
Heartbeat CPU 0 instructions: 720000000 cycles: 1327150432 heartbeat IPC: 0.443376 cumulative IPC: 0.434041 (Simulation time: 0 hr 26 min 8 sec) 
Heartbeat CPU 0 instructions: 730000003 cycles: 1349592176 heartbeat IPC: 0.445598 cumulative IPC: 0.434254 (Simulation time: 0 hr 26 min 32 sec) 
Heartbeat CPU 0 instructions: 740000000 cycles: 1371993937 heartbeat IPC: 0.446393 cumulative IPC: 0.434473 (Simulation time: 0 hr 26 min 57 sec) 
Heartbeat CPU 0 instructions: 750000000 cycles: 1394426449 heartbeat IPC: 0.445782 cumulative IPC: 0.434673 (Simulation time: 0 hr 27 min 22 sec) 
Heartbeat CPU 0 instructions: 760000000 cycles: 1416624987 heartbeat IPC: 0.45048 cumulative IPC: 0.434946 (Simulation time: 0 hr 27 min 46 sec) 
Heartbeat CPU 0 instructions: 770000001 cycles: 1438955768 heartbeat IPC: 0.447812 cumulative IPC: 0.435165 (Simulation time: 0 hr 28 min 11 sec) 
Heartbeat CPU 0 instructions: 780000000 cycles: 1461239562 heartbeat IPC: 0.448757 cumulative IPC: 0.435392 (Simulation time: 0 hr 28 min 35 sec) 
Heartbeat CPU 0 instructions: 790000000 cycles: 1483530717 heartbeat IPC: 0.448608 cumulative IPC: 0.43561 (Simulation time: 0 hr 29 min 0 sec) 
Heartbeat CPU 0 instructions: 800000000 cycles: 1505608337 heartbeat IPC: 0.452947 cumulative IPC: 0.435888 (Simulation time: 0 hr 29 min 24 sec) 
Heartbeat CPU 0 instructions: 810000000 cycles: 1528164227 heartbeat IPC: 0.443343 cumulative IPC: 0.436008 (Simulation time: 0 hr 29 min 49 sec) 
Heartbeat CPU 0 instructions: 820000000 cycles: 1550948736 heartbeat IPC: 0.438895 cumulative IPC: 0.436054 (Simulation time: 0 hr 30 min 13 sec) 
Heartbeat CPU 0 instructions: 830000000 cycles: 1574003057 heartbeat IPC: 0.433758 cumulative IPC: 0.436018 (Simulation time: 0 hr 30 min 38 sec) 
Heartbeat CPU 0 instructions: 840000000 cycles: 1597159194 heartbeat IPC: 0.431851 cumulative IPC: 0.435952 (Simulation time: 0 hr 31 min 3 sec) 
Heartbeat CPU 0 instructions: 850000000 cycles: 1620313116 heartbeat IPC: 0.431892 cumulative IPC: 0.435889 (Simulation time: 0 hr 31 min 28 sec) 
Heartbeat CPU 0 instructions: 860000000 cycles: 1643366852 heartbeat IPC: 0.433769 cumulative IPC: 0.435857 (Simulation time: 0 hr 31 min 52 sec) 
Heartbeat CPU 0 instructions: 870000003 cycles: 1666439408 heartbeat IPC: 0.433415 cumulative IPC: 0.43582 (Simulation time: 0 hr 32 min 17 sec) 
Heartbeat CPU 0 instructions: 880000000 cycles: 1689995454 heartbeat IPC: 0.424519 cumulative IPC: 0.435649 (Simulation time: 0 hr 32 min 42 sec) 
Heartbeat CPU 0 instructions: 890000000 cycles: 1712225780 heartbeat IPC: 0.449836 cumulative IPC: 0.435849 (Simulation time: 0 hr 33 min 7 sec) 
Heartbeat CPU 0 instructions: 900000000 cycles: 1734928530 heartbeat IPC: 0.440475 cumulative IPC: 0.435914 (Simulation time: 0 hr 33 min 32 sec) 
Heartbeat CPU 0 instructions: 910000001 cycles: 1757071800 heartbeat IPC: 0.451605 cumulative IPC: 0.436128 (Simulation time: 0 hr 33 min 56 sec) 
Heartbeat CPU 0 instructions: 920000000 cycles: 1779246870 heartbeat IPC: 0.450957 cumulative IPC: 0.436327 (Simulation time: 0 hr 34 min 20 sec) 
Heartbeat CPU 0 instructions: 930000001 cycles: 1801293261 heartbeat IPC: 0.453589 cumulative IPC: 0.436554 (Simulation time: 0 hr 34 min 45 sec) 
Heartbeat CPU 0 instructions: 940000000 cycles: 1823648691 heartbeat IPC: 0.447319 cumulative IPC: 0.436696 (Simulation time: 0 hr 35 min 9 sec) 
Heartbeat CPU 0 instructions: 950000001 cycles: 1846282196 heartbeat IPC: 0.441823 cumulative IPC: 0.436764 (Simulation time: 0 hr 35 min 34 sec) 
Heartbeat CPU 0 instructions: 960000000 cycles: 1868424448 heartbeat IPC: 0.451625 cumulative IPC: 0.436953 (Simulation time: 0 hr 35 min 58 sec) 
Heartbeat CPU 0 instructions: 970000001 cycles: 1891049004 heartbeat IPC: 0.441998 cumulative IPC: 0.437018 (Simulation time: 0 hr 36 min 23 sec) 
Heartbeat CPU 0 instructions: 980000000 cycles: 1913125058 heartbeat IPC: 0.452979 cumulative IPC: 0.437215 (Simulation time: 0 hr 36 min 47 sec) 
Heartbeat CPU 0 instructions: 990000000 cycles: 1935909343 heartbeat IPC: 0.438899 cumulative IPC: 0.437237 (Simulation time: 0 hr 37 min 12 sec) 
Heartbeat CPU 0 instructions: 1000000000 cycles: 1958109319 heartbeat IPC: 0.450451 cumulative IPC: 0.437397 (Simulation time: 0 hr 37 min 36 sec) 
Heartbeat CPU 0 instructions: 1010000000 cycles: 1980217230 heartbeat IPC: 0.452327 cumulative IPC: 0.437575 (Simulation time: 0 hr 38 min 1 sec) 
Heartbeat CPU 0 instructions: 1020000000 cycles: 2002890302 heartbeat IPC: 0.441052 cumulative IPC: 0.437617 (Simulation time: 0 hr 38 min 25 sec) 
Heartbeat CPU 0 instructions: 1030000002 cycles: 2025968565 heartbeat IPC: 0.433308 cumulative IPC: 0.437565 (Simulation time: 0 hr 38 min 50 sec) 
Heartbeat CPU 0 instructions: 1040000000 cycles: 2049068036 heartbeat IPC: 0.43291 cumulative IPC: 0.437509 (Simulation time: 0 hr 39 min 15 sec) 
Heartbeat CPU 0 instructions: 1050000000 cycles: 2072197245 heartbeat IPC: 0.432354 cumulative IPC: 0.437448 (Simulation time: 0 hr 39 min 40 sec) 
Heartbeat CPU 0 instructions: 1060000000 cycles: 2095292021 heartbeat IPC: 0.432998 cumulative IPC: 0.437395 (Simulation time: 0 hr 40 min 5 sec) 
Heartbeat CPU 0 instructions: 1070000001 cycles: 2118349052 heartbeat IPC: 0.433707 cumulative IPC: 0.437353 (Simulation time: 0 hr 40 min 29 sec) 
Heartbeat CPU 0 instructions: 1080000000 cycles: 2141380802 heartbeat IPC: 0.434183 cumulative IPC: 0.437316 (Simulation time: 0 hr 40 min 54 sec) 
Heartbeat CPU 0 instructions: 1090000002 cycles: 2164389629 heartbeat IPC: 0.434616 cumulative IPC: 0.437286 (Simulation time: 0 hr 41 min 19 sec) 
Heartbeat CPU 0 instructions: 1100000000 cycles: 2187434097 heartbeat IPC: 0.433944 cumulative IPC: 0.437248 (Simulation time: 0 hr 41 min 43 sec) 
Heartbeat CPU 0 instructions: 1110000001 cycles: 2210495293 heartbeat IPC: 0.433629 cumulative IPC: 0.437208 (Simulation time: 0 hr 42 min 8 sec) 
Heartbeat CPU 0 instructions: 1120000000 cycles: 2233574648 heartbeat IPC: 0.433288 cumulative IPC: 0.437165 (Simulation time: 0 hr 42 min 33 sec) 
Heartbeat CPU 0 instructions: 1130000000 cycles: 2256605930 heartbeat IPC: 0.434192 cumulative IPC: 0.437133 (Simulation time: 0 hr 42 min 58 sec) 
Heartbeat CPU 0 instructions: 1140000000 cycles: 2279559998 heartbeat IPC: 0.435653 cumulative IPC: 0.437117 (Simulation time: 0 hr 43 min 22 sec) 
Heartbeat CPU 0 instructions: 1150000000 cycles: 2302406331 heartbeat IPC: 0.437707 cumulative IPC: 0.437124 (Simulation time: 0 hr 43 min 47 sec) 
Heartbeat CPU 0 instructions: 1160000000 cycles: 2325193302 heartbeat IPC: 0.438847 cumulative IPC: 0.437141 (Simulation time: 0 hr 44 min 12 sec) 
Heartbeat CPU 0 instructions: 1170000002 cycles: 2347873931 heartbeat IPC: 0.440905 cumulative IPC: 0.43718 (Simulation time: 0 hr 44 min 36 sec) 
Heartbeat CPU 0 instructions: 1180000000 cycles: 2370632524 heartbeat IPC: 0.439394 cumulative IPC: 0.437202 (Simulation time: 0 hr 45 min 1 sec) 
Heartbeat CPU 0 instructions: 1190000000 cycles: 2393075952 heartbeat IPC: 0.445565 cumulative IPC: 0.437285 (Simulation time: 0 hr 45 min 25 sec) 
Heartbeat CPU 0 instructions: 1200000000 cycles: 2415409813 heartbeat IPC: 0.447751 cumulative IPC: 0.437387 (Simulation time: 0 hr 45 min 50 sec) 
Finished CPU 0 instructions: 1000000000 cycles: 2286302243 cumulative IPC: 0.437387 (Simulation time: 0 hr 45 min 50 sec) 

CPU 0 Branch Prediction Accuracy: 84.9318% MPKI: 16.3246

ChampSim completed all CPUs

Region of Interest Statistics

CPU 0 cumulative IPC: 0.437387 instructions: 1000000000 cycles: 2286302243
L1D TOTAL     ACCESS:  320125645  HIT:  316139846  MISS:    3985799
L1D LOAD      ACCESS:  205029988  HIT:  201779791  MISS:    3250197
L1D RFO       ACCESS:  115095657  HIT:  114360055  MISS:     735602
L1D PREFETCH  ACCESS:          0  HIT:          0  MISS:          0
L1D WRITEBACK ACCESS:          0  HIT:          0  MISS:          0
L1D PREFETCH  REQUESTED:          0  ISSUED:          0  USEFUL:          0  USELESS:          0
L1I TOTAL     ACCESS:  233127548  HIT:  232925911  MISS:     201637
L1I LOAD      ACCESS:  233127548  HIT:  232925911  MISS:     201637
L1I RFO       ACCESS:          0  HIT:          0  MISS:          0
L1I PREFETCH  ACCESS:          0  HIT:          0  MISS:          0
L1I WRITEBACK ACCESS:          0  HIT:          0  MISS:          0
L1I PREFETCH  REQUESTED:          0  ISSUED:          0  USEFUL:          0  USELESS:          0
L2C TOTAL     ACCESS:    5531099  HIT:    5449732  MISS:      81367
L2C LOAD      ACCESS:    3451824  HIT:    3387935  MISS:      63889
L2C RFO       ACCESS:     735601  HIT:     718371  MISS:      17230
L2C PREFETCH  ACCESS:          0  HIT:          0  MISS:          0
L2C WRITEBACK ACCESS:    1343674  HIT:    1343426  MISS:        248
L2C PREFETCH  REQUESTED:          0  ISSUED:          0  USEFUL:          0  USELESS:          0
LLC TOTAL     ACCESS:     107992  HIT:     104480  MISS:       3512
LLC LOAD      ACCESS:      63889  HIT:      61340  MISS:       2549
LLC RFO       ACCESS:      17228  HIT:      16267  MISS:        961
LLC PREFETCH  ACCESS:          0  HIT:          0  MISS:          0
LLC WRITEBACK ACCESS:      26875  HIT:      26873  MISS:          2
LLC PREFETCH  REQUESTED:          0  ISSUED:          0  USEFUL:          0  USELESS:          0
Major fault: 0 Minor fault: 1491

DRAM Statistics
 CHANNEL 0
 RQ ROW_BUFFER_HIT:        888  ROW_BUFFER_MISS:       2606
 DBUS_CONGESTED:       1554
 WQ ROW_BUFFER_HIT:        435  ROW_BUFFER_MISS:       1327  FULL:          0

 AVG_CONGESTED_CYCLE: 14
