
*** ChampSim Multicore Out-of-Order Simulator ***

Warmup Instructions: 200000000
Simulation Instructions: 1000000000
Number of CPUs: 1
LLC sets: 2048
LLC ways: 16
Off-chip DRAM Size: 4096 MB Channels: 1 Width: 64-bit Data Rate: 1600 MT/s

CPU 0 runs /scratch/user/djimenez/champsim-traces/speccpu2017/xz/649.fotonik3d_s/649.fotonik3d_s-10881B.champsimtrace.xz
Heartbeat CPU 0 instructions: 10000001 cycles: 8412396 heartbeat IPC: 1.18872 cumulative IPC: 1.18872 (Simulation time: 0 hr 0 min 30 sec) 
Heartbeat CPU 0 instructions: 20000000 cycles: 16795576 heartbeat IPC: 1.19286 cumulative IPC: 1.19079 (Simulation time: 0 hr 1 min 0 sec) 
Heartbeat CPU 0 instructions: 30000000 cycles: 25170707 heartbeat IPC: 1.19401 cumulative IPC: 1.19186 (Simulation time: 0 hr 1 min 30 sec) 
Heartbeat CPU 0 instructions: 40000000 cycles: 33556659 heartbeat IPC: 1.19247 cumulative IPC: 1.19201 (Simulation time: 0 hr 2 min 0 sec) 
Heartbeat CPU 0 instructions: 50000001 cycles: 41975423 heartbeat IPC: 1.18782 cumulative IPC: 1.19117 (Simulation time: 0 hr 2 min 31 sec) 
Heartbeat CPU 0 instructions: 60000000 cycles: 50367185 heartbeat IPC: 1.19164 cumulative IPC: 1.19125 (Simulation time: 0 hr 3 min 1 sec) 
Heartbeat CPU 0 instructions: 70000003 cycles: 58737555 heartbeat IPC: 1.19469 cumulative IPC: 1.19174 (Simulation time: 0 hr 3 min 31 sec) 
Heartbeat CPU 0 instructions: 80000000 cycles: 67125034 heartbeat IPC: 1.19225 cumulative IPC: 1.19181 (Simulation time: 0 hr 4 min 1 sec) 
Heartbeat CPU 0 instructions: 90000001 cycles: 75531571 heartbeat IPC: 1.18955 cumulative IPC: 1.19155 (Simulation time: 0 hr 4 min 31 sec) 
Heartbeat CPU 0 instructions: 100000000 cycles: 83911334 heartbeat IPC: 1.19335 cumulative IPC: 1.19173 (Simulation time: 0 hr 5 min 1 sec) 
Heartbeat CPU 0 instructions: 110000002 cycles: 92301682 heartbeat IPC: 1.19185 cumulative IPC: 1.19174 (Simulation time: 0 hr 5 min 32 sec) 
Heartbeat CPU 0 instructions: 120000000 cycles: 100699438 heartbeat IPC: 1.19079 cumulative IPC: 1.19167 (Simulation time: 0 hr 6 min 2 sec) 
Heartbeat CPU 0 instructions: 130000001 cycles: 109102380 heartbeat IPC: 1.19006 cumulative IPC: 1.19154 (Simulation time: 0 hr 6 min 32 sec) 
Heartbeat CPU 0 instructions: 140000000 cycles: 117481918 heartbeat IPC: 1.19338 cumulative IPC: 1.19167 (Simulation time: 0 hr 7 min 2 sec) 
Heartbeat CPU 0 instructions: 150000002 cycles: 125855951 heartbeat IPC: 1.19417 cumulative IPC: 1.19184 (Simulation time: 0 hr 7 min 32 sec) 
Heartbeat CPU 0 instructions: 160000000 cycles: 134254614 heartbeat IPC: 1.19067 cumulative IPC: 1.19177 (Simulation time: 0 hr 8 min 2 sec) 
Heartbeat CPU 0 instructions: 170000000 cycles: 142660914 heartbeat IPC: 1.18958 cumulative IPC: 1.19164 (Simulation time: 0 hr 8 min 32 sec) 
Heartbeat CPU 0 instructions: 180000000 cycles: 151037171 heartbeat IPC: 1.19385 cumulative IPC: 1.19176 (Simulation time: 0 hr 9 min 3 sec) 
Heartbeat CPU 0 instructions: 190000001 cycles: 159426400 heartbeat IPC: 1.192 cumulative IPC: 1.19177 (Simulation time: 0 hr 9 min 33 sec) 
Heartbeat CPU 0 instructions: 200000000 cycles: 167822838 heartbeat IPC: 1.19098 cumulative IPC: 1.19173 (Simulation time: 0 hr 10 min 3 sec) 

Warmup complete CPU 0 instructions: 200000001 cycles: 167822857 (Simulation time: 0 hr 10 min 3 sec) 

Heartbeat CPU 0 instructions: 210000002 cycles: 191565699 heartbeat IPC: 0.421179 cumulative IPC: 0.42118 (Simulation time: 0 hr 10 min 44 sec) 
Heartbeat CPU 0 instructions: 220000000 cycles: 215289924 heartbeat IPC: 0.42151 cumulative IPC: 0.421345 (Simulation time: 0 hr 11 min 25 sec) 
Heartbeat CPU 0 instructions: 230000002 cycles: 239168571 heartbeat IPC: 0.418784 cumulative IPC: 0.420488 (Simulation time: 0 hr 12 min 6 sec) 
Heartbeat CPU 0 instructions: 240000000 cycles: 262968191 heartbeat IPC: 0.420175 cumulative IPC: 0.420409 (Simulation time: 0 hr 12 min 47 sec) 
Heartbeat CPU 0 instructions: 250000001 cycles: 286748181 heartbeat IPC: 0.420522 cumulative IPC: 0.420432 (Simulation time: 0 hr 13 min 28 sec) 
Heartbeat CPU 0 instructions: 260000000 cycles: 310594756 heartbeat IPC: 0.419347 cumulative IPC: 0.420251 (Simulation time: 0 hr 14 min 9 sec) 
Heartbeat CPU 0 instructions: 270000001 cycles: 334493958 heartbeat IPC: 0.418424 cumulative IPC: 0.419989 (Simulation time: 0 hr 14 min 51 sec) 
Heartbeat CPU 0 instructions: 280000000 cycles: 383968892 heartbeat IPC: 0.202123 cumulative IPC: 0.37012 (Simulation time: 0 hr 15 min 40 sec) 
Heartbeat CPU 0 instructions: 290000000 cycles: 440587557 heartbeat IPC: 0.17662 cumulative IPC: 0.329955 (Simulation time: 0 hr 16 min 32 sec) 
Heartbeat CPU 0 instructions: 300000000 cycles: 464914508 heartbeat IPC: 0.411067 cumulative IPC: 0.336596 (Simulation time: 0 hr 17 min 14 sec) 
Heartbeat CPU 0 instructions: 310000002 cycles: 489568853 heartbeat IPC: 0.405608 cumulative IPC: 0.341885 (Simulation time: 0 hr 17 min 56 sec) 
Heartbeat CPU 0 instructions: 320000000 cycles: 514126816 heartbeat IPC: 0.4072 cumulative IPC: 0.346516 (Simulation time: 0 hr 18 min 37 sec) 
Heartbeat CPU 0 instructions: 330000002 cycles: 538804070 heartbeat IPC: 0.405232 cumulative IPC: 0.350422 (Simulation time: 0 hr 19 min 19 sec) 
Heartbeat CPU 0 instructions: 340000000 cycles: 562989973 heartbeat IPC: 0.413464 cumulative IPC: 0.354281 (Simulation time: 0 hr 20 min 1 sec) 
Heartbeat CPU 0 instructions: 350000002 cycles: 587295802 heartbeat IPC: 0.411424 cumulative IPC: 0.357592 (Simulation time: 0 hr 20 min 42 sec) 
Heartbeat CPU 0 instructions: 360000000 cycles: 611551497 heartbeat IPC: 0.412274 cumulative IPC: 0.360581 (Simulation time: 0 hr 21 min 24 sec) 
Heartbeat CPU 0 instructions: 370000003 cycles: 635828230 heartbeat IPC: 0.411917 cumulative IPC: 0.363244 (Simulation time: 0 hr 22 min 5 sec) 
Heartbeat CPU 0 instructions: 380000000 cycles: 660081011 heartbeat IPC: 0.412324 cumulative IPC: 0.365662 (Simulation time: 0 hr 22 min 47 sec) 
Heartbeat CPU 0 instructions: 390000001 cycles: 684313688 heartbeat IPC: 0.412666 cumulative IPC: 0.367867 (Simulation time: 0 hr 23 min 29 sec) 
Heartbeat CPU 0 instructions: 400000000 cycles: 708566330 heartbeat IPC: 0.412326 cumulative IPC: 0.369861 (Simulation time: 0 hr 24 min 10 sec) 
Heartbeat CPU 0 instructions: 410000003 cycles: 732822110 heartbeat IPC: 0.412273 cumulative IPC: 0.371682 (Simulation time: 0 hr 24 min 52 sec) 
Heartbeat CPU 0 instructions: 420000000 cycles: 757093974 heartbeat IPC: 0.412 cumulative IPC: 0.373343 (Simulation time: 0 hr 25 min 33 sec) 
Heartbeat CPU 0 instructions: 430000003 cycles: 781300655 heartbeat IPC: 0.413109 cumulative IPC: 0.374912 (Simulation time: 0 hr 26 min 15 sec) 
Heartbeat CPU 0 instructions: 440000000 cycles: 805581452 heartbeat IPC: 0.411848 cumulative IPC: 0.376318 (Simulation time: 0 hr 26 min 56 sec) 
Heartbeat CPU 0 instructions: 450000002 cycles: 829871824 heartbeat IPC: 0.411686 cumulative IPC: 0.377616 (Simulation time: 0 hr 27 min 38 sec) 
Heartbeat CPU 0 instructions: 460000000 cycles: 854118005 heartbeat IPC: 0.412436 cumulative IPC: 0.378846 (Simulation time: 0 hr 28 min 19 sec) 
Heartbeat CPU 0 instructions: 470000003 cycles: 878424117 heartbeat IPC: 0.411419 cumulative IPC: 0.37996 (Simulation time: 0 hr 29 min 1 sec) 
Heartbeat CPU 0 instructions: 480000000 cycles: 902671222 heartbeat IPC: 0.41242 cumulative IPC: 0.381031 (Simulation time: 0 hr 29 min 42 sec) 
Heartbeat CPU 0 instructions: 490000002 cycles: 926943157 heartbeat IPC: 0.411999 cumulative IPC: 0.382021 (Simulation time: 0 hr 30 min 24 sec) 
Heartbeat CPU 0 instructions: 500000000 cycles: 951155935 heartbeat IPC: 0.413005 cumulative IPC: 0.382979 (Simulation time: 0 hr 31 min 6 sec) 
Heartbeat CPU 0 instructions: 510000000 cycles: 975383764 heartbeat IPC: 0.412748 cumulative IPC: 0.383872 (Simulation time: 0 hr 31 min 47 sec) 
Heartbeat CPU 0 instructions: 520000000 cycles: 999679202 heartbeat IPC: 0.4116 cumulative IPC: 0.384682 (Simulation time: 0 hr 32 min 29 sec) 
Heartbeat CPU 0 instructions: 530000001 cycles: 1023860752 heartbeat IPC: 0.413538 cumulative IPC: 0.385497 (Simulation time: 0 hr 33 min 10 sec) 
Heartbeat CPU 0 instructions: 540000000 cycles: 1048168639 heartbeat IPC: 0.411389 cumulative IPC: 0.386212 (Simulation time: 0 hr 33 min 52 sec) 
Heartbeat CPU 0 instructions: 550000001 cycles: 1072434972 heartbeat IPC: 0.412094 cumulative IPC: 0.386906 (Simulation time: 0 hr 34 min 33 sec) 
Heartbeat CPU 0 instructions: 560000000 cycles: 1096676429 heartbeat IPC: 0.412516 cumulative IPC: 0.387575 (Simulation time: 0 hr 35 min 15 sec) 
Heartbeat CPU 0 instructions: 570000000 cycles: 1120932427 heartbeat IPC: 0.412269 cumulative IPC: 0.388203 (Simulation time: 0 hr 35 min 56 sec) 
Heartbeat CPU 0 instructions: 580000000 cycles: 1145187334 heartbeat IPC: 0.412288 cumulative IPC: 0.388801 (Simulation time: 0 hr 36 min 38 sec) 
Heartbeat CPU 0 instructions: 590000003 cycles: 1169460018 heartbeat IPC: 0.411986 cumulative IPC: 0.389363 (Simulation time: 0 hr 37 min 19 sec) 
Heartbeat CPU 0 instructions: 600000000 cycles: 1193747527 heartbeat IPC: 0.411734 cumulative IPC: 0.389892 (Simulation time: 0 hr 38 min 1 sec) 
Heartbeat CPU 0 instructions: 610000000 cycles: 1216662884 heartbeat IPC: 0.436389 cumulative IPC: 0.390908 (Simulation time: 0 hr 38 min 42 sec) 
Heartbeat CPU 0 instructions: 620000000 cycles: 1236634368 heartbeat IPC: 0.500714 cumulative IPC: 0.39296 (Simulation time: 0 hr 39 min 22 sec) 
Heartbeat CPU 0 instructions: 630000001 cycles: 1256499215 heartbeat IPC: 0.503402 cumulative IPC: 0.394975 (Simulation time: 0 hr 40 min 3 sec) 
Heartbeat CPU 0 instructions: 640000000 cycles: 1276485139 heartbeat IPC: 0.500352 cumulative IPC: 0.396875 (Simulation time: 0 hr 40 min 43 sec) 
Heartbeat CPU 0 instructions: 650000003 cycles: 1296467871 heartbeat IPC: 0.500432 cumulative IPC: 0.398708 (Simulation time: 0 hr 41 min 24 sec) 
Heartbeat CPU 0 instructions: 660000000 cycles: 1316355935 heartbeat IPC: 0.502814 cumulative IPC: 0.400511 (Simulation time: 0 hr 42 min 4 sec) 
Heartbeat CPU 0 instructions: 670000002 cycles: 1336255771 heartbeat IPC: 0.502517 cumulative IPC: 0.402248 (Simulation time: 0 hr 42 min 45 sec) 
Heartbeat CPU 0 instructions: 680000000 cycles: 1356460357 heartbeat IPC: 0.494937 cumulative IPC: 0.403824 (Simulation time: 0 hr 43 min 26 sec) 
Heartbeat CPU 0 instructions: 690000001 cycles: 1376007323 heartbeat IPC: 0.511588 cumulative IPC: 0.405567 (Simulation time: 0 hr 44 min 4 sec) 
Heartbeat CPU 0 instructions: 700000000 cycles: 1394484654 heartbeat IPC: 0.541204 cumulative IPC: 0.40761 (Simulation time: 0 hr 44 min 41 sec) 
Heartbeat CPU 0 instructions: 710000003 cycles: 1412989551 heartbeat IPC: 0.540398 cumulative IPC: 0.409584 (Simulation time: 0 hr 45 min 18 sec) 
Heartbeat CPU 0 instructions: 720000000 cycles: 1431446521 heartbeat IPC: 0.541801 cumulative IPC: 0.411515 (Simulation time: 0 hr 45 min 56 sec) 
Heartbeat CPU 0 instructions: 730000000 cycles: 1449917412 heartbeat IPC: 0.541392 cumulative IPC: 0.413386 (Simulation time: 0 hr 46 min 33 sec) 
Heartbeat CPU 0 instructions: 740000000 cycles: 1468412128 heartbeat IPC: 0.540695 cumulative IPC: 0.415196 (Simulation time: 0 hr 47 min 11 sec) 
Heartbeat CPU 0 instructions: 750000002 cycles: 1486884545 heartbeat IPC: 0.541348 cumulative IPC: 0.416963 (Simulation time: 0 hr 47 min 48 sec) 
Heartbeat CPU 0 instructions: 760000000 cycles: 1505377449 heartbeat IPC: 0.540748 cumulative IPC: 0.418674 (Simulation time: 0 hr 48 min 25 sec) 
Heartbeat CPU 0 instructions: 770000000 cycles: 1524192932 heartbeat IPC: 0.531477 cumulative IPC: 0.420239 (Simulation time: 0 hr 49 min 3 sec) 
Heartbeat CPU 0 instructions: 780000000 cycles: 1545245808 heartbeat IPC: 0.474994 cumulative IPC: 0.421076 (Simulation time: 0 hr 49 min 44 sec) 
Heartbeat CPU 0 instructions: 790000001 cycles: 1566310122 heartbeat IPC: 0.474737 cumulative IPC: 0.421884 (Simulation time: 0 hr 50 min 25 sec) 
Heartbeat CPU 0 instructions: 800000000 cycles: 1588006405 heartbeat IPC: 0.460908 cumulative IPC: 0.422481 (Simulation time: 0 hr 51 min 7 sec) 
Heartbeat CPU 0 instructions: 810000000 cycles: 1609780209 heartbeat IPC: 0.459267 cumulative IPC: 0.423036 (Simulation time: 0 hr 51 min 49 sec) 
Heartbeat CPU 0 instructions: 820000000 cycles: 1631161360 heartbeat IPC: 0.467702 cumulative IPC: 0.423689 (Simulation time: 0 hr 52 min 30 sec) 
Heartbeat CPU 0 instructions: 830000003 cycles: 1652447092 heartbeat IPC: 0.469798 cumulative IPC: 0.42435 (Simulation time: 0 hr 53 min 11 sec) 
Heartbeat CPU 0 instructions: 840000000 cycles: 1673642387 heartbeat IPC: 0.471803 cumulative IPC: 0.425018 (Simulation time: 0 hr 53 min 53 sec) 
Heartbeat CPU 0 instructions: 850000003 cycles: 1694760682 heartbeat IPC: 0.473523 cumulative IPC: 0.425689 (Simulation time: 0 hr 54 min 34 sec) 
Heartbeat CPU 0 instructions: 860000000 cycles: 1716166324 heartbeat IPC: 0.467166 cumulative IPC: 0.426262 (Simulation time: 0 hr 55 min 15 sec) 
Heartbeat CPU 0 instructions: 870000003 cycles: 1737635393 heartbeat IPC: 0.465787 cumulative IPC: 0.426803 (Simulation time: 0 hr 55 min 57 sec) 
Heartbeat CPU 0 instructions: 880000000 cycles: 1759135292 heartbeat IPC: 0.465118 cumulative IPC: 0.42732 (Simulation time: 0 hr 56 min 38 sec) 
Heartbeat CPU 0 instructions: 890000000 cycles: 1780660440 heartbeat IPC: 0.464573 cumulative IPC: 0.427817 (Simulation time: 0 hr 57 min 19 sec) 
Heartbeat CPU 0 instructions: 900000000 cycles: 1802022562 heartbeat IPC: 0.468118 cumulative IPC: 0.428344 (Simulation time: 0 hr 58 min 1 sec) 
Heartbeat CPU 0 instructions: 910000000 cycles: 1823108048 heartbeat IPC: 0.47426 cumulative IPC: 0.428929 (Simulation time: 0 hr 58 min 42 sec) 
Heartbeat CPU 0 instructions: 920000000 cycles: 1844329608 heartbeat IPC: 0.471219 cumulative IPC: 0.429464 (Simulation time: 0 hr 59 min 23 sec) 
Heartbeat CPU 0 instructions: 930000000 cycles: 1865448233 heartbeat IPC: 0.473516 cumulative IPC: 0.430012 (Simulation time: 1 hr 0 min 4 sec) 
Heartbeat CPU 0 instructions: 940000000 cycles: 1886567330 heartbeat IPC: 0.473505 cumulative IPC: 0.430547 (Simulation time: 1 hr 0 min 46 sec) 
Heartbeat CPU 0 instructions: 950000003 cycles: 1908052664 heartbeat IPC: 0.465434 cumulative IPC: 0.430978 (Simulation time: 1 hr 1 min 27 sec) 
Heartbeat CPU 0 instructions: 960000000 cycles: 1929750015 heartbeat IPC: 0.460886 cumulative IPC: 0.431346 (Simulation time: 1 hr 2 min 8 sec) 
Heartbeat CPU 0 instructions: 970000003 cycles: 1951269796 heartbeat IPC: 0.464689 cumulative IPC: 0.431748 (Simulation time: 1 hr 2 min 50 sec) 
Heartbeat CPU 0 instructions: 980000000 cycles: 1972885376 heartbeat IPC: 0.462629 cumulative IPC: 0.432118 (Simulation time: 1 hr 3 min 31 sec) 
Heartbeat CPU 0 instructions: 990000000 cycles: 1994020475 heartbeat IPC: 0.473147 cumulative IPC: 0.432593 (Simulation time: 1 hr 4 min 12 sec) 
Heartbeat CPU 0 instructions: 1000000000 cycles: 2015401505 heartbeat IPC: 0.467704 cumulative IPC: 0.432999 (Simulation time: 1 hr 4 min 54 sec) 
Heartbeat CPU 0 instructions: 1010000002 cycles: 2036827007 heartbeat IPC: 0.466734 cumulative IPC: 0.433386 (Simulation time: 1 hr 5 min 35 sec) 
Heartbeat CPU 0 instructions: 1020000000 cycles: 2058333563 heartbeat IPC: 0.464974 cumulative IPC: 0.433745 (Simulation time: 1 hr 6 min 17 sec) 
Heartbeat CPU 0 instructions: 1030000002 cycles: 2082080763 heartbeat IPC: 0.421102 cumulative IPC: 0.433588 (Simulation time: 1 hr 6 min 58 sec) 
Heartbeat CPU 0 instructions: 1040000000 cycles: 2104128273 heartbeat IPC: 0.453566 cumulative IPC: 0.433816 (Simulation time: 1 hr 7 min 40 sec) 
Heartbeat CPU 0 instructions: 1050000000 cycles: 2125821724 heartbeat IPC: 0.460969 cumulative IPC: 0.434117 (Simulation time: 1 hr 8 min 22 sec) 
Heartbeat CPU 0 instructions: 1060000000 cycles: 2147721385 heartbeat IPC: 0.456628 cumulative IPC: 0.434366 (Simulation time: 1 hr 9 min 3 sec) 
Heartbeat CPU 0 instructions: 1070000001 cycles: 2169389464 heartbeat IPC: 0.461508 cumulative IPC: 0.43466 (Simulation time: 1 hr 9 min 45 sec) 
Heartbeat CPU 0 instructions: 1080000000 cycles: 2191084309 heartbeat IPC: 0.460939 cumulative IPC: 0.434941 (Simulation time: 1 hr 10 min 26 sec) 
Heartbeat CPU 0 instructions: 1090000002 cycles: 2212652130 heartbeat IPC: 0.463654 cumulative IPC: 0.435244 (Simulation time: 1 hr 11 min 8 sec) 
Heartbeat CPU 0 instructions: 1100000000 cycles: 2234278618 heartbeat IPC: 0.462396 cumulative IPC: 0.435528 (Simulation time: 1 hr 11 min 50 sec) 
Heartbeat CPU 0 instructions: 1110000001 cycles: 2255863415 heartbeat IPC: 0.463289 cumulative IPC: 0.435815 (Simulation time: 1 hr 12 min 31 sec) 
Heartbeat CPU 0 instructions: 1120000000 cycles: 2277225283 heartbeat IPC: 0.468124 cumulative IPC: 0.436142 (Simulation time: 1 hr 13 min 13 sec) 
Heartbeat CPU 0 instructions: 1130000000 cycles: 2298968401 heartbeat IPC: 0.459916 cumulative IPC: 0.436385 (Simulation time: 1 hr 13 min 54 sec) 
Heartbeat CPU 0 instructions: 1140000000 cycles: 2320901427 heartbeat IPC: 0.455933 cumulative IPC: 0.436584 (Simulation time: 1 hr 14 min 36 sec) 
Heartbeat CPU 0 instructions: 1150000003 cycles: 2342523729 heartbeat IPC: 0.462486 cumulative IPC: 0.436842 (Simulation time: 1 hr 15 min 17 sec) 
Heartbeat CPU 0 instructions: 1160000000 cycles: 2364439242 heartbeat IPC: 0.456298 cumulative IPC: 0.437036 (Simulation time: 1 hr 15 min 59 sec) 
Heartbeat CPU 0 instructions: 1170000001 cycles: 2385973592 heartbeat IPC: 0.464374 cumulative IPC: 0.437301 (Simulation time: 1 hr 16 min 40 sec) 
Heartbeat CPU 0 instructions: 1180000000 cycles: 2407464706 heartbeat IPC: 0.465309 cumulative IPC: 0.43757 (Simulation time: 1 hr 17 min 22 sec) 
Heartbeat CPU 0 instructions: 1190000000 cycles: 2428981354 heartbeat IPC: 0.464756 cumulative IPC: 0.437829 (Simulation time: 1 hr 18 min 3 sec) 
Heartbeat CPU 0 instructions: 1200000000 cycles: 2450738708 heartbeat IPC: 0.459615 cumulative IPC: 0.438036 (Simulation time: 1 hr 18 min 45 sec) 
Finished CPU 0 instructions: 1000000000 cycles: 2282915879 cumulative IPC: 0.438036 (Simulation time: 1 hr 18 min 45 sec) 

CPU 0 Branch Prediction Accuracy: 99.7591% MPKI: 0.02718

ChampSim completed all CPUs

Region of Interest Statistics

CPU 0 cumulative IPC: 0.438036 instructions: 1000000000 cycles: 2282915879
L1D TOTAL     ACCESS:  563614054  HIT:  542888793  MISS:   20725261
L1D LOAD      ACCESS:  499269654  HIT:  478544720  MISS:   20724934
L1D RFO       ACCESS:   64344400  HIT:   64344073  MISS:        327
L1D PREFETCH  ACCESS:          0  HIT:          0  MISS:          0
L1D WRITEBACK ACCESS:          0  HIT:          0  MISS:          0
L1D PREFETCH  REQUESTED:          0  ISSUED:          0  USEFUL:          0  USELESS:          0
L1I TOTAL     ACCESS:  306228883  HIT:  306228549  MISS:        334
L1I LOAD      ACCESS:  306228883  HIT:  306228549  MISS:        334
L1I RFO       ACCESS:          0  HIT:          0  MISS:          0
L1I PREFETCH  ACCESS:          0  HIT:          0  MISS:          0
L1I WRITEBACK ACCESS:          0  HIT:          0  MISS:          0
L1I PREFETCH  REQUESTED:          0  ISSUED:          0  USEFUL:          0  USELESS:          0
L2C TOTAL     ACCESS:   29523037  HIT:   12035741  MISS:   17487296
L2C LOAD      ACCESS:   20725264  HIT:    3238010  MISS:   17487254
L2C RFO       ACCESS:        323  HIT:        298  MISS:         25
L2C PREFETCH  ACCESS:          0  HIT:          0  MISS:          0
L2C WRITEBACK ACCESS:    8797450  HIT:    8797433  MISS:         17
L2C PREFETCH  REQUESTED:          0  ISSUED:          0  USEFUL:          0  USELESS:          0
LLC TOTAL     ACCESS:   26280691  HIT:   10787409  MISS:   15493282
LLC LOAD      ACCESS:   17487254  HIT:    1994005  MISS:   15493249
LLC RFO       ACCESS:         25  HIT:         13  MISS:         12
LLC PREFETCH  ACCESS:          0  HIT:          0  MISS:          0
LLC WRITEBACK ACCESS:    8793412  HIT:    8793391  MISS:         21
LLC PREFETCH  REQUESTED:          0  ISSUED:          0  USEFUL:          0  USELESS:          0
Major fault: 0 Minor fault: 864441

DRAM Statistics
 CHANNEL 0
 RQ ROW_BUFFER_HIT:   10666619  ROW_BUFFER_MISS:    4826642
 DBUS_CONGESTED:   11039212
 WQ ROW_BUFFER_HIT:    3008811  ROW_BUFFER_MISS:    5784638  FULL:          0

 AVG_CONGESTED_CYCLE: 13
