Initialize SIGNATURE TABLE
ST_SET: 1
ST_WAY: 256
ST_TAG_BIT: 16
ST_TAG_MASK: ffff

Initialize PATTERN TABLE
PT_SET: 512
PT_WAY: 4
SIG_DELTA_BIT: 7
C_SIG_BIT: 4
C_DELTA_BIT: 4

Initialize PREFETCH FILTER
FILTER_SET: 1024

*** ChampSim Multicore Out-of-Order Simulator ***

Warmup Instructions: 200000000
Simulation Instructions: 1000000000
Number of CPUs: 4
LLC sets: 8192
LLC ways: 16
Off-chip DRAM Size: 8192 MB Channels: 2 Width: 64-bit Data Rate: 1600 MT/s

CPU 0 runs /scratch/user/djimenez/champsim-traces/speccpu2017/xz/607.cactuBSSN_s/607.cactuBSSN_s-2421B.champsimtrace.xz
CPU 1 runs /scratch/user/djimenez/champsim-traces/speccpu2017/xz/654.roms_s/654.roms_s-1007B.champsimtrace.xz
CPU 2 runs /scratch/user/djimenez/champsim-traces/speccpu2017/xz/625.x264_s/625.x264_s-20B.champsimtrace.xz
CPU 3 runs /scratch/user/djimenez/champsim-traces/speccpu2017/xz/619.lbm_s/619.lbm_s-3766B.champsimtrace.xz
Heartbeat CPU 2 instructions: 10000001 cycles: 3931725 heartbeat IPC: 2.54341 cumulative IPC: 2.54341 (Simulation time: 0 hr 1 min 39 sec) 
Heartbeat CPU 3 instructions: 10000000 cycles: 4272954 heartbeat IPC: 2.3403 cumulative IPC: 2.3403 (Simulation time: 0 hr 1 min 47 sec) 
Heartbeat CPU 1 instructions: 10000002 cycles: 5112374 heartbeat IPC: 1.95604 cumulative IPC: 1.95604 (Simulation time: 0 hr 2 min 9 sec) 
Heartbeat CPU 0 instructions: 10000000 cycles: 5800904 heartbeat IPC: 1.72387 cumulative IPC: 1.72387 (Simulation time: 0 hr 2 min 26 sec) 
Heartbeat CPU 2 instructions: 20000000 cycles: 7904309 heartbeat IPC: 2.51725 cumulative IPC: 2.53027 (Simulation time: 0 hr 3 min 19 sec) 
Heartbeat CPU 3 instructions: 20000000 cycles: 8555166 heartbeat IPC: 2.33524 cumulative IPC: 2.33777 (Simulation time: 0 hr 3 min 36 sec) 
Heartbeat CPU 1 instructions: 20000000 cycles: 10224325 heartbeat IPC: 1.9562 cumulative IPC: 1.95612 (Simulation time: 0 hr 4 min 18 sec) 
Heartbeat CPU 0 instructions: 20000000 cycles: 11600819 heartbeat IPC: 1.72416 cumulative IPC: 1.72402 (Simulation time: 0 hr 4 min 53 sec) 
Heartbeat CPU 2 instructions: 30000002 cycles: 11875986 heartbeat IPC: 2.51783 cumulative IPC: 2.52611 (Simulation time: 0 hr 5 min 0 sec) 
Heartbeat CPU 3 instructions: 30000001 cycles: 12828610 heartbeat IPC: 2.34003 cumulative IPC: 2.33852 (Simulation time: 0 hr 5 min 24 sec) 
Heartbeat CPU 1 instructions: 30000000 cycles: 15336417 heartbeat IPC: 1.95615 cumulative IPC: 1.95613 (Simulation time: 0 hr 6 min 28 sec) 
Heartbeat CPU 2 instructions: 40000000 cycles: 15849517 heartbeat IPC: 2.51665 cumulative IPC: 2.52374 (Simulation time: 0 hr 6 min 41 sec) 
Heartbeat CPU 3 instructions: 40000000 cycles: 17111150 heartbeat IPC: 2.33506 cumulative IPC: 2.33766 (Simulation time: 0 hr 7 min 13 sec) 
Heartbeat CPU 0 instructions: 30000001 cycles: 17402668 heartbeat IPC: 1.72359 cumulative IPC: 1.72387 (Simulation time: 0 hr 7 min 20 sec) 
Heartbeat CPU 2 instructions: 50000000 cycles: 19816411 heartbeat IPC: 2.52086 cumulative IPC: 2.52316 (Simulation time: 0 hr 8 min 21 sec) 
Heartbeat CPU 1 instructions: 40000000 cycles: 20448528 heartbeat IPC: 1.95614 cumulative IPC: 1.95613 (Simulation time: 0 hr 8 min 37 sec) 
Heartbeat CPU 3 instructions: 50000001 cycles: 21393600 heartbeat IPC: 2.33511 cumulative IPC: 2.33715 (Simulation time: 0 hr 9 min 1 sec) 
Heartbeat CPU 0 instructions: 40000000 cycles: 23204620 heartbeat IPC: 1.72356 cumulative IPC: 1.72379 (Simulation time: 0 hr 9 min 48 sec) 
Heartbeat CPU 2 instructions: 60000000 cycles: 23791619 heartbeat IPC: 2.51559 cumulative IPC: 2.5219 (Simulation time: 0 hr 10 min 3 sec) 
Heartbeat CPU 1 instructions: 50000003 cycles: 25399680 heartbeat IPC: 2.01973 cumulative IPC: 1.96853 (Simulation time: 0 hr 10 min 45 sec) 
Heartbeat CPU 3 instructions: 60000000 cycles: 25666741 heartbeat IPC: 2.3402 cumulative IPC: 2.33766 (Simulation time: 0 hr 10 min 52 sec) 
Heartbeat CPU 2 instructions: 70000002 cycles: 27771608 heartbeat IPC: 2.51257 cumulative IPC: 2.52056 (Simulation time: 0 hr 11 min 46 sec) 
Heartbeat CPU 0 instructions: 50000003 cycles: 29005985 heartbeat IPC: 1.72373 cumulative IPC: 1.72378 (Simulation time: 0 hr 12 min 17 sec) 
Heartbeat CPU 3 instructions: 70000003 cycles: 29949340 heartbeat IPC: 2.33503 cumulative IPC: 2.33728 (Simulation time: 0 hr 12 min 41 sec) 
Heartbeat CPU 1 instructions: 60000000 cycles: 30210814 heartbeat IPC: 2.07851 cumulative IPC: 1.98604 (Simulation time: 0 hr 12 min 48 sec) 
Heartbeat CPU 2 instructions: 80000000 cycles: 31755121 heartbeat IPC: 2.51035 cumulative IPC: 2.51928 (Simulation time: 0 hr 13 min 29 sec) 
Heartbeat CPU 0 instructions: 60000000 cycles: 33710716 heartbeat IPC: 2.12552 cumulative IPC: 1.77985 (Simulation time: 0 hr 14 min 20 sec) 
Heartbeat CPU 3 instructions: 80000000 cycles: 34223131 heartbeat IPC: 2.33984 cumulative IPC: 2.3376 (Simulation time: 0 hr 14 min 34 sec) 
Heartbeat CPU 1 instructions: 70000003 cycles: 35322238 heartbeat IPC: 1.9564 cumulative IPC: 1.98175 (Simulation time: 0 hr 15 min 1 sec) 
Heartbeat CPU 2 instructions: 90000000 cycles: 36691862 heartbeat IPC: 2.02563 cumulative IPC: 2.45286 (Simulation time: 0 hr 15 min 34 sec) 
Heartbeat CPU 0 instructions: 70000000 cycles: 38140506 heartbeat IPC: 2.25744 cumulative IPC: 1.83532 (Simulation time: 0 hr 16 min 11 sec) 
Heartbeat CPU 3 instructions: 90000001 cycles: 38506802 heartbeat IPC: 2.33445 cumulative IPC: 2.33725 (Simulation time: 0 hr 16 min 21 sec) 
Heartbeat CPU 1 instructions: 80000000 cycles: 40434693 heartbeat IPC: 1.95601 cumulative IPC: 1.9785 (Simulation time: 0 hr 17 min 14 sec) 
Heartbeat CPU 2 instructions: 100000000 cycles: 40982819 heartbeat IPC: 2.33048 cumulative IPC: 2.44005 (Simulation time: 0 hr 17 min 29 sec) 
Heartbeat CPU 0 instructions: 80000000 cycles: 42569599 heartbeat IPC: 2.2578 cumulative IPC: 1.87928 (Simulation time: 0 hr 18 min 12 sec) 
Heartbeat CPU 3 instructions: 100000000 cycles: 42781207 heartbeat IPC: 2.33951 cumulative IPC: 2.33748 (Simulation time: 0 hr 18 min 18 sec) 
Heartbeat CPU 2 instructions: 110000003 cycles: 44696374 heartbeat IPC: 2.69284 cumulative IPC: 2.46105 (Simulation time: 0 hr 19 min 7 sec) 
Heartbeat CPU 1 instructions: 90000003 cycles: 45547004 heartbeat IPC: 1.95606 cumulative IPC: 1.97598 (Simulation time: 0 hr 19 min 29 sec) 
Heartbeat CPU 0 instructions: 90000002 cycles: 46998994 heartbeat IPC: 2.25765 cumulative IPC: 1.91493 (Simulation time: 0 hr 20 min 6 sec) 
Heartbeat CPU 3 instructions: 110000001 cycles: 47091204 heartbeat IPC: 2.32019 cumulative IPC: 2.33589 (Simulation time: 0 hr 20 min 8 sec) 
Heartbeat CPU 2 instructions: 120000000 cycles: 48641315 heartbeat IPC: 2.53489 cumulative IPC: 2.46704 (Simulation time: 0 hr 20 min 48 sec) 
Heartbeat CPU 1 instructions: 100000000 cycles: 50659338 heartbeat IPC: 1.95605 cumulative IPC: 1.97397 (Simulation time: 0 hr 21 min 40 sec) 
Heartbeat CPU 3 instructions: 120000000 cycles: 51419505 heartbeat IPC: 2.31038 cumulative IPC: 2.33374 (Simulation time: 0 hr 21 min 59 sec) 
Heartbeat CPU 0 instructions: 100000000 cycles: 51428386 heartbeat IPC: 2.25765 cumulative IPC: 1.94445 (Simulation time: 0 hr 21 min 59 sec) 
Heartbeat CPU 2 instructions: 130000003 cycles: 52582974 heartbeat IPC: 2.537 cumulative IPC: 2.47228 (Simulation time: 0 hr 22 min 29 sec) 
Heartbeat CPU 1 instructions: 110000002 cycles: 55771831 heartbeat IPC: 1.95599 cumulative IPC: 1.97232 (Simulation time: 0 hr 23 min 50 sec) 
Heartbeat CPU 0 instructions: 110000003 cycles: 55858411 heartbeat IPC: 2.25732 cumulative IPC: 1.96926 (Simulation time: 0 hr 23 min 53 sec) 
Heartbeat CPU 3 instructions: 130000003 cycles: 55867772 heartbeat IPC: 2.24807 cumulative IPC: 2.32692 (Simulation time: 0 hr 23 min 53 sec) 
Heartbeat CPU 2 instructions: 140000000 cycles: 56521545 heartbeat IPC: 2.53899 cumulative IPC: 2.47693 (Simulation time: 0 hr 24 min 11 sec) 
Heartbeat CPU 0 instructions: 120000000 cycles: 60288869 heartbeat IPC: 2.2571 cumulative IPC: 1.99042 (Simulation time: 0 hr 25 min 52 sec) 
Heartbeat CPU 3 instructions: 140000000 cycles: 60397734 heartbeat IPC: 2.20752 cumulative IPC: 2.31797 (Simulation time: 0 hr 25 min 55 sec) 
Heartbeat CPU 2 instructions: 150000002 cycles: 60459508 heartbeat IPC: 2.53938 cumulative IPC: 2.481 (Simulation time: 0 hr 25 min 57 sec) 
Heartbeat CPU 1 instructions: 120000000 cycles: 60815488 heartbeat IPC: 1.98269 cumulative IPC: 1.97318 (Simulation time: 0 hr 26 min 6 sec) 
Heartbeat CPU 2 instructions: 160000000 cycles: 64398921 heartbeat IPC: 2.53845 cumulative IPC: 2.48451 (Simulation time: 0 hr 27 min 40 sec) 
Heartbeat CPU 0 instructions: 130000000 cycles: 64720870 heartbeat IPC: 2.25632 cumulative IPC: 2.00863 (Simulation time: 0 hr 27 min 48 sec) 
Heartbeat CPU 3 instructions: 150000001 cycles: 65059880 heartbeat IPC: 2.14494 cumulative IPC: 2.30557 (Simulation time: 0 hr 27 min 57 sec) 
Heartbeat CPU 1 instructions: 130000003 cycles: 65528436 heartbeat IPC: 2.12181 cumulative IPC: 1.98387 (Simulation time: 0 hr 28 min 10 sec) 
Heartbeat CPU 2 instructions: 170000000 cycles: 68342283 heartbeat IPC: 2.53591 cumulative IPC: 2.48748 (Simulation time: 0 hr 29 min 22 sec) 
Heartbeat CPU 0 instructions: 140000000 cycles: 69150865 heartbeat IPC: 2.25734 cumulative IPC: 2.02456 (Simulation time: 0 hr 29 min 42 sec) 
Heartbeat CPU 3 instructions: 160000000 cycles: 69943922 heartbeat IPC: 2.04748 cumulative IPC: 2.28755 (Simulation time: 0 hr 30 min 3 sec) 
Heartbeat CPU 1 instructions: 140000000 cycles: 70640744 heartbeat IPC: 1.95606 cumulative IPC: 1.98186 (Simulation time: 0 hr 30 min 20 sec) 
Heartbeat CPU 2 instructions: 180000000 cycles: 72288304 heartbeat IPC: 2.5342 cumulative IPC: 2.49003 (Simulation time: 0 hr 31 min 3 sec) 
Heartbeat CPU 0 instructions: 150000000 cycles: 73581711 heartbeat IPC: 2.25691 cumulative IPC: 2.03855 (Simulation time: 0 hr 31 min 36 sec) 
Heartbeat CPU 3 instructions: 170000002 cycles: 75079916 heartbeat IPC: 1.94704 cumulative IPC: 2.26425 (Simulation time: 0 hr 32 min 14 sec) 
Heartbeat CPU 1 instructions: 150000000 cycles: 75753280 heartbeat IPC: 1.95598 cumulative IPC: 1.98011 (Simulation time: 0 hr 32 min 31 sec) 
Heartbeat CPU 2 instructions: 190000003 cycles: 76236049 heartbeat IPC: 2.53309 cumulative IPC: 2.49226 (Simulation time: 0 hr 32 min 43 sec) 
Heartbeat CPU 0 instructions: 160000000 cycles: 78013664 heartbeat IPC: 2.25634 cumulative IPC: 2.05092 (Simulation time: 0 hr 33 min 30 sec) 
Heartbeat CPU 2 instructions: 200000000 cycles: 80173459 heartbeat IPC: 2.53974 cumulative IPC: 2.49459 (Simulation time: 0 hr 34 min 28 sec) 
Heartbeat CPU 3 instructions: 180000000 cycles: 80332117 heartbeat IPC: 1.90396 cumulative IPC: 2.2407 (Simulation time: 0 hr 34 min 32 sec) 
Heartbeat CPU 1 instructions: 160000000 cycles: 80865928 heartbeat IPC: 1.95593 cumulative IPC: 1.97858 (Simulation time: 0 hr 34 min 46 sec) 
Heartbeat CPU 0 instructions: 170000000 cycles: 82444317 heartbeat IPC: 2.257 cumulative IPC: 2.062 (Simulation time: 0 hr 35 min 29 sec) 
Heartbeat CPU 2 instructions: 210000003 cycles: 84068970 heartbeat IPC: 2.56706 cumulative IPC: 0.11895 (Simulation time: 0 hr 36 min 12 sec) 
Heartbeat CPU 3 instructions: 190000001 cycles: 85664173 heartbeat IPC: 1.87545 cumulative IPC: 2.21796 (Simulation time: 0 hr 36 min 55 sec) 
Heartbeat CPU 1 instructions: 170000000 cycles: 85978224 heartbeat IPC: 1.95607 cumulative IPC: 1.97724 (Simulation time: 0 hr 37 min 3 sec) 
Heartbeat CPU 0 instructions: 180000000 cycles: 86875671 heartbeat IPC: 2.25665 cumulative IPC: 2.07193 (Simulation time: 0 hr 37 min 27 sec) 
Heartbeat CPU 2 instructions: 220000000 cycles: 87968804 heartbeat IPC: 2.56421 cumulative IPC: 0.227353 (Simulation time: 0 hr 37 min 57 sec) 
Heartbeat CPU 3 instructions: 200000000 cycles: 90859416 heartbeat IPC: 1.92484 cumulative IPC: 2.2012 (Simulation time: 0 hr 39 min 14 sec) 
Heartbeat CPU 1 instructions: 180000000 cycles: 91090675 heartbeat IPC: 1.95601 cumulative IPC: 1.97605 (Simulation time: 0 hr 39 min 20 sec) 
Heartbeat CPU 0 instructions: 190000002 cycles: 91306218 heartbeat IPC: 2.25706 cumulative IPC: 2.08091 (Simulation time: 0 hr 39 min 26 sec) 
Heartbeat CPU 2 instructions: 230000000 cycles: 91870380 heartbeat IPC: 2.56307 cumulative IPC: 0.326547 (Simulation time: 0 hr 39 min 41 sec) 
Heartbeat CPU 0 instructions: 200000000 cycles: 95737001 heartbeat IPC: 2.25694 cumulative IPC: 2.08906 (Simulation time: 0 hr 41 min 24 sec) 
Heartbeat CPU 2 instructions: 240000000 cycles: 95769975 heartbeat IPC: 2.56437 cumulative IPC: 0.417667 (Simulation time: 0 hr 41 min 25 sec) 
Heartbeat CPU 3 instructions: 210000001 cycles: 95959006 heartbeat IPC: 1.96094 cumulative IPC: 0.104211 (Simulation time: 0 hr 41 min 30 sec) 
Heartbeat CPU 1 instructions: 190000000 cycles: 96203119 heartbeat IPC: 1.95601 cumulative IPC: 1.97499 (Simulation time: 0 hr 41 min 37 sec) 
Heartbeat CPU 2 instructions: 250000003 cycles: 99670135 heartbeat IPC: 2.564 cumulative IPC: 0.501655 (Simulation time: 0 hr 43 min 11 sec) 
Heartbeat CPU 0 instructions: 210000000 cycles: 100169060 heartbeat IPC: 2.25629 cumulative IPC: 0.0998312 (Simulation time: 0 hr 43 min 25 sec) 
Heartbeat CPU 3 instructions: 220000000 cycles: 100937030 heartbeat IPC: 2.00883 cumulative IPC: 0.198143 (Simulation time: 0 hr 43 min 46 sec) 
Heartbeat CPU 1 instructions: 200000000 cycles: 101070495 heartbeat IPC: 2.0545 cumulative IPC: 1.97882 (Simulation time: 0 hr 43 min 50 sec) 

Warmup complete CPU 0 instructions: 212034056 cycles: 101070496 (Simulation time: 0 hr 43 min 50 sec) 
Warmup complete CPU 1 instructions: 200000001 cycles: 101070496 (Simulation time: 0 hr 43 min 50 sec) 
Warmup complete CPU 2 instructions: 253591293 cycles: 101070495 (Simulation time: 0 hr 43 min 50 sec) 
Warmup complete CPU 3 instructions: 220269128 cycles: 101070495 (Simulation time: 0 hr 43 min 50 sec) 

Heartbeat CPU 2 instructions: 260000000 cycles: 106014017 heartbeat IPC: 1.57632 cumulative IPC: 1.29638 (Simulation time: 0 hr 44 min 43 sec) 
Heartbeat CPU 0 instructions: 220000000 cycles: 109849765 heartbeat IPC: 1.03298 cumulative IPC: 0.907358 (Simulation time: 0 hr 45 min 32 sec) 
Heartbeat CPU 2 instructions: 270000002 cycles: 113660092 heartbeat IPC: 1.30786 cumulative IPC: 1.30335 (Simulation time: 0 hr 46 min 20 sec) 
Heartbeat CPU 0 instructions: 230000001 cycles: 119625303 heartbeat IPC: 1.02296 cumulative IPC: 0.968264 (Simulation time: 0 hr 48 min 22 sec) 
Heartbeat CPU 1 instructions: 210000000 cycles: 120124783 heartbeat IPC: 0.524816 cumulative IPC: 0.524816 (Simulation time: 0 hr 48 min 35 sec) 
Heartbeat CPU 2 instructions: 280000000 cycles: 121306059 heartbeat IPC: 1.30788 cumulative IPC: 1.30506 (Simulation time: 0 hr 49 min 4 sec) 
Heartbeat CPU 3 instructions: 230000003 cycles: 122353971 heartbeat IPC: 0.46692 cumulative IPC: 0.457203 (Simulation time: 0 hr 49 min 17 sec) 
Heartbeat CPU 2 instructions: 290000000 cycles: 128948245 heartbeat IPC: 1.30853 cumulative IPC: 1.30601 (Simulation time: 0 hr 50 min 39 sec) 
Heartbeat CPU 0 instructions: 240000000 cycles: 130007148 heartbeat IPC: 0.96322 cumulative IPC: 0.966454 (Simulation time: 0 hr 50 min 52 sec) 
Heartbeat CPU 2 instructions: 300000000 cycles: 136636937 heartbeat IPC: 1.30061 cumulative IPC: 1.30485 (Simulation time: 0 hr 52 min 16 sec) 
Heartbeat CPU 1 instructions: 220000000 cycles: 137792510 heartbeat IPC: 0.566004 cumulative IPC: 0.544632 (Simulation time: 0 hr 52 min 30 sec) 
Heartbeat CPU 0 instructions: 250000003 cycles: 140143360 heartbeat IPC: 0.986562 cumulative IPC: 0.97167 (Simulation time: 0 hr 52 min 59 sec) 
Heartbeat CPU 2 instructions: 310000002 cycles: 144308334 heartbeat IPC: 1.30354 cumulative IPC: 1.30461 (Simulation time: 0 hr 53 min 51 sec) 
Heartbeat CPU 3 instructions: 240000000 cycles: 144308752 heartbeat IPC: 0.455482 cumulative IPC: 0.456329 (Simulation time: 0 hr 53 min 51 sec) 
Heartbeat CPU 0 instructions: 260000000 cycles: 150407671 heartbeat IPC: 0.974249 cumulative IPC: 0.972207 (Simulation time: 0 hr 55 min 8 sec) 
Heartbeat CPU 2 instructions: 320000000 cycles: 151970309 heartbeat IPC: 1.30515 cumulative IPC: 1.30469 (Simulation time: 0 hr 55 min 28 sec) 
Heartbeat CPU 1 instructions: 230000003 cycles: 155469120 heartbeat IPC: 0.565719 cumulative IPC: 0.551485 (Simulation time: 0 hr 56 min 12 sec) 
Heartbeat CPU 2 instructions: 330000000 cycles: 159631298 heartbeat IPC: 1.30531 cumulative IPC: 1.30478 (Simulation time: 0 hr 57 min 4 sec) 
Heartbeat CPU 0 instructions: 270000003 cycles: 160680102 heartbeat IPC: 0.97348 cumulative IPC: 0.972426 (Simulation time: 0 hr 57 min 17 sec) 
Heartbeat CPU 3 instructions: 250000001 cycles: 165549948 heartbeat IPC: 0.470783 cumulative IPC: 0.461091 (Simulation time: 0 hr 58 min 19 sec) 
Heartbeat CPU 2 instructions: 340000000 cycles: 167321090 heartbeat IPC: 1.30043 cumulative IPC: 1.30427 (Simulation time: 0 hr 58 min 40 sec) 
Heartbeat CPU 0 instructions: 280000000 cycles: 170916287 heartbeat IPC: 0.976926 cumulative IPC: 0.973086 (Simulation time: 0 hr 59 min 26 sec) 
Heartbeat CPU 1 instructions: 240000000 cycles: 173118238 heartbeat IPC: 0.5666 cumulative IPC: 0.555187 (Simulation time: 0 hr 59 min 55 sec) 
Heartbeat CPU 2 instructions: 350000002 cycles: 174892956 heartbeat IPC: 1.32068 cumulative IPC: 1.30595 (Simulation time: 1 hr 0 min 17 sec) 
Heartbeat CPU 0 instructions: 290000000 cycles: 181220806 heartbeat IPC: 0.970448 cumulative IPC: 0.972747 (Simulation time: 1 hr 1 min 36 sec) 
Heartbeat CPU 2 instructions: 360000000 cycles: 182412624 heartbeat IPC: 1.32985 cumulative IPC: 1.30816 (Simulation time: 1 hr 1 min 51 sec) 
Heartbeat CPU 3 instructions: 260000000 cycles: 187823419 heartbeat IPC: 0.448965 cumulative IPC: 0.457977 (Simulation time: 1 hr 3 min 0 sec) 
Heartbeat CPU 2 instructions: 370000000 cycles: 189933477 heartbeat IPC: 1.32964 cumulative IPC: 1.30998 (Simulation time: 1 hr 3 min 26 sec) 
Heartbeat CPU 1 instructions: 250000001 cycles: 190809212 heartbeat IPC: 0.56526 cumulative IPC: 0.557173 (Simulation time: 1 hr 3 min 37 sec) 
Heartbeat CPU 0 instructions: 300000000 cycles: 191431706 heartbeat IPC: 0.979346 cumulative IPC: 0.973492 (Simulation time: 1 hr 3 min 45 sec) 
Heartbeat CPU 2 instructions: 380000000 cycles: 197448836 heartbeat IPC: 1.33061 cumulative IPC: 1.31159 (Simulation time: 1 hr 5 min 1 sec) 
Heartbeat CPU 0 instructions: 310000002 cycles: 201746797 heartbeat IPC: 0.969454 cumulative IPC: 0.973079 (Simulation time: 1 hr 5 min 54 sec) 
Heartbeat CPU 2 instructions: 390000003 cycles: 205217525 heartbeat IPC: 1.28722 cumulative IPC: 1.30977 (Simulation time: 1 hr 6 min 38 sec) 
Heartbeat CPU 1 instructions: 260000000 cycles: 208477614 heartbeat IPC: 0.565982 cumulative IPC: 0.558622 (Simulation time: 1 hr 7 min 19 sec) 
Heartbeat CPU 3 instructions: 270000000 cycles: 209376585 heartbeat IPC: 0.463969 cumulative IPC: 0.45917 (Simulation time: 1 hr 7 min 30 sec) 
Heartbeat CPU 0 instructions: 320000000 cycles: 212115193 heartbeat IPC: 0.964469 cumulative IPC: 0.972275 (Simulation time: 1 hr 8 min 4 sec) 
Heartbeat CPU 2 instructions: 400000000 cycles: 213012174 heartbeat IPC: 1.28293 cumulative IPC: 1.3079 (Simulation time: 1 hr 8 min 15 sec) 
Heartbeat CPU 2 instructions: 410000002 cycles: 220842833 heartbeat IPC: 1.27703 cumulative IPC: 1.30588 (Simulation time: 1 hr 9 min 49 sec) 
Heartbeat CPU 0 instructions: 330000001 cycles: 223942113 heartbeat IPC: 0.845529 cumulative IPC: 0.960075 (Simulation time: 1 hr 10 min 26 sec) 
Heartbeat CPU 1 instructions: 270000002 cycles: 224882224 heartbeat IPC: 0.609585 cumulative IPC: 0.565375 (Simulation time: 1 hr 10 min 38 sec) 
Heartbeat CPU 2 instructions: 420000000 cycles: 228758318 heartbeat IPC: 1.26335 cumulative IPC: 1.30325 (Simulation time: 1 hr 11 min 26 sec) 
Heartbeat CPU 3 instructions: 280000000 cycles: 231796415 heartbeat IPC: 0.446034 cumulative IPC: 0.456917 (Simulation time: 1 hr 12 min 2 sec) 
Heartbeat CPU 0 instructions: 340000000 cycles: 235414512 heartbeat IPC: 0.871657 cumulative IPC: 0.952524 (Simulation time: 1 hr 12 min 42 sec) 
Heartbeat CPU 2 instructions: 430000003 cycles: 236619746 heartbeat IPC: 1.27203 cumulative IPC: 1.30144 (Simulation time: 1 hr 12 min 57 sec) 
Heartbeat CPU 1 instructions: 280000000 cycles: 243434251 heartbeat IPC: 0.539025 cumulative IPC: 0.561941 (Simulation time: 1 hr 14 min 25 sec) 
Heartbeat CPU 2 instructions: 440000000 cycles: 244300843 heartbeat IPC: 1.3019 cumulative IPC: 1.30146 (Simulation time: 1 hr 14 min 36 sec) 
Heartbeat CPU 0 instructions: 350000003 cycles: 245033489 heartbeat IPC: 1.03961 cumulative IPC: 0.958343 (Simulation time: 1 hr 14 min 46 sec) 
Heartbeat CPU 2 instructions: 450000000 cycles: 251909140 heartbeat IPC: 1.31435 cumulative IPC: 1.30211 (Simulation time: 1 hr 16 min 19 sec) 
Heartbeat CPU 3 instructions: 290000002 cycles: 252741858 heartbeat IPC: 0.477431 cumulative IPC: 0.45975 (Simulation time: 1 hr 16 min 32 sec) 
Heartbeat CPU 0 instructions: 360000000 cycles: 255308518 heartbeat IPC: 0.973233 cumulative IPC: 0.959335 (Simulation time: 1 hr 17 min 10 sec) 
Heartbeat CPU 2 instructions: 460000000 cycles: 259503700 heartbeat IPC: 1.31673 cumulative IPC: 1.30281 (Simulation time: 1 hr 18 min 23 sec) 
Heartbeat CPU 1 instructions: 290000000 cycles: 261084668 heartbeat IPC: 0.566559 cumulative IPC: 0.56245 (Simulation time: 1 hr 18 min 47 sec) 
Heartbeat CPU 0 instructions: 370000002 cycles: 265052186 heartbeat IPC: 1.02631 cumulative IPC: 0.963315 (Simulation time: 1 hr 19 min 44 sec) 
Heartbeat CPU 2 instructions: 470000002 cycles: 267065754 heartbeat IPC: 1.32239 cumulative IPC: 1.3037 (Simulation time: 1 hr 20 min 9 sec) 
Heartbeat CPU 2 instructions: 480000000 cycles: 274619957 heartbeat IPC: 1.32377 cumulative IPC: 1.30458 (Simulation time: 1 hr 21 min 45 sec) 
Heartbeat CPU 3 instructions: 300000000 cycles: 274750818 heartbeat IPC: 0.45436 cumulative IPC: 0.459067 (Simulation time: 1 hr 21 min 46 sec) 
Heartbeat CPU 0 instructions: 380000000 cycles: 275340006 heartbeat IPC: 0.972023 cumulative IPC: 0.963829 (Simulation time: 1 hr 21 min 54 sec) 
Heartbeat CPU 1 instructions: 300000000 cycles: 278750089 heartbeat IPC: 0.566078 cumulative IPC: 0.562811 (Simulation time: 1 hr 22 min 40 sec) 
Heartbeat CPU 2 instructions: 490000000 cycles: 282217724 heartbeat IPC: 1.31618 cumulative IPC: 1.30506 (Simulation time: 1 hr 23 min 24 sec) 
Heartbeat CPU 0 instructions: 390000002 cycles: 285303446 heartbeat IPC: 1.00367 cumulative IPC: 0.965983 (Simulation time: 1 hr 24 min 3 sec) 
Heartbeat CPU 2 instructions: 500000000 cycles: 289834298 heartbeat IPC: 1.31293 cumulative IPC: 1.30538 (Simulation time: 1 hr 25 min 1 sec) 
Heartbeat CPU 0 instructions: 400000000 cycles: 295268001 heartbeat IPC: 1.00356 cumulative IPC: 0.967911 (Simulation time: 1 hr 26 min 12 sec) 
Heartbeat CPU 3 instructions: 310000002 cycles: 296354478 heartbeat IPC: 0.462885 cumulative IPC: 0.459489 (Simulation time: 1 hr 26 min 26 sec) 
Heartbeat CPU 1 instructions: 310000000 cycles: 296378439 heartbeat IPC: 0.567268 cumulative IPC: 0.563213 (Simulation time: 1 hr 26 min 26 sec) 
Heartbeat CPU 2 instructions: 510000003 cycles: 297459969 heartbeat IPC: 1.31136 cumulative IPC: 1.30561 (Simulation time: 1 hr 26 min 40 sec) 
Heartbeat CPU 2 instructions: 520000000 cycles: 305094792 heartbeat IPC: 1.30979 cumulative IPC: 1.30577 (Simulation time: 1 hr 28 min 20 sec) 
Heartbeat CPU 0 instructions: 410000002 cycles: 305445835 heartbeat IPC: 0.982527 cumulative IPC: 0.968639 (Simulation time: 1 hr 28 min 24 sec) 
Heartbeat CPU 2 instructions: 530000001 cycles: 312720419 heartbeat IPC: 1.31137 cumulative IPC: 1.30597 (Simulation time: 1 hr 30 min 5 sec) 
Heartbeat CPU 1 instructions: 320000000 cycles: 314055433 heartbeat IPC: 0.565707 cumulative IPC: 0.56342 (Simulation time: 1 hr 30 min 24 sec) 
Heartbeat CPU 0 instructions: 420000000 cycles: 315723630 heartbeat IPC: 0.972971 cumulative IPC: 0.968847 (Simulation time: 1 hr 30 min 48 sec) 
Heartbeat CPU 3 instructions: 320000000 cycles: 319157811 heartbeat IPC: 0.438532 cumulative IPC: 0.457298 (Simulation time: 1 hr 31 min 42 sec) 
Heartbeat CPU 2 instructions: 540000000 cycles: 320263912 heartbeat IPC: 1.32565 cumulative IPC: 1.30665 (Simulation time: 1 hr 31 min 56 sec) 
Heartbeat CPU 0 instructions: 430000001 cycles: 325989642 heartbeat IPC: 0.974088 cumulative IPC: 0.969086 (Simulation time: 1 hr 33 min 10 sec) 
Heartbeat CPU 2 instructions: 550000001 cycles: 327843895 heartbeat IPC: 1.31926 cumulative IPC: 1.30707 (Simulation time: 1 hr 33 min 38 sec) 
Heartbeat CPU 1 instructions: 330000001 cycles: 331727918 heartbeat IPC: 0.565851 cumulative IPC: 0.563606 (Simulation time: 1 hr 34 min 34 sec) 
Heartbeat CPU 2 instructions: 560000000 cycles: 335369643 heartbeat IPC: 1.32877 cumulative IPC: 1.30777 (Simulation time: 1 hr 35 min 23 sec) 
Heartbeat CPU 0 instructions: 440000000 cycles: 336203603 heartbeat IPC: 0.979052 cumulative IPC: 0.969519 (Simulation time: 1 hr 35 min 33 sec) 
Heartbeat CPU 3 instructions: 330000003 cycles: 341724625 heartbeat IPC: 0.443129 cumulative IPC: 0.455969 (Simulation time: 1 hr 36 min 44 sec) 
Heartbeat CPU 2 instructions: 570000003 cycles: 342914877 heartbeat IPC: 1.32534 cumulative IPC: 1.30832 (Simulation time: 1 hr 37 min 0 sec) 
Heartbeat CPU 0 instructions: 450000000 cycles: 345679076 heartbeat IPC: 1.05536 cumulative IPC: 0.972844 (Simulation time: 1 hr 37 min 35 sec) 
Heartbeat CPU 1 instructions: 340000000 cycles: 348952196 heartbeat IPC: 0.580576 cumulative IPC: 0.564786 (Simulation time: 1 hr 38 min 16 sec) 
Heartbeat CPU 2 instructions: 580000000 cycles: 350464158 heartbeat IPC: 1.32463 cumulative IPC: 1.30881 (Simulation time: 1 hr 38 min 35 sec) 
Heartbeat CPU 0 instructions: 460000000 cycles: 356645791 heartbeat IPC: 0.91185 cumulative IPC: 0.970227 (Simulation time: 1 hr 39 min 52 sec) 
Heartbeat CPU 2 instructions: 590000003 cycles: 358073180 heartbeat IPC: 1.31423 cumulative IPC: 1.30897 (Simulation time: 1 hr 40 min 10 sec) 
Heartbeat CPU 3 instructions: 340000000 cycles: 364481803 heartbeat IPC: 0.439422 cumulative IPC: 0.45454 (Simulation time: 1 hr 41 min 22 sec) 
Heartbeat CPU 1 instructions: 350000003 cycles: 365521094 heartbeat IPC: 0.603541 cumulative IPC: 0.567214 (Simulation time: 1 hr 41 min 34 sec) 
Heartbeat CPU 2 instructions: 600000000 cycles: 365697047 heartbeat IPC: 1.31167 cumulative IPC: 1.30905 (Simulation time: 1 hr 41 min 36 sec) 
Heartbeat CPU 0 instructions: 470000001 cycles: 366960781 heartbeat IPC: 0.969463 cumulative IPC: 0.970197 (Simulation time: 1 hr 41 min 51 sec) 
Heartbeat CPU 2 instructions: 610000001 cycles: 373329189 heartbeat IPC: 1.31025 cumulative IPC: 1.30908 (Simulation time: 1 hr 43 min 4 sec) 
Heartbeat CPU 0 instructions: 480000000 cycles: 377031226 heartbeat IPC: 0.993005 cumulative IPC: 0.971029 (Simulation time: 1 hr 43 min 47 sec) 
Heartbeat CPU 2 instructions: 620000000 cycles: 381838255 heartbeat IPC: 1.17522 cumulative IPC: 1.30502 (Simulation time: 1 hr 44 min 43 sec) 
Heartbeat CPU 3 instructions: 350000001 cycles: 386211378 heartbeat IPC: 0.460202 cumulative IPC: 0.454971 (Simulation time: 1 hr 45 min 34 sec) 
Heartbeat CPU 0 instructions: 490000002 cycles: 386791941 heartbeat IPC: 1.02452 cumulative IPC: 0.972856 (Simulation time: 1 hr 45 min 41 sec) 
Heartbeat CPU 1 instructions: 360000000 cycles: 387145293 heartbeat IPC: 0.462445 cumulative IPC: 0.559294 (Simulation time: 1 hr 45 min 45 sec) 
Heartbeat CPU 2 instructions: 630000000 cycles: 389665553 heartbeat IPC: 1.27758 cumulative IPC: 1.30428 (Simulation time: 1 hr 46 min 16 sec) 
Heartbeat CPU 0 instructions: 500000000 cycles: 397140512 heartbeat IPC: 0.966317 cumulative IPC: 0.972628 (Simulation time: 1 hr 47 min 45 sec) 
Heartbeat CPU 2 instructions: 640000000 cycles: 397487037 heartbeat IPC: 1.27853 cumulative IPC: 1.3036 (Simulation time: 1 hr 47 min 49 sec) 
Heartbeat CPU 2 instructions: 650000001 cycles: 405307432 heartbeat IPC: 1.27871 cumulative IPC: 1.30296 (Simulation time: 1 hr 49 min 22 sec) 
Heartbeat CPU 0 instructions: 510000001 cycles: 407549538 heartbeat IPC: 0.960705 cumulative IPC: 0.972223 (Simulation time: 1 hr 49 min 47 sec) 
Heartbeat CPU 3 instructions: 360000000 cycles: 408377958 heartbeat IPC: 0.45113 cumulative IPC: 0.454694 (Simulation time: 1 hr 49 min 57 sec) 
Heartbeat CPU 1 instructions: 370000002 cycles: 408788727 heartbeat IPC: 0.462034 cumulative IPC: 0.552453 (Simulation time: 1 hr 50 min 1 sec) 
Heartbeat CPU 2 instructions: 660000000 cycles: 413128637 heartbeat IPC: 1.27858 cumulative IPC: 1.30235 (Simulation time: 1 hr 50 min 50 sec) 
Heartbeat CPU 0 instructions: 520000000 cycles: 417956631 heartbeat IPC: 0.960883 cumulative IPC: 0.971851 (Simulation time: 1 hr 51 min 46 sec) 
Heartbeat CPU 2 instructions: 670000000 cycles: 421090369 heartbeat IPC: 1.25601 cumulative IPC: 1.3012 (Simulation time: 1 hr 52 min 23 sec) 
Heartbeat CPU 0 instructions: 530000003 cycles: 427921220 heartbeat IPC: 1.00355 cumulative IPC: 0.972817 (Simulation time: 1 hr 53 min 42 sec) 
Heartbeat CPU 2 instructions: 680000000 cycles: 429027837 heartbeat IPC: 1.25985 cumulative IPC: 1.3002 (Simulation time: 1 hr 53 min 55 sec) 
Heartbeat CPU 3 instructions: 370000001 cycles: 429911929 heartbeat IPC: 0.464383 cumulative IPC: 0.455328 (Simulation time: 1 hr 54 min 4 sec) 
Heartbeat CPU 1 instructions: 380000000 cycles: 430413655 heartbeat IPC: 0.462429 cumulative IPC: 0.546542 (Simulation time: 1 hr 54 min 10 sec) 
Heartbeat CPU 2 instructions: 690000001 cycles: 436942661 heartbeat IPC: 1.26345 cumulative IPC: 1.29933 (Simulation time: 1 hr 55 min 26 sec) 
Heartbeat CPU 0 instructions: 540000000 cycles: 437735194 heartbeat IPC: 1.01895 cumulative IPC: 0.974162 (Simulation time: 1 hr 55 min 35 sec) 
Heartbeat CPU 2 instructions: 700000000 cycles: 444859662 heartbeat IPC: 1.2631 cumulative IPC: 1.2985 (Simulation time: 1 hr 56 min 58 sec) 
Heartbeat CPU 0 instructions: 550000001 cycles: 448289938 heartbeat IPC: 0.947441 cumulative IPC: 0.97335 (Simulation time: 1 hr 57 min 37 sec) 
Heartbeat CPU 1 instructions: 390000001 cycles: 449734524 heartbeat IPC: 0.517575 cumulative IPC: 0.544937 (Simulation time: 1 hr 57 min 54 sec) 
Heartbeat CPU 3 instructions: 380000000 cycles: 452172354 heartbeat IPC: 0.449228 cumulative IPC: 0.454942 (Simulation time: 1 hr 58 min 22 sec) 
Heartbeat CPU 2 instructions: 710000000 cycles: 452927576 heartbeat IPC: 1.23948 cumulative IPC: 1.29714 (Simulation time: 1 hr 58 min 31 sec) 
Heartbeat CPU 0 instructions: 560000000 cycles: 460366547 heartbeat IPC: 0.828047 cumulative IPC: 0.968466 (Simulation time: 2 hr 0 min 1 sec) 
Heartbeat CPU 2 instructions: 720000000 cycles: 460974791 heartbeat IPC: 1.24267 cumulative IPC: 1.29592 (Simulation time: 2 hr 0 min 8 sec) 
Heartbeat CPU 1 instructions: 400000000 cycles: 464109996 heartbeat IPC: 0.695629 cumulative IPC: 0.550904 (Simulation time: 2 hr 0 min 45 sec) 
Heartbeat CPU 2 instructions: 730000002 cycles: 468843407 heartbeat IPC: 1.27087 cumulative IPC: 1.29539 (Simulation time: 2 hr 1 min 41 sec) 
Heartbeat CPU 0 instructions: 570000001 cycles: 471031993 heartbeat IPC: 0.937607 cumulative IPC: 0.967576 (Simulation time: 2 hr 2 min 6 sec) 
Heartbeat CPU 3 instructions: 390000000 cycles: 472989034 heartbeat IPC: 0.480384 cumulative IPC: 0.456366 (Simulation time: 2 hr 2 min 30 sec) 
Heartbeat CPU 2 instructions: 740000000 cycles: 476622339 heartbeat IPC: 1.28552 cumulative IPC: 1.29518 (Simulation time: 2 hr 3 min 14 sec) 
Heartbeat CPU 1 instructions: 410000000 cycles: 480604803 heartbeat IPC: 0.606251 cumulative IPC: 0.55331 (Simulation time: 2 hr 4 min 2 sec) 
Heartbeat CPU 0 instructions: 580000000 cycles: 481492391 heartbeat IPC: 0.955986 cumulative IPC: 0.967258 (Simulation time: 2 hr 4 min 13 sec) 
Heartbeat CPU 2 instructions: 750000001 cycles: 484393493 heartbeat IPC: 1.28681 cumulative IPC: 1.29501 (Simulation time: 2 hr 4 min 47 sec) 
Heartbeat CPU 2 instructions: 760000000 cycles: 492139390 heartbeat IPC: 1.29101 cumulative IPC: 1.29493 (Simulation time: 2 hr 6 min 16 sec) 
Heartbeat CPU 0 instructions: 590000001 cycles: 492630787 heartbeat IPC: 0.897795 cumulative IPC: 0.965282 (Simulation time: 2 hr 6 min 22 sec) 
Heartbeat CPU 3 instructions: 400000000 cycles: 494239602 heartbeat IPC: 0.470576 cumulative IPC: 0.457134 (Simulation time: 2 hr 6 min 42 sec) 
Heartbeat CPU 1 instructions: 420000000 cycles: 497612282 heartbeat IPC: 0.587977 cumulative IPC: 0.554797 (Simulation time: 2 hr 7 min 20 sec) 
Heartbeat CPU 2 instructions: 770000002 cycles: 499914076 heartbeat IPC: 1.28623 cumulative IPC: 1.29476 (Simulation time: 2 hr 7 min 47 sec) 
Heartbeat CPU 0 instructions: 600000000 cycles: 504119590 heartbeat IPC: 0.870413 cumulative IPC: 0.962577 (Simulation time: 2 hr 8 min 38 sec) 
Heartbeat CPU 2 instructions: 780000000 cycles: 507684369 heartbeat IPC: 1.28695 cumulative IPC: 1.29462 (Simulation time: 2 hr 9 min 20 sec) 
Heartbeat CPU 1 instructions: 430000000 cycles: 513797887 heartbeat IPC: 0.617833 cumulative IPC: 0.557269 (Simulation time: 2 hr 10 min 32 sec) 
Heartbeat CPU 2 instructions: 790000002 cycles: 515487254 heartbeat IPC: 1.28158 cumulative IPC: 1.29437 (Simulation time: 2 hr 10 min 54 sec) 
Heartbeat CPU 3 instructions: 410000003 cycles: 515537689 heartbeat IPC: 0.469526 cumulative IPC: 0.457771 (Simulation time: 2 hr 10 min 54 sec) 
Heartbeat CPU 0 instructions: 610000000 cycles: 515546868 heartbeat IPC: 0.875099 cumulative IPC: 0.960166 (Simulation time: 2 hr 10 min 55 sec) 
Heartbeat CPU 2 instructions: 800000000 cycles: 523264860 heartbeat IPC: 1.28574 cumulative IPC: 1.29421 (Simulation time: 2 hr 12 min 27 sec) 
Heartbeat CPU 0 instructions: 620000000 cycles: 526918162 heartbeat IPC: 0.879407 cumulative IPC: 0.958009 (Simulation time: 2 hr 13 min 9 sec) 
Heartbeat CPU 1 instructions: 440000000 cycles: 529496450 heartbeat IPC: 0.637001 cumulative IPC: 0.56019 (Simulation time: 2 hr 13 min 41 sec) 
Heartbeat CPU 2 instructions: 810000000 cycles: 531022102 heartbeat IPC: 1.28912 cumulative IPC: 1.29412 (Simulation time: 2 hr 14 min 1 sec) 
Heartbeat CPU 3 instructions: 420000000 cycles: 536819923 heartbeat IPC: 0.469875 cumulative IPC: 0.458362 (Simulation time: 2 hr 15 min 13 sec) 
Heartbeat CPU 0 instructions: 630000000 cycles: 537498554 heartbeat IPC: 0.945145 cumulative IPC: 0.957697 (Simulation time: 2 hr 15 min 21 sec) 
Heartbeat CPU 2 instructions: 820000000 cycles: 538800053 heartbeat IPC: 1.28569 cumulative IPC: 1.29397 (Simulation time: 2 hr 15 min 37 sec) 
Heartbeat CPU 1 instructions: 450000001 cycles: 543988621 heartbeat IPC: 0.690028 cumulative IPC: 0.564438 (Simulation time: 2 hr 16 min 42 sec) 
Heartbeat CPU 2 instructions: 830000000 cycles: 547226495 heartbeat IPC: 1.18674 cumulative IPC: 1.29194 (Simulation time: 2 hr 17 min 20 sec) 
Heartbeat CPU 0 instructions: 640000000 cycles: 548071955 heartbeat IPC: 0.945769 cumulative IPC: 0.957415 (Simulation time: 2 hr 17 min 30 sec) 
Heartbeat CPU 2 instructions: 840000000 cycles: 556517225 heartbeat IPC: 1.07634 cumulative IPC: 1.28755 (Simulation time: 2 hr 19 min 12 sec) 
Heartbeat CPU 3 instructions: 430000003 cycles: 558295141 heartbeat IPC: 0.465653 cumulative IPC: 0.458704 (Simulation time: 2 hr 19 min 35 sec) 
Heartbeat CPU 0 instructions: 650000002 cycles: 559183758 heartbeat IPC: 0.899944 cumulative IPC: 0.956021 (Simulation time: 2 hr 19 min 46 sec) 
Heartbeat CPU 1 instructions: 460000000 cycles: 559808427 heartbeat IPC: 0.632119 cumulative IPC: 0.566772 (Simulation time: 2 hr 19 min 55 sec) 
Heartbeat CPU 2 instructions: 850000000 cycles: 563834503 heartbeat IPC: 1.36663 cumulative IPC: 1.2888 (Simulation time: 2 hr 20 min 48 sec) 
Heartbeat CPU 0 instructions: 660000000 cycles: 569816102 heartbeat IPC: 0.940526 cumulative IPC: 0.95567 (Simulation time: 2 hr 22 min 6 sec) 
Heartbeat CPU 2 instructions: 860000000 cycles: 570865472 heartbeat IPC: 1.42228 cumulative IPC: 1.29079 (Simulation time: 2 hr 22 min 20 sec) 
Heartbeat CPU 1 instructions: 470000000 cycles: 575027648 heartbeat IPC: 0.657064 cumulative IPC: 0.569672 (Simulation time: 2 hr 23 min 13 sec) 
Heartbeat CPU 2 instructions: 870000002 cycles: 577872673 heartbeat IPC: 1.4271 cumulative IPC: 1.2928 (Simulation time: 2 hr 23 min 55 sec) 
Heartbeat CPU 3 instructions: 440000000 cycles: 579532251 heartbeat IPC: 0.470874 cumulative IPC: 0.459244 (Simulation time: 2 hr 24 min 17 sec) 
Heartbeat CPU 0 instructions: 670000000 cycles: 580426022 heartbeat IPC: 0.942514 cumulative IPC: 0.955378 (Simulation time: 2 hr 24 min 28 sec) 
Heartbeat CPU 2 instructions: 880000000 cycles: 584925192 heartbeat IPC: 1.41793 cumulative IPC: 1.29462 (Simulation time: 2 hr 25 min 26 sec) 
Heartbeat CPU 1 instructions: 480000000 cycles: 588895179 heartbeat IPC: 0.721109 cumulative IPC: 0.573977 (Simulation time: 2 hr 26 min 23 sec) 
Heartbeat CPU 0 instructions: 680000000 cycles: 590219261 heartbeat IPC: 1.02111 cumulative IPC: 0.956695 (Simulation time: 2 hr 26 min 42 sec) 
Heartbeat CPU 2 instructions: 890000003 cycles: 591888756 heartbeat IPC: 1.43605 cumulative IPC: 1.29663 (Simulation time: 2 hr 27 min 4 sec) 
Heartbeat CPU 2 instructions: 900000000 cycles: 598861736 heartbeat IPC: 1.43411 cumulative IPC: 1.29855 (Simulation time: 2 hr 28 min 39 sec) 
Heartbeat CPU 0 instructions: 690000001 cycles: 600563743 heartbeat IPC: 0.966699 cumulative IPC: 0.956902 (Simulation time: 2 hr 28 min 59 sec) 
Heartbeat CPU 3 instructions: 450000001 cycles: 601293730 heartbeat IPC: 0.459528 cumulative IPC: 0.459257 (Simulation time: 2 hr 29 min 9 sec) 
Heartbeat CPU 1 instructions: 490000003 cycles: 602989522 heartbeat IPC: 0.709505 cumulative IPC: 0.577782 (Simulation time: 2 hr 29 min 32 sec) 
Heartbeat CPU 2 instructions: 910000000 cycles: 606204531 heartbeat IPC: 1.36188 cumulative IPC: 1.29947 (Simulation time: 2 hr 30 min 11 sec) 
Heartbeat CPU 0 instructions: 700000000 cycles: 612169529 heartbeat IPC: 0.861639 cumulative IPC: 0.954739 (Simulation time: 2 hr 31 min 26 sec) 
Heartbeat CPU 2 instructions: 920000000 cycles: 613263228 heartbeat IPC: 1.41669 cumulative IPC: 1.30109 (Simulation time: 2 hr 31 min 39 sec) 
Heartbeat CPU 1 instructions: 500000000 cycles: 619122285 heartbeat IPC: 0.619856 cumulative IPC: 0.579093 (Simulation time: 2 hr 32 min 55 sec) 
Heartbeat CPU 2 instructions: 930000000 cycles: 620034397 heartbeat IPC: 1.47685 cumulative IPC: 1.30338 (Simulation time: 2 hr 33 min 7 sec) 
Heartbeat CPU 3 instructions: 460000000 cycles: 622419111 heartbeat IPC: 0.473364 cumulative IPC: 0.459828 (Simulation time: 2 hr 33 min 36 sec) 
Heartbeat CPU 0 instructions: 710000000 cycles: 623653436 heartbeat IPC: 0.870784 cumulative IPC: 0.952894 (Simulation time: 2 hr 33 min 53 sec) 
Heartbeat CPU 2 instructions: 940000000 cycles: 626920780 heartbeat IPC: 1.45214 cumulative IPC: 1.30533 (Simulation time: 2 hr 34 min 35 sec) 
Heartbeat CPU 2 instructions: 950000003 cycles: 633736338 heartbeat IPC: 1.46723 cumulative IPC: 1.3074 (Simulation time: 2 hr 36 min 6 sec) 
Heartbeat CPU 0 instructions: 720000000 cycles: 634314106 heartbeat IPC: 0.938027 cumulative IPC: 0.952596 (Simulation time: 2 hr 36 min 14 sec) 
Heartbeat CPU 1 instructions: 510000000 cycles: 634698887 heartbeat IPC: 0.641989 cumulative IPC: 0.580929 (Simulation time: 2 hr 36 min 18 sec) 
Heartbeat CPU 2 instructions: 960000000 cycles: 640490182 heartbeat IPC: 1.48064 cumulative IPC: 1.30957 (Simulation time: 2 hr 37 min 33 sec) 
Heartbeat CPU 3 instructions: 470000002 cycles: 644139045 heartbeat IPC: 0.460407 cumulative IPC: 0.459851 (Simulation time: 2 hr 38 min 18 sec) 
Heartbeat CPU 0 instructions: 730000003 cycles: 645799681 heartbeat IPC: 0.870658 cumulative IPC: 0.950869 (Simulation time: 2 hr 38 min 40 sec) 
Heartbeat CPU 2 instructions: 970000003 cycles: 647330044 heartbeat IPC: 1.46202 cumulative IPC: 1.31148 (Simulation time: 2 hr 39 min 0 sec) 
Heartbeat CPU 1 instructions: 520000000 cycles: 650898270 heartbeat IPC: 0.617307 cumulative IPC: 0.582 (Simulation time: 2 hr 39 min 46 sec) 
Heartbeat CPU 0 instructions: 740000000 cycles: 656762640 heartbeat IPC: 0.912162 cumulative IPC: 0.950105 (Simulation time: 2 hr 40 min 48 sec) 
Heartbeat CPU 2 instructions: 980000000 cycles: 659170130 heartbeat IPC: 0.844588 cumulative IPC: 1.30158 (Simulation time: 2 hr 41 min 15 sec) 
Heartbeat CPU 2 instructions: 990000003 cycles: 664444534 heartbeat IPC: 1.89595 cumulative IPC: 1.30714 (Simulation time: 2 hr 42 min 28 sec) 
Heartbeat CPU 3 instructions: 480000000 cycles: 666004767 heartbeat IPC: 0.457337 cumulative IPC: 0.459754 (Simulation time: 2 hr 42 min 46 sec) 
Heartbeat CPU 1 instructions: 530000000 cycles: 667834491 heartbeat IPC: 0.59045 cumulative IPC: 0.582253 (Simulation time: 2 hr 43 min 6 sec) 
Heartbeat CPU 0 instructions: 750000001 cycles: 668795521 heartbeat IPC: 0.831056 cumulative IPC: 0.947582 (Simulation time: 2 hr 43 min 18 sec) 
Heartbeat CPU 2 instructions: 1000000000 cycles: 673697503 heartbeat IPC: 1.08073 cumulative IPC: 1.30348 (Simulation time: 2 hr 44 min 9 sec) 
Heartbeat CPU 0 instructions: 760000000 cycles: 680311896 heartbeat IPC: 0.868329 cumulative IPC: 0.946006 (Simulation time: 2 hr 45 min 27 sec) 
Heartbeat CPU 2 instructions: 1010000000 cycles: 681062760 heartbeat IPC: 1.35773 cumulative IPC: 1.30417 (Simulation time: 2 hr 45 min 36 sec) 
Heartbeat CPU 1 instructions: 540000000 cycles: 684060499 heartbeat IPC: 0.616295 cumulative IPC: 0.5832 (Simulation time: 2 hr 46 min 13 sec) 
Heartbeat CPU 3 instructions: 490000000 cycles: 687335910 heartbeat IPC: 0.468798 cumulative IPC: 0.460083 (Simulation time: 2 hr 46 min 52 sec) 
Heartbeat CPU 2 instructions: 1020000000 cycles: 688422577 heartbeat IPC: 1.35873 cumulative IPC: 1.30485 (Simulation time: 2 hr 47 min 4 sec) 
Heartbeat CPU 0 instructions: 770000002 cycles: 691466158 heartbeat IPC: 0.896518 cumulative IPC: 0.945071 (Simulation time: 2 hr 47 min 43 sec) 
Heartbeat CPU 2 instructions: 1030000001 cycles: 695520018 heartbeat IPC: 1.40896 cumulative IPC: 1.3061 (Simulation time: 2 hr 48 min 31 sec) 
Heartbeat CPU 1 instructions: 550000002 cycles: 700038882 heartbeat IPC: 0.625846 cumulative IPC: 0.584338 (Simulation time: 2 hr 49 min 27 sec) 
Heartbeat CPU 2 instructions: 1040000000 cycles: 702604545 heartbeat IPC: 1.41153 cumulative IPC: 1.30734 (Simulation time: 2 hr 49 min 56 sec) 
Heartbeat CPU 0 instructions: 780000000 cycles: 702706459 heartbeat IPC: 0.889656 cumulative IPC: 0.944036 (Simulation time: 2 hr 49 min 57 sec) 
Heartbeat CPU 3 instructions: 500000000 cycles: 708481050 heartbeat IPC: 0.472922 cumulative IPC: 0.46053 (Simulation time: 2 hr 51 min 7 sec) 
Heartbeat CPU 2 instructions: 1050000002 cycles: 709749740 heartbeat IPC: 1.39954 cumulative IPC: 1.30842 (Simulation time: 2 hr 51 min 22 sec) 
Heartbeat CPU 0 instructions: 790000001 cycles: 714203166 heartbeat IPC: 0.869814 cumulative IPC: 0.942644 (Simulation time: 2 hr 52 min 16 sec) 
Heartbeat CPU 1 instructions: 560000000 cycles: 716297886 heartbeat IPC: 0.615044 cumulative IPC: 0.58515 (Simulation time: 2 hr 52 min 42 sec) 
Heartbeat CPU 2 instructions: 1060000000 cycles: 717115358 heartbeat IPC: 1.35766 cumulative IPC: 1.30901 (Simulation time: 2 hr 52 min 51 sec) 
Heartbeat CPU 2 instructions: 1070000003 cycles: 724196769 heartbeat IPC: 1.41215 cumulative IPC: 1.31018 (Simulation time: 2 hr 54 min 16 sec) 
Heartbeat CPU 0 instructions: 800000000 cycles: 725585352 heartbeat IPC: 0.878566 cumulative IPC: 0.941476 (Simulation time: 2 hr 54 min 32 sec) 
Heartbeat CPU 3 instructions: 510000003 cycles: 729931167 heartbeat IPC: 0.466198 cumulative IPC: 0.460723 (Simulation time: 2 hr 55 min 30 sec) 
Heartbeat CPU 1 instructions: 570000000 cycles: 731210587 heartbeat IPC: 0.670569 cumulative IPC: 0.587171 (Simulation time: 2 hr 55 min 48 sec) 
Heartbeat CPU 2 instructions: 1080000000 cycles: 731407114 heartbeat IPC: 1.3869 cumulative IPC: 1.31106 (Simulation time: 2 hr 55 min 51 sec) 
Heartbeat CPU 0 instructions: 810000000 cycles: 735747749 heartbeat IPC: 0.98402 cumulative IPC: 0.942158 (Simulation time: 2 hr 57 min 16 sec) 
Heartbeat CPU 2 instructions: 1090000001 cycles: 738586303 heartbeat IPC: 1.39292 cumulative IPC: 1.31198 (Simulation time: 2 hr 57 min 55 sec) 
Heartbeat CPU 2 instructions: 1100000000 cycles: 745646132 heartbeat IPC: 1.41646 cumulative IPC: 1.31313 (Simulation time: 2 hr 59 min 27 sec) 
Heartbeat CPU 1 instructions: 580000000 cycles: 745879601 heartbeat IPC: 0.681709 cumulative IPC: 0.589322 (Simulation time: 2 hr 59 min 30 sec) 
Heartbeat CPU 0 instructions: 820000000 cycles: 746411261 heartbeat IPC: 0.937777 cumulative IPC: 0.942085 (Simulation time: 2 hr 59 min 38 sec) 
Heartbeat CPU 3 instructions: 520000000 cycles: 751211864 heartbeat IPC: 0.469909 cumulative IPC: 0.461024 (Simulation time: 3 hr 0 min 37 sec) 
Heartbeat CPU 2 instructions: 1110000001 cycles: 752768371 heartbeat IPC: 1.40405 cumulative IPC: 1.31412 (Simulation time: 3 hr 0 min 58 sec) 
Heartbeat CPU 0 instructions: 830000000 cycles: 757699991 heartbeat IPC: 0.885839 cumulative IPC: 0.941118 (Simulation time: 3 hr 2 min 9 sec) 
Heartbeat CPU 2 instructions: 1120000000 cycles: 759836812 heartbeat IPC: 1.41474 cumulative IPC: 1.3152 (Simulation time: 3 hr 2 min 40 sec) 
Heartbeat CPU 1 instructions: 590000002 cycles: 761393199 heartbeat IPC: 0.644596 cumulative IPC: 0.59062 (Simulation time: 3 hr 3 min 1 sec) 
Heartbeat CPU 2 instructions: 1130000001 cycles: 766813610 heartbeat IPC: 1.43332 cumulative IPC: 1.31644 (Simulation time: 3 hr 4 min 9 sec) 
Heartbeat CPU 0 instructions: 840000000 cycles: 769222924 heartbeat IPC: 0.867835 cumulative IPC: 0.939854 (Simulation time: 3 hr 4 min 40 sec) 
Heartbeat CPU 3 instructions: 530000000 cycles: 772807947 heartbeat IPC: 0.463047 cumulative IPC: 0.461089 (Simulation time: 3 hr 5 min 23 sec) 
Heartbeat CPU 2 instructions: 1140000000 cycles: 773825604 heartbeat IPC: 1.42613 cumulative IPC: 1.31758 (Simulation time: 3 hr 5 min 36 sec) 
Heartbeat CPU 1 instructions: 600000000 cycles: 778249964 heartbeat IPC: 0.593234 cumulative IPC: 0.590685 (Simulation time: 3 hr 7 min 17 sec) 
Heartbeat CPU 0 instructions: 850000000 cycles: 780681810 heartbeat IPC: 0.872685 cumulative IPC: 0.938722 (Simulation time: 3 hr 8 min 21 sec) 
Heartbeat CPU 2 instructions: 1150000002 cycles: 780945268 heartbeat IPC: 1.40456 cumulative IPC: 1.31849 (Simulation time: 3 hr 8 min 29 sec) 
Heartbeat CPU 2 instructions: 1160000000 cycles: 788064109 heartbeat IPC: 1.40472 cumulative IPC: 1.31938 (Simulation time: 3 hr 10 min 13 sec) 
Heartbeat CPU 0 instructions: 860000000 cycles: 792644090 heartbeat IPC: 0.835961 cumulative IPC: 0.936944 (Simulation time: 3 hr 10 min 57 sec) 
Heartbeat CPU 3 instructions: 540000000 cycles: 794750696 heartbeat IPC: 0.455731 cumulative IPC: 0.46092 (Simulation time: 3 hr 11 min 18 sec) 
Heartbeat CPU 1 instructions: 610000002 cycles: 795052240 heartbeat IPC: 0.595158 cumulative IPC: 0.590794 (Simulation time: 3 hr 11 min 21 sec) 
Heartbeat CPU 2 instructions: 1170000000 cycles: 799085040 heartbeat IPC: 0.907364 cumulative IPC: 1.31288 (Simulation time: 3 hr 12 min 11 sec) 
Heartbeat CPU 0 instructions: 870000000 cycles: 804594590 heartbeat IPC: 0.836785 cumulative IPC: 0.935243 (Simulation time: 3 hr 13 min 19 sec) 
Heartbeat CPU 2 instructions: 1180000000 cycles: 805789694 heartbeat IPC: 1.4915 cumulative IPC: 1.31458 (Simulation time: 3 hr 13 min 32 sec) 
Heartbeat CPU 1 instructions: 620000000 cycles: 811833893 heartbeat IPC: 0.595889 cumulative IPC: 0.590914 (Simulation time: 3 hr 14 min 42 sec) 
Heartbeat CPU 2 instructions: 1190000002 cycles: 814594544 heartbeat IPC: 1.13574 cumulative IPC: 1.31237 (Simulation time: 3 hr 15 min 16 sec) 
Heartbeat CPU 0 instructions: 880000000 cycles: 815362925 heartbeat IPC: 0.928649 cumulative IPC: 0.935144 (Simulation time: 3 hr 15 min 26 sec) 
Heartbeat CPU 3 instructions: 550000001 cycles: 816198060 heartbeat IPC: 0.466258 cumulative IPC: 0.46108 (Simulation time: 3 hr 15 min 37 sec) 
Heartbeat CPU 2 instructions: 1200000000 cycles: 822492430 heartbeat IPC: 1.26616 cumulative IPC: 1.31187 (Simulation time: 3 hr 16 min 55 sec) 
Heartbeat CPU 0 instructions: 890000002 cycles: 827074295 heartbeat IPC: 0.853871 cumulative IPC: 0.933833 (Simulation time: 3 hr 17 min 51 sec) 
Heartbeat CPU 1 instructions: 630000000 cycles: 828457933 heartbeat IPC: 0.601538 cumulative IPC: 0.591157 (Simulation time: 3 hr 18 min 8 sec) 
Heartbeat CPU 2 instructions: 1210000000 cycles: 830330003 heartbeat IPC: 1.27591 cumulative IPC: 1.31148 (Simulation time: 3 hr 18 min 31 sec) 
Heartbeat CPU 3 instructions: 560000000 cycles: 837212865 heartbeat IPC: 0.475855 cumulative IPC: 0.461502 (Simulation time: 3 hr 19 min 58 sec) 
Heartbeat CPU 2 instructions: 1220000000 cycles: 838127260 heartbeat IPC: 1.2825 cumulative IPC: 1.31117 (Simulation time: 3 hr 20 min 9 sec) 
Heartbeat CPU 0 instructions: 900000000 cycles: 838865431 heartbeat IPC: 0.848095 cumulative IPC: 0.932462 (Simulation time: 3 hr 20 min 18 sec) 
Heartbeat CPU 1 instructions: 640000000 cycles: 845034462 heartbeat IPC: 0.603263 cumulative IPC: 0.591426 (Simulation time: 3 hr 21 min 34 sec) 
Heartbeat CPU 2 instructions: 1230000002 cycles: 845942425 heartbeat IPC: 1.27956 cumulative IPC: 1.31084 (Simulation time: 3 hr 21 min 45 sec) 
Heartbeat CPU 0 instructions: 910000000 cycles: 850432536 heartbeat IPC: 0.864521 cumulative IPC: 0.931414 (Simulation time: 3 hr 22 min 41 sec) 
Heartbeat CPU 2 instructions: 1240000000 cycles: 853756096 heartbeat IPC: 1.27981 cumulative IPC: 1.31052 (Simulation time: 3 hr 23 min 24 sec) 
Heartbeat CPU 3 instructions: 570000000 cycles: 858923579 heartbeat IPC: 0.460602 cumulative IPC: 0.461476 (Simulation time: 3 hr 24 min 27 sec) 
Heartbeat CPU 1 instructions: 650000000 cycles: 861102424 heartbeat IPC: 0.622356 cumulative IPC: 0.59208 (Simulation time: 3 hr 24 min 54 sec) 
Heartbeat CPU 2 instructions: 1250000000 cycles: 861584052 heartbeat IPC: 1.27747 cumulative IPC: 1.31018 (Simulation time: 3 hr 25 min 0 sec) 
Heartbeat CPU 0 instructions: 920000000 cycles: 862007576 heartbeat IPC: 0.863928 cumulative IPC: 0.930387 (Simulation time: 3 hr 25 min 6 sec) 
Finished CPU 2 instructions: 1000000001 cycles: 763307241 cumulative IPC: 1.31009 (Simulation time: 3 hr 25 min 35 sec) 
Heartbeat CPU 2 instructions: 1260000000 cycles: 869454537 heartbeat IPC: 1.27057 cumulative IPC: 1.30977 (Simulation time: 3 hr 26 min 40 sec) 
Heartbeat CPU 0 instructions: 930000002 cycles: 873717715 heartbeat IPC: 0.853961 cumulative IPC: 0.929229 (Simulation time: 3 hr 27 min 30 sec) 
Heartbeat CPU 1 instructions: 660000000 cycles: 877121232 heartbeat IPC: 0.624266 cumulative IPC: 0.592745 (Simulation time: 3 hr 28 min 2 sec) 
Heartbeat CPU 3 instructions: 580000000 cycles: 880997661 heartbeat IPC: 0.45302 cumulative IPC: 0.461237 (Simulation time: 3 hr 28 min 45 sec) 
Heartbeat CPU 2 instructions: 1270000002 cycles: 881724438 heartbeat IPC: 0.815003 cumulative IPC: 1.302 (Simulation time: 3 hr 28 min 54 sec) 
Heartbeat CPU 0 instructions: 940000000 cycles: 884884698 heartbeat IPC: 0.895497 cumulative IPC: 0.928748 (Simulation time: 3 hr 29 min 37 sec) 
Heartbeat CPU 2 instructions: 1280000000 cycles: 886928895 heartbeat IPC: 1.92143 cumulative IPC: 1.3061 (Simulation time: 3 hr 30 min 4 sec) 
Heartbeat CPU 1 instructions: 670000000 cycles: 893253367 heartbeat IPC: 0.619881 cumulative IPC: 0.593297 (Simulation time: 3 hr 31 min 11 sec) 
Heartbeat CPU 2 instructions: 1290000001 cycles: 896578613 heartbeat IPC: 1.0363 cumulative IPC: 1.30283 (Simulation time: 3 hr 31 min 49 sec) 
Heartbeat CPU 0 instructions: 950000001 cycles: 896683986 heartbeat IPC: 0.847509 cumulative IPC: 0.927543 (Simulation time: 3 hr 31 min 50 sec) 
Heartbeat CPU 3 instructions: 590000001 cycles: 902269556 heartbeat IPC: 0.470104 cumulative IPC: 0.461472 (Simulation time: 3 hr 32 min 57 sec) 
Heartbeat CPU 2 instructions: 1300000000 cycles: 904412182 heartbeat IPC: 1.27656 cumulative IPC: 1.30257 (Simulation time: 3 hr 33 min 25 sec) 
Heartbeat CPU 0 instructions: 960000000 cycles: 907460900 heartbeat IPC: 0.927909 cumulative IPC: 0.927548 (Simulation time: 3 hr 34 min 2 sec) 
Heartbeat CPU 1 instructions: 680000000 cycles: 909232902 heartbeat IPC: 0.6258 cumulative IPC: 0.59394 (Simulation time: 3 hr 34 min 23 sec) 
Heartbeat CPU 2 instructions: 1310000003 cycles: 912316506 heartbeat IPC: 1.26513 cumulative IPC: 1.30221 (Simulation time: 3 hr 35 min 1 sec) 
Heartbeat CPU 0 instructions: 970000001 cycles: 919110387 heartbeat IPC: 0.858407 cumulative IPC: 0.926564 (Simulation time: 3 hr 36 min 22 sec) 
Heartbeat CPU 2 instructions: 1320000000 cycles: 920119288 heartbeat IPC: 1.28159 cumulative IPC: 1.30201 (Simulation time: 3 hr 36 min 34 sec) 
Heartbeat CPU 3 instructions: 600000000 cycles: 923265000 heartbeat IPC: 0.476294 cumulative IPC: 0.46185 (Simulation time: 3 hr 37 min 12 sec) 
Heartbeat CPU 1 instructions: 690000002 cycles: 924883134 heartbeat IPC: 0.638968 cumulative IPC: 0.594795 (Simulation time: 3 hr 37 min 31 sec) 
Heartbeat CPU 2 instructions: 1330000003 cycles: 928018047 heartbeat IPC: 1.26602 cumulative IPC: 1.30167 (Simulation time: 3 hr 38 min 7 sec) 
Heartbeat CPU 0 instructions: 980000000 cycles: 930569234 heartbeat IPC: 0.872688 cumulative IPC: 0.925819 (Simulation time: 3 hr 38 min 37 sec) 
Heartbeat CPU 2 instructions: 1340000000 cycles: 935883828 heartbeat IPC: 1.27133 cumulative IPC: 1.30138 (Simulation time: 3 hr 39 min 42 sec) 
Heartbeat CPU 1 instructions: 700000000 cycles: 940666998 heartbeat IPC: 0.633558 cumulative IPC: 0.595524 (Simulation time: 3 hr 40 min 38 sec) 
Heartbeat CPU 0 instructions: 990000000 cycles: 942380312 heartbeat IPC: 0.846663 cumulative IPC: 0.924708 (Simulation time: 3 hr 40 min 58 sec) 
Heartbeat CPU 2 instructions: 1350000002 cycles: 943683859 heartbeat IPC: 1.28205 cumulative IPC: 1.3012 (Simulation time: 3 hr 41 min 13 sec) 
Heartbeat CPU 3 instructions: 610000001 cycles: 944780028 heartbeat IPC: 0.464791 cumulative IPC: 0.461925 (Simulation time: 3 hr 41 min 26 sec) 
Heartbeat CPU 2 instructions: 1360000000 cycles: 951548974 heartbeat IPC: 1.27144 cumulative IPC: 1.30093 (Simulation time: 3 hr 42 min 47 sec) 
Heartbeat CPU 0 instructions: 1000000000 cycles: 954034296 heartbeat IPC: 0.858076 cumulative IPC: 0.923798 (Simulation time: 3 hr 43 min 17 sec) 
Heartbeat CPU 1 instructions: 710000001 cycles: 957734224 heartbeat IPC: 0.585918 cumulative IPC: 0.595333 (Simulation time: 3 hr 43 min 54 sec) 
Heartbeat CPU 2 instructions: 1370000000 cycles: 964326574 heartbeat IPC: 0.78262 cumulative IPC: 1.29325 (Simulation time: 3 hr 45 min 0 sec) 
Heartbeat CPU 0 instructions: 1010000000 cycles: 966095172 heartbeat IPC: 0.829127 cumulative IPC: 0.922478 (Simulation time: 3 hr 45 min 23 sec) 
Heartbeat CPU 3 instructions: 620000000 cycles: 966488960 heartbeat IPC: 0.46064 cumulative IPC: 0.461893 (Simulation time: 3 hr 45 min 29 sec) 
Heartbeat CPU 2 instructions: 1380000000 cycles: 969400009 heartbeat IPC: 1.97105 cumulative IPC: 1.29721 (Simulation time: 3 hr 46 min 9 sec) 
Heartbeat CPU 1 instructions: 720000000 cycles: 974122629 heartbeat IPC: 0.610187 cumulative IPC: 0.595612 (Simulation time: 3 hr 47 min 3 sec) 
Heartbeat CPU 0 instructions: 1020000000 cycles: 977261479 heartbeat IPC: 0.895551 cumulative IPC: 0.922135 (Simulation time: 3 hr 47 min 39 sec) 
Heartbeat CPU 2 instructions: 1390000001 cycles: 978724422 heartbeat IPC: 1.07245 cumulative IPC: 1.29483 (Simulation time: 3 hr 47 min 59 sec) 
Heartbeat CPU 2 instructions: 1400000000 cycles: 986541464 heartbeat IPC: 1.27926 cumulative IPC: 1.29469 (Simulation time: 3 hr 49 min 33 sec) 
Heartbeat CPU 0 instructions: 1030000002 cycles: 987718745 heartbeat IPC: 0.956273 cumulative IPC: 0.922537 (Simulation time: 3 hr 49 min 48 sec) 
Heartbeat CPU 3 instructions: 630000000 cycles: 987762978 heartbeat IPC: 0.470057 cumulative IPC: 0.462089 (Simulation time: 3 hr 49 min 49 sec) 
Heartbeat CPU 1 instructions: 730000002 cycles: 988802466 heartbeat IPC: 0.681207 cumulative IPC: 0.597027 (Simulation time: 3 hr 50 min 3 sec) 
Heartbeat CPU 2 instructions: 1410000000 cycles: 994023257 heartbeat IPC: 1.33658 cumulative IPC: 1.29504 (Simulation time: 3 hr 51 min 7 sec) 
Heartbeat CPU 0 instructions: 1040000000 cycles: 999077023 heartbeat IPC: 0.880415 cumulative IPC: 0.922004 (Simulation time: 3 hr 52 min 11 sec) 
Heartbeat CPU 2 instructions: 1420000000 cycles: 1001499876 heartbeat IPC: 1.3375 cumulative IPC: 1.29539 (Simulation time: 3 hr 52 min 40 sec) 
Heartbeat CPU 1 instructions: 740000000 cycles: 1004994559 heartbeat IPC: 0.617585 cumulative IPC: 0.597395 (Simulation time: 3 hr 53 min 25 sec) 
Heartbeat CPU 3 instructions: 640000000 cycles: 1008817188 heartbeat IPC: 0.474964 cumulative IPC: 0.462388 (Simulation time: 3 hr 54 min 13 sec) 
Heartbeat CPU 2 instructions: 1430000003 cycles: 1009126647 heartbeat IPC: 1.31117 cumulative IPC: 1.29552 (Simulation time: 3 hr 54 min 17 sec) 
Heartbeat CPU 0 instructions: 1050000000 cycles: 1010410986 heartbeat IPC: 0.882304 cumulative IPC: 0.92151 (Simulation time: 3 hr 54 min 34 sec) 
Heartbeat CPU 2 instructions: 1440000000 cycles: 1016765308 heartbeat IPC: 1.30913 cumulative IPC: 1.29564 (Simulation time: 3 hr 55 min 51 sec) 
Heartbeat CPU 1 instructions: 750000003 cycles: 1021158145 heartbeat IPC: 0.618675 cumulative IPC: 0.597769 (Simulation time: 3 hr 56 min 47 sec) 
Heartbeat CPU 0 instructions: 1060000000 cycles: 1021675668 heartbeat IPC: 0.88773 cumulative IPC: 0.921096 (Simulation time: 3 hr 56 min 53 sec) 
Heartbeat CPU 2 instructions: 1450000001 cycles: 1024518181 heartbeat IPC: 1.28984 cumulative IPC: 1.29559 (Simulation time: 3 hr 57 min 31 sec) 
Heartbeat CPU 3 instructions: 650000000 cycles: 1029790146 heartbeat IPC: 0.476804 cumulative IPC: 0.462713 (Simulation time: 3 hr 58 min 34 sec) 
Heartbeat CPU 2 instructions: 1460000000 cycles: 1032424391 heartbeat IPC: 1.26483 cumulative IPC: 1.29533 (Simulation time: 3 hr 59 min 7 sec) 
Heartbeat CPU 0 instructions: 1070000000 cycles: 1033310072 heartbeat IPC: 0.85952 cumulative IPC: 0.920328 (Simulation time: 3 hr 59 min 18 sec) 
Heartbeat CPU 1 instructions: 760000000 cycles: 1036240335 heartbeat IPC: 0.663033 cumulative IPC: 0.598822 (Simulation time: 3 hr 59 min 57 sec) 
Heartbeat CPU 2 instructions: 1470000000 cycles: 1040418506 heartbeat IPC: 1.25092 cumulative IPC: 1.29495 (Simulation time: 4 hr 0 min 50 sec) 
Heartbeat CPU 0 instructions: 1080000000 cycles: 1044280245 heartbeat IPC: 0.911563 cumulative IPC: 0.920226 (Simulation time: 4 hr 1 min 37 sec) 
Heartbeat CPU 2 instructions: 1480000000 cycles: 1048436419 heartbeat IPC: 1.24721 cumulative IPC: 1.29455 (Simulation time: 4 hr 2 min 31 sec) 
Heartbeat CPU 1 instructions: 770000001 cycles: 1051180804 heartbeat IPC: 0.669323 cumulative IPC: 0.59993 (Simulation time: 4 hr 3 min 14 sec) 
Heartbeat CPU 3 instructions: 660000000 cycles: 1051188875 heartbeat IPC: 0.467317 cumulative IPC: 0.462817 (Simulation time: 4 hr 3 min 14 sec) 
Heartbeat CPU 0 instructions: 1090000000 cycles: 1055186712 heartbeat IPC: 0.916887 cumulative IPC: 0.920188 (Simulation time: 4 hr 4 min 8 sec) 
Heartbeat CPU 2 instructions: 1490000000 cycles: 1056404303 heartbeat IPC: 1.25504 cumulative IPC: 1.29422 (Simulation time: 4 hr 4 min 23 sec) 
Heartbeat CPU 2 instructions: 1500000000 cycles: 1064380850 heartbeat IPC: 1.25368 cumulative IPC: 1.29388 (Simulation time: 4 hr 6 min 3 sec) 
Heartbeat CPU 0 instructions: 1100000000 cycles: 1066005946 heartbeat IPC: 0.92428 cumulative IPC: 0.920234 (Simulation time: 4 hr 6 min 25 sec) 
Heartbeat CPU 1 instructions: 780000000 cycles: 1067295695 heartbeat IPC: 0.620544 cumulative IPC: 0.600274 (Simulation time: 4 hr 6 min 42 sec) 
Heartbeat CPU 2 instructions: 1510000003 cycles: 1072375834 heartbeat IPC: 1.25078 cumulative IPC: 1.29353 (Simulation time: 4 hr 7 min 45 sec) 
Heartbeat CPU 3 instructions: 670000000 cycles: 1073316533 heartbeat IPC: 0.451923 cumulative IPC: 0.462569 (Simulation time: 4 hr 7 min 58 sec) 
Heartbeat CPU 0 instructions: 1110000000 cycles: 1076705606 heartbeat IPC: 0.934609 cumulative IPC: 0.920391 (Simulation time: 4 hr 8 min 40 sec) 
Heartbeat CPU 2 instructions: 1520000000 cycles: 1080261958 heartbeat IPC: 1.26805 cumulative IPC: 1.29332 (Simulation time: 4 hr 9 min 26 sec) 
Heartbeat CPU 1 instructions: 790000001 cycles: 1083299167 heartbeat IPC: 0.624864 cumulative IPC: 0.600675 (Simulation time: 4 hr 10 min 3 sec) 
Heartbeat CPU 2 instructions: 1530000002 cycles: 1087796046 heartbeat IPC: 1.3273 cumulative IPC: 1.29358 (Simulation time: 4 hr 11 min 1 sec) 
Heartbeat CPU 0 instructions: 1120000000 cycles: 1088026851 heartbeat IPC: 0.883295 cumulative IPC: 0.919966 (Simulation time: 4 hr 11 min 4 sec) 
Heartbeat CPU 2 instructions: 1540000000 cycles: 1095327529 heartbeat IPC: 1.32776 cumulative IPC: 1.29384 (Simulation time: 4 hr 12 min 37 sec) 
Heartbeat CPU 3 instructions: 680000000 cycles: 1095344401 heartbeat IPC: 0.45397 cumulative IPC: 0.462379 (Simulation time: 4 hr 12 min 37 sec) 
Heartbeat CPU 0 instructions: 1130000001 cycles: 1099215707 heartbeat IPC: 0.893746 cumulative IPC: 0.919672 (Simulation time: 4 hr 13 min 23 sec) 
Heartbeat CPU 1 instructions: 800000000 cycles: 1099836232 heartbeat IPC: 0.604702 cumulative IPC: 0.600741 (Simulation time: 4 hr 13 min 31 sec) 
Heartbeat CPU 2 instructions: 1550000000 cycles: 1102862764 heartbeat IPC: 1.3271 cumulative IPC: 1.29409 (Simulation time: 4 hr 14 min 11 sec) 
Heartbeat CPU 2 instructions: 1560000000 cycles: 1110546145 heartbeat IPC: 1.30151 cumulative IPC: 1.29415 (Simulation time: 4 hr 15 min 45 sec) 
Heartbeat CPU 0 instructions: 1140000000 cycles: 1110896015 heartbeat IPC: 0.856142 cumulative IPC: 0.918937 (Simulation time: 4 hr 15 min 49 sec) 
Heartbeat CPU 1 instructions: 810000001 cycles: 1115880708 heartbeat IPC: 0.623268 cumulative IPC: 0.601098 (Simulation time: 4 hr 16 min 51 sec) 
Heartbeat CPU 3 instructions: 690000002 cycles: 1117581671 heartbeat IPC: 0.449696 cumulative IPC: 0.462101 (Simulation time: 4 hr 17 min 13 sec) 
Heartbeat CPU 2 instructions: 1570000003 cycles: 1118079338 heartbeat IPC: 1.32746 cumulative IPC: 1.29439 (Simulation time: 4 hr 17 min 19 sec) 
Heartbeat CPU 0 instructions: 1150000001 cycles: 1122031590 heartbeat IPC: 0.898023 cumulative IPC: 0.918709 (Simulation time: 4 hr 18 min 10 sec) 
Heartbeat CPU 2 instructions: 1580000000 cycles: 1125455239 heartbeat IPC: 1.35577 cumulative IPC: 1.29483 (Simulation time: 4 hr 18 min 54 sec) 
Heartbeat CPU 1 instructions: 820000000 cycles: 1130547928 heartbeat IPC: 0.681792 cumulative IPC: 0.602247 (Simulation time: 4 hr 20 min 1 sec) 
Heartbeat CPU 2 instructions: 1590000001 cycles: 1132906624 heartbeat IPC: 1.34203 cumulative IPC: 1.29518 (Simulation time: 4 hr 20 min 29 sec) 
Heartbeat CPU 0 instructions: 1160000000 cycles: 1133398043 heartbeat IPC: 0.879782 cumulative IPC: 0.91828 (Simulation time: 4 hr 20 min 35 sec) 
Heartbeat CPU 3 instructions: 700000000 cycles: 1138641538 heartbeat IPC: 0.474837 cumulative IPC: 0.46236 (Simulation time: 4 hr 21 min 41 sec) 
Heartbeat CPU 2 instructions: 1600000000 cycles: 1140462857 heartbeat IPC: 1.32341 cumulative IPC: 1.29538 (Simulation time: 4 hr 22 min 3 sec) 
Heartbeat CPU 0 instructions: 1170000001 cycles: 1144583659 heartbeat IPC: 0.894005 cumulative IPC: 0.91802 (Simulation time: 4 hr 22 min 56 sec) 
Heartbeat CPU 1 instructions: 830000001 cycles: 1146893012 heartbeat IPC: 0.611805 cumulative IPC: 0.602397 (Simulation time: 4 hr 23 min 26 sec) 
Heartbeat CPU 2 instructions: 1610000003 cycles: 1147902756 heartbeat IPC: 1.3441 cumulative IPC: 1.29573 (Simulation time: 4 hr 23 min 39 sec) 
Heartbeat CPU 2 instructions: 1620000000 cycles: 1155386311 heartbeat IPC: 1.33626 cumulative IPC: 1.29601 (Simulation time: 4 hr 25 min 17 sec) 
Heartbeat CPU 0 instructions: 1180000000 cycles: 1155400372 heartbeat IPC: 0.924495 cumulative IPC: 0.918086 (Simulation time: 4 hr 25 min 17 sec) 
Heartbeat CPU 3 instructions: 710000000 cycles: 1160236391 heartbeat IPC: 0.463073 cumulative IPC: 0.462374 (Simulation time: 4 hr 26 min 19 sec) 
Heartbeat CPU 1 instructions: 840000000 cycles: 1161989429 heartbeat IPC: 0.662409 cumulative IPC: 0.603251 (Simulation time: 4 hr 26 min 41 sec) 
Heartbeat CPU 2 instructions: 1630000002 cycles: 1163090905 heartbeat IPC: 1.29793 cumulative IPC: 1.29603 (Simulation time: 4 hr 26 min 56 sec) 
Heartbeat CPU 0 instructions: 1190000003 cycles: 1166276813 heartbeat IPC: 0.919419 cumulative IPC: 0.9181 (Simulation time: 4 hr 27 min 38 sec) 
Heartbeat CPU 2 instructions: 1640000000 cycles: 1170700913 heartbeat IPC: 1.31406 cumulative IPC: 1.29616 (Simulation time: 4 hr 29 min 8 sec) 
Heartbeat CPU 0 instructions: 1200000000 cycles: 1177332031 heartbeat IPC: 0.90455 cumulative IPC: 0.917961 (Simulation time: 4 hr 32 min 6 sec) 
Heartbeat CPU 1 instructions: 850000000 cycles: 1177522265 heartbeat IPC: 0.643797 cumulative IPC: 0.603836 (Simulation time: 4 hr 32 min 11 sec) 
Heartbeat CPU 2 instructions: 1650000002 cycles: 1178224779 heartbeat IPC: 1.3291 cumulative IPC: 1.29639 (Simulation time: 4 hr 32 min 32 sec) 
Heartbeat CPU 3 instructions: 720000000 cycles: 1181335925 heartbeat IPC: 0.473944 cumulative IPC: 0.4626 (Simulation time: 4 hr 33 min 29 sec) 
Heartbeat CPU 2 instructions: 1660000000 cycles: 1185758505 heartbeat IPC: 1.32736 cumulative IPC: 1.2966 (Simulation time: 4 hr 34 min 27 sec) 
Heartbeat CPU 0 instructions: 1210000002 cycles: 1187554125 heartbeat IPC: 0.978273 cumulative IPC: 0.918528 (Simulation time: 4 hr 34 min 50 sec) 
Finished CPU 0 instructions: 1000000000 cycles: 1088821753 cumulative IPC: 0.918424 (Simulation time: 4 hr 35 min 19 sec) 
Heartbeat CPU 1 instructions: 860000000 cycles: 1192665096 heartbeat IPC: 0.660379 cumulative IPC: 0.60462 (Simulation time: 4 hr 35 min 54 sec) 
Heartbeat CPU 2 instructions: 1670000001 cycles: 1193298802 heartbeat IPC: 1.32621 cumulative IPC: 1.29681 (Simulation time: 4 hr 36 min 2 sec) 
Heartbeat CPU 0 instructions: 1220000000 cycles: 1199012199 heartbeat IPC: 0.872747 cumulative IPC: 0.918051 (Simulation time: 4 hr 37 min 12 sec) 
Heartbeat CPU 2 instructions: 1680000000 cycles: 1200878124 heartbeat IPC: 1.31938 cumulative IPC: 1.29696 (Simulation time: 4 hr 37 min 37 sec) 
Heartbeat CPU 3 instructions: 730000003 cycles: 1202605425 heartbeat IPC: 0.470157 cumulative IPC: 0.462746 (Simulation time: 4 hr 37 min 58 sec) 
Heartbeat CPU 2 instructions: 1690000003 cycles: 1208457019 heartbeat IPC: 1.31945 cumulative IPC: 1.29712 (Simulation time: 4 hr 39 min 12 sec) 
Heartbeat CPU 1 instructions: 870000002 cycles: 1208502868 heartbeat IPC: 0.631402 cumulative IPC: 0.605003 (Simulation time: 4 hr 39 min 13 sec) 
Heartbeat CPU 0 instructions: 1230000002 cycles: 1210447186 heartbeat IPC: 0.874509 cumulative IPC: 0.917602 (Simulation time: 4 hr 39 min 36 sec) 
Heartbeat CPU 2 instructions: 1700000000 cycles: 1216035044 heartbeat IPC: 1.3196 cumulative IPC: 1.29727 (Simulation time: 4 hr 40 min 45 sec) 
Heartbeat CPU 0 instructions: 1240000000 cycles: 1221806584 heartbeat IPC: 0.880328 cumulative IPC: 0.917224 (Simulation time: 4 hr 41 min 59 sec) 
Heartbeat CPU 3 instructions: 740000000 cycles: 1222982666 heartbeat IPC: 0.490743 cumulative IPC: 0.463255 (Simulation time: 4 hr 42 min 14 sec) 
Heartbeat CPU 2 instructions: 1710000002 cycles: 1223618038 heartbeat IPC: 1.31874 cumulative IPC: 1.29741 (Simulation time: 4 hr 42 min 22 sec) 
Heartbeat CPU 1 instructions: 880000000 cycles: 1224234089 heartbeat IPC: 0.635678 cumulative IPC: 0.605433 (Simulation time: 4 hr 42 min 29 sec) 
Heartbeat CPU 2 instructions: 1720000000 cycles: 1231175453 heartbeat IPC: 1.3232 cumulative IPC: 1.29759 (Simulation time: 4 hr 43 min 55 sec) 
Heartbeat CPU 0 instructions: 1250000002 cycles: 1233422654 heartbeat IPC: 0.860877 cumulative IPC: 0.916646 (Simulation time: 4 hr 44 min 22 sec) 
Heartbeat CPU 2 instructions: 1730000000 cycles: 1238713943 heartbeat IPC: 1.32653 cumulative IPC: 1.29778 (Simulation time: 4 hr 45 min 30 sec) 
Heartbeat CPU 1 instructions: 890000001 cycles: 1240511150 heartbeat IPC: 0.614362 cumulative IPC: 0.60556 (Simulation time: 4 hr 45 min 53 sec) 
Heartbeat CPU 3 instructions: 750000003 cycles: 1243518968 heartbeat IPC: 0.486943 cumulative IPC: 0.46368 (Simulation time: 4 hr 46 min 34 sec) 
Heartbeat CPU 0 instructions: 1260000000 cycles: 1244335040 heartbeat IPC: 0.91639 cumulative IPC: 0.916643 (Simulation time: 4 hr 46 min 44 sec) 
Heartbeat CPU 2 instructions: 1740000000 cycles: 1246219378 heartbeat IPC: 1.33237 cumulative IPC: 1.298 (Simulation time: 4 hr 47 min 8 sec) 
Heartbeat CPU 2 instructions: 1750000000 cycles: 1253790247 heartbeat IPC: 1.32085 cumulative IPC: 1.29815 (Simulation time: 4 hr 48 min 45 sec) 
Heartbeat CPU 0 instructions: 1270000001 cycles: 1255092406 heartbeat IPC: 0.929596 cumulative IPC: 0.916764 (Simulation time: 4 hr 49 min 2 sec) 
Heartbeat CPU 1 instructions: 900000000 cycles: 1255339191 heartbeat IPC: 0.674398 cumulative IPC: 0.606445 (Simulation time: 4 hr 49 min 5 sec) 
Heartbeat CPU 2 instructions: 1760000000 cycles: 1261383408 heartbeat IPC: 1.31697 cumulative IPC: 1.29828 (Simulation time: 4 hr 50 min 21 sec) 
Heartbeat CPU 3 instructions: 760000000 cycles: 1264048788 heartbeat IPC: 0.487096 cumulative IPC: 0.464094 (Simulation time: 4 hr 50 min 57 sec) 
Heartbeat CPU 0 instructions: 1280000000 cycles: 1266264245 heartbeat IPC: 0.895108 cumulative IPC: 0.916557 (Simulation time: 4 hr 51 min 23 sec) 
Heartbeat CPU 2 instructions: 1770000002 cycles: 1269016614 heartbeat IPC: 1.31007 cumulative IPC: 1.29835 (Simulation time: 4 hr 51 min 55 sec) 
Heartbeat CPU 1 instructions: 910000003 cycles: 1270722514 heartbeat IPC: 0.650055 cumulative IPC: 0.607018 (Simulation time: 4 hr 52 min 17 sec) 
Heartbeat CPU 2 instructions: 1780000000 cycles: 1276675964 heartbeat IPC: 1.30559 cumulative IPC: 1.2984 (Simulation time: 4 hr 53 min 26 sec) 
Heartbeat CPU 0 instructions: 1290000000 cycles: 1277680191 heartbeat IPC: 0.875968 cumulative IPC: 0.916163 (Simulation time: 4 hr 53 min 39 sec) 
Heartbeat CPU 2 instructions: 1790000001 cycles: 1284320223 heartbeat IPC: 1.30817 cumulative IPC: 1.29847 (Simulation time: 4 hr 55 min 1 sec) 
Heartbeat CPU 3 instructions: 770000003 cycles: 1284669981 heartbeat IPC: 0.484938 cumulative IPC: 0.464457 (Simulation time: 4 hr 55 min 5 sec) 
Heartbeat CPU 1 instructions: 920000000 cycles: 1286247256 heartbeat IPC: 0.644133 cumulative IPC: 0.607504 (Simulation time: 4 hr 55 min 24 sec) 
Heartbeat CPU 0 instructions: 1300000000 cycles: 1288567964 heartbeat IPC: 0.918461 cumulative IPC: 0.916184 (Simulation time: 4 hr 55 min 52 sec) 
Heartbeat CPU 2 instructions: 1800000000 cycles: 1291862658 heartbeat IPC: 1.32583 cumulative IPC: 1.29864 (Simulation time: 4 hr 56 min 32 sec) 
Heartbeat CPU 2 instructions: 1810000003 cycles: 1299402620 heartbeat IPC: 1.32627 cumulative IPC: 1.29881 (Simulation time: 4 hr 58 min 2 sec) 
Heartbeat CPU 0 instructions: 1310000000 cycles: 1300081554 heartbeat IPC: 0.868539 cumulative IPC: 0.915726 (Simulation time: 4 hr 58 min 11 sec) 
Heartbeat CPU 1 instructions: 930000000 cycles: 1302356055 heartbeat IPC: 0.620779 cumulative IPC: 0.607682 (Simulation time: 4 hr 58 min 39 sec) 
Heartbeat CPU 3 instructions: 780000000 cycles: 1304982289 heartbeat IPC: 0.492312 cumulative IPC: 0.464927 (Simulation time: 4 hr 59 min 12 sec) 
Heartbeat CPU 2 instructions: 1820000000 cycles: 1306935845 heartbeat IPC: 1.32745 cumulative IPC: 1.29899 (Simulation time: 4 hr 59 min 36 sec) 
Heartbeat CPU 0 instructions: 1320000000 cycles: 1311114713 heartbeat IPC: 0.906359 cumulative IPC: 0.915641 (Simulation time: 5 hr 0 min 24 sec) 
Heartbeat CPU 2 instructions: 1830000003 cycles: 1314498861 heartbeat IPC: 1.32222 cumulative IPC: 1.29914 (Simulation time: 5 hr 1 min 7 sec) 
Heartbeat CPU 1 instructions: 940000000 cycles: 1318593598 heartbeat IPC: 0.615857 cumulative IPC: 0.607791 (Simulation time: 5 hr 1 min 53 sec) 
Heartbeat CPU 2 instructions: 1840000000 cycles: 1322103161 heartbeat IPC: 1.31504 cumulative IPC: 1.29924 (Simulation time: 5 hr 2 min 37 sec) 
Heartbeat CPU 0 instructions: 1330000000 cycles: 1322335361 heartbeat IPC: 0.891214 cumulative IPC: 0.915416 (Simulation time: 5 hr 2 min 40 sec) 
Heartbeat CPU 3 instructions: 790000001 cycles: 1326182175 heartbeat IPC: 0.471701 cumulative IPC: 0.465044 (Simulation time: 5 hr 3 min 26 sec) 
Heartbeat CPU 2 instructions: 1850000000 cycles: 1329543265 heartbeat IPC: 1.34407 cumulative IPC: 1.29951 (Simulation time: 5 hr 4 min 8 sec) 
Heartbeat CPU 1 instructions: 950000000 cycles: 1333522574 heartbeat IPC: 0.669838 cumulative IPC: 0.608543 (Simulation time: 5 hr 4 min 57 sec) 
Heartbeat CPU 0 instructions: 1340000000 cycles: 1333565034 heartbeat IPC: 0.890498 cumulative IPC: 0.915189 (Simulation time: 5 hr 4 min 58 sec) 
Heartbeat CPU 2 instructions: 1860000000 cycles: 1336908663 heartbeat IPC: 1.3577 cumulative IPC: 1.29985 (Simulation time: 5 hr 5 min 38 sec) 
Heartbeat CPU 2 instructions: 1870000000 cycles: 1344475496 heartbeat IPC: 1.32156 cumulative IPC: 1.29999 (Simulation time: 5 hr 7 min 9 sec) 
Heartbeat CPU 0 instructions: 1350000003 cycles: 1344992766 heartbeat IPC: 0.875065 cumulative IPC: 0.914821 (Simulation time: 5 hr 7 min 16 sec) 
Heartbeat CPU 3 instructions: 800000000 cycles: 1347109576 heartbeat IPC: 0.477842 cumulative IPC: 0.465259 (Simulation time: 5 hr 7 min 42 sec) 
Heartbeat CPU 1 instructions: 960000000 cycles: 1348995664 heartbeat IPC: 0.646283 cumulative IPC: 0.609011 (Simulation time: 5 hr 8 min 7 sec) 
Heartbeat CPU 2 instructions: 1880000000 cycles: 1351932927 heartbeat IPC: 1.34094 cumulative IPC: 1.30023 (Simulation time: 5 hr 8 min 43 sec) 
Heartbeat CPU 0 instructions: 1360000000 cycles: 1356823523 heartbeat IPC: 0.845254 cumulative IPC: 0.914165 (Simulation time: 5 hr 9 min 44 sec) 
Heartbeat CPU 2 instructions: 1890000000 cycles: 1359392330 heartbeat IPC: 1.34059 cumulative IPC: 1.30047 (Simulation time: 5 hr 10 min 17 sec) 
Heartbeat CPU 1 instructions: 970000000 cycles: 1365152409 heartbeat IPC: 0.618937 cumulative IPC: 0.609138 (Simulation time: 5 hr 11 min 31 sec) 
Heartbeat CPU 2 instructions: 1900000000 cycles: 1366980598 heartbeat IPC: 1.31782 cumulative IPC: 1.30057 (Simulation time: 5 hr 11 min 55 sec) 
Heartbeat CPU 0 instructions: 1370000003 cycles: 1367481135 heartbeat IPC: 0.938297 cumulative IPC: 0.914368 (Simulation time: 5 hr 12 min 2 sec) 
Heartbeat CPU 3 instructions: 810000001 cycles: 1367830766 heartbeat IPC: 0.482598 cumulative IPC: 0.465543 (Simulation time: 5 hr 12 min 6 sec) 
Heartbeat CPU 2 instructions: 1910000003 cycles: 1374644860 heartbeat IPC: 1.30476 cumulative IPC: 1.3006 (Simulation time: 5 hr 13 min 35 sec) 
Heartbeat CPU 0 instructions: 1380000000 cycles: 1378525586 heartbeat IPC: 0.905432 cumulative IPC: 0.914291 (Simulation time: 5 hr 14 min 24 sec) 
Heartbeat CPU 1 instructions: 980000000 cycles: 1380754592 heartbeat IPC: 0.640936 cumulative IPC: 0.609525 (Simulation time: 5 hr 14 min 50 sec) 
Heartbeat CPU 2 instructions: 1920000000 cycles: 1382172692 heartbeat IPC: 1.3284 cumulative IPC: 1.30076 (Simulation time: 5 hr 15 min 8 sec) 
Heartbeat CPU 3 instructions: 820000000 cycles: 1389171968 heartbeat IPC: 0.468577 cumulative IPC: 0.465593 (Simulation time: 5 hr 16 min 38 sec) 
Heartbeat CPU 2 instructions: 1930000001 cycles: 1389711650 heartbeat IPC: 1.32644 cumulative IPC: 1.30091 (Simulation time: 5 hr 16 min 45 sec) 
Heartbeat CPU 0 instructions: 1390000003 cycles: 1389845647 heartbeat IPC: 0.883388 cumulative IPC: 0.91402 (Simulation time: 5 hr 16 min 47 sec) 
Heartbeat CPU 1 instructions: 990000001 cycles: 1396270118 heartbeat IPC: 0.644516 cumulative IPC: 0.609945 (Simulation time: 5 hr 18 min 8 sec) 
Heartbeat CPU 2 instructions: 1940000000 cycles: 1397240255 heartbeat IPC: 1.32827 cumulative IPC: 1.30107 (Simulation time: 5 hr 18 min 21 sec) 
Heartbeat CPU 0 instructions: 1400000000 cycles: 1401350980 heartbeat IPC: 0.869162 cumulative IPC: 0.913623 (Simulation time: 5 hr 19 min 12 sec) 
Heartbeat CPU 2 instructions: 1950000003 cycles: 1404920893 heartbeat IPC: 1.30198 cumulative IPC: 1.30108 (Simulation time: 5 hr 19 min 57 sec) 
Heartbeat CPU 3 instructions: 830000002 cycles: 1410897180 heartbeat IPC: 0.460295 cumulative IPC: 0.465505 (Simulation time: 5 hr 21 min 11 sec) 
Heartbeat CPU 1 instructions: 1000000000 cycles: 1412059143 heartbeat IPC: 0.633351 cumulative IPC: 0.610227 (Simulation time: 5 hr 21 min 26 sec) 
Heartbeat CPU 2 instructions: 1960000000 cycles: 1412481516 heartbeat IPC: 1.32264 cumulative IPC: 1.3012 (Simulation time: 5 hr 21 min 32 sec) 
Heartbeat CPU 0 instructions: 1410000002 cycles: 1412704082 heartbeat IPC: 0.880817 cumulative IPC: 0.913339 (Simulation time: 5 hr 21 min 34 sec) 
Heartbeat CPU 2 instructions: 1970000003 cycles: 1419717988 heartbeat IPC: 1.38189 cumulative IPC: 1.30164 (Simulation time: 5 hr 23 min 3 sec) 
Heartbeat CPU 0 instructions: 1420000000 cycles: 1423958166 heartbeat IPC: 0.888566 cumulative IPC: 0.913128 (Simulation time: 5 hr 23 min 57 sec) 
Heartbeat CPU 2 instructions: 1980000000 cycles: 1427114389 heartbeat IPC: 1.35201 cumulative IPC: 1.30192 (Simulation time: 5 hr 24 min 39 sec) 
Heartbeat CPU 1 instructions: 1010000000 cycles: 1427561087 heartbeat IPC: 0.64508 cumulative IPC: 0.610634 (Simulation time: 5 hr 24 min 44 sec) 
Heartbeat CPU 3 instructions: 840000000 cycles: 1432007908 heartbeat IPC: 0.473693 cumulative IPC: 0.465635 (Simulation time: 5 hr 25 min 38 sec) 
Heartbeat CPU 2 instructions: 1990000000 cycles: 1434544392 heartbeat IPC: 1.34589 cumulative IPC: 1.30217 (Simulation time: 5 hr 26 min 11 sec) 
Heartbeat CPU 0 instructions: 1430000001 cycles: 1435609002 heartbeat IPC: 0.858308 cumulative IPC: 0.91265 (Simulation time: 5 hr 26 min 25 sec) 
*** Reached end of trace for Core: 2 Repeating trace: /scratch/user/djimenez/champsim-traces/speccpu2017/xz/625.x264_s/625.x264_s-20B.champsimtrace.xz
Heartbeat CPU 2 instructions: 2000000000 cycles: 1441843794 heartbeat IPC: 1.36998 cumulative IPC: 1.30254 (Simulation time: 5 hr 27 min 44 sec) 
Heartbeat CPU 1 instructions: 1020000000 cycles: 1444223351 heartbeat IPC: 0.600159 cumulative IPC: 0.610504 (Simulation time: 5 hr 28 min 13 sec) 
Heartbeat CPU 0 instructions: 1440000000 cycles: 1447179525 heartbeat IPC: 0.864265 cumulative IPC: 0.912234 (Simulation time: 5 hr 28 min 45 sec) 
Heartbeat CPU 2 instructions: 2010000001 cycles: 1451184396 heartbeat IPC: 1.07059 cumulative IPC: 1.30093 (Simulation time: 5 hr 29 min 33 sec) 
Heartbeat CPU 3 instructions: 850000000 cycles: 1453329786 heartbeat IPC: 0.469002 cumulative IPC: 0.465688 (Simulation time: 5 hr 29 min 59 sec) 
Heartbeat CPU 0 instructions: 1450000000 cycles: 1458784399 heartbeat IPC: 0.861707 cumulative IPC: 0.911802 (Simulation time: 5 hr 31 min 8 sec) 
Heartbeat CPU 2 instructions: 2020000000 cycles: 1459091178 heartbeat IPC: 1.26474 cumulative IPC: 1.30072 (Simulation time: 5 hr 31 min 12 sec) 
Heartbeat CPU 1 instructions: 1030000003 cycles: 1461272301 heartbeat IPC: 0.586547 cumulative IPC: 0.610204 (Simulation time: 5 hr 31 min 38 sec) 
Heartbeat CPU 2 instructions: 2030000002 cycles: 1466928815 heartbeat IPC: 1.27589 cumulative IPC: 1.30058 (Simulation time: 5 hr 32 min 48 sec) 
Heartbeat CPU 0 instructions: 1460000000 cycles: 1470493726 heartbeat IPC: 0.85402 cumulative IPC: 0.911308 (Simulation time: 5 hr 33 min 30 sec) 
Heartbeat CPU 3 instructions: 860000000 cycles: 1474018540 heartbeat IPC: 0.483354 cumulative IPC: 0.465954 (Simulation time: 5 hr 34 min 12 sec) 
Heartbeat CPU 2 instructions: 2040000000 cycles: 1474783991 heartbeat IPC: 1.27305 cumulative IPC: 1.30042 (Simulation time: 5 hr 34 min 22 sec) 
Heartbeat CPU 1 instructions: 1040000000 cycles: 1477586745 heartbeat IPC: 0.612954 cumulative IPC: 0.610236 (Simulation time: 5 hr 34 min 55 sec) 
[...]
Heartbeat CPU 0 instructions: 2030000001 cycles: 2111461896 heartbeat IPC: 1.01491 cumulative IPC: 0.904285 (Simulation time: 7 hr 39 min 50 sec) 
Heartbeat CPU 2 instructions: 2870000002 cycles: 2118001864 heartbeat IPC: 1.44222 cumulative IPC: 1.29722 (Simulation time: 7 hr 41 min 11 sec) 
Heartbeat CPU 1 instructions: 1450000001 cycles: 2121173331 heartbeat IPC: 0.694926 cumulative IPC: 0.61878 (Simulation time: 7 hr 41 min 50 sec) 
Heartbeat CPU 0 instructions: 2040000000 cycles: 2121687072 heartbeat IPC: 0.977978 cumulative IPC: 0.904657 (Simulation time: 7 hr 41 min 56 sec) 
Heartbeat CPU 2 instructions: 2880000000 cycles: 2124970035 heartbeat IPC: 1.4351 cumulative IPC: 1.2977 (Simulation time: 7 hr 42 min 38 sec) 
Heartbeat CPU 3 instructions: 1170000001 cycles: 2125123201 heartbeat IPC: 0.493234 cumulative IPC: 0.469222 (Simulation time: 7 hr 42 min 40 sec) 
Heartbeat CPU 2 instructions: 2890000003 cycles: 2131900943 heartbeat IPC: 1.44281 cumulative IPC: 1.29819 (Simulation time: 7 hr 44 min 3 sec) 
Heartbeat CPU 0 instructions: 2050000003 cycles: 2131954012 heartbeat IPC: 0.974 cumulative IPC: 0.905008 (Simulation time: 7 hr 44 min 3 sec) 
Heartbeat CPU 1 instructions: 1460000000 cycles: 2136787245 heartbeat IPC: 0.640454 cumulative IPC: 0.618947 (Simulation time: 7 hr 44 min 58 sec) 
Heartbeat CPU 2 instructions: 2900000000 cycles: 2138843537 heartbeat IPC: 1.44038 cumulative IPC: 1.29868 (Simulation time: 7 hr 45 min 21 sec) 
Heartbeat CPU 0 instructions: 2060000000 cycles: 2143834655 heartbeat IPC: 0.841705 cumulative IPC: 0.90464 (Simulation time: 7 hr 46 min 19 sec) 
Heartbeat CPU 3 instructions: 1180000000 cycles: 2145481014 heartbeat IPC: 0.491212 cumulative IPC: 0.469441 (Simulation time: 7 hr 46 min 38 sec) 
Heartbeat CPU 2 instructions: 2910000000 cycles: 2146177935 heartbeat IPC: 1.36344 cumulative IPC: 1.29891 (Simulation time: 7 hr 46 min 46 sec) 
Heartbeat CPU 1 instructions: 1470000000 cycles: 2152497194 heartbeat IPC: 0.636539 cumulative IPC: 0.619081 (Simulation time: 7 hr 47 min 57 sec) 
Heartbeat CPU 2 instructions: 2920000000 cycles: 2153185687 heartbeat IPC: 1.42699 cumulative IPC: 1.29935 (Simulation time: 7 hr 48 min 5 sec) 
Heartbeat CPU 0 instructions: 2070000000 cycles: 2155254218 heartbeat IPC: 0.87569 cumulative IPC: 0.904479 (Simulation time: 7 hr 48 min 29 sec) 
Heartbeat CPU 2 instructions: 2930000000 cycles: 2159890543 heartbeat IPC: 1.49146 cumulative IPC: 1.29997 (Simulation time: 7 hr 49 min 26 sec) 
Heartbeat CPU 3 instructions: 1190000000 cycles: 2166291460 heartbeat IPC: 0.480528 cumulative IPC: 0.469553 (Simulation time: 7 hr 50 min 39 sec) 
Heartbeat CPU 2 instructions: 2940000000 cycles: 2166733714 heartbeat IPC: 1.46131 cumulative IPC: 1.30051 (Simulation time: 7 hr 50 min 44 sec) 
Heartbeat CPU 0 instructions: 2080000000 cycles: 2166897750 heartbeat IPC: 0.858846 cumulative IPC: 0.904222 (Simulation time: 7 hr 50 min 46 sec) 
Heartbeat CPU 1 instructions: 1480000000 cycles: 2168056417 heartbeat IPC: 0.642706 cumulative IPC: 0.619259 (Simulation time: 7 hr 50 min 59 sec) 
Heartbeat CPU 2 instructions: 2950000003 cycles: 2173526115 heartbeat IPC: 1.47223 cumulative IPC: 1.30107 (Simulation time: 7 hr 52 min 3 sec) 
Heartbeat CPU 0 instructions: 2090000000 cycles: 2178235431 heartbeat IPC: 0.882015 cumulative IPC: 0.904101 (Simulation time: 7 hr 52 min 59 sec) 
Heartbeat CPU 2 instructions: 2960000000 cycles: 2180273902 heartbeat IPC: 1.48197 cumulative IPC: 1.30166 (Simulation time: 7 hr 53 min 22 sec) 
Heartbeat CPU 1 instructions: 1490000000 cycles: 2183890800 heartbeat IPC: 0.631537 cumulative IPC: 0.619353 (Simulation time: 7 hr 54 min 4 sec) 
Heartbeat CPU 3 instructions: 1200000000 cycles: 2186926806 heartbeat IPC: 0.484605 cumulative IPC: 0.469702 (Simulation time: 7 hr 54 min 39 sec) 
Heartbeat CPU 2 instructions: 2970000003 cycles: 2187091473 heartbeat IPC: 1.4668 cumulative IPC: 1.3022 (Simulation time: 7 hr 54 min 41 sec) 
Heartbeat CPU 0 instructions: 2100000000 cycles: 2189665555 heartbeat IPC: 0.874881 cumulative IPC: 0.903941 (Simulation time: 7 hr 55 min 11 sec) 
Heartbeat CPU 2 instructions: 2980000000 cycles: 2199130062 heartbeat IPC: 0.830662 cumulative IPC: 1.29949 (Simulation time: 7 hr 56 min 47 sec) 
Heartbeat CPU 1 instructions: 1500000000 cycles: 2200295007 heartbeat IPC: 0.6096 cumulative IPC: 0.619276 (Simulation time: 7 hr 57 min 0 sec) 
Heartbeat CPU 0 instructions: 2110000003 cycles: 2200432235 heartbeat IPC: 0.928792 cumulative IPC: 0.904068 (Simulation time: 7 hr 57 min 1 sec) 
Heartbeat CPU 2 instructions: 2990000003 cycles: 2204904803 heartbeat IPC: 1.73168 cumulative IPC: 1.30068 (Simulation time: 7 hr 57 min 58 sec) 
Heartbeat CPU 3 instructions: 1210000000 cycles: 2209235241 heartbeat IPC: 0.448261 cumulative IPC: 0.469475 (Simulation time: 7 hr 58 min 46 sec) 
Heartbeat CPU 0 instructions: 2120000000 cycles: 2210992441 heartbeat IPC: 0.946951 cumulative IPC: 0.904283 (Simulation time: 7 hr 59 min 6 sec) 
Heartbeat CPU 2 instructions: 3000000000 cycles: 2214140445 heartbeat IPC: 1.08276 cumulative IPC: 1.29972 (Simulation time: 7 hr 59 min 38 sec) 
Heartbeat CPU 1 instructions: 1510000000 cycles: 2216371711 heartbeat IPC: 0.622018 cumulative IPC: 0.619297 (Simulation time: 8 hr 0 min 2 sec) 
Heartbeat CPU 2 instructions: 3010000000 cycles: 2221462557 heartbeat IPC: 1.36573 cumulative IPC: 1.29995 (Simulation time: 8 hr 1 min 1 sec) 
Heartbeat CPU 0 instructions: 2130000001 cycles: 2222558805 heartbeat IPC: 0.864576 cumulative IPC: 0.904066 (Simulation time: 8 hr 1 min 13 sec) 
Heartbeat CPU 2 instructions: 3020000000 cycles: 2228784069 heartbeat IPC: 1.36584 cumulative IPC: 1.30018 (Simulation time: 8 hr 2 min 25 sec) 
Heartbeat CPU 3 instructions: 1220000000 cycles: 2230254174 heartbeat IPC: 0.475762 cumulative IPC: 0.469537 (Simulation time: 8 hr 2 min 42 sec) 
Finished CPU 3 instructions: 1000000000 cycles: 2129843648 cumulative IPC: 0.469518 (Simulation time: 8 hr 2 min 50 sec) 

CPU 0 Branch Prediction Accuracy: 99.8464% MPKI: 0.00205441

CPU 1 Branch Prediction Accuracy: 99.7872% MPKI: 0.116298

CPU 2 Branch Prediction Accuracy: 97.8841% MPKI: 0.652557

CPU 3 Branch Prediction Accuracy: 97.0843% MPKI: 0.511519

ChampSim completed all CPUs

Total Simulation Statistics (not including warmup)

CPU 0 cumulative IPC: 0.903947 instructions: 1925264915 cycles: 2129843647
L1D TOTAL     ACCESS:  565945783  HIT:  344898076  MISS:  221047707
L1D LOAD      ACCESS:  350010398  HIT:  144613772  MISS:  205396626
L1D RFO       ACCESS:  215935385  HIT:  200284304  MISS:   15651081
L1D PREFETCH  ACCESS:          0  HIT:          0  MISS:          0
L1D WRITEBACK ACCESS:          0  HIT:          0  MISS:          0
L1I TOTAL     ACCESS:  485065081  HIT:  483714974  MISS:    1350107
L1I LOAD      ACCESS:  485065081  HIT:  483714974  MISS:    1350107
L1I RFO       ACCESS:          0  HIT:          0  MISS:          0
L1I PREFETCH  ACCESS:          0  HIT:          0  MISS:          0
L1I WRITEBACK ACCESS:          0  HIT:          0  MISS:          0
L2C TOTAL     ACCESS:  304182026  HIT:  240244035  MISS:   63937991
L2C LOAD      ACCESS:  205795227  HIT:  155831281  MISS:   49963946
L2C RFO       ACCESS:   15639646  HIT:    5494583  MISS:   10145063
L2C PREFETCH  ACCESS:   65059142  HIT:   61231031  MISS:    3828111
L2C WRITEBACK ACCESS:   17688011  HIT:   17687140  MISS:        871
LLC TOTAL     ACCESS:  167271048  HIT:  152649142  MISS:   14621906
LLC LOAD      ACCESS:   49713374  HIT:   43069439  MISS:    6643935
LLC RFO       ACCESS:    8830195  HIT:    8799628  MISS:      30567
LLC PREFETCH  ACCESS:   98122518  HIT:   90179164  MISS:    7943354
LLC WRITEBACK ACCESS:   10604961  HIT:   10600911  MISS:       4050

CPU 1 cumulative IPC: 0.619437 instructions: 1319304402 cycles: 2129843647
L1D TOTAL     ACCESS:  537498846  HIT:  492762436  MISS:   44736410
L1D LOAD      ACCESS:  427457383  HIT:  388097346  MISS:   39360037
L1D RFO       ACCESS:  110041463  HIT:  104665090  MISS:    5376373
L1D PREFETCH  ACCESS:          0  HIT:          0  MISS:          0
L1D WRITEBACK ACCESS:          0  HIT:          0  MISS:          0
L1I TOTAL     ACCESS:  405706016  HIT:  405705683  MISS:        333
L1I LOAD      ACCESS:  405706016  HIT:  405705683  MISS:        333
L1I RFO       ACCESS:          0  HIT:          0  MISS:          0
L1I PREFETCH  ACCESS:          0  HIT:          0  MISS:          0
L1I WRITEBACK ACCESS:          0  HIT:          0  MISS:          0
L2C TOTAL     ACCESS:   76736072  HIT:   60423785  MISS:   16312287
L2C LOAD      ACCESS:   39357730  HIT:   30330778  MISS:    9026952
L2C RFO       ACCESS:    5375059  HIT:    1847765  MISS:    3527294
L2C PREFETCH  ACCESS:   24848079  HIT:   21093339  MISS:    3754740
L2C WRITEBACK ACCESS:    7155204  HIT:    7151903  MISS:       3301
LLC TOTAL     ACCESS:   56470553  HIT:   44975462  MISS:   11495091
LLC LOAD      ACCESS:    8770765  HIT:    5729103  MISS:    3041662
LLC RFO       ACCESS:    3527294  HIT:    1525115  MISS:    2002179
LLC PREFETCH  ACCESS:   39181212  HIT:   32805517  MISS:    6375695
LLC WRITEBACK ACCESS:    4991282  HIT:    4915727  MISS:      75555

CPU 2 cumulative IPC: 1.30032 instructions: 2769468070 cycles: 2129843648
L1D TOTAL     ACCESS:  430694263  HIT:  425988730  MISS:    4705533
L1D LOAD      ACCESS:  233699869  HIT:  230264904  MISS:    3434965
L1D RFO       ACCESS:  196994394  HIT:  195723826  MISS:    1270568
L1D PREFETCH  ACCESS:          0  HIT:          0  MISS:          0
L1D WRITEBACK ACCESS:          0  HIT:          0  MISS:          0
L1I TOTAL     ACCESS:  664689380  HIT:  662939488  MISS:    1749892
L1I LOAD      ACCESS:  664689380  HIT:  662939488  MISS:    1749892
L1I RFO       ACCESS:          0  HIT:          0  MISS:          0
L1I PREFETCH  ACCESS:          0  HIT:          0  MISS:          0
L1I WRITEBACK ACCESS:          0  HIT:          0  MISS:          0
L2C TOTAL     ACCESS:   11022808  HIT:    8374671  MISS:    2648137
L2C LOAD      ACCESS:    5184816  HIT:    3415092  MISS:    1769724
L2C RFO       ACCESS:    1267402  HIT:     577117  MISS:     690285
L2C PREFETCH  ACCESS:    3112398  HIT:    2934436  MISS:     177962
L2C WRITEBACK ACCESS:    1458192  HIT:    1448026  MISS:      10166
LLC TOTAL     ACCESS:    5555228  HIT:    2991804  MISS:    2563424
LLC LOAD      ACCESS:    1668808  HIT:     758468  MISS:     910340
LLC RFO       ACCESS:     690242  HIT:      27065  MISS:     663177
LLC PREFETCH  ACCESS:    2376737  HIT:    1454442  MISS:     922295
LLC WRITEBACK ACCESS:     819441  HIT:     751829  MISS:      67612

CPU 3 cumulative IPC: 0.469518 instructions: 1000000000 cycles: 2129843648
L1D TOTAL     ACCESS:  285667625  HIT:  207444958  MISS:   78222667
L1D LOAD      ACCESS:  102322802  HIT:   90461856  MISS:   11860946
L1D RFO       ACCESS:  183344823  HIT:  116983102  MISS:   66361721
L1D PREFETCH  ACCESS:          0  HIT:          0  MISS:          0
L1D WRITEBACK ACCESS:          0  HIT:          0  MISS:          0
L1I TOTAL     ACCESS:  243955531  HIT:  243955531  MISS:          0
L1I LOAD      ACCESS:  243955531  HIT:  243955531  MISS:          0
L1I RFO       ACCESS:          0  HIT:          0  MISS:          0
L1I PREFETCH  ACCESS:          0  HIT:          0  MISS:          0
L1I WRITEBACK ACCESS:          0  HIT:          0  MISS:          0
L2C TOTAL     ACCESS:  147011271  HIT:   87663540  MISS:   59347731
L2C LOAD      ACCESS:   11860946  HIT:    1844973  MISS:   10015973
L2C RFO       ACCESS:   66361638  HIT:   18887245  MISS:   47474393
L2C PREFETCH  ACCESS:    2426962  HIT:     587095  MISS:    1839867
L2C WRITEBACK ACCESS:   66361725  HIT:   66344227  MISS:      17498
LLC TOTAL     ACCESS:  114337309  HIT:   66952591  MISS:   47384718
LLC LOAD      ACCESS:    8575942  HIT:    4314657  MISS:    4261285
LLC RFO       ACCESS:   47451925  HIT:   11917501  MISS:   35534424
LLC PREFETCH  ACCESS:   10818216  HIT:    3232281  MISS:    7585935
LLC WRITEBACK ACCESS:   47491226  HIT:   47488152  MISS:       3074

Region of Interest Statistics

CPU 0 cumulative IPC: 0.918424 instructions: 1000000000 cycles: 1088821753
L1D TOTAL     ACCESS:  291014201  HIT:  175226512  MISS:  115787689
L1D LOAD      ACCESS:  177955389  HIT:   70341044  MISS:  107614345
L1D RFO       ACCESS:  113058812  HIT:  104885468  MISS:    8173344
L1D PREFETCH  ACCESS:          0  HIT:          0  MISS:          0
L1D WRITEBACK ACCESS:          0  HIT:          0  MISS:          0
L1D PREFETCH  REQUESTED:          0  ISSUED:          0  USEFUL:          0  USELESS:          0
L1I TOTAL     ACCESS:  252251671  HIT:  252251671  MISS:          0
L1I LOAD      ACCESS:  252251671  HIT:  252251671  MISS:          0
L1I RFO       ACCESS:          0  HIT:          0  MISS:          0
L1I PREFETCH  ACCESS:          0  HIT:          0  MISS:          0
L1I WRITEBACK ACCESS:          0  HIT:          0  MISS:          0
L1I PREFETCH  REQUESTED:          0  ISSUED:          0  USEFUL:          0  USELESS:          0
L2C TOTAL     ACCESS:  158340876  HIT:  123865813  MISS:   34475063
L2C LOAD      ACCESS:  107105311  HIT:   80645879  MISS:   26459432
L2C RFO       ACCESS:    8167360  HIT:    2768907  MISS:    5398453
L2C PREFETCH  ACCESS:   33828296  HIT:   31211720  MISS:    2616576
L2C WRITEBACK ACCESS:    9239909  HIT:    9239307  MISS:        602
L2C PREFETCH  REQUESTED:  234699082  ISSUED:  232245858  USEFUL:    1701882  USELESS:    3450232
LLC TOTAL     ACCESS:   89562887  HIT:   81833541  MISS:    7729346
LLC LOAD      ACCESS:   26309567  HIT:   23199328  MISS:    3110239
LLC RFO       ACCESS:    4688381  HIT:    4688381  MISS:          0
LLC PREFETCH  ACCESS:   52922314  HIT:   48305257  MISS:    4617057
LLC WRITEBACK ACCESS:    5642625  HIT:    5640575  MISS:       2050
LLC PREFETCH  REQUESTED:          0  ISSUED:          0  USEFUL:   17254997  USELESS:    9349864
Major fault: 0 Minor fault: 70776

CPU 1 cumulative IPC: 0.611798 instructions: 1000000003 cycles: 1634525186
L1D TOTAL     ACCESS:  404429733  HIT:  371628260  MISS:   32801473
L1D LOAD      ACCESS:  319457355  HIT:  290721545  MISS:   28735810
L1D RFO       ACCESS:   84972378  HIT:   80906715  MISS:    4065663
L1D PREFETCH  ACCESS:          0  HIT:          0  MISS:          0
L1D WRITEBACK ACCESS:          0  HIT:          0  MISS:          0
L1D PREFETCH  REQUESTED:          0  ISSUED:          0  USEFUL:          0  USELESS:          0
L1I TOTAL     ACCESS:  310392753  HIT:  310392420  MISS:        333
L1I LOAD      ACCESS:  310392753  HIT:  310392420  MISS:        333
L1I RFO       ACCESS:          0  HIT:          0  MISS:          0
L1I PREFETCH  ACCESS:          0  HIT:          0  MISS:          0
L1I WRITEBACK ACCESS:          0  HIT:          0  MISS:          0
L1I PREFETCH  REQUESTED:          0  ISSUED:          0  USEFUL:          0  USELESS:          0
L2C TOTAL     ACCESS:   56359624  HIT:   44076399  MISS:   12283225
L2C LOAD      ACCESS:   28734235  HIT:   22039383  MISS:    6694852
L2C RFO       ACCESS:    4064599  HIT:    1358719  MISS:    2705880
L2C PREFETCH  ACCESS:   18198360  HIT:   15318449  MISS:    2879911
L2C WRITEBACK ACCESS:    5362430  HIT:    5359848  MISS:       2582
L2C PREFETCH  REQUESTED:   65247828  ISSUED:   65216210  USEFUL:    3901833  USELESS:     318578
LLC TOTAL     ACCESS:   41252966  HIT:   32466882  MISS:    8786084
LLC LOAD      ACCESS:    6483116  HIT:    4215492  MISS:    2267624
LLC RFO       ACCESS:    2705880  HIT:    1096535  MISS:    1609345
LLC PREFETCH  ACCESS:   28290686  HIT:   23455193  MISS:    4835493
LLC WRITEBACK ACCESS:    3773284  HIT:    3699662  MISS:      73622
LLC PREFETCH  REQUESTED:          0  ISSUED:          0  USEFUL:   17254997  USELESS:    9349864
Major fault: 0 Minor fault: 142608

CPU 2 cumulative IPC: 1.31009 instructions: 1000000001 cycles: 763307241
L1D TOTAL     ACCESS:  158889269  HIT:  156896331  MISS:    1992938
L1D LOAD      ACCESS:   87903074  HIT:   86495095  MISS:    1407979
L1D RFO       ACCESS:   70986195  HIT:   70401236  MISS:     584959
L1D PREFETCH  ACCESS:          0  HIT:          0  MISS:          0
L1D WRITEBACK ACCESS:          0  HIT:          0  MISS:          0
L1D PREFETCH  REQUESTED:          0  ISSUED:          0  USEFUL:          0  USELESS:          0
L1I TOTAL     ACCESS:  239496695  HIT:  238559870  MISS:     936825
L1I LOAD      ACCESS:  239496695  HIT:  238559870  MISS:     936825
L1I RFO       ACCESS:          0  HIT:          0  MISS:          0
L1I PREFETCH  ACCESS:          0  HIT:          0  MISS:          0
L1I WRITEBACK ACCESS:          0  HIT:          0  MISS:          0
L1I PREFETCH  REQUESTED:          0  ISSUED:          0  USEFUL:          0  USELESS:          0
L2C TOTAL     ACCESS:    5080067  HIT:    4016356  MISS:    1063711
L2C LOAD      ACCESS:    2344783  HIT:    1666311  MISS:     678472
L2C RFO       ACCESS:     583463  HIT:     274027  MISS:     309436
L2C PREFETCH  ACCESS:    1489051  HIT:    1418357  MISS:      70694
L2C WRITEBACK ACCESS:     662770  HIT:     657661  MISS:       5109
L2C PREFETCH  REQUESTED:    9024716  ISSUED:    9012201  USEFUL:     217008  USELESS:      19821
LLC TOTAL     ACCESS:    2328303  HIT:    1298938  MISS:    1029365
LLC LOAD      ACCESS:     645738  HIT:     302661  MISS:     343077
LLC RFO       ACCESS:     309416  HIT:      14751  MISS:     294665
LLC PREFETCH  ACCESS:    1017054  HIT:     660165  MISS:     356889
LLC WRITEBACK ACCESS:     356095  HIT:     321361  MISS:      34734
LLC PREFETCH  REQUESTED:          0  ISSUED:          0  USEFUL:   17254997  USELESS:    9349864
Major fault: 0 Minor fault: 12491

CPU 3 cumulative IPC: 0.469518 instructions: 1000000000 cycles: 2129843648
L1D TOTAL     ACCESS:  285667625  HIT:  207444958  MISS:   78222667
L1D LOAD      ACCESS:  102322802  HIT:   90461856  MISS:   11860946
L1D RFO       ACCESS:  183344823  HIT:  116983102  MISS:   66361721
L1D PREFETCH  ACCESS:          0  HIT:          0  MISS:          0
L1D WRITEBACK ACCESS:          0  HIT:          0  MISS:          0
L1D PREFETCH  REQUESTED:          0  ISSUED:          0  USEFUL:          0  USELESS:          0
L1I TOTAL     ACCESS:  243955531  HIT:  243955531  MISS:          0
L1I LOAD      ACCESS:  243955531  HIT:  243955531  MISS:          0
L1I RFO       ACCESS:          0  HIT:          0  MISS:          0
L1I PREFETCH  ACCESS:          0  HIT:          0  MISS:          0
L1I WRITEBACK ACCESS:          0  HIT:          0  MISS:          0
L1I PREFETCH  REQUESTED:          0  ISSUED:          0  USEFUL:          0  USELESS:          0
L2C TOTAL     ACCESS:  147011271  HIT:   87663540  MISS:   59347731
L2C LOAD      ACCESS:   11860946  HIT:    1844973  MISS:   10015973
L2C RFO       ACCESS:   66361638  HIT:   18887245  MISS:   47474393
L2C PREFETCH  ACCESS:    2426962  HIT:     587095  MISS:    1839867
L2C WRITEBACK ACCESS:   66361725  HIT:   66344227  MISS:      17498
L2C PREFETCH  REQUESTED:   30356285  ISSUED:   30356285  USEFUL:    2691197  USELESS:       2289
LLC TOTAL     ACCESS:  114337309  HIT:   66952591  MISS:   47384718
LLC LOAD      ACCESS:    8575942  HIT:    4314657  MISS:    4261285
LLC RFO       ACCESS:   47451925  HIT:   11917501  MISS:   35534424
LLC PREFETCH  ACCESS:   10818216  HIT:    3232281  MISS:    7585935
LLC WRITEBACK ACCESS:   47491226  HIT:   47488152  MISS:       3074
LLC PREFETCH  REQUESTED:          0  ISSUED:          0  USEFUL:   17254997  USELESS:    9349864
Major fault: 0 Minor fault: 431960

DRAM Statistics
 CHANNEL 0
 RQ ROW_BUFFER_HIT:   12909364  ROW_BUFFER_MISS:   25057918
 DBUS_CONGESTED:   76051411
 WQ ROW_BUFFER_HIT:    1967254  ROW_BUFFER_MISS:   18332192  FULL:          0

 CHANNEL 1
 RQ ROW_BUFFER_HIT:   12895610  ROW_BUFFER_MISS:   25048934
 DBUS_CONGESTED:   76051411
 WQ ROW_BUFFER_HIT:    1969221  ROW_BUFFER_MISS:   18331126  FULL:          0

 AVG_CONGESTED_CYCLE: 13
