Initialize SIGNATURE TABLE
ST_SET: 1
ST_WAY: 256
ST_TAG_BIT: 16
ST_TAG_MASK: ffff

Initialize PATTERN TABLE
PT_SET: 512
PT_WAY: 4
SIG_DELTA_BIT: 7
C_SIG_BIT: 4
C_DELTA_BIT: 4

Initialize PREFETCH FILTER
FILTER_SET: 1024

*** ChampSim Multicore Out-of-Order Simulator ***

Warmup Instructions: 200000000
Simulation Instructions: 1000000000
Number of CPUs: 4
LLC sets: 8192
LLC ways: 16
Off-chip DRAM Size: 8192 MB Channels: 2 Width: 64-bit Data Rate: 1600 MT/s

CPU 0 runs /scratch/user/djimenez/champsim-traces/speccpu2017/xz/654.roms_s/654.roms_s-1007B.champsimtrace.xz
CPU 1 runs /scratch/user/djimenez/champsim-traces/speccpu2017/xz/623.xalancbmk_s/623.xalancbmk_s-325B.champsimtrace.xz
CPU 2 runs /scratch/user/djimenez/champsim-traces/speccpu2017/xz/605.mcf_s/605.mcf_s-994B.champsimtrace.xz
CPU 3 runs /scratch/user/djimenez/champsim-traces/speccpu2017/xz/619.lbm_s/619.lbm_s-4268B.champsimtrace.xz
Heartbeat CPU 3 instructions: 10000001 cycles: 4897596 heartbeat IPC: 2.04182 cumulative IPC: 2.04182 (Simulation time: 0 hr 1 min 49 sec) 
Heartbeat CPU 0 instructions: 10000002 cycles: 5111633 heartbeat IPC: 1.95632 cumulative IPC: 1.95632 (Simulation time: 0 hr 1 min 54 sec) 
Heartbeat CPU 2 instructions: 10000000 cycles: 5604005 heartbeat IPC: 1.78444 cumulative IPC: 1.78444 (Simulation time: 0 hr 2 min 5 sec) 
Heartbeat CPU 1 instructions: 10000000 cycles: 6121017 heartbeat IPC: 1.63372 cumulative IPC: 1.63372 (Simulation time: 0 hr 2 min 17 sec) 
Heartbeat CPU 3 instructions: 20000000 cycles: 9788395 heartbeat IPC: 2.04466 cumulative IPC: 2.04324 (Simulation time: 0 hr 3 min 39 sec) 
Heartbeat CPU 0 instructions: 20000000 cycles: 10222813 heartbeat IPC: 1.95649 cumulative IPC: 1.95641 (Simulation time: 0 hr 3 min 49 sec) 
Heartbeat CPU 2 instructions: 20000000 cycles: 11267147 heartbeat IPC: 1.7658 cumulative IPC: 1.77507 (Simulation time: 0 hr 4 min 12 sec) 
Heartbeat CPU 1 instructions: 20000000 cycles: 12326594 heartbeat IPC: 1.61145 cumulative IPC: 1.62251 (Simulation time: 0 hr 4 min 35 sec) 
Heartbeat CPU 3 instructions: 30000000 cycles: 14667468 heartbeat IPC: 2.04957 cumulative IPC: 2.04534 (Simulation time: 0 hr 5 min 27 sec) 
Heartbeat CPU 0 instructions: 30000000 cycles: 15333991 heartbeat IPC: 1.9565 cumulative IPC: 1.95644 (Simulation time: 0 hr 5 min 42 sec) 
Heartbeat CPU 2 instructions: 30000000 cycles: 16971663 heartbeat IPC: 1.753 cumulative IPC: 1.76765 (Simulation time: 0 hr 6 min 18 sec) 
Heartbeat CPU 1 instructions: 30000001 cycles: 18678824 heartbeat IPC: 1.57425 cumulative IPC: 1.6061 (Simulation time: 0 hr 6 min 56 sec) 
Heartbeat CPU 3 instructions: 40000000 cycles: 19572075 heartbeat IPC: 2.0389 cumulative IPC: 2.04373 (Simulation time: 0 hr 7 min 15 sec) 
Heartbeat CPU 0 instructions: 40000000 cycles: 20445464 heartbeat IPC: 1.95638 cumulative IPC: 1.95642 (Simulation time: 0 hr 7 min 35 sec) 
Heartbeat CPU 2 instructions: 40000000 cycles: 22634518 heartbeat IPC: 1.76589 cumulative IPC: 1.76721 (Simulation time: 0 hr 8 min 23 sec) 
Heartbeat CPU 3 instructions: 50000001 cycles: 24483514 heartbeat IPC: 2.03606 cumulative IPC: 2.04219 (Simulation time: 0 hr 9 min 5 sec) 
Heartbeat CPU 1 instructions: 40000000 cycles: 24904718 heartbeat IPC: 1.60619 cumulative IPC: 1.60612 (Simulation time: 0 hr 9 min 15 sec) 
Heartbeat CPU 0 instructions: 50000003 cycles: 25397593 heartbeat IPC: 2.01933 cumulative IPC: 1.96869 (Simulation time: 0 hr 9 min 26 sec) 
Heartbeat CPU 2 instructions: 50000000 cycles: 29121699 heartbeat IPC: 1.5415 cumulative IPC: 1.71693 (Simulation time: 0 hr 10 min 49 sec) 
Heartbeat CPU 3 instructions: 60000000 cycles: 29413926 heartbeat IPC: 2.02823 cumulative IPC: 2.03985 (Simulation time: 0 hr 10 min 55 sec) 
Heartbeat CPU 1 instructions: 50000001 cycles: 30069991 heartbeat IPC: 1.93601 cumulative IPC: 1.66279 (Simulation time: 0 hr 11 min 9 sec) 
Heartbeat CPU 0 instructions: 60000000 cycles: 30211082 heartbeat IPC: 2.07749 cumulative IPC: 1.98603 (Simulation time: 0 hr 11 min 12 sec) 
Heartbeat CPU 3 instructions: 70000003 cycles: 34333280 heartbeat IPC: 2.03279 cumulative IPC: 2.03884 (Simulation time: 0 hr 12 min 41 sec) 
Heartbeat CPU 2 instructions: 60000000 cycles: 34896885 heartbeat IPC: 1.73155 cumulative IPC: 1.71935 (Simulation time: 0 hr 12 min 53 sec) 
Heartbeat CPU 1 instructions: 60000000 cycles: 34947144 heartbeat IPC: 2.05038 cumulative IPC: 1.71688 (Simulation time: 0 hr 12 min 54 sec) 
Heartbeat CPU 0 instructions: 70000003 cycles: 35322035 heartbeat IPC: 1.95658 cumulative IPC: 1.98177 (Simulation time: 0 hr 13 min 2 sec) 
Heartbeat CPU 3 instructions: 80000000 cycles: 39227949 heartbeat IPC: 2.04304 cumulative IPC: 2.03936 (Simulation time: 0 hr 14 min 23 sec) 
Heartbeat CPU 0 instructions: 80000000 cycles: 40433160 heartbeat IPC: 1.95652 cumulative IPC: 1.97857 (Simulation time: 0 hr 14 min 49 sec) 
Heartbeat CPU 2 instructions: 70000002 cycles: 40754074 heartbeat IPC: 1.7073 cumulative IPC: 1.71762 (Simulation time: 0 hr 14 min 56 sec) 
Heartbeat CPU 1 instructions: 70000001 cycles: 40979872 heartbeat IPC: 1.65763 cumulative IPC: 1.70816 (Simulation time: 0 hr 15 min 1 sec) 
Heartbeat CPU 3 instructions: 90000000 cycles: 44140648 heartbeat IPC: 2.03554 cumulative IPC: 2.03894 (Simulation time: 0 hr 16 min 7 sec) 
Heartbeat CPU 0 instructions: 90000003 cycles: 45544429 heartbeat IPC: 1.95646 cumulative IPC: 1.97609 (Simulation time: 0 hr 16 min 37 sec) 
Heartbeat CPU 2 instructions: 80000000 cycles: 46401125 heartbeat IPC: 1.77084 cumulative IPC: 1.7241 (Simulation time: 0 hr 16 min 55 sec) 
Heartbeat CPU 1 instructions: 80000000 cycles: 47378385 heartbeat IPC: 1.56286 cumulative IPC: 1.68853 (Simulation time: 0 hr 17 min 16 sec) 
Heartbeat CPU 3 instructions: 100000000 cycles: 49034835 heartbeat IPC: 2.04324 cumulative IPC: 2.03937 (Simulation time: 0 hr 17 min 50 sec) 
Heartbeat CPU 0 instructions: 100000000 cycles: 50655582 heartbeat IPC: 1.95651 cumulative IPC: 1.97412 (Simulation time: 0 hr 18 min 26 sec) 
Heartbeat CPU 2 instructions: 90000001 cycles: 51969283 heartbeat IPC: 1.79593 cumulative IPC: 1.73179 (Simulation time: 0 hr 18 min 55 sec) 
Heartbeat CPU 3 instructions: 110000002 cycles: 53947476 heartbeat IPC: 2.03557 cumulative IPC: 2.03902 (Simulation time: 0 hr 19 min 37 sec) 
Heartbeat CPU 1 instructions: 90000002 cycles: 53987137 heartbeat IPC: 1.51315 cumulative IPC: 1.66706 (Simulation time: 0 hr 19 min 38 sec) 
Heartbeat CPU 0 instructions: 110000002 cycles: 55766996 heartbeat IPC: 1.95641 cumulative IPC: 1.97249 (Simulation time: 0 hr 20 min 15 sec) 
Heartbeat CPU 2 instructions: 100000000 cycles: 57614377 heartbeat IPC: 1.77145 cumulative IPC: 1.73568 (Simulation time: 0 hr 20 min 53 sec) 
Heartbeat CPU 3 instructions: 120000000 cycles: 58876880 heartbeat IPC: 2.02864 cumulative IPC: 2.03815 (Simulation time: 0 hr 21 min 19 sec) 
Heartbeat CPU 1 instructions: 100000000 cycles: 60292568 heartbeat IPC: 1.58593 cumulative IPC: 1.65858 (Simulation time: 0 hr 21 min 50 sec) 
Heartbeat CPU 0 instructions: 120000000 cycles: 60808988 heartbeat IPC: 1.98334 cumulative IPC: 1.97339 (Simulation time: 0 hr 22 min 1 sec) 
Heartbeat CPU 2 instructions: 110000003 cycles: 63447967 heartbeat IPC: 1.71421 cumulative IPC: 1.7337 (Simulation time: 0 hr 22 min 58 sec) 
Heartbeat CPU 3 instructions: 130000003 cycles: 63772074 heartbeat IPC: 2.04282 cumulative IPC: 2.03851 (Simulation time: 0 hr 23 min 5 sec) 
Heartbeat CPU 0 instructions: 130000003 cycles: 65517017 heartbeat IPC: 2.12403 cumulative IPC: 1.98422 (Simulation time: 0 hr 23 min 44 sec) 
Heartbeat CPU 1 instructions: 110000000 cycles: 66367074 heartbeat IPC: 1.64622 cumulative IPC: 1.65745 (Simulation time: 0 hr 24 min 2 sec) 
Heartbeat CPU 3 instructions: 140000000 cycles: 68677152 heartbeat IPC: 2.0387 cumulative IPC: 2.03852 (Simulation time: 0 hr 24 min 54 sec) 
Heartbeat CPU 2 instructions: 120000000 cycles: 69188415 heartbeat IPC: 1.74202 cumulative IPC: 1.73439 (Simulation time: 0 hr 25 min 6 sec) 
Heartbeat CPU 0 instructions: 140000000 cycles: 70627750 heartbeat IPC: 1.95667 cumulative IPC: 1.98222 (Simulation time: 0 hr 25 min 38 sec) 
Heartbeat CPU 1 instructions: 120000000 cycles: 71265339 heartbeat IPC: 2.04154 cumulative IPC: 1.68385 (Simulation time: 0 hr 25 min 53 sec) 
Heartbeat CPU 3 instructions: 150000000 cycles: 73603513 heartbeat IPC: 2.0299 cumulative IPC: 2.03795 (Simulation time: 0 hr 26 min 53 sec) 
Heartbeat CPU 2 instructions: 130000001 cycles: 74846461 heartbeat IPC: 1.76739 cumulative IPC: 1.73689 (Simulation time: 0 hr 27 min 25 sec) 
Heartbeat CPU 0 instructions: 150000000 cycles: 75739040 heartbeat IPC: 1.95645 cumulative IPC: 1.98048 (Simulation time: 0 hr 27 min 45 sec) 
Heartbeat CPU 1 instructions: 130000003 cycles: 76357374 heartbeat IPC: 1.96385 cumulative IPC: 1.70252 (Simulation time: 0 hr 27 min 59 sec) 
Heartbeat CPU 3 instructions: 160000000 cycles: 78543415 heartbeat IPC: 2.02433 cumulative IPC: 2.03709 (Simulation time: 0 hr 28 min 47 sec) 
Heartbeat CPU 2 instructions: 140000000 cycles: 80820394 heartbeat IPC: 1.67394 cumulative IPC: 1.73224 (Simulation time: 0 hr 29 min 36 sec) 
Heartbeat CPU 0 instructions: 160000000 cycles: 80850320 heartbeat IPC: 1.95646 cumulative IPC: 1.97897 (Simulation time: 0 hr 29 min 37 sec) 
Heartbeat CPU 1 instructions: 140000000 cycles: 82932843 heartbeat IPC: 1.5208 cumulative IPC: 1.68811 (Simulation time: 0 hr 30 min 22 sec) 
Heartbeat CPU 3 instructions: 170000000 cycles: 83473037 heartbeat IPC: 2.02855 cumulative IPC: 2.03659 (Simulation time: 0 hr 30 min 34 sec) 
Heartbeat CPU 0 instructions: 170000000 cycles: 85961511 heartbeat IPC: 1.95649 cumulative IPC: 1.97763 (Simulation time: 0 hr 31 min 30 sec) 
Heartbeat CPU 2 instructions: 150000002 cycles: 86869423 heartbeat IPC: 1.65316 cumulative IPC: 1.72673 (Simulation time: 0 hr 31 min 50 sec) 
Heartbeat CPU 3 instructions: 180000000 cycles: 88396987 heartbeat IPC: 2.03089 cumulative IPC: 2.03627 (Simulation time: 0 hr 32 min 24 sec) 
Heartbeat CPU 1 instructions: 150000000 cycles: 89216342 heartbeat IPC: 1.59147 cumulative IPC: 1.68131 (Simulation time: 0 hr 32 min 42 sec) 
Heartbeat CPU 0 instructions: 180000000 cycles: 91072991 heartbeat IPC: 1.95638 cumulative IPC: 1.97644 (Simulation time: 0 hr 33 min 23 sec) 
Heartbeat CPU 2 instructions: 160000000 cycles: 92464364 heartbeat IPC: 1.78733 cumulative IPC: 1.7304 (Simulation time: 0 hr 33 min 54 sec) 
Heartbeat CPU 3 instructions: 190000001 cycles: 93330909 heartbeat IPC: 2.02679 cumulative IPC: 2.03577 (Simulation time: 0 hr 34 min 13 sec) 
Heartbeat CPU 1 instructions: 160000000 cycles: 94450021 heartbeat IPC: 1.9107 cumulative IPC: 1.69402 (Simulation time: 0 hr 34 min 39 sec) 
Heartbeat CPU 0 instructions: 190000000 cycles: 96184355 heartbeat IPC: 1.95642 cumulative IPC: 1.97537 (Simulation time: 0 hr 35 min 20 sec) 
Heartbeat CPU 2 instructions: 170000000 cycles: 97967579 heartbeat IPC: 1.81712 cumulative IPC: 1.73527 (Simulation time: 0 hr 36 min 2 sec) 
Heartbeat CPU 3 instructions: 200000000 cycles: 98254996 heartbeat IPC: 2.03083 cumulative IPC: 2.03552 (Simulation time: 0 hr 36 min 8 sec) 
Heartbeat CPU 1 instructions: 170000000 cycles: 99915477 heartbeat IPC: 1.82967 cumulative IPC: 1.70144 (Simulation time: 0 hr 36 min 45 sec) 
Heartbeat CPU 0 instructions: 200000000 cycles: 101050788 heartbeat IPC: 2.05489 cumulative IPC: 1.9792 (Simulation time: 0 hr 37 min 9 sec) 
Heartbeat CPU 3 instructions: 210000001 cycles: 103204359 heartbeat IPC: 2.02046 cumulative IPC: 0.0968951 (Simulation time: 0 hr 37 min 58 sec) 
Heartbeat CPU 2 instructions: 180000000 cycles: 104291552 heartbeat IPC: 1.58128 cumulative IPC: 1.72593 (Simulation time: 0 hr 38 min 22 sec) 
Heartbeat CPU 0 instructions: 210000000 cycles: 105934614 heartbeat IPC: 2.04757 cumulative IPC: 0.0943979 (Simulation time: 0 hr 38 min 59 sec) 
Heartbeat CPU 1 instructions: 180000000 cycles: 106385851 heartbeat IPC: 1.54551 cumulative IPC: 1.69195 (Simulation time: 0 hr 39 min 8 sec) 
Heartbeat CPU 3 instructions: 220000000 cycles: 108150614 heartbeat IPC: 2.02173 cumulative IPC: 0.184927 (Simulation time: 0 hr 39 min 48 sec) 
Heartbeat CPU 2 instructions: 190000001 cycles: 109806002 heartbeat IPC: 1.81342 cumulative IPC: 1.73032 (Simulation time: 0 hr 40 min 27 sec) 
Heartbeat CPU 0 instructions: 220000000 cycles: 111045977 heartbeat IPC: 1.95643 cumulative IPC: 0.180106 (Simulation time: 0 hr 40 min 55 sec) 
Heartbeat CPU 1 instructions: 190000001 cycles: 111732592 heartbeat IPC: 1.8703 cumulative IPC: 1.70049 (Simulation time: 0 hr 41 min 10 sec) 
Heartbeat CPU 3 instructions: 230000003 cycles: 113081559 heartbeat IPC: 2.02801 cumulative IPC: 0.265295 (Simulation time: 0 hr 41 min 40 sec) 
Heartbeat CPU 2 instructions: 200000000 cycles: 115509834 heartbeat IPC: 1.75321 cumulative IPC: 1.73145 (Simulation time: 0 hr 42 min 33 sec) 
Heartbeat CPU 0 instructions: 230000003 cycles: 116157326 heartbeat IPC: 1.95643 cumulative IPC: 0.25827 (Simulation time: 0 hr 42 min 47 sec) 
Heartbeat CPU 3 instructions: 240000000 cycles: 118019919 heartbeat IPC: 2.02496 cumulative IPC: 0.338926 (Simulation time: 0 hr 43 min 28 sec) 
Heartbeat CPU 1 instructions: 200000000 cycles: 118271538 heartbeat IPC: 1.5293 cumulative IPC: 1.69102 (Simulation time: 0 hr 43 min 34 sec) 

Warmup complete CPU 0 instructions: 234136651 cycles: 118271554 (Simulation time: 0 hr 43 min 34 sec) 
Warmup complete CPU 1 instructions: 200000001 cycles: 118271554 (Simulation time: 0 hr 43 min 34 sec) 
Warmup complete CPU 2 instructions: 204556249 cycles: 118271553 (Simulation time: 0 hr 43 min 34 sec) 
Warmup complete CPU 3 instructions: 240503065 cycles: 118271553 (Simulation time: 0 hr 43 min 34 sec) 

Heartbeat CPU 0 instructions: 240000000 cycles: 128387484 heartbeat IPC: 0.817651 cumulative IPC: 0.579615 (Simulation time: 0 hr 44 min 57 sec) 
Heartbeat CPU 3 instructions: 250000000 cycles: 136018141 heartbeat IPC: 0.55561 cumulative IPC: 0.535141 (Simulation time: 0 hr 46 min 1 sec) 
Heartbeat CPU 2 instructions: 210000001 cycles: 137387777 heartbeat IPC: 0.457081 cumulative IPC: 0.284771 (Simulation time: 0 hr 46 min 13 sec) 
Heartbeat CPU 1 instructions: 210000003 cycles: 143294811 heartbeat IPC: 0.399628 cumulative IPC: 0.399628 (Simulation time: 0 hr 47 min 4 sec) 
Heartbeat CPU 0 instructions: 250000001 cycles: 145625340 heartbeat IPC: 0.580119 cumulative IPC: 0.579933 (Simulation time: 0 hr 47 min 22 sec) 
Heartbeat CPU 3 instructions: 260000000 cycles: 154978969 heartbeat IPC: 0.527403 cumulative IPC: 0.531144 (Simulation time: 0 hr 48 min 35 sec) 
Heartbeat CPU 0 instructions: 260000000 cycles: 162858323 heartbeat IPC: 0.580283 cumulative IPC: 0.580068 (Simulation time: 0 hr 49 min 37 sec) 
Heartbeat CPU 1 instructions: 220000000 cycles: 166742665 heartbeat IPC: 0.426478 cumulative IPC: 0.412617 (Simulation time: 0 hr 50 min 8 sec) 
Heartbeat CPU 3 instructions: 270000001 cycles: 174403213 heartbeat IPC: 0.514821 cumulative IPC: 0.525496 (Simulation time: 0 hr 51 min 8 sec) 
Heartbeat CPU 0 instructions: 270000000 cycles: 178055882 heartbeat IPC: 0.658 cumulative IPC: 0.599879 (Simulation time: 0 hr 51 min 41 sec) 
Heartbeat CPU 1 instructions: 230000001 cycles: 183692017 heartbeat IPC: 0.589993 cumulative IPC: 0.458572 (Simulation time: 0 hr 52 min 30 sec) 
Heartbeat CPU 3 instructions: 280000000 cycles: 194468067 heartbeat IPC: 0.498384 cumulative IPC: 0.518356 (Simulation time: 0 hr 53 min 58 sec) 
Heartbeat CPU 0 instructions: 280000000 cycles: 194575793 heartbeat IPC: 0.60533 cumulative IPC: 0.601059 (Simulation time: 0 hr 53 min 59 sec) 
Heartbeat CPU 1 instructions: 240000000 cycles: 198466953 heartbeat IPC: 0.676822 cumulative IPC: 0.498782 (Simulation time: 0 hr 54 min 36 sec) 
Heartbeat CPU 0 instructions: 290000000 cycles: 211844053 heartbeat IPC: 0.579097 cumulative IPC: 0.597006 (Simulation time: 0 hr 56 min 21 sec) 
Heartbeat CPU 3 instructions: 290000001 cycles: 213113655 heartbeat IPC: 0.53632 cumulative IPC: 0.521888 (Simulation time: 0 hr 56 min 32 sec) 
Heartbeat CPU 2 instructions: 220000000 cycles: 214100803 heartbeat IPC: 0.130356 cumulative IPC: 0.161159 (Simulation time: 0 hr 56 min 40 sec) 
Heartbeat CPU 1 instructions: 250000001 cycles: 218246627 heartbeat IPC: 0.50557 cumulative IPC: 0.500125 (Simulation time: 0 hr 57 min 13 sec) 
Heartbeat CPU 0 instructions: 300000000 cycles: 229065514 heartbeat IPC: 0.580671 cumulative IPC: 0.594467 (Simulation time: 0 hr 58 min 41 sec) 
Heartbeat CPU 3 instructions: 300000000 cycles: 232610509 heartbeat IPC: 0.512903 cumulative IPC: 0.520356 (Simulation time: 0 hr 59 min 7 sec) 
Heartbeat CPU 0 instructions: 310000000 cycles: 246283883 heartbeat IPC: 0.580775 cumulative IPC: 0.592625 (Simulation time: 1 hr 0 min 53 sec) 
Heartbeat CPU 1 instructions: 260000000 cycles: 247752350 heartbeat IPC: 0.338917 cumulative IPC: 0.463389 (Simulation time: 1 hr 1 min 6 sec) 
Heartbeat CPU 3 instructions: 310000002 cycles: 251627643 heartbeat IPC: 0.525842 cumulative IPC: 0.521138 (Simulation time: 1 hr 1 min 37 sec) 
Heartbeat CPU 2 instructions: 230000001 cycles: 254683522 heartbeat IPC: 0.24641 cumulative IPC: 0.186521 (Simulation time: 1 hr 2 min 3 sec) 
Heartbeat CPU 0 instructions: 320000000 cycles: 263525622 heartbeat IPC: 0.579988 cumulative IPC: 0.591125 (Simulation time: 1 hr 3 min 13 sec) 
Heartbeat CPU 3 instructions: 320000000 cycles: 271010935 heartbeat IPC: 0.515908 cumulative IPC: 0.520474 (Simulation time: 1 hr 4 min 12 sec) 
Heartbeat CPU 1 instructions: 270000001 cycles: 273197771 heartbeat IPC: 0.392998 cumulative IPC: 0.451828 (Simulation time: 1 hr 4 min 31 sec) 
Heartbeat CPU 0 instructions: 330000001 cycles: 280758385 heartbeat IPC: 0.58029 cumulative IPC: 0.589976 (Simulation time: 1 hr 5 min 32 sec) 
Heartbeat CPU 3 instructions: 330000003 cycles: 289676653 heartbeat IPC: 0.535742 cumulative IPC: 0.522137 (Simulation time: 1 hr 6 min 47 sec) 
Heartbeat CPU 0 instructions: 340000000 cycles: 297425861 heartbeat IPC: 0.599971 cumulative IPC: 0.590906 (Simulation time: 1 hr 7 min 47 sec) 
Heartbeat CPU 2 instructions: 240000000 cycles: 298339542 heartbeat IPC: 0.229063 cumulative IPC: 0.196835 (Simulation time: 1 hr 7 min 55 sec) 
Heartbeat CPU 1 instructions: 280000000 cycles: 300704541 heartbeat IPC: 0.363547 cumulative IPC: 0.438517 (Simulation time: 1 hr 8 min 14 sec) 
Heartbeat CPU 3 instructions: 340000000 cycles: 310534621 heartbeat IPC: 0.479433 cumulative IPC: 0.517504 (Simulation time: 1 hr 9 min 38 sec) 
Heartbeat CPU 0 instructions: 350000003 cycles: 311827940 heartbeat IPC: 0.694344 cumulative IPC: 0.598603 (Simulation time: 1 hr 9 min 49 sec) 
Heartbeat CPU 1 instructions: 290000000 cycles: 323379141 heartbeat IPC: 0.441022 cumulative IPC: 0.438794 (Simulation time: 1 hr 11 min 22 sec) 
Heartbeat CPU 3 instructions: 350000001 cycles: 328806772 heartbeat IPC: 0.547281 cumulative IPC: 0.520088 (Simulation time: 1 hr 12 min 5 sec) 
Heartbeat CPU 2 instructions: 250000002 cycles: 331066077 heartbeat IPC: 0.305562 cumulative IPC: 0.213557 (Simulation time: 1 hr 12 min 23 sec) 
Heartbeat CPU 0 instructions: 360000000 cycles: 332873529 heartbeat IPC: 0.475159 cumulative IPC: 0.586497 (Simulation time: 1 hr 12 min 38 sec) 
Heartbeat CPU 3 instructions: 360000000 cycles: 347529839 heartbeat IPC: 0.5341 cumulative IPC: 0.521233 (Simulation time: 1 hr 14 min 26 sec) 
Heartbeat CPU 1 instructions: 300000000 cycles: 350867215 heartbeat IPC: 0.363794 cumulative IPC: 0.429931 (Simulation time: 1 hr 14 min 51 sec) 
Heartbeat CPU 0 instructions: 370000002 cycles: 353944124 heartbeat IPC: 0.474595 cumulative IPC: 0.576492 (Simulation time: 1 hr 15 min 13 sec) 
Heartbeat CPU 3 instructions: 370000001 cycles: 365908686 heartbeat IPC: 0.544104 cumulative IPC: 0.52293 (Simulation time: 1 hr 16 min 54 sec) 
Heartbeat CPU 0 instructions: 380000000 cycles: 375028396 heartbeat IPC: 0.474287 cumulative IPC: 0.568099 (Simulation time: 1 hr 18 min 15 sec) 
Heartbeat CPU 1 instructions: 310000002 cycles: 375763255 heartbeat IPC: 0.40167 cumulative IPC: 0.427198 (Simulation time: 1 hr 18 min 22 sec) 
Heartbeat CPU 3 instructions: 380000000 cycles: 384556716 heartbeat IPC: 0.53625 cumulative IPC: 0.523863 (Simulation time: 1 hr 19 min 36 sec) 
Heartbeat CPU 0 instructions: 390000002 cycles: 393849180 heartbeat IPC: 0.531328 cumulative IPC: 0.565588 (Simulation time: 1 hr 21 min 2 sec) 
Heartbeat CPU 1 instructions: 320000000 cycles: 398399704 heartbeat IPC: 0.441765 cumulative IPC: 0.428375 (Simulation time: 1 hr 21 min 41 sec) 
Heartbeat CPU 3 instructions: 390000000 cycles: 404848619 heartbeat IPC: 0.492807 cumulative IPC: 0.521664 (Simulation time: 1 hr 22 min 54 sec) 
Heartbeat CPU 0 instructions: 400000000 cycles: 406826720 heartbeat IPC: 0.770562 cumulative IPC: 0.574806 (Simulation time: 1 hr 23 min 15 sec) 
Heartbeat CPU 1 instructions: 330000000 cycles: 412636107 heartbeat IPC: 0.702425 cumulative IPC: 0.441629 (Simulation time: 1 hr 24 min 13 sec) 
Heartbeat CPU 0 instructions: 410000000 cycles: 420888433 heartbeat IPC: 0.711151 cumulative IPC: 0.581142 (Simulation time: 1 hr 25 min 25 sec) 
Heartbeat CPU 3 instructions: 400000000 cycles: 423395393 heartbeat IPC: 0.539177 cumulative IPC: 0.522729 (Simulation time: 1 hr 25 min 46 sec) 
Heartbeat CPU 1 instructions: 340000000 cycles: 430718837 heartbeat IPC: 0.553014 cumulative IPC: 0.448076 (Simulation time: 1 hr 26 min 46 sec) 
Heartbeat CPU 2 instructions: 260000000 cycles: 432287349 heartbeat IPC: 0.0987934 cumulative IPC: 0.176564 (Simulation time: 1 hr 26 min 59 sec) 
Heartbeat CPU 0 instructions: 420000000 cycles: 433842785 heartbeat IPC: 0.771941 cumulative IPC: 0.588974 (Simulation time: 1 hr 27 min 12 sec) 
Heartbeat CPU 3 instructions: 410000001 cycles: 442864808 heartbeat IPC: 0.513626 cumulative IPC: 0.522183 (Simulation time: 1 hr 28 min 28 sec) 
Heartbeat CPU 0 instructions: 430000000 cycles: 445511383 heartbeat IPC: 0.857001 cumulative IPC: 0.598531 (Simulation time: 1 hr 28 min 51 sec) 
Heartbeat CPU 0 instructions: 440000000 cycles: 457265299 heartbeat IPC: 0.85078 cumulative IPC: 0.607278 (Simulation time: 1 hr 30 min 30 sec) 
Heartbeat CPU 1 instructions: 350000000 cycles: 458914132 heartbeat IPC: 0.354669 cumulative IPC: 0.440344 (Simulation time: 1 hr 30 min 44 sec) 
Heartbeat CPU 3 instructions: 420000000 cycles: 462492999 heartbeat IPC: 0.509471 cumulative IPC: 0.521458 (Simulation time: 1 hr 31 min 14 sec) 
Heartbeat CPU 0 instructions: 450000001 cycles: 468787848 heartbeat IPC: 0.867864 cumulative IPC: 0.615844 (Simulation time: 1 hr 32 min 8 sec) 
Heartbeat CPU 0 instructions: 460000000 cycles: 480457649 heartbeat IPC: 0.856913 cumulative IPC: 0.623611 (Simulation time: 1 hr 33 min 47 sec) 
Heartbeat CPU 3 instructions: 430000003 cycles: 482509372 heartbeat IPC: 0.499591 cumulative IPC: 0.520256 (Simulation time: 1 hr 34 min 4 sec) 
Heartbeat CPU 1 instructions: 360000000 cycles: 486483115 heartbeat IPC: 0.362726 cumulative IPC: 0.434533 (Simulation time: 1 hr 34 min 38 sec) 
Heartbeat CPU 0 instructions: 470000000 cycles: 492096251 heartbeat IPC: 0.85921 cumulative IPC: 0.630946 (Simulation time: 1 hr 35 min 26 sec) 
Heartbeat CPU 3 instructions: 440000000 cycles: 502486447 heartbeat IPC: 0.500574 cumulative IPC: 0.519233 (Simulation time: 1 hr 36 min 50 sec) 
Heartbeat CPU 0 instructions: 480000000 cycles: 505680576 heartbeat IPC: 0.736143 cumulative IPC: 0.634635 (Simulation time: 1 hr 37 min 15 sec) 
Heartbeat CPU 1 instructions: 370000001 cycles: 511454334 heartbeat IPC: 0.400461 cumulative IPC: 0.432369 (Simulation time: 1 hr 38 min 5 sec) 
Heartbeat CPU 0 instructions: 490000001 cycles: 517327690 heartbeat IPC: 0.858582 cumulative IPC: 0.641171 (Simulation time: 1 hr 38 min 56 sec) 
Heartbeat CPU 3 instructions: 450000002 cycles: 521632512 heartbeat IPC: 0.522301 cumulative IPC: 0.519378 (Simulation time: 1 hr 39 min 35 sec) 
Heartbeat CPU 1 instructions: 380000000 cycles: 527653873 heartbeat IPC: 0.617301 cumulative IPC: 0.439687 (Simulation time: 1 hr 40 min 28 sec) 
Heartbeat CPU 0 instructions: 500000000 cycles: 528948663 heartbeat IPC: 0.860513 cumulative IPC: 0.647378 (Simulation time: 1 hr 40 min 39 sec) 
Heartbeat CPU 3 instructions: 460000000 cycles: 540213613 heartbeat IPC: 0.538181 cumulative IPC: 0.520206 (Simulation time: 1 hr 42 min 12 sec) 
Heartbeat CPU 0 instructions: 510000000 cycles: 540530826 heartbeat IPC: 0.863397 cumulative IPC: 0.653303 (Simulation time: 1 hr 42 min 15 sec) 
Heartbeat CPU 0 instructions: 520000000 cycles: 552124839 heartbeat IPC: 0.862514 cumulative IPC: 0.658894 (Simulation time: 1 hr 43 min 48 sec) 
Heartbeat CPU 1 instructions: 390000001 cycles: 552609120 heartbeat IPC: 0.400717 cumulative IPC: 0.437448 (Simulation time: 1 hr 43 min 52 sec) 
Heartbeat CPU 3 instructions: 470000000 cycles: 558742951 heartbeat IPC: 0.539685 cumulative IPC: 0.521026 (Simulation time: 1 hr 44 min 43 sec) 
Heartbeat CPU 0 instructions: 530000000 cycles: 563875426 heartbeat IPC: 0.851021 cumulative IPC: 0.66396 (Simulation time: 1 hr 45 min 24 sec) 
Heartbeat CPU 2 instructions: 270000000 cycles: 564579750 heartbeat IPC: 0.0755901 cumulative IPC: 0.146634 (Simulation time: 1 hr 45 min 29 sec) 
Heartbeat CPU 0 instructions: 540000000 cycles: 575452475 heartbeat IPC: 0.863778 cumulative IPC: 0.66902 (Simulation time: 1 hr 46 min 59 sec) 
Heartbeat CPU 3 instructions: 480000000 cycles: 577367210 heartbeat IPC: 0.536934 cumulative IPC: 0.521671 (Simulation time: 1 hr 47 min 15 sec) 
Heartbeat CPU 1 instructions: 400000000 cycles: 580659523 heartbeat IPC: 0.356501 cumulative IPC: 0.432537 (Simulation time: 1 hr 47 min 42 sec) 
Heartbeat CPU 0 instructions: 550000002 cycles: 587063426 heartbeat IPC: 0.861256 cumulative IPC: 0.673782 (Simulation time: 1 hr 48 min 35 sec) 
Heartbeat CPU 3 instructions: 490000000 cycles: 595377171 heartbeat IPC: 0.555248 cumulative IPC: 0.522939 (Simulation time: 1 hr 49 min 46 sec) 
Heartbeat CPU 0 instructions: 560000000 cycles: 598923705 heartbeat IPC: 0.84315 cumulative IPC: 0.677961 (Simulation time: 1 hr 50 min 18 sec) 
Heartbeat CPU 1 instructions: 410000001 cycles: 607289666 heartbeat IPC: 0.375514 cumulative IPC: 0.429432 (Simulation time: 1 hr 51 min 26 sec) 
Heartbeat CPU 3 instructions: 500000000 cycles: 612277703 heartbeat IPC: 0.591697 cumulative IPC: 0.525291 (Simulation time: 1 hr 52 min 8 sec) 
Heartbeat CPU 0 instructions: 570000000 cycles: 614663236 heartbeat IPC: 0.635343 cumulative IPC: 0.67661 (Simulation time: 1 hr 52 min 28 sec) 
Heartbeat CPU 2 instructions: 280000000 cycles: 618981316 heartbeat IPC: 0.183818 cumulative IPC: 0.150674 (Simulation time: 1 hr 53 min 8 sec) 
Heartbeat CPU 0 instructions: 580000000 cycles: 627909784 heartbeat IPC: 0.754914 cumulative IPC: 0.678645 (Simulation time: 1 hr 54 min 29 sec) 
Heartbeat CPU 3 instructions: 510000000 cycles: 628279387 heartbeat IPC: 0.624934 cumulative IPC: 0.528417 (Simulation time: 1 hr 54 min 32 sec) 
Heartbeat CPU 1 instructions: 420000000 cycles: 631654286 heartbeat IPC: 0.410431 cumulative IPC: 0.42853 (Simulation time: 1 hr 55 min 5 sec) 
Heartbeat CPU 0 instructions: 590000001 cycles: 639436488 heartbeat IPC: 0.867551 cumulative IPC: 0.682823 (Simulation time: 1 hr 56 min 12 sec) 
Heartbeat CPU 3 instructions: 520000000 cycles: 643379957 heartbeat IPC: 0.662227 cumulative IPC: 0.532265 (Simulation time: 1 hr 56 min 46 sec) 
Heartbeat CPU 0 instructions: 600000000 cycles: 651066918 heartbeat IPC: 0.859813 cumulative IPC: 0.686686 (Simulation time: 1 hr 57 min 56 sec) 
Heartbeat CPU 1 instructions: 430000003 cycles: 652062266 heartbeat IPC: 0.490005 cumulative IPC: 0.43088 (Simulation time: 1 hr 58 min 5 sec) 
Heartbeat CPU 3 instructions: 530000000 cycles: 657434493 heartbeat IPC: 0.711514 cumulative IPC: 0.536938 (Simulation time: 1 hr 58 min 55 sec) 
Heartbeat CPU 0 instructions: 610000002 cycles: 664215059 heartbeat IPC: 0.760564 cumulative IPC: 0.688466 (Simulation time: 1 hr 59 min 56 sec) 
Heartbeat CPU 1 instructions: 440000000 cycles: 666288804 heartbeat IPC: 0.702911 cumulative IPC: 0.437942 (Simulation time: 2 hr 0 min 15 sec) 
Heartbeat CPU 3 instructions: 540000000 cycles: 670985932 heartbeat IPC: 0.737929 cumulative IPC: 0.541866 (Simulation time: 2 hr 1 min 0 sec) 
Heartbeat CPU 2 instructions: 290000000 cycles: 676596155 heartbeat IPC: 0.173566 cumulative IPC: 0.153036 (Simulation time: 2 hr 1 min 46 sec) 
Heartbeat CPU 0 instructions: 620000000 cycles: 679423261 heartbeat IPC: 0.65754 cumulative IPC: 0.687627 (Simulation time: 2 hr 2 min 11 sec) 
Heartbeat CPU 3 instructions: 550000000 cycles: 684349106 heartbeat IPC: 0.748325 cumulative IPC: 0.546739 (Simulation time: 2 hr 2 min 55 sec) 
Heartbeat CPU 1 instructions: 450000000 cycles: 684516089 heartbeat IPC: 0.548628 cumulative IPC: 0.441505 (Simulation time: 2 hr 2 min 57 sec) 
Heartbeat CPU 0 instructions: 630000000 cycles: 693955846 heartbeat IPC: 0.688109 cumulative IPC: 0.68764 (Simulation time: 2 hr 4 min 12 sec) 
Heartbeat CPU 3 instructions: 560000000 cycles: 697301294 heartbeat IPC: 0.77207 cumulative IPC: 0.55178 (Simulation time: 2 hr 4 min 40 sec) 
Heartbeat CPU 0 instructions: 640000000 cycles: 707268911 heartbeat IPC: 0.751142 cumulative IPC: 0.689075 (Simulation time: 2 hr 6 min 1 sec) 
Heartbeat CPU 3 instructions: 570000001 cycles: 710532270 heartbeat IPC: 0.755802 cumulative IPC: 0.556338 (Simulation time: 2 hr 6 min 26 sec) 
Heartbeat CPU 1 instructions: 460000000 cycles: 713786008 heartbeat IPC: 0.341648 cumulative IPC: 0.436597 (Simulation time: 2 hr 6 min 53 sec) 
Heartbeat CPU 0 instructions: 650000000 cycles: 720232772 heartbeat IPC: 0.771375 cumulative IPC: 0.690847 (Simulation time: 2 hr 7 min 47 sec) 
Heartbeat CPU 3 instructions: 580000000 cycles: 723053476 heartbeat IPC: 0.798645 cumulative IPC: 0.561354 (Simulation time: 2 hr 8 min 11 sec) 
Heartbeat CPU 0 instructions: 660000000 cycles: 733041364 heartbeat IPC: 0.780726 cumulative IPC: 0.69272 (Simulation time: 2 hr 9 min 41 sec) 
Heartbeat CPU 3 instructions: 590000003 cycles: 735043948 heartbeat IPC: 0.833996 cumulative IPC: 0.566655 (Simulation time: 2 hr 9 min 59 sec) 
Heartbeat CPU 2 instructions: 300000000 cycles: 735147986 heartbeat IPC: 0.170789 cumulative IPC: 0.154721 (Simulation time: 2 hr 10 min 0 sec) 
Heartbeat CPU 1 instructions: 470000002 cycles: 741432731 heartbeat IPC: 0.361707 cumulative IPC: 0.433275 (Simulation time: 2 hr 10 min 59 sec) 
Heartbeat CPU 0 instructions: 670000000 cycles: 745938904 heartbeat IPC: 0.775342 cumulative IPC: 0.694418 (Simulation time: 2 hr 11 min 41 sec) 
Heartbeat CPU 3 instructions: 600000000 cycles: 746605994 heartbeat IPC: 0.864899 cumulative IPC: 0.572143 (Simulation time: 2 hr 11 min 48 sec) 
Heartbeat CPU 0 instructions: 680000000 cycles: 758512338 heartbeat IPC: 0.795328 cumulative IPC: 0.696399 (Simulation time: 2 hr 13 min 31 sec) 
Heartbeat CPU 3 instructions: 610000001 cycles: 759310233 heartbeat IPC: 0.787139 cumulative IPC: 0.576403 (Simulation time: 2 hr 13 min 39 sec) 
Heartbeat CPU 1 instructions: 480000000 cycles: 763754739 heartbeat IPC: 0.447988 cumulative IPC: 0.433784 (Simulation time: 2 hr 14 min 21 sec) 
Heartbeat CPU 3 instructions: 620000000 cycles: 770677804 heartbeat IPC: 0.879695 cumulative IPC: 0.581688 (Simulation time: 2 hr 15 min 24 sec) 
Heartbeat CPU 0 instructions: 690000002 cycles: 770713214 heartbeat IPC: 0.819613 cumulative IPC: 0.698704 (Simulation time: 2 hr 15 min 24 sec) 
Heartbeat CPU 2 instructions: 310000001 cycles: 774876251 heartbeat IPC: 0.25171 cumulative IPC: 0.160589 (Simulation time: 2 hr 15 min 59 sec) 
Heartbeat CPU 3 instructions: 630000002 cycles: 781988282 heartbeat IPC: 0.884136 cumulative IPC: 0.586842 (Simulation time: 2 hr 17 min 3 sec) 
Heartbeat CPU 0 instructions: 700000000 cycles: 783528410 heartbeat IPC: 0.780323 cumulative IPC: 0.700276 (Simulation time: 2 hr 17 min 17 sec) 
Heartbeat CPU 1 instructions: 490000000 cycles: 789705280 heartbeat IPC: 0.385348 cumulative IPC: 0.431912 (Simulation time: 2 hr 18 min 17 sec) 
Heartbeat CPU 3 instructions: 640000000 cycles: 793919906 heartbeat IPC: 0.838109 cumulative IPC: 0.591279 (Simulation time: 2 hr 18 min 54 sec) 
Heartbeat CPU 0 instructions: 710000001 cycles: 795947363 heartbeat IPC: 0.805221 cumulative IPC: 0.702199 (Simulation time: 2 hr 19 min 11 sec) 
Heartbeat CPU 3 instructions: 650000002 cycles: 805323825 heartbeat IPC: 0.876892 cumulative IPC: 0.59602 (Simulation time: 2 hr 20 min 43 sec) 
Heartbeat CPU 0 instructions: 720000000 cycles: 807554269 heartbeat IPC: 0.861556 cumulative IPC: 0.704883 (Simulation time: 2 hr 21 min 4 sec) 
Heartbeat CPU 2 instructions: 320000000 cycles: 816011183 heartbeat IPC: 0.243102 cumulative IPC: 0.165454 (Simulation time: 2 hr 22 min 28 sec) 
Heartbeat CPU 3 instructions: 660000000 cycles: 816110207 heartbeat IPC: 0.927095 cumulative IPC: 0.601137 (Simulation time: 2 hr 22 min 29 sec) 
Heartbeat CPU 1 instructions: 500000000 cycles: 816800993 heartbeat IPC: 0.369062 cumulative IPC: 0.429474 (Simulation time: 2 hr 22 min 36 sec) 
Heartbeat CPU 0 instructions: 730000002 cycles: 819000457 heartbeat IPC: 0.873653 cumulative IPC: 0.707639 (Simulation time: 2 hr 22 min 59 sec) 
Heartbeat CPU 3 instructions: 670000002 cycles: 826957937 heartbeat IPC: 0.921852 cumulative IPC: 0.606047 (Simulation time: 2 hr 24 min 19 sec) 
Heartbeat CPU 0 instructions: 740000000 cycles: 830515412 heartbeat IPC: 0.868436 cumulative IPC: 0.710239 (Simulation time: 2 hr 24 min 54 sec) 
Heartbeat CPU 3 instructions: 680000000 cycles: 837704974 heartbeat IPC: 0.930489 cumulative IPC: 0.610893 (Simulation time: 2 hr 26 min 6 sec) 
Heartbeat CPU 1 instructions: 510000002 cycles: 839107052 heartbeat IPC: 0.448309 cumulative IPC: 0.430057 (Simulation time: 2 hr 26 min 20 sec) 
Heartbeat CPU 0 instructions: 750000003 cycles: 842012509 heartbeat IPC: 0.869785 cumulative IPC: 0.712773 (Simulation time: 2 hr 26 min 47 sec) 
Heartbeat CPU 3 instructions: 690000000 cycles: 848640254 heartbeat IPC: 0.914471 cumulative IPC: 0.615438 (Simulation time: 2 hr 27 min 48 sec) 
Heartbeat CPU 0 instructions: 760000000 cycles: 853597093 heartbeat IPC: 0.863216 cumulative IPC: 0.715144 (Simulation time: 2 hr 28 min 34 sec) 
Heartbeat CPU 3 instructions: 700000000 cycles: 859457893 heartbeat IPC: 0.924416 cumulative IPC: 0.619948 (Simulation time: 2 hr 29 min 29 sec) 
Heartbeat CPU 0 instructions: 770000002 cycles: 865185320 heartbeat IPC: 0.862945 cumulative IPC: 0.717437 (Simulation time: 2 hr 30 min 24 sec) 
Heartbeat CPU 1 instructions: 520000000 cycles: 866934116 heartbeat IPC: 0.359362 cumulative IPC: 0.427429 (Simulation time: 2 hr 30 min 41 sec) 
Heartbeat CPU 3 instructions: 710000002 cycles: 870317524 heartbeat IPC: 0.920842 cumulative IPC: 0.624293 (Simulation time: 2 hr 31 min 12 sec) 
Heartbeat CPU 0 instructions: 780000000 cycles: 876755735 heartbeat IPC: 0.864273 cumulative IPC: 0.719677 (Simulation time: 2 hr 32 min 14 sec) 
Heartbeat CPU 3 instructions: 720000000 cycles: 881116491 heartbeat IPC: 0.926014 cumulative IPC: 0.628564 (Simulation time: 2 hr 32 min 55 sec) 
Heartbeat CPU 2 instructions: 330000000 cycles: 884270321 heartbeat IPC: 0.146501 cumulative IPC: 0.163765 (Simulation time: 2 hr 33 min 25 sec) 
Heartbeat CPU 0 instructions: 790000001 cycles: 890868766 heartbeat IPC: 0.708565 cumulative IPC: 0.719474 (Simulation time: 2 hr 34 min 25 sec) 
Heartbeat CPU 1 instructions: 530000000 cycles: 891625973 heartbeat IPC: 0.404992 cumulative IPC: 0.426713 (Simulation time: 2 hr 34 min 32 sec) 
Heartbeat CPU 3 instructions: 730000000 cycles: 891963254 heartbeat IPC: 0.921934 cumulative IPC: 0.632677 (Simulation time: 2 hr 34 min 36 sec) 
Heartbeat CPU 3 instructions: 740000000 cycles: 902478393 heartbeat IPC: 0.95101 cumulative IPC: 0.636945 (Simulation time: 2 hr 36 min 30 sec) 
Heartbeat CPU 0 instructions: 800000000 cycles: 903439981 heartbeat IPC: 0.795468 cumulative IPC: 0.72069 (Simulation time: 2 hr 36 min 40 sec) 
Heartbeat CPU 1 instructions: 540000000 cycles: 910755783 heartbeat IPC: 0.522744 cumulative IPC: 0.429031 (Simulation time: 2 hr 37 min 54 sec) 
Heartbeat CPU 3 instructions: 750000001 cycles: 913242721 heartbeat IPC: 0.928994 cumulative IPC: 0.6409 (Simulation time: 2 hr 38 min 18 sec) 
Heartbeat CPU 0 instructions: 810000002 cycles: 915160531 heartbeat IPC: 0.853202 cumulative IPC: 0.722639 (Simulation time: 2 hr 38 min 35 sec) 
Heartbeat CPU 2 instructions: 340000000 cycles: 921398900 heartbeat IPC: 0.269334 cumulative IPC: 0.168645 (Simulation time: 2 hr 39 min 36 sec) 
Heartbeat CPU 3 instructions: 760000000 cycles: 923931447 heartbeat IPC: 0.935565 cumulative IPC: 0.644809 (Simulation time: 2 hr 40 min 1 sec) 
Heartbeat CPU 0 instructions: 820000000 cycles: 927645616 heartbeat IPC: 0.800956 cumulative IPC: 0.723847 (Simulation time: 2 hr 40 min 37 sec) 
Heartbeat CPU 3 instructions: 770000001 cycles: 934969087 heartbeat IPC: 0.905991 cumulative IPC: 0.648339 (Simulation time: 2 hr 41 min 48 sec) 
Heartbeat CPU 1 instructions: 550000001 cycles: 938986993 heartbeat IPC: 0.354218 cumulative IPC: 0.426457 (Simulation time: 2 hr 42 min 26 sec) 
Heartbeat CPU 0 instructions: 830000001 cycles: 940185592 heartbeat IPC: 0.79745 cumulative IPC: 0.72497 (Simulation time: 2 hr 42 min 38 sec) 
Heartbeat CPU 3 instructions: 780000000 cycles: 945737141 heartbeat IPC: 0.928673 cumulative IPC: 0.651987 (Simulation time: 2 hr 43 min 34 sec) 
Heartbeat CPU 2 instructions: 350000000 cycles: 949610750 heartbeat IPC: 0.354461 cumulative IPC: 0.174951 (Simulation time: 2 hr 44 min 13 sec) 
Heartbeat CPU 0 instructions: 840000000 cycles: 953182060 heartbeat IPC: 0.76944 cumulative IPC: 0.725663 (Simulation time: 2 hr 44 min 50 sec) 
Heartbeat CPU 3 instructions: 790000002 cycles: 956711812 heartbeat IPC: 0.911189 cumulative IPC: 0.65538 (Simulation time: 2 hr 45 min 23 sec) 
Heartbeat CPU 1 instructions: 560000000 cycles: 964180829 heartbeat IPC: 0.396922 cumulative IPC: 0.425578 (Simulation time: 2 hr 46 min 28 sec) 
Heartbeat CPU 0 instructions: 850000000 cycles: 966918707 heartbeat IPC: 0.72798 cumulative IPC: 0.7257 (Simulation time: 2 hr 46 min 54 sec) 
Heartbeat CPU 3 instructions: 800000000 cycles: 967375703 heartbeat IPC: 0.937744 cumulative IPC: 0.658926 (Simulation time: 2 hr 46 min 58 sec) 
Heartbeat CPU 3 instructions: 810000001 cycles: 977871698 heartbeat IPC: 0.952744 cumulative IPC: 0.662514 (Simulation time: 2 hr 48 min 38 sec) 
Heartbeat CPU 0 instructions: 860000000 cycles: 978526493 heartbeat IPC: 0.861491 cumulative IPC: 0.727532 (Simulation time: 2 hr 48 min 45 sec) 
Heartbeat CPU 1 instructions: 570000002 cycles: 987816131 heartbeat IPC: 0.423096 cumulative IPC: 0.42551 (Simulation time: 2 hr 50 min 14 sec) 
Heartbeat CPU 3 instructions: 820000000 cycles: 988405628 heartbeat IPC: 0.949313 cumulative IPC: 0.665986 (Simulation time: 2 hr 50 min 20 sec) 
Heartbeat CPU 0 instructions: 870000002 cycles: 989943989 heartbeat IPC: 0.875849 cumulative IPC: 0.729475 (Simulation time: 2 hr 50 min 35 sec) 
Heartbeat CPU 3 instructions: 830000002 cycles: 998856367 heartbeat IPC: 0.95687 cumulative IPC: 0.669438 (Simulation time: 2 hr 52 min 2 sec) 
Heartbeat CPU 0 instructions: 880000000 cycles: 1002011539 heartbeat IPC: 0.828668 cumulative IPC: 0.73083 (Simulation time: 2 hr 52 min 37 sec) 
Heartbeat CPU 1 instructions: 580000000 cycles: 1006722606 heartbeat IPC: 0.528919 cumulative IPC: 0.427711 (Simulation time: 2 hr 53 min 38 sec) 
Heartbeat CPU 3 instructions: 840000000 cycles: 1009252850 heartbeat IPC: 0.961864 cumulative IPC: 0.67285 (Simulation time: 2 hr 54 min 15 sec) 
Heartbeat CPU 2 instructions: 360000000 cycles: 1013393775 heartbeat IPC: 0.156782 cumulative IPC: 0.173656 (Simulation time: 2 hr 55 min 8 sec) 
Heartbeat CPU 0 instructions: 890000001 cycles: 1014157914 heartbeat IPC: 0.823291 cumulative IPC: 0.732083 (Simulation time: 2 hr 55 min 18 sec) 
Heartbeat CPU 3 instructions: 850000000 cycles: 1019739616 heartbeat IPC: 0.953583 cumulative IPC: 0.676116 (Simulation time: 2 hr 56 min 27 sec) 
Heartbeat CPU 1 instructions: 590000000 cycles: 1020807273 heartbeat IPC: 0.709992 cumulative IPC: 0.432116 (Simulation time: 2 hr 56 min 40 sec) 
Heartbeat CPU 0 instructions: 900000000 cycles: 1025930479 heartbeat IPC: 0.849432 cumulative IPC: 0.733605 (Simulation time: 2 hr 57 min 42 sec) 
Heartbeat CPU 3 instructions: 860000000 cycles: 1030230833 heartbeat IPC: 0.953178 cumulative IPC: 0.679303 (Simulation time: 2 hr 58 min 29 sec) 
Heartbeat CPU 0 instructions: 910000001 cycles: 1037603228 heartbeat IPC: 0.856696 cumulative IPC: 0.735168 (Simulation time: 2 hr 59 min 58 sec) 
Heartbeat CPU 1 instructions: 600000000 cycles: 1037688476 heartbeat IPC: 0.592375 cumulative IPC: 0.435058 (Simulation time: 2 hr 59 min 59 sec) 
Heartbeat CPU 3 instructions: 870000003 cycles: 1040616670 heartbeat IPC: 0.96285 cumulative IPC: 0.682496 (Simulation time: 3 hr 0 min 33 sec) 
Heartbeat CPU 0 instructions: 920000000 cycles: 1049188146 heartbeat IPC: 0.863191 cumulative IPC: 0.736761 (Simulation time: 3 hr 2 min 6 sec) 
Heartbeat CPU 3 instructions: 880000000 cycles: 1051582403 heartbeat IPC: 0.911931 cumulative IPC: 0.685192 (Simulation time: 3 hr 2 min 29 sec) 
Heartbeat CPU 2 instructions: 370000001 cycles: 1054444889 heartbeat IPC: 0.243599 cumulative IPC: 0.176723 (Simulation time: 3 hr 3 min 0 sec) 
Heartbeat CPU 0 instructions: 930000000 cycles: 1060938088 heartbeat IPC: 0.851068 cumulative IPC: 0.738186 (Simulation time: 3 hr 4 min 20 sec) 
Heartbeat CPU 3 instructions: 890000003 cycles: 1062379458 heartbeat IPC: 0.926179 cumulative IPC: 0.687948 (Simulation time: 3 hr 4 min 34 sec) 
Heartbeat CPU 1 instructions: 610000001 cycles: 1064617832 heartbeat IPC: 0.371342 cumulative IPC: 0.433245 (Simulation time: 3 hr 4 min 56 sec) 
Heartbeat CPU 0 instructions: 940000000 cycles: 1072691361 heartbeat IPC: 0.850827 cumulative IPC: 0.739573 (Simulation time: 3 hr 6 min 33 sec) 
Heartbeat CPU 3 instructions: 900000000 cycles: 1073214131 heartbeat IPC: 0.922962 cumulative IPC: 0.690614 (Simulation time: 3 hr 6 min 39 sec) 
Heartbeat CPU 3 instructions: 910000002 cycles: 1083618450 heartbeat IPC: 0.96114 cumulative IPC: 0.69353 (Simulation time: 3 hr 8 min 46 sec) 
Heartbeat CPU 0 instructions: 950000000 cycles: 1084299870 heartbeat IPC: 0.861437 cumulative IPC: 0.741038 (Simulation time: 3 hr 8 min 53 sec) 
Heartbeat CPU 1 instructions: 620000000 cycles: 1087832935 heartbeat IPC: 0.430754 cumulative IPC: 0.433186 (Simulation time: 3 hr 9 min 30 sec) 
Heartbeat CPU 2 instructions: 380000000 cycles: 1089306912 heartbeat IPC: 0.286845 cumulative IPC: 0.180677 (Simulation time: 3 hr 9 min 45 sec) 
Heartbeat CPU 3 instructions: 920000000 cycles: 1094431867 heartbeat IPC: 0.924777 cumulative IPC: 0.696092 (Simulation time: 3 hr 10 min 41 sec) 
Heartbeat CPU 0 instructions: 960000000 cycles: 1097452509 heartbeat IPC: 0.760304 cumulative IPC: 0.741296 (Simulation time: 3 hr 11 min 15 sec) 
Heartbeat CPU 3 instructions: 930000001 cycles: 1104760196 heartbeat IPC: 0.968211 cumulative IPC: 0.698941 (Simulation time: 3 hr 12 min 33 sec) 
Heartbeat CPU 0 instructions: 970000000 cycles: 1108941414 heartbeat IPC: 0.870405 cumulative IPC: 0.742794 (Simulation time: 3 hr 13 min 24 sec) 
Heartbeat CPU 3 instructions: 940000000 cycles: 1115280988 heartbeat IPC: 0.950499 cumulative IPC: 0.701595 (Simulation time: 3 hr 14 min 29 sec) 
Heartbeat CPU 1 instructions: 630000002 cycles: 1116242458 heartbeat IPC: 0.351995 cumulative IPC: 0.430874 (Simulation time: 3 hr 14 min 40 sec) 
Heartbeat CPU 0 instructions: 980000000 cycles: 1120476170 heartbeat IPC: 0.866945 cumulative IPC: 0.744223 (Simulation time: 3 hr 15 min 31 sec) 
Heartbeat CPU 0 instructions: 990000001 cycles: 1134080862 heartbeat IPC: 0.735041 cumulative IPC: 0.7441 (Simulation time: 3 hr 17 min 31 sec) 
Heartbeat CPU 1 instructions: 640000000 cycles: 1139343977 heartbeat IPC: 0.432872 cumulative IPC: 0.430919 (Simulation time: 3 hr 18 min 15 sec) 
Heartbeat CPU 3 instructions: 950000002 cycles: 1140648078 heartbeat IPC: 0.394212 cumulative IPC: 0.693968 (Simulation time: 3 hr 18 min 24 sec) 
Heartbeat CPU 0 instructions: 1000000000 cycles: 1148140820 heartbeat IPC: 0.71124 cumulative IPC: 0.743651 (Simulation time: 3 hr 19 min 36 sec) 
Heartbeat CPU 0 instructions: 1010000000 cycles: 1159823071 heartbeat IPC: 0.855999 cumulative IPC: 0.744911 (Simulation time: 3 hr 21 min 30 sec) 
Heartbeat CPU 3 instructions: 960000000 cycles: 1161523974 heartbeat IPC: 0.479021 cumulative IPC: 0.689667 (Simulation time: 3 hr 21 min 47 sec) 
Heartbeat CPU 1 instructions: 650000001 cycles: 1161804985 heartbeat IPC: 0.445216 cumulative IPC: 0.431227 (Simulation time: 3 hr 21 min 50 sec) 
Heartbeat CPU 2 instructions: 390000000 cycles: 1167329994 heartbeat IPC: 0.128167 cumulative IPC: 0.176772 (Simulation time: 3 hr 22 min 43 sec) 
Heartbeat CPU 0 instructions: 1020000000 cycles: 1171351431 heartbeat IPC: 0.867426 cumulative IPC: 0.746252 (Simulation time: 3 hr 23 min 25 sec) 
Heartbeat CPU 3 instructions: 970000000 cycles: 1172081307 heartbeat IPC: 0.947209 cumulative IPC: 0.692247 (Simulation time: 3 hr 23 min 38 sec) 
Heartbeat CPU 3 instructions: 980000000 cycles: 1182606710 heartbeat IPC: 0.950082 cumulative IPC: 0.694797 (Simulation time: 3 hr 25 min 21 sec) 
Heartbeat CPU 0 instructions: 1030000003 cycles: 1182855571 heartbeat IPC: 0.869253 cumulative IPC: 0.747582 (Simulation time: 3 hr 25 min 23 sec) 
Heartbeat CPU 1 instructions: 660000000 cycles: 1186585668 heartbeat IPC: 0.40354 cumulative IPC: 0.430585 (Simulation time: 3 hr 26 min 1 sec) 
Heartbeat CPU 3 instructions: 990000001 cycles: 1193613220 heartbeat IPC: 0.908553 cumulative IPC: 0.696985 (Simulation time: 3 hr 27 min 5 sec) 
Heartbeat CPU 0 instructions: 1040000000 cycles: 1194479210 heartbeat IPC: 0.860316 cumulative IPC: 0.748799 (Simulation time: 3 hr 27 min 14 sec) 
Heartbeat CPU 3 instructions: 1000000000 cycles: 1204705083 heartbeat IPC: 0.901562 cumulative IPC: 0.699074 (Simulation time: 3 hr 28 min 48 sec) 
Heartbeat CPU 0 instructions: 1050000003 cycles: 1206977756 heartbeat IPC: 0.800093 cumulative IPC: 0.749388 (Simulation time: 3 hr 29 min 11 sec) 
Heartbeat CPU 3 instructions: 1010000000 cycles: 1215765681 heartbeat IPC: 0.90411 cumulative IPC: 0.70114 (Simulation time: 3 hr 30 min 36 sec) 
Heartbeat CPU 1 instructions: 670000000 cycles: 1216130456 heartbeat IPC: 0.338469 cumulative IPC: 0.428106 (Simulation time: 3 hr 30 min 39 sec) 
Heartbeat CPU 0 instructions: 1060000000 cycles: 1218599512 heartbeat IPC: 0.860455 cumulative IPC: 0.750561 (Simulation time: 3 hr 31 min 4 sec) 
Heartbeat CPU 3 instructions: 1020000000 cycles: 1226580548 heartbeat IPC: 0.924653 cumulative IPC: 0.703321 (Simulation time: 3 hr 32 min 21 sec) 
Heartbeat CPU 0 instructions: 1070000001 cycles: 1230116288 heartbeat IPC: 0.868299 cumulative IPC: 0.751781 (Simulation time: 3 hr 32 min 56 sec) 
Heartbeat CPU 3 instructions: 1030000000 cycles: 1237330150 heartbeat IPC: 0.930267 cumulative IPC: 0.705501 (Simulation time: 3 hr 34 min 7 sec) 
Heartbeat CPU 0 instructions: 1080000000 cycles: 1241678261 heartbeat IPC: 0.864904 cumulative IPC: 0.752945 (Simulation time: 3 hr 34 min 53 sec) 
Heartbeat CPU 1 instructions: 680000000 cycles: 1242108198 heartbeat IPC: 0.384945 cumulative IPC: 0.427108 (Simulation time: 3 hr 34 min 58 sec) 
Heartbeat CPU 3 instructions: 1040000000 cycles: 1247726658 heartbeat IPC: 0.961861 cumulative IPC: 0.707861 (Simulation time: 3 hr 35 min 54 sec) 
Heartbeat CPU 2 instructions: 400000000 cycles: 1247757284 heartbeat IPC: 0.124336 cumulative IPC: 0.173038 (Simulation time: 3 hr 35 min 55 sec) 
Heartbeat CPU 0 instructions: 1090000000 cycles: 1253732641 heartbeat IPC: 0.829574 cumulative IPC: 0.753758 (Simulation time: 3 hr 36 min 57 sec) 
Heartbeat CPU 3 instructions: 1050000002 cycles: 1258259833 heartbeat IPC: 0.949382 cumulative IPC: 0.710092 (Simulation time: 3 hr 37 min 45 sec) 
Heartbeat CPU 0 instructions: 1100000000 cycles: 1265274898 heartbeat IPC: 0.866382 cumulative IPC: 0.754892 (Simulation time: 3 hr 38 min 58 sec) 
Heartbeat CPU 1 instructions: 690000003 cycles: 1266168595 heartbeat IPC: 0.415621 cumulative IPC: 0.426868 (Simulation time: 3 hr 39 min 7 sec) 
Heartbeat CPU 3 instructions: 1060000000 cycles: 1268682407 heartbeat IPC: 0.959456 cumulative IPC: 0.712352 (Simulation time: 3 hr 39 min 32 sec) 
Heartbeat CPU 0 instructions: 1110000002 cycles: 1277064471 heartbeat IPC: 0.848207 cumulative IPC: 0.755841 (Simulation time: 3 hr 41 min 1 sec) 
Heartbeat CPU 3 instructions: 1070000002 cycles: 1279055880 heartbeat IPC: 0.963997 cumulative IPC: 0.7146 (Simulation time: 3 hr 41 min 22 sec) 
Heartbeat CPU 2 instructions: 410000003 cycles: 1285770361 heartbeat IPC: 0.263067 cumulative IPC: 0.175969 (Simulation time: 3 hr 42 min 43 sec) 
Heartbeat CPU 1 instructions: 700000000 cycles: 1285828051 heartbeat IPC: 0.508661 cumulative IPC: 0.428245 (Simulation time: 3 hr 42 min 43 sec) 
Heartbeat CPU 3 instructions: 1080000000 cycles: 1289374244 heartbeat IPC: 0.969146 cumulative IPC: 0.716843 (Simulation time: 3 hr 43 min 26 sec) 
Heartbeat CPU 0 instructions: 1120000000 cycles: 1289775350 heartbeat IPC: 0.786727 cumulative IPC: 0.756176 (Simulation time: 3 hr 43 min 31 sec) 
Heartbeat CPU 3 instructions: 1090000001 cycles: 1299871515 heartbeat IPC: 0.952629 cumulative IPC: 0.718938 (Simulation time: 3 hr 45 min 38 sec) 
Heartbeat CPU 1 instructions: 710000002 cycles: 1300127513 heartbeat IPC: 0.699327 cumulative IPC: 0.431525 (Simulation time: 3 hr 45 min 41 sec) 
Heartbeat CPU 0 instructions: 1130000001 cycles: 1302026983 heartbeat IPC: 0.816218 cumulative IPC: 0.756798 (Simulation time: 3 hr 46 min 2 sec) 
Heartbeat CPU 3 instructions: 1100000000 cycles: 1310440053 heartbeat IPC: 0.946205 cumulative IPC: 0.720953 (Simulation time: 3 hr 47 min 40 sec) 
Heartbeat CPU 2 instructions: 420000000 cycles: 1315173322 heartbeat IPC: 0.340102 cumulative IPC: 0.180001 (Simulation time: 3 hr 48 min 42 sec) 
Heartbeat CPU 0 instructions: 1140000000 cycles: 1315272500 heartbeat IPC: 0.754972 cumulative IPC: 0.756777 (Simulation time: 3 hr 48 min 43 sec) 
Heartbeat CPU 1 instructions: 720000000 cycles: 1318390818 heartbeat IPC: 0.547546 cumulative IPC: 0.43329 (Simulation time: 3 hr 49 min 15 sec) 
Heartbeat CPU 3 instructions: 1110000000 cycles: 1321101837 heartbeat IPC: 0.937929 cumulative IPC: 0.722876 (Simulation time: 3 hr 49 min 44 sec) 
Heartbeat CPU 0 instructions: 1150000000 cycles: 1327769702 heartbeat IPC: 0.800179 cumulative IPC: 0.757226 (Simulation time: 3 hr 50 min 48 sec) 
Heartbeat CPU 3 instructions: 1120000000 cycles: 1332214927 heartbeat IPC: 0.89984 cumulative IPC: 0.724496 (Simulation time: 3 hr 51 min 31 sec) 
Heartbeat CPU 0 instructions: 1160000000 cycles: 1340346311 heartbeat IPC: 0.795127 cumulative IPC: 0.757616 (Simulation time: 3 hr 53 min 0 sec) 
Heartbeat CPU 3 instructions: 1130000001 cycles: 1343572453 heartbeat IPC: 0.880474 cumulative IPC: 0.725942 (Simulation time: 3 hr 53 min 30 sec) 
Heartbeat CPU 1 instructions: 730000000 cycles: 1347155678 heartbeat IPC: 0.347646 cumulative IPC: 0.431286 (Simulation time: 3 hr 54 min 10 sec) 
Heartbeat CPU 0 instructions: 1170000000 cycles: 1351901579 heartbeat IPC: 0.865406 cumulative IPC: 0.758626 (Simulation time: 3 hr 55 min 1 sec) 
Heartbeat CPU 2 instructions: 430000000 cycles: 1355793731 heartbeat IPC: 0.246182 cumulative IPC: 0.182174 (Simulation time: 3 hr 55 min 44 sec) 
Heartbeat CPU 3 instructions: 1140000000 cycles: 1356065305 heartbeat IPC: 0.800458 cumulative IPC: 0.726694 (Simulation time: 3 hr 55 min 47 sec) 
Heartbeat CPU 0 instructions: 1180000000 cycles: 1363534176 heartbeat IPC: 0.859653 cumulative IPC: 0.759569 (Simulation time: 3 hr 57 min 5 sec) 
Heartbeat CPU 3 instructions: 1150000000 cycles: 1369573423 heartbeat IPC: 0.740296 cumulative IPC: 0.726841 (Simulation time: 3 hr 58 min 7 sec) 
Heartbeat CPU 0 instructions: 1190000001 cycles: 1375015234 heartbeat IPC: 0.871 cumulative IPC: 0.760587 (Simulation time: 3 hr 58 min 54 sec) 
Heartbeat CPU 1 instructions: 740000000 cycles: 1375540906 heartbeat IPC: 0.352296 cumulative IPC: 0.429502 (Simulation time: 3 hr 58 min 59 sec) 
Heartbeat CPU 3 instructions: 1160000000 cycles: 1384970717 heartbeat IPC: 0.649465 cumulative IPC: 0.7259 (Simulation time: 4 hr 0 min 34 sec) 
Heartbeat CPU 0 instructions: 1200000000 cycles: 1386547678 heartbeat IPC: 0.867119 cumulative IPC: 0.761556 (Simulation time: 4 hr 0 min 54 sec) 
Heartbeat CPU 1 instructions: 750000003 cycles: 1397450058 heartbeat IPC: 0.45643 cumulative IPC: 0.429963 (Simulation time: 4 hr 2 min 32 sec) 
Heartbeat CPU 0 instructions: 1210000001 cycles: 1398164660 heartbeat IPC: 0.860809 cumulative IPC: 0.762457 (Simulation time: 4 hr 2 min 38 sec) 
Heartbeat CPU 3 instructions: 1170000000 cycles: 1403524414 heartbeat IPC: 0.538976 cumulative IPC: 0.723202 (Simulation time: 4 hr 3 min 26 sec) 
Heartbeat CPU 0 instructions: 1220000000 cycles: 1410117283 heartbeat IPC: 0.836636 cumulative IPC: 0.763143 (Simulation time: 4 hr 4 min 25 sec) 
Heartbeat CPU 0 instructions: 1230000000 cycles: 1421783099 heartbeat IPC: 0.857205 cumulative IPC: 0.763985 (Simulation time: 4 hr 6 min 3 sec) 
Heartbeat CPU 1 instructions: 760000000 cycles: 1426101678 heartbeat IPC: 0.34902 cumulative IPC: 0.42819 (Simulation time: 4 hr 6 min 38 sec) 
Heartbeat CPU 3 instructions: 1180000000 cycles: 1426202225 heartbeat IPC: 0.44096 cumulative IPC: 0.718308 (Simulation time: 4 hr 6 min 39 sec) 
Finished CPU 0 instructions: 1000000000 cycles: 1308552767 cumulative IPC: 0.764203 (Simulation time: 4 hr 6 min 44 sec) 
Heartbeat CPU 0 instructions: 1240000000 cycles: 1433699919 heartbeat IPC: 0.83915 cumulative IPC: 0.764666 (Simulation time: 4 hr 7 min 42 sec) 
Heartbeat CPU 0 instructions: 1250000001 cycles: 1446594224 heartbeat IPC: 0.775536 cumulative IPC: 0.764772 (Simulation time: 4 hr 9 min 21 sec) 
Heartbeat CPU 2 instructions: 440000000 cycles: 1449841680 heartbeat IPC: 0.106329 cumulative IPC: 0.176817 (Simulation time: 4 hr 9 min 53 sec) 
Heartbeat CPU 1 instructions: 770000000 cycles: 1450007651 heartbeat IPC: 0.418305 cumulative IPC: 0.428013 (Simulation time: 4 hr 9 min 55 sec) 
Heartbeat CPU 3 instructions: 1190000003 cycles: 1450026992 heartbeat IPC: 0.419731 cumulative IPC: 0.712966 (Simulation time: 4 hr 9 min 55 sec) 
Heartbeat CPU 0 instructions: 1260000000 cycles: 1458391160 heartbeat IPC: 0.847678 cumulative IPC: 0.765501 (Simulation time: 4 hr 11 min 14 sec) 
Heartbeat CPU 1 instructions: 780000000 cycles: 1470477936 heartbeat IPC: 0.488513 cumulative IPC: 0.428929 (Simulation time: 4 hr 13 min 1 sec) 
Heartbeat CPU 0 instructions: 1270000002 cycles: 1470644166 heartbeat IPC: 0.816126 cumulative IPC: 0.76596 (Simulation time: 4 hr 13 min 2 sec) 
Heartbeat CPU 3 instructions: 1200000000 cycles: 1476209515 heartbeat IPC: 0.381934 cumulative IPC: 0.706584 (Simulation time: 4 hr 13 min 49 sec) 
Heartbeat CPU 2 instructions: 450000002 cycles: 1479812161 heartbeat IPC: 0.333662 cumulative IPC: 0.180269 (Simulation time: 4 hr 14 min 19 sec) 
Heartbeat CPU 0 instructions: 1280000000 cycles: 1484141222 heartbeat IPC: 0.740902 cumulative IPC: 0.765712 (Simulation time: 4 hr 14 min 55 sec) 
Heartbeat CPU 0 instructions: 1290000002 cycles: 1498131116 heartbeat IPC: 0.714802 cumulative IPC: 0.765196 (Simulation time: 4 hr 16 min 52 sec) 
Heartbeat CPU 1 instructions: 790000000 cycles: 1498326143 heartbeat IPC: 0.35909 cumulative IPC: 0.427519 (Simulation time: 4 hr 16 min 54 sec) 
Heartbeat CPU 3 instructions: 1210000000 cycles: 1500579345 heartbeat IPC: 0.410343 cumulative IPC: 0.701361 (Simulation time: 4 hr 17 min 12 sec) 
Heartbeat CPU 0 instructions: 1300000000 cycles: 1511850718 heartbeat IPC: 0.728884 cumulative IPC: 0.764839 (Simulation time: 4 hr 18 min 37 sec) 
Heartbeat CPU 3 instructions: 1220000000 cycles: 1523364786 heartbeat IPC: 0.438877 cumulative IPC: 0.697105 (Simulation time: 4 hr 20 min 4 sec) 
Heartbeat CPU 1 instructions: 800000000 cycles: 1523464696 heartbeat IPC: 0.397795 cumulative IPC: 0.426988 (Simulation time: 4 hr 20 min 5 sec) 
Heartbeat CPU 2 instructions: 460000000 cycles: 1526566916 heartbeat IPC: 0.213882 cumulative IPC: 0.181385 (Simulation time: 4 hr 20 min 29 sec) 
Heartbeat CPU 0 instructions: 1310000003 cycles: 1527472759 heartbeat IPC: 0.640121 cumulative IPC: 0.763456 (Simulation time: 4 hr 20 min 37 sec) 
Heartbeat CPU 0 instructions: 1320000000 cycles: 1540169859 heartbeat IPC: 0.787581 cumulative IPC: 0.763672 (Simulation time: 4 hr 22 min 30 sec) 
Heartbeat CPU 1 instructions: 810000000 cycles: 1542931079 heartbeat IPC: 0.513706 cumulative IPC: 0.428172 (Simulation time: 4 hr 22 min 58 sec) 
Heartbeat CPU 3 instructions: 1230000003 cycles: 1544500844 heartbeat IPC: 0.473125 cumulative IPC: 0.693785 (Simulation time: 4 hr 23 min 12 sec) 
Heartbeat CPU 0 instructions: 1330000001 cycles: 1552436993 heartbeat IPC: 0.815186 cumulative IPC: 0.764112 (Simulation time: 4 hr 24 min 24 sec) 
Heartbeat CPU 2 instructions: 470000003 cycles: 1558747529 heartbeat IPC: 0.310746 cumulative IPC: 0.184275 (Simulation time: 4 hr 25 min 14 sec) 
Heartbeat CPU 1 instructions: 820000000 cycles: 1559271655 heartbeat IPC: 0.611974 cumulative IPC: 0.430257 (Simulation time: 4 hr 25 min 17 sec) 
Heartbeat CPU 3 instructions: 1240000000 cycles: 1564397719 heartbeat IPC: 0.502591 cumulative IPC: 0.691155 (Simulation time: 4 hr 25 min 55 sec) 
Finished CPU 3 instructions: 1000000003 cycles: 1447189490 cumulative IPC: 0.690995 (Simulation time: 4 hr 26 min 4 sec) 
Heartbeat CPU 0 instructions: 1340000000 cycles: 1568614384 heartbeat IPC: 0.618147 cumulative IPC: 0.762484 (Simulation time: 4 hr 26 min 29 sec) 
Heartbeat CPU 0 instructions: 1350000000 cycles: 1580529530 heartbeat IPC: 0.839268 cumulative IPC: 0.76311 (Simulation time: 4 hr 28 min 7 sec) 
Heartbeat CPU 3 instructions: 1250000002 cycles: 1584312726 heartbeat IPC: 0.502134 cumulative IPC: 0.688587 (Simulation time: 4 hr 28 min 41 sec) 
Heartbeat CPU 1 instructions: 830000000 cycles: 1586468076 heartbeat IPC: 0.367695 cumulative IPC: 0.429098 (Simulation time: 4 hr 29 min 0 sec) 
Heartbeat CPU 0 instructions: 1360000000 cycles: 1592382778 heartbeat IPC: 0.843651 cumulative IPC: 0.763757 (Simulation time: 4 hr 29 min 52 sec) 
Heartbeat CPU 2 instructions: 480000000 cycles: 1595650731 heartbeat IPC: 0.270979 cumulative IPC: 0.186441 (Simulation time: 4 hr 30 min 22 sec) 
Heartbeat CPU 3 instructions: 1260000000 cycles: 1603277389 heartbeat IPC: 0.527296 cumulative IPC: 0.686527 (Simulation time: 4 hr 31 min 34 sec) 
Heartbeat CPU 0 instructions: 1370000000 cycles: 1604032290 heartbeat IPC: 0.858405 cumulative IPC: 0.764499 (Simulation time: 4 hr 31 min 41 sec) 
Heartbeat CPU 1 instructions: 840000000 cycles: 1611959231 heartbeat IPC: 0.392293 cumulative IPC: 0.42847 (Simulation time: 4 hr 32 min 49 sec) 
Heartbeat CPU 0 instructions: 1380000000 cycles: 1615771989 heartbeat IPC: 0.851811 cumulative IPC: 0.765184 (Simulation time: 4 hr 33 min 23 sec) 
Heartbeat CPU 3 instructions: 1270000003 cycles: 1623283507 heartbeat IPC: 0.499847 cumulative IPC: 0.684046 (Simulation time: 4 hr 34 min 24 sec) 
Heartbeat CPU 0 instructions: 1390000000 cycles: 1627465362 heartbeat IPC: 0.855185 cumulative IPC: 0.765881 (Simulation time: 4 hr 34 min 57 sec) 
Heartbeat CPU 1 instructions: 850000000 cycles: 1638864676 heartbeat IPC: 0.371672 cumulative IPC: 0.427465 (Simulation time: 4 hr 36 min 29 sec) 
Heartbeat CPU 0 instructions: 1400000000 cycles: 1639210730 heartbeat IPC: 0.851399 cumulative IPC: 0.766542 (Simulation time: 4 hr 36 min 32 sec) 
Heartbeat CPU 3 instructions: 1280000000 cycles: 1642604148 heartbeat IPC: 0.517581 cumulative IPC: 0.681936 (Simulation time: 4 hr 36 min 59 sec) 
Heartbeat CPU 0 instructions: 1410000003 cycles: 1650885598 heartbeat IPC: 0.856541 cumulative IPC: 0.767227 (Simulation time: 4 hr 38 min 7 sec) 
Heartbeat CPU 3 instructions: 1290000000 cycles: 1661737313 heartbeat IPC: 0.522653 cumulative IPC: 0.679961 (Simulation time: 4 hr 39 min 37 sec) 
Heartbeat CPU 1 instructions: 860000000 cycles: 1662006288 heartbeat IPC: 0.432122 cumulative IPC: 0.427535 (Simulation time: 4 hr 39 min 40 sec) 
Heartbeat CPU 0 instructions: 1420000000 cycles: 1662479116 heartbeat IPC: 0.862551 cumulative IPC: 0.767943 (Simulation time: 4 hr 39 min 44 sec) 
Heartbeat CPU 0 instructions: 1430000002 cycles: 1674107918 heartbeat IPC: 0.859934 cumulative IPC: 0.768631 (Simulation time: 4 hr 41 min 16 sec) 
Heartbeat CPU 2 instructions: 490000001 cycles: 1678525550 heartbeat IPC: 0.120664 cumulative IPC: 0.182947 (Simulation time: 4 hr 41 min 53 sec) 
Heartbeat CPU 3 instructions: 1300000000 cycles: 1681052841 heartbeat IPC: 0.517718 cumulative IPC: 0.677956 (Simulation time: 4 hr 42 min 15 sec) 
Heartbeat CPU 0 instructions: 1440000000 cycles: 1685773684 heartbeat IPC: 0.857209 cumulative IPC: 0.76929 (Simulation time: 4 hr 42 min 55 sec) 
Heartbeat CPU 1 instructions: 870000001 cycles: 1689985248 heartbeat IPC: 0.357411 cumulative IPC: 0.426286 (Simulation time: 4 hr 43 min 31 sec) 
Heartbeat CPU 0 instructions: 1450000001 cycles: 1698487838 heartbeat IPC: 0.786525 cumulative IPC: 0.769428 (Simulation time: 4 hr 44 min 41 sec) 
Heartbeat CPU 3 instructions: 1310000002 cycles: 1700009867 heartbeat IPC: 0.527509 cumulative IPC: 0.676153 (Simulation time: 4 hr 44 min 52 sec) 
Heartbeat CPU 0 instructions: 1460000000 cycles: 1711309580 heartbeat IPC: 0.779925 cumulative IPC: 0.769513 (Simulation time: 4 hr 46 min 22 sec) 
Heartbeat CPU 1 instructions: 880000000 cycles: 1716280711 heartbeat IPC: 0.380294 cumulative IPC: 0.425529 (Simulation time: 4 hr 47 min 7 sec) 
Heartbeat CPU 2 instructions: 500000000 cycles: 1717519214 heartbeat IPC: 0.256452 cumulative IPC: 0.184739 (Simulation time: 4 hr 47 min 18 sec) 
Heartbeat CPU 3 instructions: 1320000000 cycles: 1719641694 heartbeat IPC: 0.509377 cumulative IPC: 0.674108 (Simulation time: 4 hr 47 min 36 sec) 
Heartbeat CPU 0 instructions: 1470000000 cycles: 1726161222 heartbeat IPC: 0.673326 cumulative IPC: 0.768624 (Simulation time: 4 hr 48 min 32 sec) 
Heartbeat CPU 1 instructions: 890000000 cycles: 1734928408 heartbeat IPC: 0.536259 cumulative IPC: 0.426807 (Simulation time: 4 hr 50 min 3 sec) 
Heartbeat CPU 0 instructions: 1480000000 cycles: 1739740819 heartbeat IPC: 0.736399 cumulative IPC: 0.768355 (Simulation time: 4 hr 50 min 50 sec) 
Heartbeat CPU 3 instructions: 1330000001 cycles: 1739781135 heartbeat IPC: 0.496538 cumulative IPC: 0.671903 (Simulation time: 4 hr 50 min 50 sec) 
Heartbeat CPU 0 instructions: 1490000000 cycles: 1752545020 heartbeat IPC: 0.780994 cumulative IPC: 0.768454 (Simulation time: 4 hr 52 min 46 sec) 
Heartbeat CPU 2 instructions: 510000003 cycles: 1759011753 heartbeat IPC: 0.241007 cumulative IPC: 0.186162 (Simulation time: 4 hr 53 min 43 sec) 
Heartbeat CPU 3 instructions: 1340000000 cycles: 1759811687 heartbeat IPC: 0.499237 cumulative IPC: 0.669796 (Simulation time: 4 hr 53 min 50 sec) 
Heartbeat CPU 1 instructions: 900000000 cycles: 1761914761 heartbeat IPC: 0.370558 cumulative IPC: 0.425883 (Simulation time: 4 hr 54 min 8 sec) 
Heartbeat CPU 0 instructions: 1500000000 cycles: 1765330210 heartbeat IPC: 0.782155 cumulative IPC: 0.76856 (Simulation time: 4 hr 54 min 39 sec) 
Heartbeat CPU 0 instructions: 1510000000 cycles: 1778163377 heartbeat IPC: 0.779231 cumulative IPC: 0.768642 (Simulation time: 4 hr 56 min 28 sec) 
Heartbeat CPU 3 instructions: 1350000001 cycles: 1779595883 heartbeat IPC: 0.505454 cumulative IPC: 0.667839 (Simulation time: 4 hr 56 min 41 sec) 
Heartbeat CPU 1 instructions: 910000003 cycles: 1787817513 heartbeat IPC: 0.386059 cumulative IPC: 0.425265 (Simulation time: 4 hr 57 min 48 sec) 
Heartbeat CPU 2 instructions: 520000000 cycles: 1790175115 heartbeat IPC: 0.32089 cumulative IPC: 0.188673 (Simulation time: 4 hr 58 min 9 sec) 
Heartbeat CPU 0 instructions: 1520000000 cycles: 1791833807 heartbeat IPC: 0.731506 cumulative IPC: 0.768339 (Simulation time: 4 hr 58 min 23 sec) 
Heartbeat CPU 3 instructions: 1360000000 cycles: 1798710484 heartbeat IPC: 0.52316 cumulative IPC: 0.666193 (Simulation time: 4 hr 59 min 22 sec) 
Heartbeat CPU 0 instructions: 1530000000 cycles: 1804798376 heartbeat IPC: 0.771333 cumulative IPC: 0.768362 (Simulation time: 5 hr 0 min 15 sec) 
Heartbeat CPU 1 instructions: 920000000 cycles: 1808538650 heartbeat IPC: 0.482599 cumulative IPC: 0.425968 (Simulation time: 5 hr 0 min 51 sec) 
Heartbeat CPU 0 instructions: 1540000000 cycles: 1817626603 heartbeat IPC: 0.779531 cumulative IPC: 0.768446 (Simulation time: 5 hr 2 min 11 sec) 
Heartbeat CPU 3 instructions: 1370000003 cycles: 1818022052 heartbeat IPC: 0.517824 cumulative IPC: 0.664508 (Simulation time: 5 hr 2 min 15 sec) 
Heartbeat CPU 1 instructions: 930000000 cycles: 1826104818 heartbeat IPC: 0.569276 cumulative IPC: 0.427442 (Simulation time: 5 hr 3 min 26 sec) 
Heartbeat CPU 2 instructions: 530000000 cycles: 1829207747 heartbeat IPC: 0.256196 cumulative IPC: 0.190214 (Simulation time: 5 hr 3 min 54 sec) 
Heartbeat CPU 0 instructions: 1550000002 cycles: 1830457969 heartbeat IPC: 0.77934 cumulative IPC: 0.768528 (Simulation time: 5 hr 4 min 4 sec) 
Heartbeat CPU 3 instructions: 1380000000 cycles: 1837426569 heartbeat IPC: 0.515344 cumulative IPC: 0.662824 (Simulation time: 5 hr 5 min 3 sec) 
Heartbeat CPU 0 instructions: 1560000000 cycles: 1843234893 heartbeat IPC: 0.782661 cumulative IPC: 0.768633 (Simulation time: 5 hr 5 min 53 sec) 
Heartbeat CPU 1 instructions: 940000000 cycles: 1855083347 heartbeat IPC: 0.345083 cumulative IPC: 0.426068 (Simulation time: 5 hr 7 min 30 sec) 
Heartbeat CPU 0 instructions: 1570000002 cycles: 1856250199 heartbeat IPC: 0.768326 cumulative IPC: 0.76863 (Simulation time: 5 hr 7 min 40 sec) 
Heartbeat CPU 3 instructions: 1390000002 cycles: 1856994174 heartbeat IPC: 0.511049 cumulative IPC: 0.661116 (Simulation time: 5 hr 7 min 46 sec) 
Heartbeat CPU 0 instructions: 1580000000 cycles: 1869166643 heartbeat IPC: 0.774207 cumulative IPC: 0.768672 (Simulation time: 5 hr 9 min 23 sec) 
Heartbeat CPU 3 instructions: 1400000000 cycles: 1876464753 heartbeat IPC: 0.513595 cumulative IPC: 0.659482 (Simulation time: 5 hr 10 min 20 sec) 
Heartbeat CPU 1 instructions: 950000001 cycles: 1881279131 heartbeat IPC: 0.381741 cumulative IPC: 0.425409 (Simulation time: 5 hr 10 min 59 sec) 
Heartbeat CPU 0 instructions: 1590000000 cycles: 1882952509 heartbeat IPC: 0.725381 cumulative IPC: 0.768333 (Simulation time: 5 hr 11 min 12 sec) 
Heartbeat CPU 3 instructions: 1410000000 cycles: 1895784425 heartbeat IPC: 0.517607 cumulative IPC: 0.65794 (Simulation time: 5 hr 12 min 57 sec) 
Heartbeat CPU 0 instructions: 1600000000 cycles: 1895845109 heartbeat IPC: 0.775639 cumulative IPC: 0.768386 (Simulation time: 5 hr 12 min 57 sec) 
Heartbeat CPU 1 instructions: 960000000 cycles: 1905523806 heartbeat IPC: 0.412462 cumulative IPC: 0.425234 (Simulation time: 5 hr 14 min 17 sec) 
Heartbeat CPU 2 instructions: 540000000 cycles: 1908257220 heartbeat IPC: 0.126503 cumulative IPC: 0.1874 (Simulation time: 5 hr 14 min 40 sec) 
Heartbeat CPU 0 instructions: 1610000001 cycles: 1908718534 heartbeat IPC: 0.776794 cumulative IPC: 0.768447 (Simulation time: 5 hr 14 min 44 sec) 
Heartbeat CPU 3 instructions: 1420000000 cycles: 1915088575 heartbeat IPC: 0.518023 cumulative IPC: 0.656437 (Simulation time: 5 hr 15 min 44 sec) 
Heartbeat CPU 0 instructions: 1620000000 cycles: 1921540155 heartbeat IPC: 0.779932 cumulative IPC: 0.768529 (Simulation time: 5 hr 16 min 45 sec) 
Heartbeat CPU 1 instructions: 970000001 cycles: 1928392995 heartbeat IPC: 0.43727 cumulative IPC: 0.425386 (Simulation time: 5 hr 17 min 53 sec) 
Heartbeat CPU 3 instructions: 1430000000 cycles: 1934340697 heartbeat IPC: 0.519423 cumulative IPC: 0.654984 (Simulation time: 5 hr 18 min 47 sec) 
Heartbeat CPU 0 instructions: 1630000000 cycles: 1934392947 heartbeat IPC: 0.778041 cumulative IPC: 0.768596 (Simulation time: 5 hr 18 min 48 sec) 
Heartbeat CPU 0 instructions: 1640000000 cycles: 1947216536 heartbeat IPC: 0.779813 cumulative IPC: 0.768674 (Simulation time: 5 hr 20 min 55 sec) 
Heartbeat CPU 1 instructions: 980000000 cycles: 1950291718 heartbeat IPC: 0.456648 cumulative IPC: 0.425759 (Simulation time: 5 hr 21 min 26 sec) 
Heartbeat CPU 3 instructions: 1440000000 cycles: 1953879208 heartbeat IPC: 0.51181 cumulative IPC: 0.65346 (Simulation time: 5 hr 22 min 4 sec) 
Heartbeat CPU 0 instructions: 1650000002 cycles: 1960064032 heartbeat IPC: 0.778362 cumulative IPC: 0.768742 (Simulation time: 5 hr 23 min 4 sec) 
Heartbeat CPU 1 instructions: 990000002 cycles: 1970106913 heartbeat IPC: 0.504663 cumulative IPC: 0.426604 (Simulation time: 5 hr 24 min 53 sec) 
Heartbeat CPU 0 instructions: 1660000000 cycles: 1972871602 heartbeat IPC: 0.780788 cumulative IPC: 0.768825 (Simulation time: 5 hr 25 min 23 sec) 
Heartbeat CPU 3 instructions: 1450000001 cycles: 1973153921 heartbeat IPC: 0.518815 cumulative IPC: 0.652061 (Simulation time: 5 hr 25 min 26 sec) 
Heartbeat CPU 1 instructions: 1000000000 cycles: 1982917082 heartbeat IPC: 0.78063 cumulative IPC: 0.429036 (Simulation time: 5 hr 27 min 5 sec) 
Heartbeat CPU 0 instructions: 1670000002 cycles: 1985696055 heartbeat IPC: 0.77976 cumulative IPC: 0.7689 (Simulation time: 5 hr 27 min 37 sec) 
Heartbeat CPU 3 instructions: 1460000000 cycles: 1992126564 heartbeat IPC: 0.527075 cumulative IPC: 0.650796 (Simulation time: 5 hr 28 min 47 sec) 
Heartbeat CPU 1 instructions: 1010000000 cycles: 1996494956 heartbeat IPC: 0.736492 cumulative IPC: 0.431259 (Simulation time: 5 hr 29 min 27 sec) 
Heartbeat CPU 0 instructions: 1680000000 cycles: 1998567190 heartbeat IPC: 0.776932 cumulative IPC: 0.768955 (Simulation time: 5 hr 29 min 46 sec) 
Heartbeat CPU 2 instructions: 550000000 cycles: 2009013996 heartbeat IPC: 0.0992489 cumulative IPC: 0.182703 (Simulation time: 5 hr 31 min 19 sec) 
Heartbeat CPU 3 instructions: 1470000001 cycles: 2010763420 heartbeat IPC: 0.536571 cumulative IPC: 0.649671 (Simulation time: 5 hr 31 min 35 sec) 
Heartbeat CPU 1 instructions: 1020000000 cycles: 2011132425 heartbeat IPC: 0.683178 cumulative IPC: 0.433207 (Simulation time: 5 hr 31 min 38 sec) 
Heartbeat CPU 0 instructions: 1690000000 cycles: 2011634710 heartbeat IPC: 0.765256 cumulative IPC: 0.76893 (Simulation time: 5 hr 31 min 42 sec) 
Heartbeat CPU 0 instructions: 1700000000 cycles: 2024516499 heartbeat IPC: 0.77629 cumulative IPC: 0.76898 (Simulation time: 5 hr 33 min 34 sec) 
Heartbeat CPU 1 instructions: 1030000003 cycles: 2027551258 heartbeat IPC: 0.609057 cumulative IPC: 0.434719 (Simulation time: 5 hr 34 min 0 sec) 
Heartbeat CPU 3 instructions: 1480000000 cycles: 2030000365 heartbeat IPC: 0.519833 cumulative IPC: 0.648364 (Simulation time: 5 hr 34 min 20 sec) 
Heartbeat CPU 0 instructions: 1710000002 cycles: 2037999291 heartbeat IPC: 0.741686 cumulative IPC: 0.768788 (Simulation time: 5 hr 35 min 25 sec) 
Heartbeat CPU 1 instructions: 1040000000 cycles: 2048550103 heartbeat IPC: 0.476217 cumulative IPC: 0.43517 (Simulation time: 5 hr 36 min 47 sec) 
Heartbeat CPU 3 instructions: 1490000003 cycles: 2049266886 heartbeat IPC: 0.519035 cumulative IPC: 0.647074 (Simulation time: 5 hr 36 min 53 sec) 
Heartbeat CPU 0 instructions: 1720000000 cycles: 2051227688 heartbeat IPC: 0.755949 cumulative IPC: 0.7687 (Simulation time: 5 hr 37 min 7 sec) 
Heartbeat CPU 0 instructions: 1730000003 cycles: 2064027118 heartbeat IPC: 0.781285 cumulative IPC: 0.768783 (Simulation time: 5 hr 38 min 49 sec) 
Heartbeat CPU 3 instructions: 1500000000 cycles: 2068746542 heartbeat IPC: 0.513356 cumulative IPC: 0.645739 (Simulation time: 5 hr 39 min 29 sec) 
Heartbeat CPU 0 instructions: 1740000000 cycles: 2076878489 heartbeat IPC: 0.778127 cumulative IPC: 0.768844 (Simulation time: 5 hr 40 min 33 sec) 
Heartbeat CPU 1 instructions: 1050000000 cycles: 2077263816 heartbeat IPC: 0.348266 cumulative IPC: 0.433897 (Simulation time: 5 hr 40 min 36 sec) 
Heartbeat CPU 3 instructions: 1510000001 cycles: 2088192891 heartbeat IPC: 0.514235 cumulative IPC: 0.64444 (Simulation time: 5 hr 42 min 6 sec) 
Heartbeat CPU 0 instructions: 1750000000 cycles: 2089706738 heartbeat IPC: 0.77953 cumulative IPC: 0.768914 (Simulation time: 5 hr 42 min 18 sec) 
Heartbeat CPU 0 instructions: 1760000000 cycles: 2102585877 heartbeat IPC: 0.776449 cumulative IPC: 0.768963 (Simulation time: 5 hr 44 min 2 sec) 
Heartbeat CPU 1 instructions: 1060000000 cycles: 2105664417 heartbeat IPC: 0.352105 cumulative IPC: 0.432728 (Simulation time: 5 hr 44 min 26 sec) 
Heartbeat CPU 3 instructions: 1520000000 cycles: 2107526991 heartbeat IPC: 0.517221 cumulative IPC: 0.643204 (Simulation time: 5 hr 44 min 42 sec) 
Heartbeat CPU 2 instructions: 560000000 cycles: 2108109000 heartbeat IPC: 0.100913 cumulative IPC: 0.17863 (Simulation time: 5 hr 44 min 47 sec) 
Heartbeat CPU 0 instructions: 1770000001 cycles: 2115453582 heartbeat IPC: 0.777139 cumulative IPC: 0.769015 (Simulation time: 5 hr 45 min 45 sec) 
Heartbeat CPU 3 instructions: 1530000003 cycles: 2127765052 heartbeat IPC: 0.494119 cumulative IPC: 0.641702 (Simulation time: 5 hr 47 min 24 sec) 
Heartbeat CPU 0 instructions: 1780000000 cycles: 2128323618 heartbeat IPC: 0.776999 cumulative IPC: 0.769066 (Simulation time: 5 hr 47 min 29 sec) 
Heartbeat CPU 1 instructions: 1070000001 cycles: 2135255184 heartbeat IPC: 0.337943 cumulative IPC: 0.431337 (Simulation time: 5 hr 48 min 25 sec) 
Heartbeat CPU 0 instructions: 1790000003 cycles: 2141446924 heartbeat IPC: 0.762003 cumulative IPC: 0.76902 (Simulation time: 5 hr 49 min 15 sec) 
Heartbeat CPU 3 instructions: 1540000000 cycles: 2147701837 heartbeat IPC: 0.501585 cumulative IPC: 0.640326 (Simulation time: 5 hr 50 min 2 sec) 
Heartbeat CPU 0 instructions: 1800000000 cycles: 2157121254 heartbeat IPC: 0.637986 cumulative IPC: 0.768013 (Simulation time: 5 hr 51 min 16 sec) 
Heartbeat CPU 1 instructions: 1080000000 cycles: 2161934933 heartbeat IPC: 0.374816 cumulative IPC: 0.430599 (Simulation time: 5 hr 51 min 54 sec) 
Heartbeat CPU 3 instructions: 1550000001 cycles: 2167512305 heartbeat IPC: 0.504784 cumulative IPC: 0.639016 (Simulation time: 5 hr 52 min 40 sec) 
Heartbeat CPU 0 instructions: 1810000000 cycles: 2170243247 heartbeat IPC: 0.762079 cumulative IPC: 0.767975 (Simulation time: 5 hr 53 min 3 sec) 
Heartbeat CPU 0 instructions: 1820000000 cycles: 2183112987 heartbeat IPC: 0.777016 cumulative IPC: 0.768032 (Simulation time: 5 hr 54 min 51 sec) 
Heartbeat CPU 1 instructions: 1090000000 cycles: 2186612938 heartbeat IPC: 0.405219 cumulative IPC: 0.430296 (Simulation time: 5 hr 55 min 20 sec) 
Heartbeat CPU 3 instructions: 1560000000 cycles: 2187180566 heartbeat IPC: 0.508433 cumulative IPC: 0.637774 (Simulation time: 5 hr 55 min 24 sec) 
Heartbeat CPU 0 instructions: 1830000001 cycles: 2195983646 heartbeat IPC: 0.776961 cumulative IPC: 0.768087 (Simulation time: 5 hr 56 min 39 sec) 
Heartbeat CPU 3 instructions: 1570000002 cycles: 2206400421 heartbeat IPC: 0.520295 cumulative IPC: 0.636693 (Simulation time: 5 hr 58 min 4 sec) 
Heartbeat CPU 0 instructions: 1840000000 cycles: 2208871085 heartbeat IPC: 0.775949 cumulative IPC: 0.768135 (Simulation time: 5 hr 58 min 24 sec) 
Heartbeat CPU 1 instructions: 1100000000 cycles: 2209979638 heartbeat IPC: 0.427959 cumulative IPC: 0.43027 (Simulation time: 5 hr 58 min 33 sec) 
Heartbeat CPU 2 instructions: 570000002 cycles: 2210927199 heartbeat IPC: 0.0972591 cumulative IPC: 0.174632 (Simulation time: 5 hr 58 min 41 sec) 
Heartbeat CPU 0 instructions: 1850000002 cycles: 2221755088 heartbeat IPC: 0.776156 cumulative IPC: 0.768184 (Simulation time: 6 hr 0 min 8 sec) 
Heartbeat CPU 3 instructions: 1580000000 cycles: 2226056935 heartbeat IPC: 0.508737 cumulative IPC: 0.6355 (Simulation time: 6 hr 0 min 43 sec) 
Heartbeat CPU 1 instructions: 1110000000 cycles: 2232343289 heartbeat IPC: 0.447154 cumulative IPC: 0.430449 (Simulation time: 6 hr 1 min 34 sec) 
Heartbeat CPU 0 instructions: 1860000000 cycles: 2234723489 heartbeat IPC: 0.771105 cumulative IPC: 0.768202 (Simulation time: 6 hr 1 min 54 sec) 
Heartbeat CPU 3 instructions: 1590000001 cycles: 2245545762 heartbeat IPC: 0.513115 cumulative IPC: 0.634378 (Simulation time: 6 hr 3 min 22 sec) 
Heartbeat CPU 0 instructions: 1870000000 cycles: 2247636062 heartbeat IPC: 0.774439 cumulative IPC: 0.76824 (Simulation time: 6 hr 3 min 39 sec) 
Heartbeat CPU 1 instructions: 1120000000 cycles: 2253906842 heartbeat IPC: 0.463745 cumulative IPC: 0.430785 (Simulation time: 6 hr 4 min 31 sec) 
Heartbeat CPU 0 instructions: 1880000000 cycles: 2260527419 heartbeat IPC: 0.775714 cumulative IPC: 0.768285 (Simulation time: 6 hr 5 min 25 sec) 
Heartbeat CPU 3 instructions: 1600000000 cycles: 2265121822 heartbeat IPC: 0.510828 cumulative IPC: 0.633252 (Simulation time: 6 hr 6 min 3 sec) 
Heartbeat CPU 0 instructions: 1890000000 cycles: 2273467776 heartbeat IPC: 0.772776 cumulative IPC: 0.768312 (Simulation time: 6 hr 7 min 11 sec) 
Heartbeat CPU 1 instructions: 1130000001 cycles: 2274751712 heartbeat IPC: 0.479734 cumulative IPC: 0.431258 (Simulation time: 6 hr 7 min 22 sec) 
Heartbeat CPU 3 instructions: 1610000003 cycles: 2284434267 heartbeat IPC: 0.517801 cumulative IPC: 0.632223 (Simulation time: 6 hr 8 min 42 sec) 
Heartbeat CPU 0 instructions: 1900000000 cycles: 2286325793 heartbeat IPC: 0.777725 cumulative IPC: 0.768368 (Simulation time: 6 hr 8 min 58 sec) 
Heartbeat CPU 1 instructions: 1140000000 cycles: 2295074370 heartbeat IPC: 0.492062 cumulative IPC: 0.431826 (Simulation time: 6 hr 10 min 10 sec) 
Heartbeat CPU 0 instructions: 1910000000 cycles: 2299196234 heartbeat IPC: 0.776974 cumulative IPC: 0.768419 (Simulation time: 6 hr 10 min 43 sec) 
Heartbeat CPU 3 instructions: 1620000000 cycles: 2303545132 heartbeat IPC: 0.523262 cumulative IPC: 0.63127 (Simulation time: 6 hr 11 min 19 sec) 
Heartbeat CPU 2 instructions: 580000000 cycles: 2311259895 heartbeat IPC: 0.0996684 cumulative IPC: 0.171202 (Simulation time: 6 hr 12 min 22 sec) 
Heartbeat CPU 0 instructions: 1920000000 cycles: 2312049997 heartbeat IPC: 0.777982 cumulative IPC: 0.768475 (Simulation time: 6 hr 12 min 28 sec) 
Heartbeat CPU 1 instructions: 1150000000 cycles: 2314837157 heartbeat IPC: 0.506002 cumulative IPC: 0.432493 (Simulation time: 6 hr 12 min 50 sec) 
Heartbeat CPU 3 instructions: 1630000003 cycles: 2322348503 heartbeat IPC: 0.53182 cumulative IPC: 0.630421 (Simulation time: 6 hr 13 min 51 sec) 
Heartbeat CPU 0 instructions: 1930000000 cycles: 2324905829 heartbeat IPC: 0.777857 cumulative IPC: 0.768529 (Simulation time: 6 hr 14 min 12 sec) 
Heartbeat CPU 1 instructions: 1160000000 cycles: 2334343930 heartbeat IPC: 0.512642 cumulative IPC: 0.433199 (Simulation time: 6 hr 15 min 29 sec) 
Heartbeat CPU 0 instructions: 1940000000 cycles: 2337800003 heartbeat IPC: 0.775544 cumulative IPC: 0.76857 (Simulation time: 6 hr 15 min 57 sec) 
Heartbeat CPU 3 instructions: 1640000000 cycles: 2341576739 heartbeat IPC: 0.520068 cumulative IPC: 0.629467 (Simulation time: 6 hr 16 min 27 sec) 
Heartbeat CPU 0 instructions: 1950000002 cycles: 2350674180 heartbeat IPC: 0.776749 cumulative IPC: 0.768617 (Simulation time: 6 hr 17 min 41 sec) 
Heartbeat CPU 1 instructions: 1170000000 cycles: 2353392340 heartbeat IPC: 0.524978 cumulative IPC: 0.433981 (Simulation time: 6 hr 18 min 3 sec) 
Heartbeat CPU 3 instructions: 1650000002 cycles: 2360608098 heartbeat IPC: 0.525449 cumulative IPC: 0.628584 (Simulation time: 6 hr 19 min 2 sec) 
Heartbeat CPU 0 instructions: 1960000000 cycles: 2363628561 heartbeat IPC: 0.771939 cumulative IPC: 0.768637 (Simulation time: 6 hr 19 min 27 sec) 
Heartbeat CPU 1 instructions: 1180000000 cycles: 2372112160 heartbeat IPC: 0.534193 cumulative IPC: 0.434813 (Simulation time: 6 hr 20 min 36 sec) 
Heartbeat CPU 0 instructions: 1970000002 cycles: 2376527123 heartbeat IPC: 0.77528 cumulative IPC: 0.768674 (Simulation time: 6 hr 21 min 13 sec) 
[...]
Heartbeat CPU 3 instructions: 3770000000 cycles: 5978838698 heartbeat IPC: 0.514615 cumulative IPC: 0.602245 (Simulation time: 14 hr 14 min 49 sec) 
Heartbeat CPU 0 instructions: 4570000000 cycles: 5981784662 heartbeat IPC: 0.852703 cumulative IPC: 0.739465 (Simulation time: 14 hr 15 min 14 sec) 
Heartbeat CPU 2 instructions: 1170000003 cycles: 5991243584 heartbeat IPC: 0.286596 cumulative IPC: 0.164388 (Simulation time: 14 hr 16 min 31 sec) 
Heartbeat CPU 0 instructions: 4580000000 cycles: 5993478797 heartbeat IPC: 0.85513 cumulative IPC: 0.739695 (Simulation time: 14 hr 16 min 48 sec) 
Heartbeat CPU 3 instructions: 3780000000 cycles: 5997756670 heartbeat IPC: 0.528598 cumulative IPC: 0.602008 (Simulation time: 14 hr 17 min 24 sec) 
Heartbeat CPU 1 instructions: 2760000000 cycles: 5999253992 heartbeat IPC: 0.349396 cumulative IPC: 0.435301 (Simulation time: 14 hr 17 min 38 sec) 
Heartbeat CPU 0 instructions: 4590000001 cycles: 6005004924 heartbeat IPC: 0.867594 cumulative IPC: 0.739946 (Simulation time: 14 hr 18 min 26 sec) 
Heartbeat CPU 3 instructions: 3790000001 cycles: 6016947486 heartbeat IPC: 0.521083 cumulative IPC: 0.601745 (Simulation time: 14 hr 19 min 56 sec) 
Heartbeat CPU 0 instructions: 4600000000 cycles: 6019408982 heartbeat IPC: 0.694249 cumulative IPC: 0.739834 (Simulation time: 14 hr 20 min 14 sec) 
Heartbeat CPU 1 instructions: 2770000000 cycles: 6023090745 heartbeat IPC: 0.41952 cumulative IPC: 0.435238 (Simulation time: 14 hr 20 min 44 sec) 
Heartbeat CPU 2 instructions: 1180000000 cycles: 6030873088 heartbeat IPC: 0.252337 cumulative IPC: 0.164977 (Simulation time: 14 hr 21 min 53 sec) 
Heartbeat CPU 0 instructions: 4610000002 cycles: 6032534781 heartbeat IPC: 0.761859 cumulative IPC: 0.739883 (Simulation time: 14 hr 22 min 6 sec) 
Heartbeat CPU 3 instructions: 3800000000 cycles: 6036167639 heartbeat IPC: 0.520287 cumulative IPC: 0.60148 (Simulation time: 14 hr 22 min 37 sec) 
Heartbeat CPU 1 instructions: 2780000000 cycles: 6043326019 heartbeat IPC: 0.494187 cumulative IPC: 0.435439 (Simulation time: 14 hr 23 min 29 sec) 
Heartbeat CPU 0 instructions: 4620000000 cycles: 6045919640 heartbeat IPC: 0.747113 cumulative IPC: 0.739899 (Simulation time: 14 hr 23 min 48 sec) 
Heartbeat CPU 3 instructions: 3810000000 cycles: 6056080976 heartbeat IPC: 0.502176 cumulative IPC: 0.601147 (Simulation time: 14 hr 25 min 2 sec) 
Heartbeat CPU 0 instructions: 4630000000 cycles: 6059333550 heartbeat IPC: 0.745495 cumulative IPC: 0.739912 (Simulation time: 14 hr 25 min 25 sec) 
Heartbeat CPU 1 instructions: 2790000000 cycles: 6071165302 heartbeat IPC: 0.359205 cumulative IPC: 0.435083 (Simulation time: 14 hr 26 min 52 sec) 
Heartbeat CPU 0 instructions: 4640000000 cycles: 6072688238 heartbeat IPC: 0.748801 cumulative IPC: 0.739932 (Simulation time: 14 hr 27 min 3 sec) 
Heartbeat CPU 3 instructions: 3820000000 cycles: 6075520794 heartbeat IPC: 0.514408 cumulative IPC: 0.600864 (Simulation time: 14 hr 27 min 24 sec) 
Heartbeat CPU 0 instructions: 4650000000 cycles: 6087399517 heartbeat IPC: 0.679751 cumulative IPC: 0.739784 (Simulation time: 14 hr 28 min 47 sec) 
Heartbeat CPU 3 instructions: 3830000002 cycles: 6095542419 heartbeat IPC: 0.49946 cumulative IPC: 0.600524 (Simulation time: 14 hr 29 min 48 sec) 
Heartbeat CPU 1 instructions: 2800000000 cycles: 6096234782 heartbeat IPC: 0.398891 cumulative IPC: 0.434931 (Simulation time: 14 hr 29 min 54 sec) 
Heartbeat CPU 0 instructions: 4660000000 cycles: 6101029467 heartbeat IPC: 0.733678 cumulative IPC: 0.73977 (Simulation time: 14 hr 30 min 30 sec) 
Heartbeat CPU 0 instructions: 4670000000 cycles: 6114020958 heartbeat IPC: 0.769735 cumulative IPC: 0.739835 (Simulation time: 14 hr 32 min 14 sec) 
Heartbeat CPU 3 instructions: 3840000000 cycles: 6115422171 heartbeat IPC: 0.503024 cumulative IPC: 0.600201 (Simulation time: 14 hr 32 min 26 sec) 
Heartbeat CPU 2 instructions: 1190000001 cycles: 6115507646 heartbeat IPC: 0.118155 cumulative IPC: 0.164316 (Simulation time: 14 hr 32 min 27 sec) 
Heartbeat CPU 1 instructions: 2810000000 cycles: 6115619445 heartbeat IPC: 0.515872 cumulative IPC: 0.435192 (Simulation time: 14 hr 32 min 28 sec) 
Heartbeat CPU 0 instructions: 4680000000 cycles: 6128687387 heartbeat IPC: 0.681829 cumulative IPC: 0.739693 (Simulation time: 14 hr 34 min 12 sec) 
Heartbeat CPU 1 instructions: 2820000000 cycles: 6131886379 heartbeat IPC: 0.614744 cumulative IPC: 0.435678 (Simulation time: 14 hr 34 min 39 sec) 
Heartbeat CPU 3 instructions: 3850000000 cycles: 6135026572 heartbeat IPC: 0.51009 cumulative IPC: 0.599908 (Simulation time: 14 hr 35 min 3 sec) 
Heartbeat CPU 0 instructions: 4690000002 cycles: 6142719793 heartbeat IPC: 0.712636 cumulative IPC: 0.73963 (Simulation time: 14 hr 36 min 2 sec) 
Heartbeat CPU 2 instructions: 1200000000 cycles: 6151351488 heartbeat IPC: 0.278988 cumulative IPC: 0.164998 (Simulation time: 14 hr 37 min 11 sec) 
Heartbeat CPU 3 instructions: 3860000000 cycles: 6154336624 heartbeat IPC: 0.517865 cumulative IPC: 0.599645 (Simulation time: 14 hr 37 min 34 sec) 
Heartbeat CPU 0 instructions: 4700000000 cycles: 6156083141 heartbeat IPC: 0.748315 cumulative IPC: 0.739649 (Simulation time: 14 hr 37 min 47 sec) 
Heartbeat CPU 1 instructions: 2830000000 cycles: 6158975138 heartbeat IPC: 0.369157 cumulative IPC: 0.43538 (Simulation time: 14 hr 38 min 8 sec) 
Heartbeat CPU 0 instructions: 4710000001 cycles: 6168508852 heartbeat IPC: 0.804783 cumulative IPC: 0.739783 (Simulation time: 14 hr 39 min 22 sec) 
Heartbeat CPU 3 instructions: 3870000000 cycles: 6173982597 heartbeat IPC: 0.50901 cumulative IPC: 0.599351 (Simulation time: 14 hr 40 min 5 sec) 
Heartbeat CPU 0 instructions: 4720000000 cycles: 6180316525 heartbeat IPC: 0.846907 cumulative IPC: 0.739992 (Simulation time: 14 hr 40 min 56 sec) 
Heartbeat CPU 1 instructions: 2840000000 cycles: 6184448037 heartbeat IPC: 0.392574 cumulative IPC: 0.4352 (Simulation time: 14 hr 41 min 30 sec) 
Finished CPU 2 instructions: 1000000001 cycles: 6066872867 cumulative IPC: 0.16483 (Simulation time: 14 hr 41 min 37 sec) 

CPU 0 Branch Prediction Accuracy: 99.8562% MPKI: 0.0924441

CPU 1 Branch Prediction Accuracy: 99.2284% MPKI: 1.95147

CPU 2 Branch Prediction Accuracy: 92.436% MPKI: 14.5673

CPU 3 Branch Prediction Accuracy: 97.7557% MPKI: 0.350208

ChampSim completed all CPUs

Total Simulation Statistics (not including warmup)

CPU 0 cumulative IPC: 0.74009 instructions: 4490033734 cycles: 6066872866
L1D TOTAL     ACCESS: 1688070053  HIT: 1564520135  MISS:  123549918
L1D LOAD      ACCESS: 1299678419  HIT: 1191707581  MISS:  107970838
L1D RFO       ACCESS:  388391634  HIT:  372812554  MISS:   15579080
L1D PREFETCH  ACCESS:          0  HIT:          0  MISS:          0
L1D WRITEBACK ACCESS:          0  HIT:          0  MISS:          0
L1I TOTAL     ACCESS: 1471654939  HIT: 1471654498  MISS:        441
L1I LOAD      ACCESS: 1471654939  HIT: 1471654498  MISS:        441
L1I RFO       ACCESS:          0  HIT:          0  MISS:          0
L1I PREFETCH  ACCESS:          0  HIT:          0  MISS:          0
L1I WRITEBACK ACCESS:          0  HIT:          0  MISS:          0
L2C TOTAL     ACCESS:  235204610  HIT:  189504669  MISS:   45699941
L2C LOAD      ACCESS:  107964019  HIT:   84110951  MISS:   23853068
L2C RFO       ACCESS:   15575096  HIT:    5150827  MISS:   10424269
L2C PREFETCH  ACCESS:   91350053  HIT:   79937674  MISS:   11412379
L2C WRITEBACK ACCESS:   20315442  HIT:   20305217  MISS:      10225
LLC TOTAL     ACCESS:  234571986  HIT:  205118831  MISS:   29453155
LLC LOAD      ACCESS:   23354894  HIT:   21454343  MISS:    1900551
LLC RFO       ACCESS:   10424269  HIT:    4361635  MISS:    6062634
LLC PREFETCH  ACCESS:  186485537  HIT:  165375534  MISS:   21110003
LLC WRITEBACK ACCESS:   14307286  HIT:   13927319  MISS:     379967

CPU 1 cumulative IPC: 0.435212 instructions: 2640376690 cycles: 6066872866
L1D TOTAL     ACCESS:  669920687  HIT:  557727253  MISS:  112193434
L1D LOAD      ACCESS:  464876843  HIT:  357606991  MISS:  107269852
L1D RFO       ACCESS:  205043844  HIT:  200120262  MISS:    4923582
L1D PREFETCH  ACCESS:          0  HIT:          0  MISS:          0
L1D WRITEBACK ACCESS:          0  HIT:          0  MISS:          0
L1I TOTAL     ACCESS: 1142707555  HIT: 1135417724  MISS:    7289831
L1I LOAD      ACCESS: 1142707555  HIT: 1135417724  MISS:    7289831
L1I RFO       ACCESS:          0  HIT:          0  MISS:          0
L1I PREFETCH  ACCESS:          0  HIT:          0  MISS:          0
L1I WRITEBACK ACCESS:          0  HIT:          0  MISS:          0
L2C TOTAL     ACCESS:  238958702  HIT:  223284051  MISS:   15674651
L2C LOAD      ACCESS:  114559169  HIT:  103254552  MISS:   11304617
L2C RFO       ACCESS:    4923468  HIT:    1122397  MISS:    3801071
L2C PREFETCH  ACCESS:  111307861  HIT:  110740761  MISS:     567100
L2C WRITEBACK ACCESS:    8168204  HIT:    8166341  MISS:       1863
LLC TOTAL     ACCESS:   82607971  HIT:   74125038  MISS:    8482933
LLC LOAD      ACCESS:   11062897  HIT:    9869707  MISS:    1193190
LLC RFO       ACCESS:    3800449  HIT:     387864  MISS:    3412585
LLC PREFETCH  ACCESS:   62839572  HIT:   59756161  MISS:    3083411
LLC WRITEBACK ACCESS:    4905053  HIT:    4111306  MISS:     793747

CPU 2 cumulative IPC: 0.16483 instructions: 1000000001 cycles: 6066872867
L1D TOTAL     ACCESS:  414180955  HIT:  374155876  MISS:   40025079
L1D LOAD      ACCESS:  314297680  HIT:  274554088  MISS:   39743592
L1D RFO       ACCESS:   99883275  HIT:   99601788  MISS:     281487
L1D PREFETCH  ACCESS:          0  HIT:          0  MISS:          0
L1D WRITEBACK ACCESS:          0  HIT:          0  MISS:          0
L1I TOTAL     ACCESS:  223700941  HIT:  223700941  MISS:          0
L1I LOAD      ACCESS:  223700941  HIT:  223700941  MISS:          0
L1I RFO       ACCESS:          0  HIT:          0  MISS:          0
L1I PREFETCH  ACCESS:          0  HIT:          0  MISS:          0
L1I WRITEBACK ACCESS:          0  HIT:          0  MISS:          0
L2C TOTAL     ACCESS:   49276067  HIT:   17941243  MISS:   31334824
L2C LOAD      ACCESS:   39743560  HIT:    9469402  MISS:   30274158
L2C RFO       ACCESS:     281479  HIT:     227532  MISS:      53947
L2C PREFETCH  ACCESS:    6158080  HIT:    5156475  MISS:    1001605
L2C WRITEBACK ACCESS:    3092948  HIT:    3087834  MISS:       5114
LLC TOTAL     ACCESS:   69711740  HIT:   22730935  MISS:   46980805
LLC LOAD      ACCESS:   30218538  HIT:    8015159  MISS:   22203379
LLC RFO       ACCESS:      53947  HIT:      34152  MISS:      19795
LLC PREFETCH  ACCESS:   37107376  HIT:   12369228  MISS:   24738148
LLC WRITEBACK ACCESS:    2331879  HIT:    2312396  MISS:      19483

CPU 3 cumulative IPC: 0.599225 instructions: 3635420136 cycles: 6066872867
L1D TOTAL     ACCESS:  999628194  HIT:  763714840  MISS:  235913354
L1D LOAD      ACCESS:  372119790  HIT:  336330703  MISS:   35789087
L1D RFO       ACCESS:  627508404  HIT:  427384137  MISS:  200124267
L1D PREFETCH  ACCESS:          0  HIT:          0  MISS:          0
L1D WRITEBACK ACCESS:          0  HIT:          0  MISS:          0
L1I TOTAL     ACCESS:  879990637  HIT:  879990634  MISS:          3
L1I LOAD      ACCESS:  879990637  HIT:  879990634  MISS:          3
L1I RFO       ACCESS:          0  HIT:          0  MISS:          0
L1I PREFETCH  ACCESS:          0  HIT:          0  MISS:          0
L1I WRITEBACK ACCESS:          0  HIT:          0  MISS:          0
L2C TOTAL     ACCESS:  442944726  HIT:  263347878  MISS:  179596848
L2C LOAD      ACCESS:   35789090  HIT:    6715043  MISS:   29074047
L2C RFO       ACCESS:  200122730  HIT:   56326361  MISS:  143796369
L2C PREFETCH  ACCESS:    6908634  HIT:     227959  MISS:    6680675
L2C WRITEBACK ACCESS:  200124272  HIT:  200078515  MISS:      45757
LLC TOTAL     ACCESS:  376594850  HIT:  233693079  MISS:  142901771
LLC LOAD      ACCESS:   25998446  HIT:   20544722  MISS:    5453724
LLC RFO       ACCESS:  143728100  HIT:   36558391  MISS:  107169709
LLC PREFETCH  ACCESS:   63027517  HIT:   32756159  MISS:   30271358
LLC WRITEBACK ACCESS:  143840787  HIT:  143833807  MISS:       6980

Region of Interest Statistics

CPU 0 cumulative IPC: 0.764203 instructions: 1000000000 cycles: 1308552767
L1D TOTAL     ACCESS:  410187874  HIT:  375982096  MISS:   34205778
L1D LOAD      ACCESS:  326210719  HIT:  296202656  MISS:   30008063
L1D RFO       ACCESS:   83977155  HIT:   79779440  MISS:    4197715
L1D PREFETCH  ACCESS:          0  HIT:          0  MISS:          0
L1D WRITEBACK ACCESS:          0  HIT:          0  MISS:          0
L1D PREFETCH  REQUESTED:          0  ISSUED:          0  USEFUL:          0  USELESS:          0
L1I TOTAL     ACCESS:  305371805  HIT:  305371472  MISS:        333
L1I LOAD      ACCESS:  305371805  HIT:  305371472  MISS:        333
L1I RFO       ACCESS:          0  HIT:          0  MISS:          0
L1I PREFETCH  ACCESS:          0  HIT:          0  MISS:          0
L1I WRITEBACK ACCESS:          0  HIT:          0  MISS:          0
L1I PREFETCH  REQUESTED:          0  ISSUED:          0  USEFUL:          0  USELESS:          0
L2C TOTAL     ACCESS:   65500916  HIT:   53056833  MISS:   12444083
L2C LOAD      ACCESS:   30006326  HIT:   23321876  MISS:    6684450
L2C RFO       ACCESS:    4196376  HIT:    1429793  MISS:    2766583
L2C PREFETCH  ACCESS:   25748262  HIT:   22757758  MISS:    2990504
L2C WRITEBACK ACCESS:    5549952  HIT:    5547406  MISS:       2546
L2C PREFETCH  REQUESTED:  281232720  ISSUED:  279319544  USEFUL:   11716563  USELESS:     248087
LLC TOTAL     ACCESS:   63693796  HIT:   56631601  MISS:    7062195
LLC LOAD      ACCESS:    6578987  HIT:    6072159  MISS:     506828
LLC RFO       ACCESS:    2766583  HIT:    1461241  MISS:    1305342
LLC PREFETCH  ACCESS:   50471130  HIT:   45284621  MISS:    5186509
LLC WRITEBACK ACCESS:    3877096  HIT:    3813580  MISS:      63516
LLC PREFETCH  REQUESTED:          0  ISSUED:          0  USEFUL:   40903391  USELESS:   45447636
Major fault: 0 Minor fault: 165677

CPU 1 cumulative IPC: 0.436959 instructions: 1000000000 cycles: 2288543365
L1D TOTAL     ACCESS:  252068670  HIT:  209804776  MISS:   42263894
L1D LOAD      ACCESS:  173926675  HIT:  133929849  MISS:   39996826
L1D RFO       ACCESS:   78141995  HIT:   75874927  MISS:    2267068
L1D PREFETCH  ACCESS:          0  HIT:          0  MISS:          0
L1D WRITEBACK ACCESS:          0  HIT:          0  MISS:          0
L1D PREFETCH  REQUESTED:          0  ISSUED:          0  USEFUL:          0  USELESS:          0
L1I TOTAL     ACCESS:  433674263  HIT:  430872340  MISS:    2801923
L1I LOAD      ACCESS:  433674263  HIT:  430872340  MISS:    2801923
L1I RFO       ACCESS:          0  HIT:          0  MISS:          0
L1I PREFETCH  ACCESS:          0  HIT:          0  MISS:          0
L1I WRITEBACK ACCESS:          0  HIT:          0  MISS:          0
L1I PREFETCH  REQUESTED:          0  ISSUED:          0  USEFUL:          0  USELESS:          0
L2C TOTAL     ACCESS:   90816587  HIT:   84155288  MISS:    6661299
L2C LOAD      ACCESS:   42798493  HIT:   38161291  MISS:    4637202
L2C RFO       ACCESS:    2267019  HIT:     470479  MISS:    1796540
L2C PREFETCH  ACCESS:   42220537  HIT:   41993782  MISS:     226755
L2C WRITEBACK ACCESS:    3530538  HIT:    3529736  MISS:        802
L2C PREFETCH  REQUESTED:  215814014  ISSUED:  215808179  USEFUL:     164379  USELESS:     443651
LLC TOTAL     ACCESS:   31906448  HIT:   28397004  MISS:    3509444
LLC LOAD      ACCESS:    4514940  HIT:    4079908  MISS:     435032
LLC RFO       ACCESS:    1796319  HIT:     149981  MISS:    1646338
LLC PREFETCH  ACCESS:   23380677  HIT:   22227087  MISS:    1153590
LLC WRITEBACK ACCESS:    2214512  HIT:    1940028  MISS:     274484
LLC PREFETCH  REQUESTED:          0  ISSUED:          0  USEFUL:   40903391  USELESS:   45447636
Major fault: 0 Minor fault: 11234

CPU 2 cumulative IPC: 0.16483 instructions: 1000000001 cycles: 6066872867
L1D TOTAL     ACCESS:  414180955  HIT:  374155876  MISS:   40025079
L1D LOAD      ACCESS:  314297680  HIT:  274554088  MISS:   39743592
L1D RFO       ACCESS:   99883275  HIT:   99601788  MISS:     281487
L1D PREFETCH  ACCESS:          0  HIT:          0  MISS:          0
L1D WRITEBACK ACCESS:          0  HIT:          0  MISS:          0
L1D PREFETCH  REQUESTED:          0  ISSUED:          0  USEFUL:          0  USELESS:          0
L1I TOTAL     ACCESS:  223700941  HIT:  223700941  MISS:          0
L1I LOAD      ACCESS:  223700941  HIT:  223700941  MISS:          0
L1I RFO       ACCESS:          0  HIT:          0  MISS:          0
L1I PREFETCH  ACCESS:          0  HIT:          0  MISS:          0
L1I WRITEBACK ACCESS:          0  HIT:          0  MISS:          0
L1I PREFETCH  REQUESTED:          0  ISSUED:          0  USEFUL:          0  USELESS:          0
L2C TOTAL     ACCESS:   49276067  HIT:   17941243  MISS:   31334824
L2C LOAD      ACCESS:   39743560  HIT:    9469402  MISS:   30274158
L2C RFO       ACCESS:     281479  HIT:     227532  MISS:      53947
L2C PREFETCH  ACCESS:    6158080  HIT:    5156475  MISS:    1001605
L2C WRITEBACK ACCESS:    3092948  HIT:    3087834  MISS:       5114
L2C PREFETCH  REQUESTED:   53783626  ISSUED:   53783501  USEFUL:     555364  USELESS:     635160
LLC TOTAL     ACCESS:   69711740  HIT:   22730935  MISS:   46980805
LLC LOAD      ACCESS:   30218538  HIT:    8015159  MISS:   22203379
LLC RFO       ACCESS:      53947  HIT:      34152  MISS:      19795
LLC PREFETCH  ACCESS:   37107376  HIT:   12369228  MISS:   24738148
LLC WRITEBACK ACCESS:    2331879  HIT:    2312396  MISS:      19483
LLC PREFETCH  REQUESTED:          0  ISSUED:          0  USEFUL:   40903391  USELESS:   45447636
Major fault: 0 Minor fault: 323461

CPU 3 cumulative IPC: 0.690995 instructions: 1000000003 cycles: 1447189490
L1D TOTAL     ACCESS:  267704021  HIT:  213740778  MISS:   53963243
L1D LOAD      ACCESS:  103834971  HIT:   95651612  MISS:    8183359
L1D RFO       ACCESS:  163869050  HIT:  118089166  MISS:   45779884
L1D PREFETCH  ACCESS:          0  HIT:          0  MISS:          0
L1D WRITEBACK ACCESS:          0  HIT:          0  MISS:          0
L1D PREFETCH  REQUESTED:          0  ISSUED:          0  USEFUL:          0  USELESS:          0
L1I TOTAL     ACCESS:  240507056  HIT:  240507053  MISS:          3
L1I LOAD      ACCESS:  240507056  HIT:  240507053  MISS:          3
L1I RFO       ACCESS:          0  HIT:          0  MISS:          0
L1I PREFETCH  ACCESS:          0  HIT:          0  MISS:          0
L1I WRITEBACK ACCESS:          0  HIT:          0  MISS:          0
L1I PREFETCH  REQUESTED:          0  ISSUED:          0  USEFUL:          0  USELESS:          0
L2C TOTAL     ACCESS:  101373766  HIT:   60157413  MISS:   41216353
L2C LOAD      ACCESS:    8183362  HIT:    1582576  MISS:    6600786
L2C RFO       ACCESS:   45779638  HIT:   12748238  MISS:   33031400
L2C PREFETCH  ACCESS:    1630881  HIT:      53935  MISS:    1576946
L2C WRITEBACK ACCESS:   45779885  HIT:   45772664  MISS:       7221
L2C PREFETCH  REQUESTED:  161700139  ISSUED:  161700139  USEFUL:    7755684  USELESS:        486
LLC TOTAL     ACCESS:   86316954  HIT:   53622995  MISS:   32693959
LLC LOAD      ACCESS:    5889213  HIT:    4711798  MISS:    1177415
LLC RFO       ACCESS:   33015121  HIT:    8495720  MISS:   24519401
LLC PREFETCH  ACCESS:   14373872  HIT:    7377973  MISS:    6995899
LLC WRITEBACK ACCESS:   33038748  HIT:   33037504  MISS:       1244
LLC PREFETCH  REQUESTED:          0  ISSUED:          0  USEFUL:   40903391  USELESS:   45447636
Major fault: 0 Minor fault: 631850

DRAM Statistics
 CHANNEL 0
 RQ ROW_BUFFER_HIT:   21264847  ROW_BUFFER_MISS:   91937242
 DBUS_CONGESTED:  228983503
 WQ ROW_BUFFER_HIT:    5514362  ROW_BUFFER_MISS:   54797298  FULL:          0

 CHANNEL 1
 RQ ROW_BUFFER_HIT:   21227689  ROW_BUFFER_MISS:   92181774
 DBUS_CONGESTED:  228983503
 WQ ROW_BUFFER_HIT:    5518987  ROW_BUFFER_MISS:   54800195  FULL:          0

 AVG_CONGESTED_CYCLE: 13
