Initialize SIGNATURE TABLE
ST_SET: 1
ST_WAY: 256
ST_TAG_BIT: 16
ST_TAG_MASK: ffff

Initialize PATTERN TABLE
PT_SET: 512
PT_WAY: 4
SIG_DELTA_BIT: 7
C_SIG_BIT: 4
C_DELTA_BIT: 4

Initialize PREFETCH FILTER
FILTER_SET: 1024

*** ChampSim Multicore Out-of-Order Simulator ***

Warmup Instructions: 200000000
Simulation Instructions: 1000000000
Number of CPUs: 4
LLC sets: 8192
LLC ways: 16
Off-chip DRAM Size: 8192 MB Channels: 2 Width: 64-bit Data Rate: 1600 MT/s

CPU 0 runs /scratch/user/djimenez/champsim-traces/speccpu2017/xz/654.roms_s/654.roms_s-523B.champsimtrace.xz
CPU 1 runs /scratch/user/djimenez/champsim-traces/speccpu2017/xz/605.mcf_s/605.mcf_s-665B.champsimtrace.xz
CPU 2 runs /scratch/user/djimenez/champsim-traces/speccpu2017/xz/641.leela_s/641.leela_s-149B.champsimtrace.xz
CPU 3 runs /scratch/user/djimenez/champsim-traces/speccpu2017/xz/625.x264_s/625.x264_s-18B.champsimtrace.xz
Heartbeat CPU 3 instructions: 10000003 cycles: 3849238 heartbeat IPC: 2.59792 cumulative IPC: 2.59792 (Simulation time: 0 hr 1 min 13 sec) 
Heartbeat CPU 0 instructions: 10000001 cycles: 4641277 heartbeat IPC: 2.15458 cumulative IPC: 2.15458 (Simulation time: 0 hr 1 min 28 sec) 
Heartbeat CPU 2 instructions: 10000000 cycles: 6140162 heartbeat IPC: 1.62862 cumulative IPC: 1.62862 (Simulation time: 0 hr 1 min 55 sec) 
Heartbeat CPU 1 instructions: 10000001 cycles: 6495010 heartbeat IPC: 1.53964 cumulative IPC: 1.53964 (Simulation time: 0 hr 2 min 2 sec) 
Heartbeat CPU 3 instructions: 20000000 cycles: 7705331 heartbeat IPC: 2.5933 cumulative IPC: 2.59561 (Simulation time: 0 hr 2 min 24 sec) 
Heartbeat CPU 0 instructions: 20000000 cycles: 9049800 heartbeat IPC: 2.26833 cumulative IPC: 2.20999 (Simulation time: 0 hr 2 min 50 sec) 
Heartbeat CPU 3 instructions: 30000001 cycles: 11528743 heartbeat IPC: 2.61547 cumulative IPC: 2.60219 (Simulation time: 0 hr 3 min 42 sec) 
Heartbeat CPU 1 instructions: 20000000 cycles: 12981162 heartbeat IPC: 1.54175 cumulative IPC: 1.54069 (Simulation time: 0 hr 4 min 10 sec) 
Heartbeat CPU 2 instructions: 20000000 cycles: 13338119 heartbeat IPC: 1.38928 cumulative IPC: 1.49946 (Simulation time: 0 hr 4 min 17 sec) 
Heartbeat CPU 0 instructions: 30000002 cycles: 14728438 heartbeat IPC: 1.76099 cumulative IPC: 2.03688 (Simulation time: 0 hr 4 min 44 sec) 
Heartbeat CPU 3 instructions: 40000000 cycles: 15345560 heartbeat IPC: 2.61998 cumulative IPC: 2.60662 (Simulation time: 0 hr 4 min 56 sec) 
Heartbeat CPU 3 instructions: 50000000 cycles: 19165974 heartbeat IPC: 2.61752 cumulative IPC: 2.60879 (Simulation time: 0 hr 6 min 13 sec) 
Heartbeat CPU 1 instructions: 30000001 cycles: 19459998 heartbeat IPC: 1.54349 cumulative IPC: 1.54162 (Simulation time: 0 hr 6 min 19 sec) 
Heartbeat CPU 0 instructions: 40000000 cycles: 19468861 heartbeat IPC: 2.10952 cumulative IPC: 2.05456 (Simulation time: 0 hr 6 min 20 sec) 
Heartbeat CPU 2 instructions: 30000001 cycles: 19980258 heartbeat IPC: 1.50554 cumulative IPC: 1.50148 (Simulation time: 0 hr 6 min 29 sec) 
Heartbeat CPU 3 instructions: 60000000 cycles: 22987529 heartbeat IPC: 2.61674 cumulative IPC: 2.61011 (Simulation time: 0 hr 7 min 28 sec) 
Heartbeat CPU 0 instructions: 50000001 cycles: 24782716 heartbeat IPC: 1.88187 cumulative IPC: 2.01754 (Simulation time: 0 hr 8 min 3 sec) 
Heartbeat CPU 1 instructions: 40000000 cycles: 25950342 heartbeat IPC: 1.54075 cumulative IPC: 1.54141 (Simulation time: 0 hr 8 min 26 sec) 
Heartbeat CPU 2 instructions: 40000000 cycles: 26450999 heartbeat IPC: 1.54542 cumulative IPC: 1.51223 (Simulation time: 0 hr 8 min 36 sec) 
Heartbeat CPU 3 instructions: 70000001 cycles: 26811724 heartbeat IPC: 2.61493 cumulative IPC: 2.6108 (Simulation time: 0 hr 8 min 44 sec) 
Heartbeat CPU 0 instructions: 60000000 cycles: 29993586 heartbeat IPC: 1.91907 cumulative IPC: 2.00043 (Simulation time: 0 hr 9 min 45 sec) 
Heartbeat CPU 3 instructions: 80000000 cycles: 30635992 heartbeat IPC: 2.61488 cumulative IPC: 2.61131 (Simulation time: 0 hr 9 min 57 sec) 
Heartbeat CPU 1 instructions: 50000000 cycles: 32444976 heartbeat IPC: 1.53973 cumulative IPC: 1.54107 (Simulation time: 0 hr 10 min 33 sec) 
Heartbeat CPU 2 instructions: 50000000 cycles: 32906090 heartbeat IPC: 1.54916 cumulative IPC: 1.51948 (Simulation time: 0 hr 10 min 42 sec) 
Heartbeat CPU 3 instructions: 90000003 cycles: 34461520 heartbeat IPC: 2.61402 cumulative IPC: 2.61161 (Simulation time: 0 hr 11 min 12 sec) 
Heartbeat CPU 0 instructions: 70000002 cycles: 35041572 heartbeat IPC: 1.98099 cumulative IPC: 1.99763 (Simulation time: 0 hr 11 min 23 sec) 
Heartbeat CPU 3 instructions: 100000000 cycles: 38282526 heartbeat IPC: 2.61711 cumulative IPC: 2.61216 (Simulation time: 0 hr 12 min 31 sec) 
Heartbeat CPU 1 instructions: 60000000 cycles: 38935347 heartbeat IPC: 1.54074 cumulative IPC: 1.54102 (Simulation time: 0 hr 12 min 44 sec) 
Heartbeat CPU 2 instructions: 60000000 cycles: 39336102 heartbeat IPC: 1.55521 cumulative IPC: 1.52532 (Simulation time: 0 hr 12 min 51 sec) 
Heartbeat CPU 0 instructions: 80000000 cycles: 40159744 heartbeat IPC: 1.95382 cumulative IPC: 1.99204 (Simulation time: 0 hr 13 min 7 sec) 
Heartbeat CPU 3 instructions: 110000001 cycles: 42096206 heartbeat IPC: 2.62214 cumulative IPC: 2.61306 (Simulation time: 0 hr 13 min 45 sec) 
Heartbeat CPU 0 instructions: 90000003 cycles: 44821010 heartbeat IPC: 2.14534 cumulative IPC: 2.00799 (Simulation time: 0 hr 14 min 41 sec) 
Heartbeat CPU 1 instructions: 70000002 cycles: 45445496 heartbeat IPC: 1.53606 cumulative IPC: 1.54031 (Simulation time: 0 hr 14 min 52 sec) 
Heartbeat CPU 2 instructions: 70000002 cycles: 45756790 heartbeat IPC: 1.55747 cumulative IPC: 1.52983 (Simulation time: 0 hr 14 min 58 sec) 
Heartbeat CPU 3 instructions: 120000000 cycles: 45912040 heartbeat IPC: 2.62066 cumulative IPC: 2.61369 (Simulation time: 0 hr 15 min 0 sec) 
Heartbeat CPU 0 instructions: 100000000 cycles: 49146292 heartbeat IPC: 2.31199 cumulative IPC: 2.03474 (Simulation time: 0 hr 15 min 59 sec) 
Heartbeat CPU 3 instructions: 130000003 cycles: 49730457 heartbeat IPC: 2.61889 cumulative IPC: 2.61409 (Simulation time: 0 hr 16 min 10 sec) 
Heartbeat CPU 1 instructions: 80000000 cycles: 51939189 heartbeat IPC: 1.53996 cumulative IPC: 1.54026 (Simulation time: 0 hr 16 min 50 sec) 
Heartbeat CPU 2 instructions: 80000000 cycles: 52176211 heartbeat IPC: 1.55777 cumulative IPC: 1.53327 (Simulation time: 0 hr 16 min 54 sec) 
Heartbeat CPU 3 instructions: 140000000 cycles: 53559815 heartbeat IPC: 2.6114 cumulative IPC: 2.6139 (Simulation time: 0 hr 17 min 18 sec) 
Heartbeat CPU 0 instructions: 110000002 cycles: 54804740 heartbeat IPC: 1.76727 cumulative IPC: 2.00713 (Simulation time: 0 hr 17 min 41 sec) 
Heartbeat CPU 3 instructions: 150000003 cycles: 57617741 heartbeat IPC: 2.46431 cumulative IPC: 2.60336 (Simulation time: 0 hr 18 min 41 sec) 
Heartbeat CPU 1 instructions: 90000002 cycles: 58449588 heartbeat IPC: 1.536 cumulative IPC: 1.53979 (Simulation time: 0 hr 19 min 4 sec) 
Heartbeat CPU 2 instructions: 90000000 cycles: 58579827 heartbeat IPC: 1.56162 cumulative IPC: 1.53637 (Simulation time: 0 hr 19 min 6 sec) 
Heartbeat CPU 0 instructions: 120000000 cycles: 59569884 heartbeat IPC: 2.09857 cumulative IPC: 2.01444 (Simulation time: 0 hr 19 min 25 sec) 
Heartbeat CPU 3 instructions: 160000000 cycles: 61788973 heartbeat IPC: 2.39737 cumulative IPC: 2.58946 (Simulation time: 0 hr 20 min 18 sec) 
Heartbeat CPU 0 instructions: 130000001 cycles: 64866036 heartbeat IPC: 1.88816 cumulative IPC: 2.00413 (Simulation time: 0 hr 21 min 14 sec) 
Heartbeat CPU 1 instructions: 100000000 cycles: 64988479 heartbeat IPC: 1.52931 cumulative IPC: 1.53873 (Simulation time: 0 hr 21 min 16 sec) 
Heartbeat CPU 2 instructions: 100000000 cycles: 65004050 heartbeat IPC: 1.55661 cumulative IPC: 1.53837 (Simulation time: 0 hr 21 min 16 sec) 
Heartbeat CPU 3 instructions: 170000001 cycles: 65812565 heartbeat IPC: 2.48534 cumulative IPC: 2.58309 (Simulation time: 0 hr 21 min 36 sec) 
Heartbeat CPU 3 instructions: 180000000 cycles: 69981316 heartbeat IPC: 2.3988 cumulative IPC: 2.57212 (Simulation time: 0 hr 22 min 56 sec) 
Heartbeat CPU 0 instructions: 140000000 cycles: 70066991 heartbeat IPC: 1.92272 cumulative IPC: 1.99809 (Simulation time: 0 hr 22 min 57 sec) 
Heartbeat CPU 2 instructions: 110000000 cycles: 71439566 heartbeat IPC: 1.55388 cumulative IPC: 1.53976 (Simulation time: 0 hr 23 min 26 sec) 
Heartbeat CPU 1 instructions: 110000000 cycles: 71519944 heartbeat IPC: 1.53105 cumulative IPC: 1.53803 (Simulation time: 0 hr 23 min 28 sec) 
Heartbeat CPU 3 instructions: 190000000 cycles: 74167050 heartbeat IPC: 2.38907 cumulative IPC: 2.56178 (Simulation time: 0 hr 24 min 20 sec) 
Heartbeat CPU 0 instructions: 150000003 cycles: 75155146 heartbeat IPC: 1.96535 cumulative IPC: 1.99587 (Simulation time: 0 hr 24 min 40 sec) 
Heartbeat CPU 2 instructions: 120000000 cycles: 77862804 heartbeat IPC: 1.55685 cumulative IPC: 1.54117 (Simulation time: 0 hr 25 min 29 sec) 
Heartbeat CPU 1 instructions: 120000000 cycles: 78061996 heartbeat IPC: 1.52857 cumulative IPC: 1.53724 (Simulation time: 0 hr 25 min 34 sec) 
Heartbeat CPU 3 instructions: 200000000 cycles: 78183721 heartbeat IPC: 2.48962 cumulative IPC: 2.55808 (Simulation time: 0 hr 25 min 37 sec) 
Heartbeat CPU 0 instructions: 160000000 cycles: 80258362 heartbeat IPC: 1.95955 cumulative IPC: 1.99356 (Simulation time: 0 hr 26 min 17 sec) 
Heartbeat CPU 3 instructions: 210000002 cycles: 82357729 heartbeat IPC: 2.39578 cumulative IPC: 0.121422 (Simulation time: 0 hr 26 min 58 sec) 
Heartbeat CPU 2 instructions: 130000001 cycles: 84289106 heartbeat IPC: 1.55611 cumulative IPC: 1.54231 (Simulation time: 0 hr 27 min 30 sec) 
Heartbeat CPU 1 instructions: 130000001 cycles: 84597164 heartbeat IPC: 1.53018 cumulative IPC: 1.53669 (Simulation time: 0 hr 27 min 35 sec) 
Heartbeat CPU 0 instructions: 170000002 cycles: 84944036 heartbeat IPC: 2.13417 cumulative IPC: 2.00132 (Simulation time: 0 hr 27 min 41 sec) 
Heartbeat CPU 3 instructions: 220000000 cycles: 86487422 heartbeat IPC: 2.42149 cumulative IPC: 0.231247 (Simulation time: 0 hr 28 min 12 sec) 
Heartbeat CPU 0 instructions: 180000000 cycles: 89213666 heartbeat IPC: 2.34212 cumulative IPC: 2.01763 (Simulation time: 0 hr 29 min 3 sec) 
Heartbeat CPU 3 instructions: 230000000 cycles: 90557002 heartbeat IPC: 2.45726 cumulative IPC: 0.331283 (Simulation time: 0 hr 29 min 28 sec) 
Heartbeat CPU 2 instructions: 140000000 cycles: 90704386 heartbeat IPC: 1.55878 cumulative IPC: 1.54348 (Simulation time: 0 hr 29 min 30 sec) 
Heartbeat CPU 1 instructions: 140000000 cycles: 91161548 heartbeat IPC: 1.52337 cumulative IPC: 1.53574 (Simulation time: 0 hr 29 min 39 sec) 
Heartbeat CPU 3 instructions: 240000000 cycles: 94747087 heartbeat IPC: 2.38659 cumulative IPC: 0.422177 (Simulation time: 0 hr 30 min 39 sec) 
Heartbeat CPU 0 instructions: 190000001 cycles: 94879844 heartbeat IPC: 1.76486 cumulative IPC: 2.00253 (Simulation time: 0 hr 30 min 41 sec) 
Heartbeat CPU 2 instructions: 150000003 cycles: 97100199 heartbeat IPC: 1.56352 cumulative IPC: 1.5448 (Simulation time: 0 hr 31 min 18 sec) 
Heartbeat CPU 1 instructions: 150000000 cycles: 97720040 heartbeat IPC: 1.52474 cumulative IPC: 1.535 (Simulation time: 0 hr 31 min 30 sec) 
Heartbeat CPU 3 instructions: 250000001 cycles: 98758620 heartbeat IPC: 2.49281 cumulative IPC: 0.506285 (Simulation time: 0 hr 31 min 48 sec) 
Heartbeat CPU 0 instructions: 200000000 cycles: 99678419 heartbeat IPC: 2.08395 cumulative IPC: 2.00645 (Simulation time: 0 hr 32 min 3 sec) 
Heartbeat CPU 3 instructions: 260000000 cycles: 102941161 heartbeat IPC: 2.39089 cumulative IPC: 0.582857 (Simulation time: 0 hr 32 min 58 sec) 
Heartbeat CPU 2 instructions: 160000000 cycles: 103490626 heartbeat IPC: 1.56484 cumulative IPC: 1.54603 (Simulation time: 0 hr 33 min 8 sec) 
Heartbeat CPU 1 instructions: 160000000 cycles: 104271405 heartbeat IPC: 1.5264 cumulative IPC: 1.53446 (Simulation time: 0 hr 33 min 21 sec) 
Heartbeat CPU 0 instructions: 210000000 cycles: 104958240 heartbeat IPC: 1.894 cumulative IPC: 0.095276 (Simulation time: 0 hr 33 min 32 sec) 
Heartbeat CPU 3 instructions: 270000000 cycles: 107107364 heartbeat IPC: 2.40027 cumulative IPC: 0.65355 (Simulation time: 0 hr 34 min 9 sec) 
Heartbeat CPU 2 instructions: 170000002 cycles: 109891748 heartbeat IPC: 1.56223 cumulative IPC: 1.54698 (Simulation time: 0 hr 34 min 55 sec) 
Heartbeat CPU 0 instructions: 220000000 cycles: 110140201 heartbeat IPC: 1.92977 cumulative IPC: 0.181587 (Simulation time: 0 hr 34 min 59 sec) 
Heartbeat CPU 1 instructions: 170000003 cycles: 110842637 heartbeat IPC: 1.52179 cumulative IPC: 1.53371 (Simulation time: 0 hr 35 min 11 sec) 
Heartbeat CPU 3 instructions: 280000000 cycles: 111131226 heartbeat IPC: 2.48517 cumulative IPC: 0.71987 (Simulation time: 0 hr 35 min 16 sec) 
Heartbeat CPU 0 instructions: 230000003 cycles: 115254021 heartbeat IPC: 1.95549 cumulative IPC: 0.260295 (Simulation time: 0 hr 36 min 24 sec) 
Heartbeat CPU 3 instructions: 290000003 cycles: 115313548 heartbeat IPC: 2.39102 cumulative IPC: 0.780481 (Simulation time: 0 hr 36 min 26 sec) 
Heartbeat CPU 2 instructions: 180000000 cycles: 116297931 heartbeat IPC: 1.56099 cumulative IPC: 1.54775 (Simulation time: 0 hr 36 min 43 sec) 
Heartbeat CPU 1 instructions: 180000000 cycles: 117412107 heartbeat IPC: 1.52219 cumulative IPC: 1.53306 (Simulation time: 0 hr 37 min 1 sec) 
Heartbeat CPU 3 instructions: 300000000 cycles: 119490039 heartbeat IPC: 2.39435 cumulative IPC: 0.83689 (Simulation time: 0 hr 37 min 35 sec) 
Heartbeat CPU 0 instructions: 240000000 cycles: 120337290 heartbeat IPC: 1.96724 cumulative IPC: 0.332399 (Simulation time: 0 hr 37 min 50 sec) 
Heartbeat CPU 2 instructions: 190000000 cycles: 122684364 heartbeat IPC: 1.56582 cumulative IPC: 1.54869 (Simulation time: 0 hr 38 min 29 sec) 
Heartbeat CPU 3 instructions: 310000003 cycles: 123499249 heartbeat IPC: 2.49426 cumulative IPC: 0.890694 (Simulation time: 0 hr 38 min 43 sec) 
Heartbeat CPU 1 instructions: 190000001 cycles: 123964307 heartbeat IPC: 1.52621 cumulative IPC: 1.5327 (Simulation time: 0 hr 38 min 49 sec) 
Heartbeat CPU 0 instructions: 250000000 cycles: 125047782 heartbeat IPC: 2.12292 cumulative IPC: 0.399847 (Simulation time: 0 hr 39 min 6 sec) 
Heartbeat CPU 3 instructions: 320000000 cycles: 127680451 heartbeat IPC: 2.39166 cumulative IPC: 0.939846 (Simulation time: 0 hr 39 min 46 sec) 
Heartbeat CPU 2 instructions: 200000000 cycles: 129078747 heartbeat IPC: 1.56387 cumulative IPC: 1.54944 (Simulation time: 0 hr 40 min 8 sec) 
Heartbeat CPU 0 instructions: 260000000 cycles: 129257217 heartbeat IPC: 2.37562 cumulative IPC: 0.464191 (Simulation time: 0 hr 40 min 11 sec) 
Heartbeat CPU 1 instructions: 200000000 cycles: 130513657 heartbeat IPC: 1.52687 cumulative IPC: 1.53241 (Simulation time: 0 hr 40 min 32 sec) 

Warmup complete CPU 0 instructions: 262288392 cycles: 130513658 (Simulation time: 0 hr 40 min 32 sec) 
Warmup complete CPU 1 instructions: 200000002 cycles: 130513658 (Simulation time: 0 hr 40 min 32 sec) 
Warmup complete CPU 2 instructions: 202240148 cycles: 130513657 (Simulation time: 0 hr 40 min 32 sec) 
Warmup complete CPU 3 instructions: 326680285 cycles: 130513657 (Simulation time: 0 hr 40 min 32 sec) 

Heartbeat CPU 3 instructions: 330000000 cycles: 132850991 heartbeat IPC: 1.93403 cumulative IPC: 1.4203 (Simulation time: 0 hr 40 min 53 sec) 
Heartbeat CPU 3 instructions: 340000000 cycles: 139758181 heartbeat IPC: 1.44777 cumulative IPC: 1.44082 (Simulation time: 0 hr 41 min 56 sec) 
Heartbeat CPU 0 instructions: 270000000 cycles: 140221243 heartbeat IPC: 0.912074 cumulative IPC: 0.79439 (Simulation time: 0 hr 42 min 1 sec) 
Heartbeat CPU 3 instructions: 350000003 cycles: 146654214 heartbeat IPC: 1.45011 cumulative IPC: 1.44479 (Simulation time: 0 hr 42 min 59 sec) 
Heartbeat CPU 2 instructions: 210000001 cycles: 148593145 heartbeat IPC: 0.512442 cumulative IPC: 0.429208 (Simulation time: 0 hr 43 min 16 sec) 
Heartbeat CPU 0 instructions: 280000000 cycles: 152500102 heartbeat IPC: 0.814408 cumulative IPC: 0.805569 (Simulation time: 0 hr 43 min 50 sec) 
Heartbeat CPU 3 instructions: 360000000 cycles: 153551556 heartbeat IPC: 1.44983 cumulative IPC: 1.4463 (Simulation time: 0 hr 43 min 59 sec) 
Heartbeat CPU 3 instructions: 370000000 cycles: 160442261 heartbeat IPC: 1.45123 cumulative IPC: 1.44744 (Simulation time: 0 hr 45 min 5 sec) 
Heartbeat CPU 0 instructions: 290000002 cycles: 162647476 heartbeat IPC: 0.985477 cumulative IPC: 0.862382 (Simulation time: 0 hr 45 min 26 sec) 
Heartbeat CPU 1 instructions: 210000002 cycles: 163275440 heartbeat IPC: 0.305234 cumulative IPC: 0.305234 (Simulation time: 0 hr 45 min 32 sec) 
Heartbeat CPU 3 instructions: 380000000 cycles: 167319587 heartbeat IPC: 1.45405 cumulative IPC: 1.44867 (Simulation time: 0 hr 46 min 8 sec) 
Heartbeat CPU 2 instructions: 220000000 cycles: 171981138 heartbeat IPC: 0.42757 cumulative IPC: 0.428284 (Simulation time: 0 hr 46 min 51 sec) 
Heartbeat CPU 0 instructions: 300000000 cycles: 173207758 heartbeat IPC: 0.946944 cumulative IPC: 0.883298 (Simulation time: 0 hr 47 min 3 sec) 
Heartbeat CPU 3 instructions: 390000003 cycles: 174259836 heartbeat IPC: 1.44087 cumulative IPC: 1.44743 (Simulation time: 0 hr 47 min 13 sec) 
Heartbeat CPU 0 instructions: 310000001 cycles: 183830799 heartbeat IPC: 0.94135 cumulative IPC: 0.894864 (Simulation time: 0 hr 48 min 33 sec) 
Heartbeat CPU 3 instructions: 400000000 cycles: 184056689 heartbeat IPC: 1.02074 cumulative IPC: 1.36936 (Simulation time: 0 hr 48 min 35 sec) 
Heartbeat CPU 3 instructions: 410000002 cycles: 189085837 heartbeat IPC: 1.98841 cumulative IPC: 1.42251 (Simulation time: 0 hr 49 min 29 sec) 
Heartbeat CPU 0 instructions: 320000000 cycles: 193457312 heartbeat IPC: 1.0388 cumulative IPC: 0.916877 (Simulation time: 0 hr 50 min 13 sec) 
Heartbeat CPU 3 instructions: 420000000 cycles: 195154722 heartbeat IPC: 1.64775 cumulative IPC: 1.44366 (Simulation time: 0 hr 50 min 29 sec) 
Heartbeat CPU 2 instructions: 230000000 cycles: 195327901 heartbeat IPC: 0.428325 cumulative IPC: 0.428299 (Simulation time: 0 hr 50 min 30 sec) 
Heartbeat CPU 1 instructions: 220000000 cycles: 196039416 heartbeat IPC: 0.305213 cumulative IPC: 0.305223 (Simulation time: 0 hr 50 min 37 sec) 
Heartbeat CPU 3 instructions: 430000000 cycles: 202481872 heartbeat IPC: 1.36479 cumulative IPC: 1.43563 (Simulation time: 0 hr 51 min 36 sec) 
Heartbeat CPU 0 instructions: 330000002 cycles: 202985555 heartbeat IPC: 1.04951 cumulative IPC: 0.934315 (Simulation time: 0 hr 51 min 41 sec) 
Heartbeat CPU 3 instructions: 440000000 cycles: 209216492 heartbeat IPC: 1.48486 cumulative IPC: 1.43984 (Simulation time: 0 hr 52 min 38 sec) 
Heartbeat CPU 0 instructions: 340000000 cycles: 211805862 heartbeat IPC: 1.13375 cumulative IPC: 0.955954 (Simulation time: 0 hr 53 min 2 sec) 
Heartbeat CPU 3 instructions: 450000002 cycles: 215869772 heartbeat IPC: 1.50302 cumulative IPC: 1.44477 (Simulation time: 0 hr 53 min 38 sec) 
Heartbeat CPU 2 instructions: 240000000 cycles: 218560491 heartbeat IPC: 0.43043 cumulative IPC: 0.428861 (Simulation time: 0 hr 54 min 2 sec) 
Heartbeat CPU 3 instructions: 460000000 cycles: 222669502 heartbeat IPC: 1.47065 cumulative IPC: 1.44668 (Simulation time: 0 hr 54 min 40 sec) 
Heartbeat CPU 0 instructions: 350000001 cycles: 224669580 heartbeat IPC: 0.77738 cumulative IPC: 0.931557 (Simulation time: 0 hr 54 min 59 sec) 
Heartbeat CPU 1 instructions: 230000002 cycles: 229212197 heartbeat IPC: 0.301452 cumulative IPC: 0.303956 (Simulation time: 0 hr 55 min 41 sec) 
Heartbeat CPU 3 instructions: 470000000 cycles: 229469454 heartbeat IPC: 1.4706 cumulative IPC: 1.44832 (Simulation time: 0 hr 55 min 43 sec) 
Heartbeat CPU 3 instructions: 480000000 cycles: 236289833 heartbeat IPC: 1.46619 cumulative IPC: 1.44947 (Simulation time: 0 hr 56 min 44 sec) 
Heartbeat CPU 0 instructions: 360000000 cycles: 236795945 heartbeat IPC: 0.824649 cumulative IPC: 0.919359 (Simulation time: 0 hr 56 min 48 sec) 
Heartbeat CPU 2 instructions: 250000000 cycles: 241909831 heartbeat IPC: 0.428278 cumulative IPC: 0.428739 (Simulation time: 0 hr 57 min 36 sec) 
Heartbeat CPU 3 instructions: 490000002 cycles: 243230066 heartbeat IPC: 1.44087 cumulative IPC: 1.44894 (Simulation time: 0 hr 57 min 49 sec) 
Heartbeat CPU 0 instructions: 370000000 cycles: 246759397 heartbeat IPC: 1.00367 cumulative IPC: 0.926585 (Simulation time: 0 hr 58 min 23 sec) 
Heartbeat CPU 3 instructions: 500000000 cycles: 249984925 heartbeat IPC: 1.48042 cumulative IPC: 1.45072 (Simulation time: 0 hr 58 min 54 sec) 
Heartbeat CPU 3 instructions: 510000001 cycles: 256757671 heartbeat IPC: 1.47651 cumulative IPC: 1.45211 (Simulation time: 0 hr 59 min 57 sec) 
Heartbeat CPU 0 instructions: 380000000 cycles: 257168786 heartbeat IPC: 0.960671 cumulative IPC: 0.929387 (Simulation time: 1 hr 0 min 1 sec) 
Heartbeat CPU 1 instructions: 240000000 cycles: 261274160 heartbeat IPC: 0.311896 cumulative IPC: 0.305903 (Simulation time: 1 hr 0 min 41 sec) 
Heartbeat CPU 3 instructions: 520000000 cycles: 263422640 heartbeat IPC: 1.50038 cumulative IPC: 1.45453 (Simulation time: 1 hr 1 min 2 sec) 
Heartbeat CPU 2 instructions: 260000000 cycles: 265347367 heartbeat IPC: 0.426666 cumulative IPC: 0.428378 (Simulation time: 1 hr 1 min 19 sec) 
Heartbeat CPU 0 instructions: 390000001 cycles: 267601901 heartbeat IPC: 0.958487 cumulative IPC: 0.931601 (Simulation time: 1 hr 1 min 39 sec) 
Heartbeat CPU 3 instructions: 530000000 cycles: 270161441 heartbeat IPC: 1.48394 cumulative IPC: 1.45595 (Simulation time: 1 hr 2 min 4 sec) 
Heartbeat CPU 3 instructions: 540000000 cycles: 276953827 heartbeat IPC: 1.47224 cumulative IPC: 1.4567 (Simulation time: 1 hr 3 min 10 sec) 
Heartbeat CPU 0 instructions: 400000000 cycles: 277084563 heartbeat IPC: 1.05456 cumulative IPC: 0.939556 (Simulation time: 1 hr 3 min 11 sec) 
Heartbeat CPU 3 instructions: 550000003 cycles: 283542799 heartbeat IPC: 1.51769 cumulative IPC: 1.45933 (Simulation time: 1 hr 4 min 13 sec) 
Heartbeat CPU 0 instructions: 410000002 cycles: 286688650 heartbeat IPC: 1.04122 cumulative IPC: 0.945808 (Simulation time: 1 hr 4 min 42 sec) 
Heartbeat CPU 2 instructions: 270000000 cycles: 288674264 heartbeat IPC: 0.42869 cumulative IPC: 0.428424 (Simulation time: 1 hr 5 min 0 sec) 
Heartbeat CPU 3 instructions: 560000000 cycles: 290195002 heartbeat IPC: 1.50326 cumulative IPC: 1.46116 (Simulation time: 1 hr 5 min 15 sec) 
Heartbeat CPU 1 instructions: 250000002 cycles: 293155876 heartbeat IPC: 0.313659 cumulative IPC: 0.307423 (Simulation time: 1 hr 5 min 41 sec) 
Heartbeat CPU 0 instructions: 420000000 cycles: 295409876 heartbeat IPC: 1.14663 cumulative IPC: 0.956429 (Simulation time: 1 hr 5 min 57 sec) 
Heartbeat CPU 3 instructions: 570000001 cycles: 299057213 heartbeat IPC: 1.12839 cumulative IPC: 1.44366 (Simulation time: 1 hr 6 min 30 sec) 
Heartbeat CPU 3 instructions: 580000000 cycles: 304021692 heartbeat IPC: 2.01431 cumulative IPC: 1.45999 (Simulation time: 1 hr 7 min 21 sec) 
Heartbeat CPU 0 instructions: 430000001 cycles: 308448932 heartbeat IPC: 0.766927 cumulative IPC: 0.942543 (Simulation time: 1 hr 8 min 1 sec) 
Heartbeat CPU 3 instructions: 590000002 cycles: 311336612 heartbeat IPC: 1.36707 cumulative IPC: 1.45623 (Simulation time: 1 hr 8 min 27 sec) 
Heartbeat CPU 2 instructions: 280000000 cycles: 311872481 heartbeat IPC: 0.431068 cumulative IPC: 0.428762 (Simulation time: 1 hr 8 min 32 sec) 
Heartbeat CPU 3 instructions: 600000000 cycles: 318873489 heartbeat IPC: 1.32681 cumulative IPC: 1.45105 (Simulation time: 1 hr 9 min 32 sec) 
Heartbeat CPU 0 instructions: 440000000 cycles: 320802530 heartbeat IPC: 0.809481 cumulative IPC: 0.933904 (Simulation time: 1 hr 9 min 49 sec) 
Heartbeat CPU 3 instructions: 610000001 cycles: 326552943 heartbeat IPC: 1.30218 cumulative IPC: 1.44522 (Simulation time: 1 hr 10 min 42 sec) 
Heartbeat CPU 1 instructions: 260000000 cycles: 326712187 heartbeat IPC: 0.298006 cumulative IPC: 0.305813 (Simulation time: 1 hr 10 min 43 sec) 
Heartbeat CPU 0 instructions: 450000001 cycles: 330925290 heartbeat IPC: 0.987873 cumulative IPC: 0.93663 (Simulation time: 1 hr 11 min 23 sec) 
Heartbeat CPU 3 instructions: 620000000 cycles: 334057398 heartbeat IPC: 1.33254 cumulative IPC: 1.44106 (Simulation time: 1 hr 11 min 53 sec) 
Heartbeat CPU 2 instructions: 290000002 cycles: 335237775 heartbeat IPC: 0.427985 cumulative IPC: 0.428674 (Simulation time: 1 hr 12 min 3 sec) 
Heartbeat CPU 0 instructions: 460000000 cycles: 341449648 heartbeat IPC: 0.950177 cumulative IPC: 0.937306 (Simulation time: 1 hr 13 min 0 sec) 
Heartbeat CPU 3 instructions: 630000001 cycles: 341629716 heartbeat IPC: 1.3206 cumulative IPC: 1.43674 (Simulation time: 1 hr 13 min 2 sec) 
Heartbeat CPU 3 instructions: 640000000 cycles: 349113767 heartbeat IPC: 1.33617 cumulative IPC: 1.4333 (Simulation time: 1 hr 14 min 12 sec) 
Heartbeat CPU 0 instructions: 470000000 cycles: 352007736 heartbeat IPC: 0.947141 cumulative IPC: 0.937775 (Simulation time: 1 hr 14 min 38 sec) 
Heartbeat CPU 3 instructions: 650000000 cycles: 356652400 heartbeat IPC: 1.3265 cumulative IPC: 1.42974 (Simulation time: 1 hr 15 min 22 sec) 
Heartbeat CPU 2 instructions: 300000000 cycles: 358567899 heartbeat IPC: 0.42863 cumulative IPC: 0.428669 (Simulation time: 1 hr 15 min 40 sec) 
Heartbeat CPU 1 instructions: 270000003 cycles: 358816187 heartbeat IPC: 0.311488 cumulative IPC: 0.306611 (Simulation time: 1 hr 15 min 43 sec) 
Heartbeat CPU 0 instructions: 480000000 cycles: 361411134 heartbeat IPC: 1.06345 cumulative IPC: 0.942893 (Simulation time: 1 hr 16 min 8 sec) 
Heartbeat CPU 3 instructions: 660000000 cycles: 364095127 heartbeat IPC: 1.34359 cumulative IPC: 1.427 (Simulation time: 1 hr 16 min 33 sec) 
Heartbeat CPU 0 instructions: 490000003 cycles: 371208556 heartbeat IPC: 1.02068 cumulative IPC: 0.946059 (Simulation time: 1 hr 17 min 32 sec) 
Heartbeat CPU 3 instructions: 670000002 cycles: 372748788 heartbeat IPC: 1.15558 cumulative IPC: 1.4173 (Simulation time: 1 hr 17 min 49 sec) 
Heartbeat CPU 3 instructions: 680000000 cycles: 378158897 heartbeat IPC: 1.84839 cumulative IPC: 1.42672 (Simulation time: 1 hr 18 min 44 sec) 
Heartbeat CPU 0 instructions: 500000000 cycles: 379818286 heartbeat IPC: 1.16148 cumulative IPC: 0.953499 (Simulation time: 1 hr 18 min 58 sec) 
Heartbeat CPU 2 instructions: 310000002 cycles: 381776134 heartbeat IPC: 0.430882 cumulative IPC: 0.428874 (Simulation time: 1 hr 19 min 16 sec) 
Heartbeat CPU 3 instructions: 690000000 cycles: 385551775 heartbeat IPC: 1.35265 cumulative IPC: 1.42457 (Simulation time: 1 hr 19 min 49 sec) 
Heartbeat CPU 1 instructions: 280000000 cycles: 391662620 heartbeat IPC: 0.304447 cumulative IPC: 0.306339 (Simulation time: 1 hr 20 min 44 sec) 
Heartbeat CPU 0 instructions: 510000002 cycles: 392759401 heartbeat IPC: 0.772731 cumulative IPC: 0.944578 (Simulation time: 1 hr 20 min 55 sec) 
Heartbeat CPU 3 instructions: 700000000 cycles: 393151321 heartbeat IPC: 1.31587 cumulative IPC: 1.42142 (Simulation time: 1 hr 20 min 58 sec) 
Heartbeat CPU 3 instructions: 710000000 cycles: 400641835 heartbeat IPC: 1.33502 cumulative IPC: 1.41903 (Simulation time: 1 hr 22 min 4 sec) 
Heartbeat CPU 2 instructions: 320000000 cycles: 404986156 heartbeat IPC: 0.430848 cumulative IPC: 0.429041 (Simulation time: 1 hr 22 min 42 sec) 
Heartbeat CPU 0 instructions: 520000000 cycles: 405358567 heartbeat IPC: 0.793703 cumulative IPC: 0.937662 (Simulation time: 1 hr 22 min 45 sec) 
Heartbeat CPU 3 instructions: 720000000 cycles: 408274871 heartbeat IPC: 1.31009 cumulative IPC: 1.41604 (Simulation time: 1 hr 23 min 11 sec) 
Heartbeat CPU 0 instructions: 530000000 cycles: 415481153 heartbeat IPC: 0.98789 cumulative IPC: 0.939446 (Simulation time: 1 hr 24 min 20 sec) 
Heartbeat CPU 3 instructions: 730000000 cycles: 415845064 heartbeat IPC: 1.32097 cumulative IPC: 1.41351 (Simulation time: 1 hr 24 min 24 sec) 
Heartbeat CPU 3 instructions: 740000000 cycles: 423332589 heartbeat IPC: 1.33555 cumulative IPC: 1.41152 (Simulation time: 1 hr 25 min 32 sec) 
Heartbeat CPU 1 instructions: 290000000 cycles: 423761609 heartbeat IPC: 0.311536 cumulative IPC: 0.306908 (Simulation time: 1 hr 25 min 36 sec) 
Heartbeat CPU 0 instructions: 540000000 cycles: 425902278 heartbeat IPC: 0.959589 cumulative IPC: 0.940157 (Simulation time: 1 hr 25 min 57 sec) 
Heartbeat CPU 2 instructions: 330000001 cycles: 428164138 heartbeat IPC: 0.431444 cumulative IPC: 0.429228 (Simulation time: 1 hr 26 min 19 sec) 
Heartbeat CPU 3 instructions: 750000003 cycles: 430864694 heartbeat IPC: 1.32765 cumulative IPC: 1.40942 (Simulation time: 1 hr 26 min 45 sec) 
Heartbeat CPU 0 instructions: 550000003 cycles: 436346640 heartbeat IPC: 0.957455 cumulative IPC: 0.940747 (Simulation time: 1 hr 27 min 34 sec) 
Heartbeat CPU 3 instructions: 760000000 cycles: 441356012 heartbeat IPC: 0.953169 cumulative IPC: 1.39402 (Simulation time: 1 hr 28 min 12 sec) 
Heartbeat CPU 0 instructions: 560000000 cycles: 446110989 heartbeat IPC: 1.02413 cumulative IPC: 0.943327 (Simulation time: 1 hr 29 min 5 sec) 
Heartbeat CPU 3 instructions: 770000003 cycles: 446240245 heartbeat IPC: 2.04741 cumulative IPC: 1.40413 (Simulation time: 1 hr 29 min 6 sec) 
Heartbeat CPU 2 instructions: 340000000 cycles: 451264641 heartbeat IPC: 0.432891 cumulative IPC: 0.429492 (Simulation time: 1 hr 29 min 55 sec) 
Heartbeat CPU 3 instructions: 780000000 cycles: 452683481 heartbeat IPC: 1.55201 cumulative IPC: 1.40708 (Simulation time: 1 hr 30 min 8 sec) 
Heartbeat CPU 0 instructions: 570000000 cycles: 455860582 heartbeat IPC: 1.02568 cumulative IPC: 0.945795 (Simulation time: 1 hr 30 min 36 sec) 
Heartbeat CPU 1 instructions: 300000000 cycles: 456698853 heartbeat IPC: 0.303608 cumulative IPC: 0.306574 (Simulation time: 1 hr 30 min 44 sec) 
Heartbeat CPU 3 instructions: 790000003 cycles: 460275010 heartbeat IPC: 1.31726 cumulative IPC: 1.40502 (Simulation time: 1 hr 31 min 16 sec) 
Heartbeat CPU 0 instructions: 580000000 cycles: 464208369 heartbeat IPC: 1.19792 cumulative IPC: 0.952103 (Simulation time: 1 hr 31 min 51 sec) 
Heartbeat CPU 3 instructions: 800000000 cycles: 467818776 heartbeat IPC: 1.3256 cumulative IPC: 1.40324 (Simulation time: 1 hr 32 min 22 sec) 
Heartbeat CPU 2 instructions: 350000000 cycles: 474756069 heartbeat IPC: 0.425687 cumulative IPC: 0.429232 (Simulation time: 1 hr 33 min 24 sec) 
Heartbeat CPU 3 instructions: 810000003 cycles: 475387317 heartbeat IPC: 1.32126 cumulative IPC: 1.40144 (Simulation time: 1 hr 33 min 29 sec) 
Heartbeat CPU 0 instructions: 590000003 cycles: 476774116 heartbeat IPC: 0.795814 cumulative IPC: 0.946431 (Simulation time: 1 hr 33 min 42 sec) 
Heartbeat CPU 3 instructions: 820000000 cycles: 482940169 heartbeat IPC: 1.324 cumulative IPC: 1.39978 (Simulation time: 1 hr 34 min 37 sec) 
Heartbeat CPU 1 instructions: 310000001 cycles: 486895614 heartbeat IPC: 0.331161 cumulative IPC: 0.308658 (Simulation time: 1 hr 35 min 11 sec) 
Heartbeat CPU 0 instructions: 600000000 cycles: 488827425 heartbeat IPC: 0.829647 cumulative IPC: 0.942502 (Simulation time: 1 hr 35 min 27 sec) 
Heartbeat CPU 3 instructions: 830000003 cycles: 490511112 heartbeat IPC: 1.32084 cumulative IPC: 1.39812 (Simulation time: 1 hr 35 min 42 sec) 
Heartbeat CPU 3 instructions: 840000000 cycles: 498104682 heartbeat IPC: 1.3169 cumulative IPC: 1.39644 (Simulation time: 1 hr 36 min 52 sec) 
Heartbeat CPU 2 instructions: 360000000 cycles: 498172825 heartbeat IPC: 0.427045 cumulative IPC: 0.429093 (Simulation time: 1 hr 36 min 52 sec) 
Heartbeat CPU 0 instructions: 610000003 cycles: 498897151 heartbeat IPC: 0.993076 cumulative IPC: 0.943885 (Simulation time: 1 hr 36 min 59 sec) 
Heartbeat CPU 3 instructions: 850000001 cycles: 505678407 heartbeat IPC: 1.32035 cumulative IPC: 1.39491 (Simulation time: 1 hr 38 min 0 sec) 
Heartbeat CPU 0 instructions: 620000000 cycles: 509082868 heartbeat IPC: 0.981767 cumulative IPC: 0.944904 (Simulation time: 1 hr 38 min 32 sec) 
Heartbeat CPU 3 instructions: 860000000 cycles: 513245506 heartbeat IPC: 1.32151 cumulative IPC: 1.39346 (Simulation time: 1 hr 39 min 11 sec) 
Heartbeat CPU 1 instructions: 320000000 cycles: 518269684 heartbeat IPC: 0.318735 cumulative IPC: 0.309473 (Simulation time: 1 hr 39 min 56 sec) 
Heartbeat CPU 0 instructions: 630000001 cycles: 519144605 heartbeat IPC: 0.993864 cumulative IPC: 0.946172 (Simulation time: 1 hr 40 min 4 sec) 
Heartbeat CPU 3 instructions: 870000001 cycles: 520843235 heartbeat IPC: 1.31618 cumulative IPC: 1.39195 (Simulation time: 1 hr 40 min 19 sec) 
Heartbeat CPU 2 instructions: 370000001 cycles: 521521826 heartbeat IPC: 0.428284 cumulative IPC: 0.429044 (Simulation time: 1 hr 40 min 25 sec) 
Heartbeat CPU 3 instructions: 880000000 cycles: 528463376 heartbeat IPC: 1.31231 cumulative IPC: 1.39043 (Simulation time: 1 hr 41 min 31 sec) 
Heartbeat CPU 0 instructions: 640000000 cycles: 528653861 heartbeat IPC: 1.05161 cumulative IPC: 0.94869 (Simulation time: 1 hr 41 min 32 sec) 
Heartbeat CPU 3 instructions: 890000000 cycles: 536066868 heartbeat IPC: 1.31519 cumulative IPC: 1.38902 (Simulation time: 1 hr 42 min 40 sec) 
Heartbeat CPU 0 instructions: 650000001 cycles: 538215747 heartbeat IPC: 1.04582 cumulative IPC: 0.950968 (Simulation time: 1 hr 42 min 59 sec) 
Heartbeat CPU 3 instructions: 900000000 cycles: 543657877 heartbeat IPC: 1.31735 cumulative IPC: 1.3877 (Simulation time: 1 hr 43 min 47 sec) 
Heartbeat CPU 2 instructions: 380000000 cycles: 544789437 heartbeat IPC: 0.429782 cumulative IPC: 0.429086 (Simulation time: 1 hr 43 min 57 sec) 
Heartbeat CPU 0 instructions: 660000000 cycles: 546514356 heartbeat IPC: 1.20502 cumulative IPC: 0.956036 (Simulation time: 1 hr 44 min 13 sec) 
Heartbeat CPU 1 instructions: 330000002 cycles: 548696644 heartbeat IPC: 0.328656 cumulative IPC: 0.310869 (Simulation time: 1 hr 44 min 32 sec) 
Heartbeat CPU 3 instructions: 910000000 cycles: 551204003 heartbeat IPC: 1.32518 cumulative IPC: 1.38658 (Simulation time: 1 hr 44 min 53 sec) 
Heartbeat CPU 3 instructions: 920000000 cycles: 558753984 heartbeat IPC: 1.32451 cumulative IPC: 1.38548 (Simulation time: 1 hr 46 min 0 sec) 
Heartbeat CPU 0 instructions: 670000001 cycles: 559043935 heartbeat IPC: 0.798111 cumulative IPC: 0.951418 (Simulation time: 1 hr 46 min 2 sec) 
Heartbeat CPU 3 instructions: 930000002 cycles: 566313275 heartbeat IPC: 1.32288 cumulative IPC: 1.3844 (Simulation time: 1 hr 47 min 6 sec) 
Heartbeat CPU 2 instructions: 390000002 cycles: 568002893 heartbeat IPC: 0.430785 cumulative IPC: 0.429176 (Simulation time: 1 hr 47 min 21 sec) 
Heartbeat CPU 0 instructions: 680000000 cycles: 571043251 heartbeat IPC: 0.833381 cumulative IPC: 0.948203 (Simulation time: 1 hr 47 min 47 sec) 
Heartbeat CPU 3 instructions: 940000000 cycles: 573932007 heartbeat IPC: 1.31255 cumulative IPC: 1.38316 (Simulation time: 1 hr 48 min 12 sec) 
Heartbeat CPU 1 instructions: 340000000 cycles: 579871543 heartbeat IPC: 0.320771 cumulative IPC: 0.311556 (Simulation time: 1 hr 49 min 7 sec) 
Heartbeat CPU 0 instructions: 690000003 cycles: 581110385 heartbeat IPC: 0.993332 cumulative IPC: 0.949212 (Simulation time: 1 hr 49 min 19 sec) 
Heartbeat CPU 3 instructions: 950000002 cycles: 581530295 heartbeat IPC: 1.31609 cumulative IPC: 1.38203 (Simulation time: 1 hr 49 min 23 sec) 
Heartbeat CPU 3 instructions: 960000000 cycles: 589115283 heartbeat IPC: 1.31839 cumulative IPC: 1.38098 (Simulation time: 1 hr 50 min 30 sec) 
Heartbeat CPU 2 instructions: 400000000 cycles: 591077786 heartbeat IPC: 0.433371 cumulative IPC: 0.429386 (Simulation time: 1 hr 50 min 48 sec) 
Heartbeat CPU 0 instructions: 700000000 cycles: 591314182 heartbeat IPC: 0.980027 cumulative IPC: 0.949894 (Simulation time: 1 hr 50 min 51 sec) 
Heartbeat CPU 3 instructions: 970000001 cycles: 596715726 heartbeat IPC: 1.31571 cumulative IPC: 1.37992 (Simulation time: 1 hr 51 min 41 sec) 
Heartbeat CPU 0 instructions: 710000002 cycles: 601430120 heartbeat IPC: 0.988539 cumulative IPC: 0.950724 (Simulation time: 1 hr 52 min 23 sec) 
Heartbeat CPU 3 instructions: 980000000 cycles: 604347548 heartbeat IPC: 1.3103 cumulative IPC: 1.37879 (Simulation time: 1 hr 52 min 49 sec) 
Heartbeat CPU 1 instructions: 350000001 cycles: 610500464 heartbeat IPC: 0.326489 cumulative IPC: 0.312509 (Simulation time: 1 hr 53 min 46 sec) 
Heartbeat CPU 0 instructions: 720000000 cycles: 610880871 heartbeat IPC: 1.05812 cumulative IPC: 0.952837 (Simulation time: 1 hr 53 min 50 sec) 
Heartbeat CPU 3 instructions: 990000002 cycles: 611937751 heartbeat IPC: 1.31749 cumulative IPC: 1.37783 (Simulation time: 1 hr 54 min 0 sec) 
Heartbeat CPU 2 instructions: 410000002 cycles: 614304673 heartbeat IPC: 0.430536 cumulative IPC: 0.429441 (Simulation time: 1 hr 54 min 22 sec) 
Heartbeat CPU 3 instructions: 1000000000 cycles: 619539328 heartbeat IPC: 1.31552 cumulative IPC: 1.37686 (Simulation time: 1 hr 55 min 9 sec) 
Heartbeat CPU 0 instructions: 730000003 cycles: 620518794 heartbeat IPC: 1.03757 cumulative IPC: 0.954503 (Simulation time: 1 hr 55 min 18 sec) 
Heartbeat CPU 3 instructions: 1010000000 cycles: 627142553 heartbeat IPC: 1.31523 cumulative IPC: 1.37592 (Simulation time: 1 hr 56 min 20 sec) 
Heartbeat CPU 0 instructions: 740000000 cycles: 628927091 heartbeat IPC: 1.1893 cumulative IPC: 0.958465 (Simulation time: 1 hr 56 min 37 sec) 
Heartbeat CPU 3 instructions: 1020000000 cycles: 634685940 heartbeat IPC: 1.32566 cumulative IPC: 1.37516 (Simulation time: 1 hr 57 min 31 sec) 
Heartbeat CPU 2 instructions: 420000000 cycles: 637398566 heartbeat IPC: 0.433015 cumulative IPC: 0.429604 (Simulation time: 1 hr 57 min 57 sec) 
Heartbeat CPU 1 instructions: 360000000 cycles: 640698960 heartbeat IPC: 0.331142 cumulative IPC: 0.313612 (Simulation time: 1 hr 58 min 28 sec) 
Heartbeat CPU 0 instructions: 750000000 cycles: 641286229 heartbeat IPC: 0.809118 cumulative IPC: 0.954851 (Simulation time: 1 hr 58 min 34 sec) 
Heartbeat CPU 3 instructions: 1030000001 cycles: 642196338 heartbeat IPC: 1.33149 cumulative IPC: 1.37452 (Simulation time: 1 hr 58 min 43 sec) 
Heartbeat CPU 3 instructions: 1040000000 cycles: 649709256 heartbeat IPC: 1.33104 cumulative IPC: 1.37389 (Simulation time: 1 hr 59 min 56 sec) 
Heartbeat CPU 0 instructions: 760000000 cycles: 653434246 heartbeat IPC: 0.82318 cumulative IPC: 0.951792 (Simulation time: 2 hr 0 min 31 sec) 
Heartbeat CPU 3 instructions: 1050000003 cycles: 657215078 heartbeat IPC: 1.3323 cumulative IPC: 1.3733 (Simulation time: 2 hr 1 min 12 sec) 
Heartbeat CPU 2 instructions: 430000000 cycles: 660514948 heartbeat IPC: 0.432594 cumulative IPC: 0.429735 (Simulation time: 2 hr 1 min 49 sec) 
Heartbeat CPU 0 instructions: 770000002 cycles: 663489092 heartbeat IPC: 0.994546 cumulative IPC: 0.952599 (Simulation time: 2 hr 2 min 24 sec) 
Heartbeat CPU 3 instructions: 1060000000 cycles: 664908336 heartbeat IPC: 1.29984 cumulative IPC: 1.37224 (Simulation time: 2 hr 2 min 39 sec) 
Heartbeat CPU 1 instructions: 370000001 cycles: 671530284 heartbeat IPC: 0.324345 cumulative IPC: 0.314223 (Simulation time: 2 hr 3 min 46 sec) 
Heartbeat CPU 3 instructions: 1070000002 cycles: 672603379 heartbeat IPC: 1.29954 cumulative IPC: 1.37121 (Simulation time: 2 hr 3 min 57 sec) 
Heartbeat CPU 0 instructions: 780000000 cycles: 673675302 heartbeat IPC: 0.981719 cumulative IPC: 0.953145 (Simulation time: 2 hr 4 min 9 sec) 
Heartbeat CPU 3 instructions: 1080000000 cycles: 680282390 heartbeat IPC: 1.30225 cumulative IPC: 1.37025 (Simulation time: 2 hr 5 min 21 sec) 
Heartbeat CPU 2 instructions: 440000000 cycles: 683429153 heartbeat IPC: 0.436411 cumulative IPC: 0.430011 (Simulation time: 2 hr 5 min 56 sec) 
Heartbeat CPU 0 instructions: 790000002 cycles: 683917036 heartbeat IPC: 0.976397 cumulative IPC: 0.953575 (Simulation time: 2 hr 6 min 1 sec) 
Heartbeat CPU 3 instructions: 1090000001 cycles: 687985382 heartbeat IPC: 1.2982 cumulative IPC: 1.36925 (Simulation time: 2 hr 6 min 45 sec) 
Heartbeat CPU 0 instructions: 800000000 cycles: 693311186 heartbeat IPC: 1.06449 cumulative IPC: 0.955426 (Simulation time: 2 hr 7 min 45 sec) 
Heartbeat CPU 3 instructions: 1100000000 cycles: 695700751 heartbeat IPC: 1.29611 cumulative IPC: 1.36825 (Simulation time: 2 hr 8 min 12 sec) 
Heartbeat CPU 1 instructions: 380000000 cycles: 702264389 heartbeat IPC: 0.325371 cumulative IPC: 0.314822 (Simulation time: 2 hr 9 min 22 sec) 
Heartbeat CPU 0 instructions: 810000000 cycles: 702958088 heartbeat IPC: 1.0366 cumulative IPC: 0.956794 (Simulation time: 2 hr 9 min 29 sec) 
Heartbeat CPU 3 instructions: 1110000002 cycles: 703333436 heartbeat IPC: 1.31016 cumulative IPC: 1.36748 (Simulation time: 2 hr 9 min 33 sec) 
Heartbeat CPU 2 instructions: 450000002 cycles: 707382612 heartbeat IPC: 0.417476 cumulative IPC: 0.429491 (Simulation time: 2 hr 10 min 16 sec) 
Heartbeat CPU 3 instructions: 1120000000 cycles: 710885770 heartbeat IPC: 1.32409 cumulative IPC: 1.36692 (Simulation time: 2 hr 10 min 54 sec) 
Heartbeat CPU 0 instructions: 820000000 cycles: 711339553 heartbeat IPC: 1.19311 cumulative IPC: 0.960204 (Simulation time: 2 hr 10 min 59 sec) 
Heartbeat CPU 3 instructions: 1130000003 cycles: 718414558 heartbeat IPC: 1.32824 cumulative IPC: 1.36642 (Simulation time: 2 hr 12 min 7 sec) 
Heartbeat CPU 0 instructions: 830000000 cycles: 723650724 heartbeat IPC: 0.81227 cumulative IPC: 0.957134 (Simulation time: 2 hr 12 min 59 sec) 
Heartbeat CPU 3 instructions: 1140000000 cycles: 725960589 heartbeat IPC: 1.3252 cumulative IPC: 1.3659 (Simulation time: 2 hr 13 min 23 sec) 
Heartbeat CPU 2 instructions: 460000000 cycles: 730519866 heartbeat IPC: 0.432203 cumulative IPC: 0.429595 (Simulation time: 2 hr 14 min 9 sec) 
Heartbeat CPU 1 instructions: 390000003 cycles: 732804979 heartbeat IPC: 0.327433 cumulative IPC: 0.315462 (Simulation time: 2 hr 14 min 33 sec) 
Heartbeat CPU 3 instructions: 1150000000 cycles: 733516081 heartbeat IPC: 1.32354 cumulative IPC: 1.36537 (Simulation time: 2 hr 14 min 42 sec) 
Heartbeat CPU 0 instructions: 840000000 cycles: 735983480 heartbeat IPC: 0.810849 cumulative IPC: 0.954154 (Simulation time: 2 hr 15 min 6 sec) 
Heartbeat CPU 3 instructions: 1160000000 cycles: 741111107 heartbeat IPC: 1.31665 cumulative IPC: 1.36476 (Simulation time: 2 hr 15 min 52 sec) 
Heartbeat CPU 0 instructions: 850000001 cycles: 746174451 heartbeat IPC: 0.981261 cumulative IPC: 0.954603 (Simulation time: 2 hr 16 min 41 sec) 
Heartbeat CPU 3 instructions: 1170000002 cycles: 748696465 heartbeat IPC: 1.31833 cumulative IPC: 1.36419 (Simulation time: 2 hr 17 min 5 sec) 
Heartbeat CPU 2 instructions: 470000002 cycles: 753500528 heartbeat IPC: 0.435149 cumulative IPC: 0.4298 (Simulation time: 2 hr 17 min 48 sec) 
Heartbeat CPU 0 instructions: 860000000 cycles: 756262729 heartbeat IPC: 0.991249 cumulative IPC: 0.955194 (Simulation time: 2 hr 18 min 13 sec) 
Heartbeat CPU 3 instructions: 1180000000 cycles: 756273567 heartbeat IPC: 1.31977 cumulative IPC: 1.36365 (Simulation time: 2 hr 18 min 14 sec) 
Heartbeat CPU 1 instructions: 400000000 cycles: 763666382 heartbeat IPC: 0.324029 cumulative IPC: 0.31588 (Simulation time: 2 hr 19 min 25 sec) 
Heartbeat CPU 3 instructions: 1190000003 cycles: 763845411 heartbeat IPC: 1.32068 cumulative IPC: 1.36314 (Simulation time: 2 hr 19 min 26 sec) 
Heartbeat CPU 0 instructions: 870000003 cycles: 766284186 heartbeat IPC: 0.997859 cumulative IPC: 0.955866 (Simulation time: 2 hr 19 min 47 sec) 
Heartbeat CPU 3 instructions: 1200000000 cycles: 771427180 heartbeat IPC: 1.31895 cumulative IPC: 1.36262 (Simulation time: 2 hr 20 min 37 sec) 
Heartbeat CPU 0 instructions: 880000000 cycles: 775732908 heartbeat IPC: 1.05834 cumulative IPC: 0.957367 (Simulation time: 2 hr 21 min 21 sec) 
Heartbeat CPU 2 instructions: 480000000 cycles: 776544254 heartbeat IPC: 0.433958 cumulative IPC: 0.429948 (Simulation time: 2 hr 21 min 29 sec) 
Heartbeat CPU 3 instructions: 1210000003 cycles: 778985115 heartbeat IPC: 1.32311 cumulative IPC: 1.36216 (Simulation time: 2 hr 21 min 53 sec) 
Heartbeat CPU 0 instructions: 890000002 cycles: 785395364 heartbeat IPC: 1.03493 cumulative IPC: 0.958511 (Simulation time: 2 hr 22 min 56 sec) 
Heartbeat CPU 3 instructions: 1220000000 cycles: 786517095 heartbeat IPC: 1.32767 cumulative IPC: 1.36176 (Simulation time: 2 hr 23 min 6 sec) 
Heartbeat CPU 0 instructions: 900000000 cycles: 793772969 heartbeat IPC: 1.19366 cumulative IPC: 0.961482 (Simulation time: 2 hr 24 min 16 sec) 
Heartbeat CPU 3 instructions: 1230000001 cycles: 794030512 heartbeat IPC: 1.33095 cumulative IPC: 1.36141 (Simulation time: 2 hr 24 min 19 sec) 
Heartbeat CPU 1 instructions: 410000003 cycles: 794088953 heartbeat IPC: 0.328703 cumulative IPC: 0.316467 (Simulation time: 2 hr 24 min 19 sec) 
Heartbeat CPU 2 instructions: 490000000 cycles: 799605754 heartbeat IPC: 0.433623 cumulative IPC: 0.430075 (Simulation time: 2 hr 25 min 11 sec) 
Heartbeat CPU 3 instructions: 1240000000 cycles: 801588242 heartbeat IPC: 1.32315 cumulative IPC: 1.36098 (Simulation time: 2 hr 25 min 30 sec) 
Heartbeat CPU 0 instructions: 910000001 cycles: 805868067 heartbeat IPC: 0.826781 cumulative IPC: 0.959069 (Simulation time: 2 hr 26 min 11 sec) 
Heartbeat CPU 3 instructions: 1250000002 cycles: 809158768 heartbeat IPC: 1.32091 cumulative IPC: 1.36053 (Simulation time: 2 hr 26 min 43 sec) 
Heartbeat CPU 3 instructions: 1260000000 cycles: 816738450 heartbeat IPC: 1.31932 cumulative IPC: 1.36008 (Simulation time: 2 hr 27 min 54 sec) 
Heartbeat CPU 0 instructions: 920000000 cycles: 818002387 heartbeat IPC: 0.824109 cumulative IPC: 0.956687 (Simulation time: 2 hr 28 min 5 sec) 
Heartbeat CPU 2 instructions: 500000000 cycles: 822620578 heartbeat IPC: 0.434503 cumulative IPC: 0.430222 (Simulation time: 2 hr 28 min 48 sec) 
Heartbeat CPU 3 instructions: 1270000002 cycles: 824333256 heartbeat IPC: 1.31669 cumulative IPC: 1.3596 (Simulation time: 2 hr 29 min 6 sec) 
Heartbeat CPU 1 instructions: 420000000 cycles: 825370645 heartbeat IPC: 0.319676 cumulative IPC: 0.316612 (Simulation time: 2 hr 29 min 16 sec) 
Heartbeat CPU 0 instructions: 930000000 cycles: 828357262 heartbeat IPC: 0.965729 cumulative IPC: 0.956821 (Simulation time: 2 hr 29 min 46 sec) 
Heartbeat CPU 3 instructions: 1280000000 cycles: 831900081 heartbeat IPC: 1.32156 cumulative IPC: 1.35919 (Simulation time: 2 hr 30 min 22 sec) 
Heartbeat CPU 0 instructions: 940000000 cycles: 838593716 heartbeat IPC: 0.976901 cumulative IPC: 0.957112 (Simulation time: 2 hr 31 min 26 sec) 
Heartbeat CPU 3 instructions: 1290000002 cycles: 840179210 heartbeat IPC: 1.20786 cumulative IPC: 1.35743 (Simulation time: 2 hr 31 min 42 sec) 
Heartbeat CPU 2 instructions: 510000001 cycles: 845774147 heartbeat IPC: 0.431899 cumulative IPC: 0.430277 (Simulation time: 2 hr 32 min 39 sec) 
Heartbeat CPU 3 instructions: 1300000000 cycles: 847892855 heartbeat IPC: 1.2964 cumulative IPC: 1.35677 (Simulation time: 2 hr 32 min 59 sec) 
Heartbeat CPU 0 instructions: 950000003 cycles: 848575930 heartbeat IPC: 1.00178 cumulative IPC: 0.957733 (Simulation time: 2 hr 33 min 5 sec) 
Heartbeat CPU 3 instructions: 1310000000 cycles: 855638334 heartbeat IPC: 1.29108 cumulative IPC: 1.35607 (Simulation time: 2 hr 34 min 14 sec) 
Heartbeat CPU 1 instructions: 430000000 cycles: 856128997 heartbeat IPC: 0.325115 cumulative IPC: 0.316972 (Simulation time: 2 hr 34 min 19 sec) 
Heartbeat CPU 0 instructions: 960000000 cycles: 858257421 heartbeat IPC: 1.0329 cumulative IPC: 0.958732 (Simulation time: 2 hr 34 min 41 sec) 
Heartbeat CPU 3 instructions: 1320000000 cycles: 863365952 heartbeat IPC: 1.29406 cumulative IPC: 1.35542 (Simulation time: 2 hr 35 min 32 sec) 
Heartbeat CPU 0 instructions: 970000002 cycles: 867955357 heartbeat IPC: 1.03115 cumulative IPC: 0.959685 (Simulation time: 2 hr 36 min 16 sec) 
Finished CPU 3 instructions: 1000000001 cycles: 738028421 cumulative IPC: 1.35496 (Simulation time: 2 hr 36 min 22 sec) 
Heartbeat CPU 2 instructions: 520000000 cycles: 868976380 heartbeat IPC: 0.430993 cumulative IPC: 0.430299 (Simulation time: 2 hr 36 min 26 sec) 
Heartbeat CPU 3 instructions: 1330000001 cycles: 871116395 heartbeat IPC: 1.29025 cumulative IPC: 1.35473 (Simulation time: 2 hr 36 min 47 sec) 
Heartbeat CPU 0 instructions: 980000000 cycles: 876292361 heartbeat IPC: 1.19947 cumulative IPC: 0.962365 (Simulation time: 2 hr 37 min 36 sec) 
Heartbeat CPU 3 instructions: 1340000000 cycles: 878910258 heartbeat IPC: 1.28306 cumulative IPC: 1.35399 (Simulation time: 2 hr 38 min 1 sec) 
Heartbeat CPU 1 instructions: 440000000 cycles: 886496866 heartbeat IPC: 0.329295 cumulative IPC: 0.317467 (Simulation time: 2 hr 39 min 12 sec) 
Heartbeat CPU 3 instructions: 1350000001 cycles: 886682669 heartbeat IPC: 1.2866 cumulative IPC: 1.35329 (Simulation time: 2 hr 39 min 14 sec) 
Heartbeat CPU 0 instructions: 990000001 cycles: 888326253 heartbeat IPC: 0.830986 cumulative IPC: 0.960279 (Simulation time: 2 hr 39 min 30 sec) 
Heartbeat CPU 2 instructions: 530000000 cycles: 892190940 heartbeat IPC: 0.430764 cumulative IPC: 0.430313 (Simulation time: 2 hr 40 min 7 sec) 
Heartbeat CPU 3 instructions: 1360000000 cycles: 894463306 heartbeat IPC: 1.28524 cumulative IPC: 1.3526 (Simulation time: 2 hr 40 min 29 sec) 
Heartbeat CPU 0 instructions: 1000000000 cycles: 900393706 heartbeat IPC: 0.828675 cumulative IPC: 0.958216 (Simulation time: 2 hr 41 min 23 sec) 
Heartbeat CPU 3 instructions: 1370000003 cycles: 902252432 heartbeat IPC: 1.28384 cumulative IPC: 1.35191 (Simulation time: 2 hr 41 min 40 sec) 
Heartbeat CPU 3 instructions: 1380000000 cycles: 910162886 heartbeat IPC: 1.26415 cumulative IPC: 1.35102 (Simulation time: 2 hr 42 min 58 sec) 
Heartbeat CPU 0 instructions: 1010000003 cycles: 910670663 heartbeat IPC: 0.973051 cumulative IPC: 0.958412 (Simulation time: 2 hr 43 min 3 sec) 
Heartbeat CPU 2 instructions: 540000000 cycles: 915402509 heartbeat IPC: 0.43082 cumulative IPC: 0.430328 (Simulation time: 2 hr 43 min 54 sec) 
Heartbeat CPU 3 instructions: 1390000001 cycles: 917963444 heartbeat IPC: 1.28196 cumulative IPC: 1.35033 (Simulation time: 2 hr 44 min 19 sec) 
Heartbeat CPU 1 instructions: 450000003 cycles: 917968487 heartbeat IPC: 0.317747 cumulative IPC: 0.317479 (Simulation time: 2 hr 44 min 19 sec) 
Heartbeat CPU 0 instructions: 1020000000 cycles: 920812195 heartbeat IPC: 0.986044 cumulative IPC: 0.958766 (Simulation time: 2 hr 44 min 47 sec) 
Heartbeat CPU 3 instructions: 1400000000 cycles: 925720719 heartbeat IPC: 1.28911 cumulative IPC: 1.34974 (Simulation time: 2 hr 45 min 37 sec) 
Heartbeat CPU 0 instructions: 1030000003 cycles: 930788762 heartbeat IPC: 1.00235 cumulative IPC: 0.95931 (Simulation time: 2 hr 46 min 26 sec) 
Heartbeat CPU 3 instructions: 1410000002 cycles: 933427877 heartbeat IPC: 1.2975 cumulative IPC: 1.34923 (Simulation time: 2 hr 46 min 51 sec) 
Heartbeat CPU 2 instructions: 550000001 cycles: 938423129 heartbeat IPC: 0.434393 cumulative IPC: 0.430444 (Simulation time: 2 hr 47 min 42 sec) 
Heartbeat CPU 0 instructions: 1040000000 cycles: 940402125 heartbeat IPC: 1.04022 cumulative IPC: 0.96027 (Simulation time: 2 hr 48 min 2 sec) 
Heartbeat CPU 3 instructions: 1420000000 cycles: 941122284 heartbeat IPC: 1.29965 cumulative IPC: 1.34876 (Simulation time: 2 hr 48 min 9 sec) 
Heartbeat CPU 3 instructions: 1430000003 cycles: 948808003 heartbeat IPC: 1.30111 cumulative IPC: 1.34832 (Simulation time: 2 hr 49 min 25 sec) 
Heartbeat CPU 1 instructions: 460000000 cycles: 949260305 heartbeat IPC: 0.319572 cumulative IPC: 0.317559 (Simulation time: 2 hr 49 min 30 sec) 
Heartbeat CPU 0 instructions: 1050000000 cycles: 950164020 heartbeat IPC: 1.02439 cumulative IPC: 0.961034 (Simulation time: 2 hr 49 min 38 sec) 
Heartbeat CPU 3 instructions: 1440000000 cycles: 956487228 heartbeat IPC: 1.30221 cumulative IPC: 1.34789 (Simulation time: 2 hr 50 min 39 sec) 
Heartbeat CPU 0 instructions: 1060000000 cycles: 958534949 heartbeat IPC: 1.19461 cumulative IPC: 0.963395 (Simulation time: 2 hr 50 min 59 sec) 
Heartbeat CPU 2 instructions: 560000000 cycles: 961479988 heartbeat IPC: 0.43371 cumulative IPC: 0.430535 (Simulation time: 2 hr 51 min 27 sec) 
Heartbeat CPU 3 instructions: 1450000000 cycles: 964142223 heartbeat IPC: 1.30634 cumulative IPC: 1.34751 (Simulation time: 2 hr 51 min 52 sec) 
Heartbeat CPU 0 instructions: 1070000002 cycles: 970482372 heartbeat IPC: 0.837001 cumulative IPC: 0.961597 (Simulation time: 2 hr 52 min 52 sec) 
Heartbeat CPU 3 instructions: 1460000000 cycles: 971841734 heartbeat IPC: 1.29878 cumulative IPC: 1.34706 (Simulation time: 2 hr 53 min 5 sec) 
Heartbeat CPU 3 instructions: 1470000001 cycles: 979546484 heartbeat IPC: 1.2979 cumulative IPC: 1.34661 (Simulation time: 2 hr 54 min 16 sec) 
Heartbeat CPU 1 instructions: 470000003 cycles: 980814565 heartbeat IPC: 0.316915 cumulative IPC: 0.317535 (Simulation time: 2 hr 54 min 26 sec) 
Heartbeat CPU 0 instructions: 1080000000 cycles: 982715082 heartbeat IPC: 0.81748 cumulative IPC: 0.959529 (Simulation time: 2 hr 54 min 43 sec) 
Heartbeat CPU 2 instructions: 570000002 cycles: 984563370 heartbeat IPC: 0.433212 cumulative IPC: 0.430607 (Simulation time: 2 hr 54 min 59 sec) 
Heartbeat CPU 3 instructions: 1480000000 cycles: 987254527 heartbeat IPC: 1.29735 cumulative IPC: 1.34617 (Simulation time: 2 hr 55 min 23 sec) 
Heartbeat CPU 0 instructions: 1090000000 cycles: 993029124 heartbeat IPC: 0.969552 cumulative IPC: 0.959648 (Simulation time: 2 hr 56 min 18 sec) 
Heartbeat CPU 3 instructions: 1490000000 cycles: 994969844 heartbeat IPC: 1.29612 cumulative IPC: 1.34572 (Simulation time: 2 hr 56 min 36 sec) 
Heartbeat CPU 3 instructions: 1500000000 cycles: 1002892751 heartbeat IPC: 1.26216 cumulative IPC: 1.34497 (Simulation time: 2 hr 57 min 48 sec) 
Heartbeat CPU 0 instructions: 1100000000 cycles: 1003199227 heartbeat IPC: 0.983274 cumulative IPC: 0.959924 (Simulation time: 2 hr 57 min 51 sec) 
Heartbeat CPU 2 instructions: 580000000 cycles: 1007635192 heartbeat IPC: 0.433429 cumulative IPC: 0.430681 (Simulation time: 2 hr 58 min 31 sec) 
Heartbeat CPU 3 instructions: 1510000001 cycles: 1011099837 heartbeat IPC: 1.21846 cumulative IPC: 1.34379 (Simulation time: 2 hr 59 min 5 sec) 
Heartbeat CPU 1 instructions: 480000000 cycles: 1012404335 heartbeat IPC: 0.316558 cumulative IPC: 0.3175 (Simulation time: 2 hr 59 min 17 sec) 
Heartbeat CPU 0 instructions: 1110000000 cycles: 1013332054 heartbeat IPC: 0.986891 cumulative IPC: 0.960233 (Simulation time: 2 hr 59 min 26 sec) 
Heartbeat CPU 3 instructions: 1520000000 cycles: 1018341460 heartbeat IPC: 1.38091 cumulative IPC: 1.34409 (Simulation time: 3 hr 0 min 14 sec) 
Heartbeat CPU 0 instructions: 1120000000 cycles: 1023198967 heartbeat IPC: 1.01349 cumulative IPC: 0.960822 (Simulation time: 3 hr 1 min 5 sec) 
Heartbeat CPU 3 instructions: 1530000000 cycles: 1025274858 heartbeat IPC: 1.44229 cumulative IPC: 1.34485 (Simulation time: 3 hr 1 min 26 sec) 
Heartbeat CPU 2 instructions: 590000000 cycles: 1030776273 heartbeat IPC: 0.432132 cumulative IPC: 0.430719 (Simulation time: 3 hr 2 min 22 sec) 
Heartbeat CPU 3 instructions: 1540000000 cycles: 1032173566 heartbeat IPC: 1.44955 cumulative IPC: 1.34565 (Simulation time: 3 hr 2 min 36 sec) 
Heartbeat CPU 0 instructions: 1130000003 cycles: 1033007702 heartbeat IPC: 1.0195 cumulative IPC: 0.96146 (Simulation time: 3 hr 2 min 44 sec) 
Heartbeat CPU 3 instructions: 1550000003 cycles: 1039121313 heartbeat IPC: 1.43932 cumulative IPC: 1.34637 (Simulation time: 3 hr 3 min 44 sec) 
Heartbeat CPU 0 instructions: 1140000000 cycles: 1041489706 heartbeat IPC: 1.17897 cumulative IPC: 0.963485 (Simulation time: 3 hr 4 min 7 sec) 
Heartbeat CPU 1 instructions: 490000001 cycles: 1043720546 heartbeat IPC: 0.319323 cumulative IPC: 0.317562 (Simulation time: 3 hr 4 min 27 sec) 
Heartbeat CPU 3 instructions: 1560000000 cycles: 1046049429 heartbeat IPC: 1.44339 cumulative IPC: 1.3471 (Simulation time: 3 hr 4 min 47 sec) 
Heartbeat CPU 3 instructions: 1570000000 cycles: 1053062386 heartbeat IPC: 1.42593 cumulative IPC: 1.3477 (Simulation time: 3 hr 5 min 50 sec) 
Heartbeat CPU 0 instructions: 1150000000 cycles: 1053455548 heartbeat IPC: 0.835712 cumulative IPC: 0.961828 (Simulation time: 3 hr 5 min 54 sec) 
Heartbeat CPU 2 instructions: 600000000 cycles: 1053750523 heartbeat IPC: 0.43527 cumulative IPC: 0.430832 (Simulation time: 3 hr 5 min 56 sec) 
Heartbeat CPU 3 instructions: 1580000000 cycles: 1060046277 heartbeat IPC: 1.43187 cumulative IPC: 1.34833 (Simulation time: 3 hr 6 min 55 sec) 
Heartbeat CPU 0 instructions: 1160000000 cycles: 1066054089 heartbeat IPC: 0.793743 cumulative IPC: 0.959565 (Simulation time: 3 hr 7 min 47 sec) 
Heartbeat CPU 3 instructions: 1590000002 cycles: 1067061051 heartbeat IPC: 1.42556 cumulative IPC: 1.34891 (Simulation time: 3 hr 7 min 56 sec) 
Heartbeat CPU 3 instructions: 1600000000 cycles: 1074072216 heartbeat IPC: 1.4263 cumulative IPC: 1.34949 (Simulation time: 3 hr 9 min 0 sec) 
Heartbeat CPU 1 instructions: 500000000 cycles: 1076284416 heartbeat IPC: 0.307089 cumulative IPC: 0.317202 (Simulation time: 3 hr 9 min 21 sec) 
Heartbeat CPU 2 instructions: 610000003 cycles: 1076684763 heartbeat IPC: 0.436029 cumulative IPC: 0.430958 (Simulation time: 3 hr 9 min 25 sec) 
Heartbeat CPU 0 instructions: 1170000000 cycles: 1076797975 heartbeat IPC: 0.930762 cumulative IPC: 0.959238 (Simulation time: 3 hr 9 min 26 sec) 
Heartbeat CPU 3 instructions: 1610000002 cycles: 1081034478 heartbeat IPC: 1.43632 cumulative IPC: 1.35012 (Simulation time: 3 hr 10 min 9 sec) 
Heartbeat CPU 0 instructions: 1180000000 cycles: 1087193130 heartbeat IPC: 0.961987 cumulative IPC: 0.959268 (Simulation time: 3 hr 11 min 8 sec) 
Heartbeat CPU 3 instructions: 1620000000 cycles: 1087985033 heartbeat IPC: 1.43873 cumulative IPC: 1.35077 (Simulation time: 3 hr 11 min 16 sec) 
Heartbeat CPU 3 instructions: 1630000002 cycles: 1094980647 heartbeat IPC: 1.42947 cumulative IPC: 1.35134 (Simulation time: 3 hr 12 min 26 sec) 
Heartbeat CPU 0 instructions: 1190000001 cycles: 1097176791 heartbeat IPC: 1.00164 cumulative IPC: 0.959705 (Simulation time: 3 hr 12 min 46 sec) 
Heartbeat CPU 2 instructions: 620000000 cycles: 1099492058 heartbeat IPC: 0.438456 cumulative IPC: 0.431134 (Simulation time: 3 hr 13 min 7 sec) 
Heartbeat CPU 3 instructions: 1640000000 cycles: 1101815932 heartbeat IPC: 1.463 cumulative IPC: 1.35212 (Simulation time: 3 hr 13 min 28 sec) 
Heartbeat CPU 0 instructions: 1200000000 cycles: 1107178404 heartbeat IPC: 0.999839 cumulative IPC: 0.960116 (Simulation time: 3 hr 14 min 20 sec) 
Heartbeat CPU 1 instructions: 510000003 cycles: 1107760812 heartbeat IPC: 0.317698 cumulative IPC: 0.317218 (Simulation time: 3 hr 14 min 27 sec) 
Heartbeat CPU 3 instructions: 1650000000 cycles: 1108725417 heartbeat IPC: 1.44729 cumulative IPC: 1.35279 (Simulation time: 3 hr 14 min 36 sec) 
Heartbeat CPU 3 instructions: 1660000000 cycles: 1115562119 heartbeat IPC: 1.46269 cumulative IPC: 1.35356 (Simulation time: 3 hr 15 min 42 sec) 
Heartbeat CPU 0 instructions: 1210000002 cycles: 1117038207 heartbeat IPC: 1.01422 cumulative IPC: 0.960657 (Simulation time: 3 hr 15 min 56 sec) 
Heartbeat CPU 2 instructions: 630000001 cycles: 1122167664 heartbeat IPC: 0.441003 cumulative IPC: 0.43136 (Simulation time: 3 hr 16 min 44 sec) 
Heartbeat CPU 3 instructions: 1670000002 cycles: 1122202640 heartbeat IPC: 1.50591 cumulative IPC: 1.35458 (Simulation time: 3 hr 16 min 44 sec) 
Heartbeat CPU 0 instructions: 1220000000 cycles: 1125510901 heartbeat IPC: 1.18026 cumulative IPC: 0.962527 (Simulation time: 3 hr 17 min 16 sec) 
Heartbeat CPU 3 instructions: 1680000000 cycles: 1129025167 heartbeat IPC: 1.46573 cumulative IPC: 1.35534 (Simulation time: 3 hr 17 min 50 sec) 
Heartbeat CPU 3 instructions: 1690000003 cycles: 1135635999 heartbeat IPC: 1.51267 cumulative IPC: 1.35637 (Simulation time: 3 hr 18 min 54 sec) 
Heartbeat CPU 0 instructions: 1230000003 cycles: 1137428170 heartbeat IPC: 0.839119 cumulative IPC: 0.961066 (Simulation time: 3 hr 19 min 12 sec) 
Heartbeat CPU 1 instructions: 520000000 cycles: 1138952552 heartbeat IPC: 0.320598 cumulative IPC: 0.317322 (Simulation time: 3 hr 19 min 28 sec) 
Heartbeat CPU 3 instructions: 1700000000 cycles: 1142447835 heartbeat IPC: 1.46803 cumulative IPC: 1.35712 (Simulation time: 3 hr 20 min 2 sec) 
Heartbeat CPU 2 instructions: 640000000 cycles: 1145135437 heartbeat IPC: 0.435393 cumulative IPC: 0.431451 (Simulation time: 3 hr 20 min 29 sec) 
Heartbeat CPU 3 instructions: 1710000001 cycles: 1149161926 heartbeat IPC: 1.48941 cumulative IPC: 1.358 (Simulation time: 3 hr 21 min 8 sec) 
Heartbeat CPU 0 instructions: 1240000000 cycles: 1149777815 heartbeat IPC: 0.80974 cumulative IPC: 0.959233 (Simulation time: 3 hr 21 min 14 sec) 
Heartbeat CPU 3 instructions: 1720000000 cycles: 1158907360 heartbeat IPC: 1.02612 cumulative IPC: 1.35485 (Simulation time: 3 hr 22 min 33 sec) 
Heartbeat CPU 0 instructions: 1250000001 cycles: 1161046008 heartbeat IPC: 0.887454 cumulative IPC: 0.958448 (Simulation time: 3 hr 22 min 57 sec) 
Heartbeat CPU 3 instructions: 1730000003 cycles: 1163643271 heartbeat IPC: 2.11153 cumulative IPC: 1.35832 (Simulation time: 3 hr 23 min 30 sec) 
Heartbeat CPU 2 instructions: 650000000 cycles: 1168073134 heartbeat IPC: 0.435964 cumulative IPC: 0.431551 (Simulation time: 3 hr 24 min 15 sec) 
Heartbeat CPU 3 instructions: 1740000000 cycles: 1170361452 heartbeat IPC: 1.4885 cumulative IPC: 1.35916 (Simulation time: 3 hr 24 min 36 sec) 
Heartbeat CPU 0 instructions: 1260000000 cycles: 1171631062 heartbeat IPC: 0.944728 cumulative IPC: 0.958308 (Simulation time: 3 hr 24 min 49 sec) 
Heartbeat CPU 1 instructions: 530000002 cycles: 1172405105 heartbeat IPC: 0.298931 cumulative IPC: 0.316732 (Simulation time: 3 hr 24 min 56 sec) 
Finished CPU 0 instructions: 1000000003 cycles: 1043293075 cumulative IPC: 0.958503 (Simulation time: 3 hr 25 min 11 sec) 
Heartbeat CPU 3 instructions: 1750000003 cycles: 1177473269 heartbeat IPC: 1.40611 cumulative IPC: 1.35948 (Simulation time: 3 hr 25 min 49 sec) 
Heartbeat CPU 0 instructions: 1270000003 cycles: 1181540631 heartbeat IPC: 1.00913 cumulative IPC: 0.958788 (Simulation time: 3 hr 26 min 31 sec) 
Heartbeat CPU 3 instructions: 1760000000 cycles: 1184235600 heartbeat IPC: 1.47878 cumulative IPC: 1.36024 (Simulation time: 3 hr 26 min 57 sec) 
Heartbeat CPU 2 instructions: 660000000 cycles: 1190880177 heartbeat IPC: 0.438461 cumulative IPC: 0.4317 (Simulation time: 3 hr 28 min 3 sec) 
Heartbeat CPU 3 instructions: 1770000000 cycles: 1191187043 heartbeat IPC: 1.43855 cumulative IPC: 1.36076 (Simulation time: 3 hr 28 min 6 sec) 
Heartbeat CPU 0 instructions: 1280000000 cycles: 1191660781 heartbeat IPC: 0.988127 cumulative IPC: 0.959067 (Simulation time: 3 hr 28 min 10 sec) 
Heartbeat CPU 3 instructions: 1780000000 cycles: 1197875438 heartbeat IPC: 1.49513 cumulative IPC: 1.3616 (Simulation time: 3 hr 29 min 11 sec) 
Heartbeat CPU 0 instructions: 1290000001 cycles: 1201648344 heartbeat IPC: 1.00125 cumulative IPC: 0.959461 (Simulation time: 3 hr 29 min 46 sec) 
Heartbeat CPU 1 instructions: 540000000 cycles: 1203942581 heartbeat IPC: 0.317083 cumulative IPC: 0.316742 (Simulation time: 3 hr 30 min 8 sec) 
Heartbeat CPU 3 instructions: 1790000002 cycles: 1204658977 heartbeat IPC: 1.47416 cumulative IPC: 1.36231 (Simulation time: 3 hr 30 min 15 sec) 
Heartbeat CPU 0 instructions: 1300000000 cycles: 1209987611 heartbeat IPC: 1.19915 cumulative IPC: 0.961312 (Simulation time: 3 hr 31 min 5 sec) 
Heartbeat CPU 3 instructions: 1800000000 cycles: 1211427855 heartbeat IPC: 1.47735 cumulative IPC: 1.36303 (Simulation time: 3 hr 31 min 19 sec) 
Heartbeat CPU 2 instructions: 670000000 cycles: 1213648979 heartbeat IPC: 0.439197 cumulative IPC: 0.431857 (Simulation time: 3 hr 31 min 39 sec) 
Heartbeat CPU 3 instructions: 1810000002 cycles: 1218228111 heartbeat IPC: 1.47053 cumulative IPC: 1.3637 (Simulation time: 3 hr 32 min 21 sec) 
Heartbeat CPU 0 instructions: 1310000002 cycles: 1221666617 heartbeat IPC: 0.856237 cumulative IPC: 0.960188 (Simulation time: 3 hr 32 min 52 sec) 
Heartbeat CPU 3 instructions: 1820000000 cycles: 1225103305 heartbeat IPC: 1.4545 cumulative IPC: 1.36427 (Simulation time: 3 hr 33 min 25 sec) 
Heartbeat CPU 3 instructions: 1830000003 cycles: 1231901379 heartbeat IPC: 1.47101 cumulative IPC: 1.36493 (Simulation time: 3 hr 34 min 28 sec) 
Heartbeat CPU 0 instructions: 1320000000 cycles: 1234144922 heartbeat IPC: 0.801391 cumulative IPC: 0.958392 (Simulation time: 3 hr 34 min 48 sec) 
Heartbeat CPU 1 instructions: 550000002 cycles: 1236070377 heartbeat IPC: 0.311257 cumulative IPC: 0.316583 (Simulation time: 3 hr 35 min 5 sec) 
Heartbeat CPU 2 instructions: 680000000 cycles: 1236412670 heartbeat IPC: 0.439296 cumulative IPC: 0.43201 (Simulation time: 3 hr 35 min 8 sec) 
Heartbeat CPU 3 instructions: 1840000000 cycles: 1238752804 heartbeat IPC: 1.45955 cumulative IPC: 1.36552 (Simulation time: 3 hr 35 min 30 sec) 
Heartbeat CPU 0 instructions: 1330000000 cycles: 1244910687 heartbeat IPC: 0.92887 cumulative IPC: 0.958107 (Simulation time: 3 hr 36 min 29 sec) 
Heartbeat CPU 3 instructions: 1850000001 cycles: 1245645920 heartbeat IPC: 1.45072 cumulative IPC: 1.36604 (Simulation time: 3 hr 36 min 36 sec) 
Heartbeat CPU 3 instructions: 1860000000 cycles: 1252442422 heartbeat IPC: 1.47134 cumulative IPC: 1.36668 (Simulation time: 3 hr 37 min 42 sec) 
Heartbeat CPU 0 instructions: 1340000000 cycles: 1255288304 heartbeat IPC: 0.963612 cumulative IPC: 0.958158 (Simulation time: 3 hr 38 min 8 sec) 
Heartbeat CPU 2 instructions: 690000000 cycles: 1259129160 heartbeat IPC: 0.440209 cumulative IPC: 0.432175 (Simulation time: 3 hr 38 min 46 sec) 
Heartbeat CPU 3 instructions: 1870000001 cycles: 1259170909 heartbeat IPC: 1.48622 cumulative IPC: 1.36739 (Simulation time: 3 hr 38 min 47 sec) 
Heartbeat CPU 0 instructions: 1350000003 cycles: 1265186671 heartbeat IPC: 1.01027 cumulative IPC: 0.958612 (Simulation time: 3 hr 39 min 46 sec) 
Heartbeat CPU 3 instructions: 1880000000 cycles: 1265794269 heartbeat IPC: 1.50981 cumulative IPC: 1.36823 (Simulation time: 3 hr 39 min 52 sec) 
Heartbeat CPU 1 instructions: 560000000 cycles: 1268694837 heartbeat IPC: 0.306518 cumulative IPC: 0.316294 (Simulation time: 3 hr 40 min 18 sec) 
Heartbeat CPU 0 instructions: 1360000000 cycles: 1275376686 heartbeat IPC: 0.981353 cumulative IPC: 0.958815 (Simulation time: 3 hr 41 min 15 sec) 
Heartbeat CPU 3 instructions: 1890000000 cycles: 1275591061 heartbeat IPC: 1.02074 cumulative IPC: 1.36525 (Simulation time: 3 hr 41 min 17 sec) 
Heartbeat CPU 3 instructions: 1900000000 cycles: 1280432522 heartbeat IPC: 2.06549 cumulative IPC: 1.3682 (Simulation time: 3 hr 42 min 11 sec) 
Heartbeat CPU 2 instructions: 700000000 cycles: 1281827860 heartbeat IPC: 0.440554 cumulative IPC: 0.432341 (Simulation time: 3 hr 42 min 27 sec) 
Heartbeat CPU 0 instructions: 1370000002 cycles: 1285459698 heartbeat IPC: 0.991767 cumulative IPC: 0.959102 (Simulation time: 3 hr 43 min 0 sec) 
Heartbeat CPU 3 instructions: 1910000002 cycles: 1286989877 heartbeat IPC: 1.52501 cumulative IPC: 1.36909 (Simulation time: 3 hr 43 min 14 sec) 
Heartbeat CPU 0 instructions: 1380000000 cycles: 1293943342 heartbeat IPC: 1.17874 cumulative IPC: 0.960704 (Simulation time: 3 hr 44 min 19 sec) 
Heartbeat CPU 3 instructions: 1920000000 cycles: 1294468172 heartbeat IPC: 1.3372 cumulative IPC: 1.36888 (Simulation time: 3 hr 44 min 24 sec) 
Heartbeat CPU 3 instructions: 1930000003 cycles: 1301926653 heartbeat IPC: 1.34076 cumulative IPC: 1.36871 (Simulation time: 3 hr 45 min 27 sec) 
Heartbeat CPU 2 instructions: 710000000 cycles: 1304410480 heartbeat IPC: 0.442818 cumulative IPC: 0.432542 (Simulation time: 3 hr 45 min 47 sec) 
Heartbeat CPU 0 instructions: 1390000001 cycles: 1305786457 heartbeat IPC: 0.844373 cumulative IPC: 0.959532 (Simulation time: 3 hr 46 min 0 sec) 
Heartbeat CPU 1 instructions: 570000001 cycles: 1309454406 heartbeat IPC: 0.245341 cumulative IPC: 0.313841 (Simulation time: 3 hr 46 min 34 sec) 
Heartbeat CPU 3 instructions: 1940000000 cycles: 1309536317 heartbeat IPC: 1.31412 cumulative IPC: 1.36835 (Simulation time: 3 hr 46 min 35 sec) 
Heartbeat CPU 3 instructions: 1950000000 cycles: 1317041094 heartbeat IPC: 1.33248 cumulative IPC: 1.36813 (Simulation time: 3 hr 47 min 46 sec) 
Heartbeat CPU 0 instructions: 1400000000 cycles: 1318396160 heartbeat IPC: 0.79304 cumulative IPC: 0.957764 (Simulation time: 3 hr 47 min 59 sec) 
Heartbeat CPU 3 instructions: 1960000000 cycles: 1324667604 heartbeat IPC: 1.31122 cumulative IPC: 1.36776 (Simulation time: 3 hr 48 min 59 sec) 
Heartbeat CPU 2 instructions: 720000000 cycles: 1327018845 heartbeat IPC: 0.442314 cumulative IPC: 0.432727 (Simulation time: 3 hr 49 min 22 sec) 
Heartbeat CPU 0 instructions: 1410000002 cycles: 1329364431 heartbeat IPC: 0.911721 cumulative IPC: 0.957343 (Simulation time: 3 hr 49 min 47 sec) 
Heartbeat CPU 3 instructions: 1970000000 cycles: 1332286245 heartbeat IPC: 1.31257 cumulative IPC: 1.36741 (Simulation time: 3 hr 50 min 17 sec) 
Heartbeat CPU 0 instructions: 1420000000 cycles: 1339726298 heartbeat IPC: 0.965077 cumulative IPC: 0.957409 (Simulation time: 3 hr 51 min 31 sec) 
Heartbeat CPU 3 instructions: 1980000000 cycles: 1339791145 heartbeat IPC: 1.33246 cumulative IPC: 1.3672 (Simulation time: 3 hr 51 min 31 sec) 
Heartbeat CPU 1 instructions: 580000000 cycles: 1342581185 heartbeat IPC: 0.301871 cumulative IPC: 0.313514 (Simulation time: 3 hr 52 min 0 sec) 
Heartbeat CPU 2 instructions: 730000003 cycles: 1349510481 heartbeat IPC: 0.44461 cumulative IPC: 0.432946 (Simulation time: 3 hr 53 min 4 sec) 
Heartbeat CPU 0 instructions: 1430000003 cycles: 1349845286 heartbeat IPC: 0.988241 cumulative IPC: 0.957665 (Simulation time: 3 hr 53 min 7 sec) 
Heartbeat CPU 3 instructions: 1990000001 cycles: 1349923366 heartbeat IPC: 0.986951 cumulative IPC: 1.36404 (Simulation time: 3 hr 53 min 8 sec) 
*** Reached end of trace for Core: 3 Repeating trace: /scratch/user/djimenez/champsim-traces/speccpu2017/xz/625.x264_s/625.x264_s-18B.champsimtrace.xz
Heartbeat CPU 3 instructions: 2000000000 cycles: 1354755821 heartbeat IPC: 2.06934 cumulative IPC: 1.36682 (Simulation time: 3 hr 54 min 2 sec) 
Heartbeat CPU 0 instructions: 1440000000 cycles: 1360161957 heartbeat IPC: 0.969305 cumulative IPC: 0.957763 (Simulation time: 3 hr 54 min 56 sec) 
Heartbeat CPU 3 instructions: 2010000000 cycles: 1362552644 heartbeat IPC: 1.28257 cumulative IPC: 1.36629 (Simulation time: 3 hr 55 min 20 sec) 
Heartbeat CPU 0 instructions: 1450000001 cycles: 1370031031 heartbeat IPC: 1.01327 cumulative IPC: 0.958205 (Simulation time: 3 hr 56 min 35 sec) 
Heartbeat CPU 3 instructions: 2020000000 cycles: 1370355159 heartbeat IPC: 1.28164 cumulative IPC: 1.36575 (Simulation time: 3 hr 56 min 38 sec) 
Heartbeat CPU 2 instructions: 740000000 cycles: 1371969852 heartbeat IPC: 0.445248 cumulative IPC: 0.433169 (Simulation time: 3 hr 56 min 53 sec) 
Heartbeat CPU 1 instructions: 590000001 cycles: 1376001459 heartbeat IPC: 0.29922 cumulative IPC: 0.31313 (Simulation time: 3 hr 57 min 32 sec) 
Heartbeat CPU 3 instructions: 2030000003 cycles: 1378048993 heartbeat IPC: 1.29974 cumulative IPC: 1.36535 (Simulation time: 3 hr 57 min 52 sec) 
Heartbeat CPU 0 instructions: 1460000000 cycles: 1378440300 heartbeat IPC: 1.18916 cumulative IPC: 0.959761 (Simulation time: 3 hr 57 min 56 sec) 
Heartbeat CPU 3 instructions: 2040000000 cycles: 1385679674 heartbeat IPC: 1.3105 cumulative IPC: 1.36501 (Simulation time: 3 hr 59 min 5 sec) 
Heartbeat CPU 0 instructions: 1470000000 cycles: 1389681287 heartbeat IPC: 0.889602 cumulative IPC: 0.959135 (Simulation time: 3 hr 59 min 43 sec) 
Heartbeat CPU 3 instructions: 2050000000 cycles: 1393340194 heartbeat IPC: 1.30539 cumulative IPC: 1.36465 (Simulation time: 4 hr 0 min 18 sec) 
Heartbeat CPU 2 instructions: 750000000 cycles: 1394463576 heartbeat IPC: 0.444568 cumulative IPC: 0.433371 (Simulation time: 4 hr 0 min 29 sec) 
Heartbeat CPU 3 instructions: 2060000000 cycles: 1400968309 heartbeat IPC: 1.31094 cumulative IPC: 1.36433 (Simulation time: 4 hr 1 min 31 sec) 
Heartbeat CPU 0 instructions: 1480000000 cycles: 1402249548 heartbeat IPC: 0.795655 cumulative IPC: 0.957519 (Simulation time: 4 hr 1 min 42 sec) 
Heartbeat CPU 3 instructions: 2070000003 cycles: 1408652881 heartbeat IPC: 1.30131 cumulative IPC: 1.36395 (Simulation time: 4 hr 2 min 41 sec) 
Heartbeat CPU 1 instructions: 600000000 cycles: 1408956713 heartbeat IPC: 0.303442 cumulative IPC: 0.312881 (Simulation time: 4 hr 2 min 44 sec) 
Heartbeat CPU 0 instructions: 1490000001 cycles: 1413129834 heartbeat IPC: 0.919094 cumulative IPC: 0.957193 (Simulation time: 4 hr 3 min 26 sec) 
Heartbeat CPU 3 instructions: 2080000000 cycles: 1416342821 heartbeat IPC: 1.3004 cumulative IPC: 1.36357 (Simulation time: 4 hr 3 min 57 sec) 
Heartbeat CPU 2 instructions: 760000000 cycles: 1416724234 heartbeat IPC: 0.449223 cumulative IPC: 0.433646 (Simulation time: 4 hr 4 min 1 sec) 
Heartbeat CPU 0 instructions: 1500000000 cycles: 1423178384 heartbeat IPC: 0.995168 cumulative IPC: 0.957488 (Simulation time: 4 hr 5 min 4 sec) 
Heartbeat CPU 3 instructions: 2090000001 cycles: 1424022547 heartbeat IPC: 1.30213 cumulative IPC: 1.36321 (Simulation time: 4 hr 5 min 12 sec) 
Heartbeat CPU 3 instructions: 2100000000 cycles: 1431692177 heartbeat IPC: 1.30384 cumulative IPC: 1.36286 (Simulation time: 4 hr 6 min 30 sec) 
Heartbeat CPU 0 instructions: 1510000002 cycles: 1432947192 heartbeat IPC: 1.02367 cumulative IPC: 0.957985 (Simulation time: 4 hr 6 min 43 sec) 
Heartbeat CPU 2 instructions: 770000001 cycles: 1439105898 heartbeat IPC: 0.446794 cumulative IPC: 0.433871 (Simulation time: 4 hr 7 min 41 sec) 
Heartbeat CPU 3 instructions: 2110000000 cycles: 1439322691 heartbeat IPC: 1.31053 cumulative IPC: 1.36255 (Simulation time: 4 hr 7 min 43 sec) 
Heartbeat CPU 1 instructions: 610000000 cycles: 1441680771 heartbeat IPC: 0.305586 cumulative IPC: 0.312699 (Simulation time: 4 hr 8 min 8 sec) 
Heartbeat CPU 0 instructions: 1520000000 cycles: 1442983184 heartbeat IPC: 0.996414 cumulative IPC: 0.958279 (Simulation time: 4 hr 8 min 21 sec) 
Heartbeat CPU 3 instructions: 2120000000 cycles: 1446968433 heartbeat IPC: 1.30792 cumulative IPC: 1.36223 (Simulation time: 4 hr 9 min 2 sec) 
Heartbeat CPU 0 instructions: 1530000001 cycles: 1452881283 heartbeat IPC: 1.0103 cumulative IPC: 0.958668 (Simulation time: 4 hr 10 min 1 sec) 
Heartbeat CPU 3 instructions: 2130000001 cycles: 1454662515 heartbeat IPC: 1.2997 cumulative IPC: 1.36187 (Simulation time: 4 hr 10 min 19 sec) 
Heartbeat CPU 0 instructions: 1540000000 cycles: 1461292084 heartbeat IPC: 1.18895 cumulative IPC: 0.960123 (Simulation time: 4 hr 11 min 21 sec) 
Heartbeat CPU 2 instructions: 780000000 cycles: 1461456108 heartbeat IPC: 0.447423 cumulative IPC: 0.434098 (Simulation time: 4 hr 11 min 23 sec) 
Heartbeat CPU 3 instructions: 2140000000 cycles: 1462989679 heartbeat IPC: 1.20089 cumulative IPC: 1.36086 (Simulation time: 4 hr 11 min 38 sec) 
Heartbeat CPU 3 instructions: 2150000003 cycles: 1470637447 heartbeat IPC: 1.30757 cumulative IPC: 1.36056 (Simulation time: 4 hr 12 min 50 sec) 
Heartbeat CPU 0 instructions: 1550000001 cycles: 1472693046 heartbeat IPC: 0.877119 cumulative IPC: 0.959418 (Simulation time: 4 hr 13 min 9 sec) 
Heartbeat CPU 1 instructions: 620000000 cycles: 1473653834 heartbeat IPC: 0.312763 cumulative IPC: 0.3127 (Simulation time: 4 hr 13 min 20 sec) 
Heartbeat CPU 3 instructions: 2160000000 cycles: 1477632831 heartbeat IPC: 1.42951 cumulative IPC: 1.36092 (Simulation time: 4 hr 13 min 59 sec) 
Heartbeat CPU 2 instructions: 790000000 cycles: 1483849027 heartbeat IPC: 0.44657 cumulative IPC: 0.434305 (Simulation time: 4 hr 14 min 59 sec) 
Heartbeat CPU 3 instructions: 2170000001 cycles: 1484801603 heartbeat IPC: 1.39494 cumulative IPC: 1.3611 (Simulation time: 4 hr 15 min 8 sec) 
Heartbeat CPU 0 instructions: 1560000000 cycles: 1485123485 heartbeat IPC: 0.804477 cumulative IPC: 0.957997 (Simulation time: 4 hr 15 min 11 sec) 
Heartbeat CPU 3 instructions: 2180000000 cycles: 1491758654 heartbeat IPC: 1.43739 cumulative IPC: 1.36149 (Simulation time: 4 hr 16 min 13 sec) 
Heartbeat CPU 0 instructions: 1570000003 cycles: 1496590218 heartbeat IPC: 0.872088 cumulative IPC: 0.957276 (Simulation time: 4 hr 17 min 1 sec) 
Heartbeat CPU 3 instructions: 2190000000 cycles: 1498823697 heartbeat IPC: 1.41542 cumulative IPC: 1.36177 (Simulation time: 4 hr 17 min 24 sec) 
Heartbeat CPU 2 instructions: 800000000 cycles: 1506002819 heartbeat IPC: 0.45139 cumulative IPC: 0.43458 (Simulation time: 4 hr 18 min 35 sec) 
Heartbeat CPU 3 instructions: 2200000000 cycles: 1506046920 heartbeat IPC: 1.38442 cumulative IPC: 1.36189 (Simulation time: 4 hr 18 min 36 sec) 
Heartbeat CPU 0 instructions: 1580000000 cycles: 1506997347 heartbeat IPC: 0.96088 cumulative IPC: 0.957303 (Simulation time: 4 hr 18 min 45 sec) 
Heartbeat CPU 1 instructions: 630000000 cycles: 1507015373 heartbeat IPC: 0.299746 cumulative IPC: 0.312386 (Simulation time: 4 hr 18 min 45 sec) 
Heartbeat CPU 3 instructions: 2210000001 cycles: 1512987163 heartbeat IPC: 1.44087 cumulative IPC: 1.36228 (Simulation time: 4 hr 19 min 46 sec) 
Heartbeat CPU 0 instructions: 1590000003 cycles: 1516930288 heartbeat IPC: 1.00675 cumulative IPC: 0.957657 (Simulation time: 4 hr 20 min 27 sec) 
Heartbeat CPU 3 instructions: 2220000000 cycles: 1520086860 heartbeat IPC: 1.40851 cumulative IPC: 1.36252 (Simulation time: 4 hr 20 min 56 sec) 
Heartbeat CPU 3 instructions: 2230000000 cycles: 1527203377 heartbeat IPC: 1.40518 cumulative IPC: 1.36274 (Simulation time: 4 hr 22 min 6 sec) 
Heartbeat CPU 0 instructions: 1600000000 cycles: 1527443483 heartbeat IPC: 0.951185 cumulative IPC: 0.957608 (Simulation time: 4 hr 22 min 9 sec) 
Heartbeat CPU 2 instructions: 810000000 cycles: 1528680548 heartbeat IPC: 0.440961 cumulative IPC: 0.434683 (Simulation time: 4 hr 22 min 21 sec) 
Heartbeat CPU 3 instructions: 2240000000 cycles: 1534229847 heartbeat IPC: 1.42319 cumulative IPC: 1.36304 (Simulation time: 4 hr 23 min 17 sec) 
Heartbeat CPU 0 instructions: 1610000003 cycles: 1537535304 heartbeat IPC: 0.990902 cumulative IPC: 0.957847 (Simulation time: 4 hr 23 min 51 sec) 
Heartbeat CPU 1 instructions: 640000000 cycles: 1540011960 heartbeat IPC: 0.303062 cumulative IPC: 0.312168 (Simulation time: 4 hr 24 min 15 sec) 
Heartbeat CPU 3 instructions: 2250000001 cycles: 1541371687 heartbeat IPC: 1.4002 cumulative IPC: 1.36323 (Simulation time: 4 hr 24 min 28 sec) 
Heartbeat CPU 0 instructions: 1620000000 cycles: 1545997585 heartbeat IPC: 1.18171 cumulative IPC: 0.959185 (Simulation time: 4 hr 25 min 14 sec) 
Heartbeat CPU 3 instructions: 2260000000 cycles: 1548294691 heartbeat IPC: 1.44446 cumulative IPC: 1.36362 (Simulation time: 4 hr 25 min 37 sec) 
Heartbeat CPU 2 instructions: 820000000 cycles: 1551581366 heartbeat IPC: 0.436666 cumulative IPC: 0.434715 (Simulation time: 4 hr 26 min 9 sec) 
Heartbeat CPU 3 instructions: 2270000000 cycles: 1555265904 heartbeat IPC: 1.43447 cumulative IPC: 1.36397 (Simulation time: 4 hr 26 min 44 sec) 
Heartbeat CPU 0 instructions: 1630000000 cycles: 1557200210 heartbeat IPC: 0.892648 cumulative IPC: 0.958663 (Simulation time: 4 hr 27 min 2 sec) 
Heartbeat CPU 3 instructions: 2280000000 cycles: 1562460172 heartbeat IPC: 1.39 cumulative IPC: 1.3641 (Simulation time: 4 hr 27 min 53 sec) 
Heartbeat CPU 3 instructions: 2290000001 cycles: 1569445047 heartbeat IPC: 1.43166 cumulative IPC: 1.36443 (Simulation time: 4 hr 29 min 0 sec) 
Heartbeat CPU 0 instructions: 1640000000 cycles: 1569788083 heartbeat IPC: 0.794415 cumulative IPC: 0.957227 (Simulation time: 4 hr 29 min 4 sec) 
Heartbeat CPU 1 instructions: 650000003 cycles: 1572215838 heartbeat IPC: 0.310522 cumulative IPC: 0.312131 (Simulation time: 4 hr 29 min 27 sec) 
[...]
Heartbeat CPU 2 instructions: 1590000001 cycles: 3292381668 heartbeat IPC: 0.439005 cumulative IPC: 0.438905 (Simulation time: 8 hr 50 min 32 sec) 
Heartbeat CPU 3 instructions: 4670000002 cycles: 3298858905 heartbeat IPC: 1.13201 cumulative IPC: 1.37085 (Simulation time: 8 hr 51 min 26 sec) 
Heartbeat CPU 0 instructions: 3320000000 cycles: 3301244382 heartbeat IPC: 0.782888 cumulative IPC: 0.964355 (Simulation time: 8 hr 51 min 49 sec) 
Heartbeat CPU 3 instructions: 4680000000 cycles: 3304466052 heartbeat IPC: 1.78344 cumulative IPC: 1.37158 (Simulation time: 8 hr 52 min 16 sec) 
Heartbeat CPU 3 instructions: 4690000000 cycles: 3312009586 heartbeat IPC: 1.32564 cumulative IPC: 1.37147 (Simulation time: 8 hr 53 min 20 sec) 
Heartbeat CPU 0 instructions: 3330000000 cycles: 3312239931 heartbeat IPC: 0.909459 cumulative IPC: 0.964166 (Simulation time: 8 hr 53 min 23 sec) 
Heartbeat CPU 2 instructions: 1600000000 cycles: 3315441476 heartbeat IPC: 0.433655 cumulative IPC: 0.438867 (Simulation time: 8 hr 53 min 52 sec) 
Heartbeat CPU 3 instructions: 4700000000 cycles: 3319543966 heartbeat IPC: 1.32725 cumulative IPC: 1.37136 (Simulation time: 8 hr 54 min 27 sec) 
Heartbeat CPU 0 instructions: 3340000000 cycles: 3322720651 heartbeat IPC: 0.954133 cumulative IPC: 0.964133 (Simulation time: 8 hr 54 min 54 sec) 
Heartbeat CPU 1 instructions: 1170000000 cycles: 3324734362 heartbeat IPC: 0.280623 cumulative IPC: 0.303673 (Simulation time: 8 hr 55 min 12 sec) 
Heartbeat CPU 3 instructions: 4710000000 cycles: 3327098726 heartbeat IPC: 1.32367 cumulative IPC: 1.37125 (Simulation time: 8 hr 55 min 33 sec) 
Heartbeat CPU 0 instructions: 3350000003 cycles: 3332703848 heartbeat IPC: 1.00168 cumulative IPC: 0.96425 (Simulation time: 8 hr 56 min 24 sec) 
Heartbeat CPU 3 instructions: 4720000000 cycles: 3334590877 heartbeat IPC: 1.33473 cumulative IPC: 1.37117 (Simulation time: 8 hr 56 min 39 sec) 
Heartbeat CPU 2 instructions: 1610000001 cycles: 3338456912 heartbeat IPC: 0.434491 cumulative IPC: 0.438836 (Simulation time: 8 hr 57 min 12 sec) 
Heartbeat CPU 3 instructions: 4730000000 cycles: 3342139779 heartbeat IPC: 1.3247 cumulative IPC: 1.37106 (Simulation time: 8 hr 57 min 45 sec) 
Heartbeat CPU 0 instructions: 3360000000 cycles: 3342977372 heartbeat IPC: 0.973376 cumulative IPC: 0.964279 (Simulation time: 8 hr 57 min 53 sec) 
Heartbeat CPU 3 instructions: 4740000000 cycles: 3349604126 heartbeat IPC: 1.3397 cumulative IPC: 1.37098 (Simulation time: 8 hr 58 min 53 sec) 
Heartbeat CPU 0 instructions: 3370000002 cycles: 3353006924 heartbeat IPC: 0.997054 cumulative IPC: 0.964381 (Simulation time: 8 hr 59 min 23 sec) 
Heartbeat CPU 3 instructions: 4750000003 cycles: 3357096339 heartbeat IPC: 1.33472 cumulative IPC: 1.3709 (Simulation time: 8 hr 59 min 58 sec) 
Heartbeat CPU 1 instructions: 1180000000 cycles: 3357956898 heartbeat IPC: 0.301001 cumulative IPC: 0.303646 (Simulation time: 9 hr 0 min 5 sec) 
Heartbeat CPU 2 instructions: 1620000000 cycles: 3361356309 heartbeat IPC: 0.436693 cumulative IPC: 0.43882 (Simulation time: 9 hr 0 min 35 sec) 
Heartbeat CPU 0 instructions: 3380000000 cycles: 3361503124 heartbeat IPC: 1.177 cumulative IPC: 0.96494 (Simulation time: 9 hr 0 min 36 sec) 
Heartbeat CPU 3 instructions: 4760000000 cycles: 3367231648 heartbeat IPC: 0.986649 cumulative IPC: 1.3697 (Simulation time: 9 hr 1 min 18 sec) 
Heartbeat CPU 3 instructions: 4770000003 cycles: 3372183938 heartbeat IPC: 2.01927 cumulative IPC: 1.37069 (Simulation time: 9 hr 2 min 5 sec) 
Heartbeat CPU 0 instructions: 3390000001 cycles: 3373437626 heartbeat IPC: 0.837907 cumulative IPC: 0.964473 (Simulation time: 9 hr 2 min 18 sec) 
Heartbeat CPU 3 instructions: 4780000000 cycles: 3378646374 heartbeat IPC: 1.5474 cumulative IPC: 1.37104 (Simulation time: 9 hr 3 min 2 sec) 
Heartbeat CPU 2 instructions: 1630000000 cycles: 3384108105 heartbeat IPC: 0.439526 cumulative IPC: 0.438825 (Simulation time: 9 hr 3 min 47 sec) 
Heartbeat CPU 0 instructions: 3400000000 cycles: 3385937370 heartbeat IPC: 0.800016 cumulative IPC: 0.963841 (Simulation time: 9 hr 4 min 1 sec) 
Heartbeat CPU 3 instructions: 4790000003 cycles: 3386238344 heartbeat IPC: 1.31718 cumulative IPC: 1.37091 (Simulation time: 9 hr 4 min 4 sec) 
Heartbeat CPU 1 instructions: 1190000001 cycles: 3393023457 heartbeat IPC: 0.285172 cumulative IPC: 0.303447 (Simulation time: 9 hr 4 min 59 sec) 
Heartbeat CPU 3 instructions: 4800000000 cycles: 3393824811 heartbeat IPC: 1.31814 cumulative IPC: 1.37079 (Simulation time: 9 hr 5 min 6 sec) 
Heartbeat CPU 0 instructions: 3410000002 cycles: 3396745758 heartbeat IPC: 0.925208 cumulative IPC: 0.963713 (Simulation time: 9 hr 5 min 32 sec) 
Heartbeat CPU 3 instructions: 4810000003 cycles: 3401387297 heartbeat IPC: 1.32232 cumulative IPC: 1.37068 (Simulation time: 9 hr 6 min 13 sec) 
Heartbeat CPU 0 instructions: 3420000000 cycles: 3406892207 heartbeat IPC: 0.985566 cumulative IPC: 0.963781 (Simulation time: 9 hr 6 min 59 sec) 
Heartbeat CPU 2 instructions: 1640000000 cycles: 3406923485 heartbeat IPC: 0.438301 cumulative IPC: 0.438822 (Simulation time: 9 hr 6 min 59 sec) 
Heartbeat CPU 3 instructions: 4820000000 cycles: 3408944280 heartbeat IPC: 1.32328 cumulative IPC: 1.37057 (Simulation time: 9 hr 7 min 16 sec) 
Heartbeat CPU 3 instructions: 4830000003 cycles: 3416509050 heartbeat IPC: 1.32192 cumulative IPC: 1.37046 (Simulation time: 9 hr 8 min 23 sec) 
Heartbeat CPU 0 instructions: 3430000000 cycles: 3417015580 heartbeat IPC: 0.987813 cumulative IPC: 0.963855 (Simulation time: 9 hr 8 min 27 sec) 
Heartbeat CPU 3 instructions: 4840000000 cycles: 3424081248 heartbeat IPC: 1.32062 cumulative IPC: 1.37034 (Simulation time: 9 hr 9 min 26 sec) 
Heartbeat CPU 1 instructions: 1200000000 cycles: 3426689082 heartbeat IPC: 0.297039 cumulative IPC: 0.303382 (Simulation time: 9 hr 9 min 49 sec) 
Finished CPU 1 instructions: 1000000000 cycles: 3296175432 cumulative IPC: 0.303382 (Simulation time: 9 hr 9 min 49 sec) 

CPU 0 Branch Prediction Accuracy: 99.8442% MPKI: 0.0998425

CPU 1 Branch Prediction Accuracy: 90.4608% MPKI: 18.9548

CPU 2 Branch Prediction Accuracy: 85.1177% MPKI: 16.1126

CPU 3 Branch Prediction Accuracy: 97.827% MPKI: 0.720383

ChampSim completed all CPUs

Total Simulation Statistics (not including warmup)

CPU 0 cumulative IPC: 0.963948 instructions: 3177343284 cycles: 3296175432
L1D TOTAL     ACCESS:  782065106  HIT:  698101168  MISS:   83963938
L1D LOAD      ACCESS:  691162425  HIT:  624880437  MISS:   66281988
L1D RFO       ACCESS:   90902681  HIT:   73220731  MISS:   17681950
L1D PREFETCH  ACCESS:          0  HIT:          0  MISS:          0
L1D WRITEBACK ACCESS:          0  HIT:          0  MISS:          0
L1I TOTAL     ACCESS:  815646834  HIT:  815646717  MISS:        117
L1I LOAD      ACCESS:  815646834  HIT:  815646717  MISS:        117
L1I RFO       ACCESS:          0  HIT:          0  MISS:          0
L1I PREFETCH  ACCESS:          0  HIT:          0  MISS:          0
L1I WRITEBACK ACCESS:          0  HIT:          0  MISS:          0
L2C TOTAL     ACCESS:  181106320  HIT:  108908059  MISS:   72198261
L2C LOAD      ACCESS:   66282052  HIT:   42013222  MISS:   24268830
L2C RFO       ACCESS:   17681950  HIT:      24514  MISS:   17657436
L2C PREFETCH  ACCESS:   73525572  HIT:   43263942  MISS:   30261630
L2C WRITEBACK ACCESS:   23616746  HIT:   23606381  MISS:      10365
LLC TOTAL     ACCESS:  387967089  HIT:  318923036  MISS:   69044053
LLC LOAD      ACCESS:   22371481  HIT:   19912860  MISS:    2458621
LLC RFO       ACCESS:   17657433  HIT:     984792  MISS:   16672641
LLC PREFETCH  ACCESS:  324487094  HIT:  274574777  MISS:   49912317
LLC WRITEBACK ACCESS:   23451081  HIT:   23450607  MISS:        474

CPU 1 cumulative IPC: 0.303382 instructions: 1000000000 cycles: 3296175432
L1D TOTAL     ACCESS:  384503417  HIT:  340195833  MISS:   44307584
L1D LOAD      ACCESS:  275659488  HIT:  235235251  MISS:   40424237
L1D RFO       ACCESS:  108843929  HIT:  104960582  MISS:    3883347
L1D PREFETCH  ACCESS:          0  HIT:          0  MISS:          0
L1D WRITEBACK ACCESS:          0  HIT:          0  MISS:          0
L1I TOTAL     ACCESS:  242223716  HIT:  242223716  MISS:          0
L1I LOAD      ACCESS:  242223716  HIT:  242223716  MISS:          0
L1I RFO       ACCESS:          0  HIT:          0  MISS:          0
L1I PREFETCH  ACCESS:          0  HIT:          0  MISS:          0
L1I WRITEBACK ACCESS:          0  HIT:          0  MISS:          0
L2C TOTAL     ACCESS:   56992953  HIT:   24218905  MISS:   32774048
L2C LOAD      ACCESS:   40424146  HIT:   13195416  MISS:   27228730
L2C RFO       ACCESS:    3883292  HIT:     986596  MISS:    2896696
L2C PREFETCH  ACCESS:    6714276  HIT:    4072359  MISS:    2641917
L2C WRITEBACK ACCESS:    5971239  HIT:    5964534  MISS:       6705
LLC TOTAL     ACCESS:   64427706  HIT:   47960218  MISS:   16467488
LLC LOAD      ACCESS:   26881348  HIT:   21553675  MISS:    5327673
LLC RFO       ACCESS:    2896650  HIT:    2877448  MISS:      19202
LLC PREFETCH  ACCESS:   30316671  HIT:   19198523  MISS:   11118148
LLC WRITEBACK ACCESS:    4333037  HIT:    4330572  MISS:       2465

CPU 2 cumulative IPC: 0.438836 instructions: 1446478799 cycles: 3296175433
L1D TOTAL     ACCESS:  459207469  HIT:  452938435  MISS:    6269034
L1D LOAD      ACCESS:  294014687  HIT:  288868317  MISS:    5146370
L1D RFO       ACCESS:  165192782  HIT:  164070118  MISS:    1122664
L1D PREFETCH  ACCESS:          0  HIT:          0  MISS:          0
L1D WRITEBACK ACCESS:          0  HIT:          0  MISS:          0
L1I TOTAL     ACCESS:  338477643  HIT:  338188209  MISS:     289434
L1I LOAD      ACCESS:  338477643  HIT:  338188209  MISS:     289434
L1I RFO       ACCESS:          0  HIT:          0  MISS:          0
L1I PREFETCH  ACCESS:          0  HIT:          0  MISS:          0
L1I WRITEBACK ACCESS:          0  HIT:          0  MISS:          0
L2C TOTAL     ACCESS:   19369497  HIT:   19233392  MISS:     136105
L2C LOAD      ACCESS:    5435789  HIT:    5347801  MISS:      87988
L2C RFO       ACCESS:    1122662  HIT:    1095866  MISS:      26796
L2C PREFETCH  ACCESS:   10697837  HIT:   10676952  MISS:      20885
L2C WRITEBACK ACCESS:    2113209  HIT:    2112773  MISS:        436
LLC TOTAL     ACCESS:    1128124  HIT:     786193  MISS:     341931
LLC LOAD      ACCESS:      84587  HIT:      23001  MISS:      61586
LLC RFO       ACCESS:      26796  HIT:       1521  MISS:      25275
LLC PREFETCH  ACCESS:     972919  HIT:     743591  MISS:     229328
LLC WRITEBACK ACCESS:      43822  HIT:      18080  MISS:      25742

CPU 3 cumulative IPC: 1.3703 instructions: 4516758563 cycles: 3296175433
L1D TOTAL     ACCESS:  727363694  HIT:  714692230  MISS:   12671464
L1D LOAD      ACCESS:  403135673  HIT:  394218481  MISS:    8917192
L1D RFO       ACCESS:  324228021  HIT:  320473749  MISS:    3754272
L1D PREFETCH  ACCESS:          0  HIT:          0  MISS:          0
L1D WRITEBACK ACCESS:          0  HIT:          0  MISS:          0
L1I TOTAL     ACCESS: 1066179748  HIT: 1057974609  MISS:    8205139
L1I LOAD      ACCESS: 1066179748  HIT: 1057974609  MISS:    8205139
L1I RFO       ACCESS:          0  HIT:          0  MISS:          0
L1I PREFETCH  ACCESS:          0  HIT:          0  MISS:          0
L1I WRITEBACK ACCESS:          0  HIT:          0  MISS:          0
L2C TOTAL     ACCESS:   41399216  HIT:   34913861  MISS:    6485355
L2C LOAD      ACCESS:   17122248  HIT:   13234477  MISS:    3887771
L2C RFO       ACCESS:    3744221  HIT:    1838599  MISS:    1905622
L2C PREFETCH  ACCESS:   16137779  HIT:   15472342  MISS:     665437
L2C WRITEBACK ACCESS:    4394968  HIT:    4368443  MISS:      26525
LLC TOTAL     ACCESS:   19992177  HIT:   14579588  MISS:    5412589
LLC LOAD      ACCESS:    3675795  HIT:    2319077  MISS:    1356718
LLC RFO       ACCESS:    1905503  HIT:      75296  MISS:    1830207
LLC PREFETCH  ACCESS:   12074878  HIT:    9979208  MISS:    2095670
LLC WRITEBACK ACCESS:    2336001  HIT:    2206007  MISS:     129994

Region of Interest Statistics

CPU 0 cumulative IPC: 0.958503 instructions: 1000000003 cycles: 1043293075
L1D TOTAL     ACCESS:  246565777  HIT:  220434731  MISS:   26131046
L1D LOAD      ACCESS:  222046563  HIT:  201729596  MISS:   20316967
L1D RFO       ACCESS:   24519214  HIT:   18705135  MISS:    5814079
L1D PREFETCH  ACCESS:          0  HIT:          0  MISS:          0
L1D WRITEBACK ACCESS:          0  HIT:          0  MISS:          0
L1D PREFETCH  REQUESTED:          0  ISSUED:          0  USEFUL:          0  USELESS:          0
L1I TOTAL     ACCESS:  255592092  HIT:  255592092  MISS:          0
L1I LOAD      ACCESS:  255592092  HIT:  255592092  MISS:          0
L1I RFO       ACCESS:          0  HIT:          0  MISS:          0
L1I PREFETCH  ACCESS:          0  HIT:          0  MISS:          0
L1I WRITEBACK ACCESS:          0  HIT:          0  MISS:          0
L1I PREFETCH  REQUESTED:          0  ISSUED:          0  USEFUL:          0  USELESS:          0
L2C TOTAL     ACCESS:   56525744  HIT:   33904592  MISS:   22621152
L2C LOAD      ACCESS:   20316958  HIT:   13263183  MISS:    7053775
L2C RFO       ACCESS:    5814079  HIT:         29  MISS:    5814050
L2C PREFETCH  ACCESS:   22838754  HIT:   13085760  MISS:    9752994
L2C WRITEBACK ACCESS:    7555953  HIT:    7555620  MISS:        333
L2C PREFETCH  REQUESTED:  439159550  ISSUED:  437760197  USEFUL:   32185488  USELESS:     410358
LLC TOTAL     ACCESS:  124765364  HIT:  101777203  MISS:   22988161
LLC LOAD      ACCESS:    6525602  HIT:    5744061  MISS:     781541
LLC RFO       ACCESS:    5814050  HIT:      17874  MISS:    5796176
LLC PREFETCH  ACCESS:  104920721  HIT:   88510442  MISS:   16410279
LLC WRITEBACK ACCESS:    7504991  HIT:    7504826  MISS:        165
LLC PREFETCH  REQUESTED:          0  ISSUED:          0  USEFUL:   29171280  USELESS:   40320164
Major fault: 0 Minor fault: 209522

CPU 1 cumulative IPC: 0.303382 instructions: 1000000000 cycles: 3296175432
L1D TOTAL     ACCESS:  384503417  HIT:  340195833  MISS:   44307584
L1D LOAD      ACCESS:  275659488  HIT:  235235251  MISS:   40424237
L1D RFO       ACCESS:  108843929  HIT:  104960582  MISS:    3883347
L1D PREFETCH  ACCESS:          0  HIT:          0  MISS:          0
L1D WRITEBACK ACCESS:          0  HIT:          0  MISS:          0
L1D PREFETCH  REQUESTED:          0  ISSUED:          0  USEFUL:          0  USELESS:          0
L1I TOTAL     ACCESS:  242223716  HIT:  242223716  MISS:          0
L1I LOAD      ACCESS:  242223716  HIT:  242223716  MISS:          0
L1I RFO       ACCESS:          0  HIT:          0  MISS:          0
L1I PREFETCH  ACCESS:          0  HIT:          0  MISS:          0
L1I WRITEBACK ACCESS:          0  HIT:          0  MISS:          0
L1I PREFETCH  REQUESTED:          0  ISSUED:          0  USEFUL:          0  USELESS:          0
L2C TOTAL     ACCESS:   56992953  HIT:   24218905  MISS:   32774048
L2C LOAD      ACCESS:   40424146  HIT:   13195416  MISS:   27228730
L2C RFO       ACCESS:    3883292  HIT:     986596  MISS:    2896696
L2C PREFETCH  ACCESS:    6714276  HIT:    4072359  MISS:    2641917
L2C WRITEBACK ACCESS:    5971239  HIT:    5964534  MISS:       6705
L2C PREFETCH  REQUESTED:   74770327  ISSUED:   74770315  USEFUL:    2764824  USELESS:     476184
LLC TOTAL     ACCESS:   64427706  HIT:   47960218  MISS:   16467488
LLC LOAD      ACCESS:   26881348  HIT:   21553675  MISS:    5327673
LLC RFO       ACCESS:    2896650  HIT:    2877448  MISS:      19202
LLC PREFETCH  ACCESS:   30316671  HIT:   19198523  MISS:   11118148
LLC WRITEBACK ACCESS:    4333037  HIT:    4330572  MISS:       2465
LLC PREFETCH  REQUESTED:          0  ISSUED:          0  USEFUL:   29171280  USELESS:   40320164
Major fault: 0 Minor fault: 169569

CPU 2 cumulative IPC: 0.435992 instructions: 1000000000 cycles: 2293620279
L1D TOTAL     ACCESS:  319969998  HIT:  315976593  MISS:    3993405
L1D LOAD      ACCESS:  204954051  HIT:  201697102  MISS:    3256949
L1D RFO       ACCESS:  115015947  HIT:  114279491  MISS:     736456
L1D PREFETCH  ACCESS:          0  HIT:          0  MISS:          0
L1D WRITEBACK ACCESS:          0  HIT:          0  MISS:          0
L1D PREFETCH  REQUESTED:          0  ISSUED:          0  USEFUL:          0  USELESS:          0
L1I TOTAL     ACCESS:  233138623  HIT:  232937014  MISS:     201609
L1I LOAD      ACCESS:  233138623  HIT:  232937014  MISS:     201609
L1I RFO       ACCESS:          0  HIT:          0  MISS:          0
L1I PREFETCH  ACCESS:          0  HIT:          0  MISS:          0
L1I WRITEBACK ACCESS:          0  HIT:          0  MISS:          0
L1I PREFETCH  REQUESTED:          0  ISSUED:          0  USEFUL:          0  USELESS:          0
L2C TOTAL     ACCESS:   12621216  HIT:   12531658  MISS:      89558
L2C LOAD      ACCESS:    3458548  HIT:    3400439  MISS:      58109
L2C RFO       ACCESS:     736455  HIT:     719225  MISS:      17230
L2C PREFETCH  ACCESS:    7079732  HIT:    7065801  MISS:      13931
L2C WRITEBACK ACCESS:    1346481  HIT:    1346193  MISS:        288
L2C PREFETCH  REQUESTED:   12929433  ISSUED:   12929433  USEFUL:      53370  USELESS:       7643
LLC TOTAL     ACCESS:     735868  HIT:     507703  MISS:     228165
LLC LOAD      ACCESS:      55839  HIT:      14367  MISS:      41472
LLC RFO       ACCESS:      17230  HIT:        919  MISS:      16311
LLC PREFETCH  ACCESS:     634835  HIT:     480961  MISS:     153874
LLC WRITEBACK ACCESS:      27964  HIT:      11456  MISS:      16508
LLC PREFETCH  REQUESTED:          0  ISSUED:          0  USEFUL:   29171280  USELESS:   40320164
Major fault: 0 Minor fault: 1516

CPU 3 cumulative IPC: 1.35496 instructions: 1000000001 cycles: 738028421
L1D TOTAL     ACCESS:  159801898  HIT:  157301508  MISS:    2500390
L1D LOAD      ACCESS:   85039350  HIT:   83255123  MISS:    1784227
L1D RFO       ACCESS:   74762548  HIT:   74046385  MISS:     716163
L1D PREFETCH  ACCESS:          0  HIT:          0  MISS:          0
L1D WRITEBACK ACCESS:          0  HIT:          0  MISS:          0
L1D PREFETCH  REQUESTED:          0  ISSUED:          0  USEFUL:          0  USELESS:          0
L1I TOTAL     ACCESS:  236688265  HIT:  235767954  MISS:     920311
L1I LOAD      ACCESS:  236688265  HIT:  235767954  MISS:     920311
L1I RFO       ACCESS:          0  HIT:          0  MISS:          0
L1I PREFETCH  ACCESS:          0  HIT:          0  MISS:          0
L1I WRITEBACK ACCESS:          0  HIT:          0  MISS:          0
L1I PREFETCH  REQUESTED:          0  ISSUED:          0  USEFUL:          0  USELESS:          0
L2C TOTAL     ACCESS:    6536865  HIT:    5228927  MISS:    1307938
L2C LOAD      ACCESS:    2704521  HIT:    1904031  MISS:     800490
L2C RFO       ACCESS:     714289  HIT:     345041  MISS:     369248
L2C PREFETCH  ACCESS:    2281072  HIT:    2147273  MISS:     133799
L2C WRITEBACK ACCESS:     836983  HIT:     832582  MISS:       4401
L2C PREFETCH  REQUESTED:   51697548  ISSUED:   51436500  USEFUL:     652925  USELESS:      32209
LLC TOTAL     ACCESS:    3755685  HIT:    2686179  MISS:    1069506
LLC LOAD      ACCESS:     753227  HIT:     469237  MISS:     283990
LLC RFO       ACCESS:     369225  HIT:      12907  MISS:     356318
LLC PREFETCH  ACCESS:    2172187  HIT:    1761690  MISS:     410497
LLC WRITEBACK ACCESS:     461046  HIT:     442345  MISS:      18701
LLC PREFETCH  REQUESTED:          0  ISSUED:          0  USEFUL:   29171280  USELESS:   40320164
Major fault: 0 Minor fault: 14375

DRAM Statistics
 CHANNEL 0
 RQ ROW_BUFFER_HIT:   21145982  ROW_BUFFER_MISS:   24364848
 DBUS_CONGESTED:   60552834
 WQ ROW_BUFFER_HIT:    1241485  ROW_BUFFER_MISS:   11239701  FULL:          0

 CHANNEL 1
 RQ ROW_BUFFER_HIT:   21124864  ROW_BUFFER_MISS:   24464903
 DBUS_CONGESTED:   60552834
 WQ ROW_BUFFER_HIT:    1240849  ROW_BUFFER_MISS:   11239945  FULL:          0

 AVG_CONGESTED_CYCLE: 13
