
*** ChampSim Multicore Out-of-Order Simulator ***

Warmup Instructions: 20000000
Simulation Instructions: 100000000
Number of CPUs: 1
LLC sets: 16384
LLC ways: 16
Off-chip DRAM Size: 4096 MB Channels: 1 Width: 64-bit Data Rate: 1600 MT/s

CPU 0 runs /scratch/user/djimenez/champsim-traces/speccpu2006/xz/456.hmmer-191B.champsimtrace.xz
Heartbeat CPU 0 instructions: 10000001 cycles: 6263948 heartbeat IPC: 1.59644 cumulative IPC: 1.59644 (Simulation time: 0 hr 0 min 25 sec) 
Heartbeat CPU 0 instructions: 20000000 cycles: 12528749 heartbeat IPC: 1.59622 cumulative IPC: 1.59633 (Simulation time: 0 hr 0 min 50 sec) 

Warmup complete CPU 0 instructions: 20000001 cycles: 12528750 (Simulation time: 0 hr 0 min 50 sec) 

Heartbeat CPU 0 instructions: 30000001 cycles: 21803176 heartbeat IPC: 1.07823 cumulative IPC: 1.07823 (Simulation time: 0 hr 1 min 20 sec) 
Heartbeat CPU 0 instructions: 40000000 cycles: 30504251 heartbeat IPC: 1.14928 cumulative IPC: 1.11263 (Simulation time: 0 hr 1 min 50 sec) 
Heartbeat CPU 0 instructions: 50000000 cycles: 39322058 heartbeat IPC: 1.13407 cumulative IPC: 1.11968 (Simulation time: 0 hr 2 min 19 sec) 
Heartbeat CPU 0 instructions: 60000000 cycles: 48060471 heartbeat IPC: 1.14437 cumulative IPC: 1.12575 (Simulation time: 0 hr 2 min 49 sec) 
Heartbeat CPU 0 instructions: 70000000 cycles: 56849370 heartbeat IPC: 1.1378 cumulative IPC: 1.12814 (Simulation time: 0 hr 3 min 19 sec) 
Heartbeat CPU 0 instructions: 80000000 cycles: 65592316 heartbeat IPC: 1.14378 cumulative IPC: 1.13072 (Simulation time: 0 hr 3 min 48 sec) 
Heartbeat CPU 0 instructions: 90000003 cycles: 74339129 heartbeat IPC: 1.14327 cumulative IPC: 1.1325 (Simulation time: 0 hr 4 min 18 sec) 
Heartbeat CPU 0 instructions: 100000000 cycles: 83154486 heartbeat IPC: 1.13438 cumulative IPC: 1.13273 (Simulation time: 0 hr 4 min 47 sec) 
Heartbeat CPU 0 instructions: 110000003 cycles: 91903692 heartbeat IPC: 1.14296 cumulative IPC: 1.13386 (Simulation time: 0 hr 5 min 17 sec) 
Heartbeat CPU 0 instructions: 120000000 cycles: 100627067 heartbeat IPC: 1.14635 cumulative IPC: 1.1351 (Simulation time: 0 hr 5 min 47 sec) 
Finished CPU 0 instructions: 100000001 cycles: 88098325 cumulative IPC: 1.1351 (Simulation time: 0 hr 5 min 47 sec) 

CPU 0 Branch Prediction Accuracy: 99.5492% MPKI: 0.19813

ChampSim completed all CPUs

Region of Interest Statistics

CPU 0 cumulative IPC: 1.1351 instructions: 100000001 cycles: 88098325
L1D TOTAL     ACCESS:   38515564  HIT:   38038659  MISS:     476905
L1D LOAD      ACCESS:   30182541  HIT:   29972457  MISS:     210084
L1D RFO       ACCESS:    8333023  HIT:    8066202  MISS:     266821
L1D PREFETCH  ACCESS:          0  HIT:          0  MISS:          0
L1D WRITEBACK ACCESS:          0  HIT:          0  MISS:          0
L1D PREFETCH  REQUESTED:          0  ISSUED:          0  USEFUL:          0  USELESS:          0
L1I TOTAL     ACCESS:   27064811  HIT:   27064492  MISS:        319
L1I LOAD      ACCESS:   27064811  HIT:   27064492  MISS:        319
L1I RFO       ACCESS:          0  HIT:          0  MISS:          0
L1I PREFETCH  ACCESS:          0  HIT:          0  MISS:          0
L1I WRITEBACK ACCESS:          0  HIT:          0  MISS:          0
L1I PREFETCH  REQUESTED:          0  ISSUED:          0  USEFUL:          0  USELESS:          0
L2C TOTAL     ACCESS:     744856  HIT:     452405  MISS:     292451
L2C LOAD      ACCESS:     210185  HIT:     183821  MISS:      26364
L2C RFO       ACCESS:     266821  HIT:        773  MISS:     266048
L2C PREFETCH  ACCESS:          0  HIT:          0  MISS:          0
L2C WRITEBACK ACCESS:     267850  HIT:     267811  MISS:         39
L2C PREFETCH  REQUESTED:          0  ISSUED:          0  USEFUL:          0  USELESS:          0
LLC TOTAL     ACCESS:     559674  HIT:     538584  MISS:      21090
LLC LOAD      ACCESS:      26364  HIT:      25570  MISS:        794
LLC RFO       ACCESS:     266048  HIT:     245752  MISS:      20296
LLC PREFETCH  ACCESS:          0  HIT:          0  MISS:          0
LLC WRITEBACK ACCESS:     267262  HIT:     267262  MISS:          0
LLC PREFETCH  REQUESTED:          0  ISSUED:          0  USEFUL:          0  USELESS:          0
Major fault: 0 Minor fault: 1275

DRAM Statistics
 CHANNEL 0
 RQ ROW_BUFFER_HIT:      20139  ROW_BUFFER_MISS:        951
 DBUS_CONGESTED:       1058
 WQ ROW_BUFFER_HIT:          0  ROW_BUFFER_MISS:          0  FULL:          0

 AVG_CONGESTED_CYCLE: 8
