
*** ChampSim Multicore Out-of-Order Simulator ***

Warmup Instructions: 20000000
Simulation Instructions: 100000000
Number of CPUs: 1
LLC sets: 16384
LLC ways: 16
Off-chip DRAM Size: 4096 MB Channels: 1 Width: 64-bit Data Rate: 1600 MT/s

CPU 0 runs /scratch/user/djimenez/champsim-traces/speccpu2006/xz/459.GemsFDTD-1211B.champsimtrace.xz
Heartbeat CPU 0 instructions: 10000000 cycles: 8096735 heartbeat IPC: 1.23507 cumulative IPC: 1.23507 (Simulation time: 0 hr 0 min 30 sec) 
Heartbeat CPU 0 instructions: 20000000 cycles: 16193727 heartbeat IPC: 1.23503 cumulative IPC: 1.23505 (Simulation time: 0 hr 1 min 0 sec) 

Warmup complete CPU 0 instructions: 20000001 cycles: 16193745 (Simulation time: 0 hr 1 min 0 sec) 

Heartbeat CPU 0 instructions: 30000001 cycles: 35603771 heartbeat IPC: 0.515197 cumulative IPC: 0.515198 (Simulation time: 0 hr 1 min 39 sec) 
Heartbeat CPU 0 instructions: 40000000 cycles: 56872118 heartbeat IPC: 0.470182 cumulative IPC: 0.491662 (Simulation time: 0 hr 2 min 19 sec) 
Heartbeat CPU 0 instructions: 50000001 cycles: 85853291 heartbeat IPC: 0.345052 cumulative IPC: 0.430666 (Simulation time: 0 hr 3 min 2 sec) 
Heartbeat CPU 0 instructions: 60000000 cycles: 106523654 heartbeat IPC: 0.483784 cumulative IPC: 0.442821 (Simulation time: 0 hr 3 min 42 sec) 
Heartbeat CPU 0 instructions: 70000002 cycles: 127379500 heartbeat IPC: 0.479482 cumulative IPC: 0.449698 (Simulation time: 0 hr 4 min 23 sec) 
Heartbeat CPU 0 instructions: 80000000 cycles: 147978181 heartbeat IPC: 0.485468 cumulative IPC: 0.455289 (Simulation time: 0 hr 5 min 3 sec) 
Heartbeat CPU 0 instructions: 90000003 cycles: 168616697 heartbeat IPC: 0.484531 cumulative IPC: 0.459248 (Simulation time: 0 hr 5 min 43 sec) 
Heartbeat CPU 0 instructions: 100000000 cycles: 189362942 heartbeat IPC: 0.482015 cumulative IPC: 0.461976 (Simulation time: 0 hr 6 min 23 sec) 
Heartbeat CPU 0 instructions: 110000003 cycles: 210069893 heartbeat IPC: 0.48293 cumulative IPC: 0.464214 (Simulation time: 0 hr 7 min 3 sec) 
Heartbeat CPU 0 instructions: 120000000 cycles: 230812865 heartbeat IPC: 0.482091 cumulative IPC: 0.465942 (Simulation time: 0 hr 7 min 43 sec) 
Finished CPU 0 instructions: 100000002 cycles: 214619148 cumulative IPC: 0.465942 (Simulation time: 0 hr 7 min 43 sec) 

CPU 0 Branch Prediction Accuracy: 99.9277% MPKI: 0.00411

ChampSim completed all CPUs

Region of Interest Statistics

CPU 0 cumulative IPC: 0.465942 instructions: 100000002 cycles: 214619148
L1D TOTAL     ACCESS:   58498474  HIT:   57378361  MISS:    1120113
L1D LOAD      ACCESS:   50950563  HIT:   49830498  MISS:    1120065
L1D RFO       ACCESS:    7547911  HIT:    7547863  MISS:         48
L1D PREFETCH  ACCESS:          0  HIT:          0  MISS:          0
L1D WRITEBACK ACCESS:          0  HIT:          0  MISS:          0
L1D PREFETCH  REQUESTED:          0  ISSUED:          0  USEFUL:          0  USELESS:          0
L1I TOTAL     ACCESS:   28700163  HIT:   28700109  MISS:         54
L1I LOAD      ACCESS:   28700163  HIT:   28700109  MISS:         54
L1I RFO       ACCESS:          0  HIT:          0  MISS:          0
L1I PREFETCH  ACCESS:          0  HIT:          0  MISS:          0
L1I WRITEBACK ACCESS:          0  HIT:          0  MISS:          0
L1I PREFETCH  REQUESTED:          0  ISSUED:          0  USEFUL:          0  USELESS:          0
L2C TOTAL     ACCESS:    1626951  HIT:     585771  MISS:    1041180
L2C LOAD      ACCESS:    1120039  HIT:      78937  MISS:    1041102
L2C RFO       ACCESS:         38  HIT:         31  MISS:          7
L2C PREFETCH  ACCESS:          0  HIT:          0  MISS:          0
L2C WRITEBACK ACCESS:     506874  HIT:     506803  MISS:         71
L2C PREFETCH  REQUESTED:          0  ISSUED:          0  USEFUL:          0  USELESS:          0
LLC TOTAL     ACCESS:    1547186  HIT:     688145  MISS:     859041
LLC LOAD      ACCESS:    1041102  HIT:     182074  MISS:     859028
LLC RFO       ACCESS:          7  HIT:          1  MISS:          6
LLC PREFETCH  ACCESS:          0  HIT:          0  MISS:          0
LLC WRITEBACK ACCESS:     506077  HIT:     506070  MISS:          7
LLC PREFETCH  REQUESTED:          0  ISSUED:          0  USEFUL:          0  USELESS:          0
Major fault: 0 Minor fault: 139804

DRAM Statistics
 CHANNEL 0
 RQ ROW_BUFFER_HIT:     509275  ROW_BUFFER_MISS:     349759
 DBUS_CONGESTED:     503331
 WQ ROW_BUFFER_HIT:      50035  ROW_BUFFER_MISS:     381890  FULL:          0

 AVG_CONGESTED_CYCLE: 13
