
*** ChampSim Multicore Out-of-Order Simulator ***

Warmup Instructions: 200000000
Simulation Instructions: 1000000000
Number of CPUs: 1
LLC sets: 512
LLC ways: 16
Off-chip DRAM Size: 4096 MB Channels: 1 Width: 64-bit Data Rate: 1600 MT/s

CPU 0 runs /scratch/user/djimenez/champsim-traces/speccpu2017/xz/605.mcf_s/605.mcf_s-994B.champsimtrace.xz
Heartbeat CPU 0 instructions: 10000000 cycles: 5615393 heartbeat IPC: 1.78082 cumulative IPC: 1.78082 (Simulation time: 0 hr 0 min 13 sec) 
Heartbeat CPU 0 instructions: 20000000 cycles: 11293501 heartbeat IPC: 1.76115 cumulative IPC: 1.77093 (Simulation time: 0 hr 0 min 26 sec) 
Heartbeat CPU 0 instructions: 30000000 cycles: 17007896 heartbeat IPC: 1.74997 cumulative IPC: 1.76389 (Simulation time: 0 hr 0 min 40 sec) 
Heartbeat CPU 0 instructions: 40000000 cycles: 22678164 heartbeat IPC: 1.76359 cumulative IPC: 1.76381 (Simulation time: 0 hr 0 min 53 sec) 
Heartbeat CPU 0 instructions: 50000000 cycles: 29171125 heartbeat IPC: 1.54013 cumulative IPC: 1.71402 (Simulation time: 0 hr 1 min 6 sec) 
Heartbeat CPU 0 instructions: 60000000 cycles: 34962754 heartbeat IPC: 1.72663 cumulative IPC: 1.71611 (Simulation time: 0 hr 1 min 20 sec) 
Heartbeat CPU 0 instructions: 70000002 cycles: 40833209 heartbeat IPC: 1.70345 cumulative IPC: 1.71429 (Simulation time: 0 hr 1 min 33 sec) 
Heartbeat CPU 0 instructions: 80000000 cycles: 46492780 heartbeat IPC: 1.76692 cumulative IPC: 1.7207 (Simulation time: 0 hr 1 min 46 sec) 
Heartbeat CPU 0 instructions: 90000001 cycles: 52071677 heartbeat IPC: 1.79247 cumulative IPC: 1.72839 (Simulation time: 0 hr 2 min 0 sec) 
Heartbeat CPU 0 instructions: 100000000 cycles: 57723414 heartbeat IPC: 1.76937 cumulative IPC: 1.7324 (Simulation time: 0 hr 2 min 13 sec) 
Heartbeat CPU 0 instructions: 110000003 cycles: 63564079 heartbeat IPC: 1.71213 cumulative IPC: 1.73054 (Simulation time: 0 hr 2 min 27 sec) 
Heartbeat CPU 0 instructions: 120000000 cycles: 69313799 heartbeat IPC: 1.73921 cumulative IPC: 1.73126 (Simulation time: 0 hr 2 min 40 sec) 
Heartbeat CPU 0 instructions: 130000001 cycles: 74985327 heartbeat IPC: 1.76319 cumulative IPC: 1.73367 (Simulation time: 0 hr 2 min 53 sec) 
Heartbeat CPU 0 instructions: 140000000 cycles: 80967254 heartbeat IPC: 1.6717 cumulative IPC: 1.72909 (Simulation time: 0 hr 3 min 7 sec) 
Heartbeat CPU 0 instructions: 150000002 cycles: 87029080 heartbeat IPC: 1.64967 cumulative IPC: 1.72356 (Simulation time: 0 hr 3 min 20 sec) 
Heartbeat CPU 0 instructions: 160000000 cycles: 92633730 heartbeat IPC: 1.78423 cumulative IPC: 1.72723 (Simulation time: 0 hr 3 min 33 sec) 
Heartbeat CPU 0 instructions: 170000000 cycles: 98142389 heartbeat IPC: 1.81532 cumulative IPC: 1.73218 (Simulation time: 0 hr 3 min 47 sec) 
Heartbeat CPU 0 instructions: 180000000 cycles: 104473474 heartbeat IPC: 1.57951 cumulative IPC: 1.72293 (Simulation time: 0 hr 4 min 1 sec) 
Heartbeat CPU 0 instructions: 190000001 cycles: 109994540 heartbeat IPC: 1.81124 cumulative IPC: 1.72736 (Simulation time: 0 hr 4 min 14 sec) 
Heartbeat CPU 0 instructions: 200000000 cycles: 115708646 heartbeat IPC: 1.75005 cumulative IPC: 1.72848 (Simulation time: 0 hr 4 min 27 sec) 

Warmup complete CPU 0 instructions: 200000001 cycles: 115708647 (Simulation time: 0 hr 4 min 27 sec) 

Heartbeat CPU 0 instructions: 210000001 cycles: 165633405 heartbeat IPC: 0.200301 cumulative IPC: 0.200301 (Simulation time: 0 hr 4 min 59 sec) 
Heartbeat CPU 0 instructions: 220000000 cycles: 226817010 heartbeat IPC: 0.163442 cumulative IPC: 0.180004 (Simulation time: 0 hr 5 min 32 sec) 
Heartbeat CPU 0 instructions: 230000001 cycles: 263910657 heartbeat IPC: 0.269588 cumulative IPC: 0.202426 (Simulation time: 0 hr 6 min 0 sec) 
Heartbeat CPU 0 instructions: 240000000 cycles: 302658167 heartbeat IPC: 0.258081 cumulative IPC: 0.213961 (Simulation time: 0 hr 6 min 29 sec) 
Heartbeat CPU 0 instructions: 250000002 cycles: 332508368 heartbeat IPC: 0.335006 cumulative IPC: 0.230628 (Simulation time: 0 hr 6 min 56 sec) 
Heartbeat CPU 0 instructions: 260000000 cycles: 408150488 heartbeat IPC: 0.132201 cumulative IPC: 0.205169 (Simulation time: 0 hr 7 min 33 sec) 
Heartbeat CPU 0 instructions: 270000000 cycles: 506213699 heartbeat IPC: 0.101975 cumulative IPC: 0.179255 (Simulation time: 0 hr 8 min 12 sec) 
Heartbeat CPU 0 instructions: 280000000 cycles: 552827756 heartbeat IPC: 0.214528 cumulative IPC: 0.183016 (Simulation time: 0 hr 8 min 45 sec) 
Heartbeat CPU 0 instructions: 290000000 cycles: 602337152 heartbeat IPC: 0.201982 cumulative IPC: 0.184946 (Simulation time: 0 hr 9 min 15 sec) 
Heartbeat CPU 0 instructions: 300000000 cycles: 653091727 heartbeat IPC: 0.197027 cumulative IPC: 0.186087 (Simulation time: 0 hr 9 min 47 sec) 
Heartbeat CPU 0 instructions: 310000001 cycles: 690397754 heartbeat IPC: 0.268053 cumulative IPC: 0.191408 (Simulation time: 0 hr 10 min 14 sec) 
Heartbeat CPU 0 instructions: 320000000 cycles: 728429954 heartbeat IPC: 0.262935 cumulative IPC: 0.195848 (Simulation time: 0 hr 10 min 42 sec) 
Heartbeat CPU 0 instructions: 330000000 cycles: 785339554 heartbeat IPC: 0.175717 cumulative IPC: 0.194137 (Simulation time: 0 hr 11 min 16 sec) 
Heartbeat CPU 0 instructions: 340000000 cycles: 819471375 heartbeat IPC: 0.292982 cumulative IPC: 0.198931 (Simulation time: 0 hr 11 min 45 sec) 
Heartbeat CPU 0 instructions: 350000000 cycles: 847555533 heartbeat IPC: 0.356073 cumulative IPC: 0.204961 (Simulation time: 0 hr 12 min 12 sec) 
Heartbeat CPU 0 instructions: 360000000 cycles: 901789369 heartbeat IPC: 0.184387 cumulative IPC: 0.203541 (Simulation time: 0 hr 12 min 44 sec) 
Heartbeat CPU 0 instructions: 370000001 cycles: 939190521 heartbeat IPC: 0.267371 cumulative IPC: 0.20644 (Simulation time: 0 hr 13 min 12 sec) 
Heartbeat CPU 0 instructions: 380000000 cycles: 972351760 heartbeat IPC: 0.301557 cumulative IPC: 0.210123 (Simulation time: 0 hr 13 min 39 sec) 
Heartbeat CPU 0 instructions: 390000000 cycles: 1033333286 heartbeat IPC: 0.163984 cumulative IPC: 0.207056 (Simulation time: 0 hr 14 min 12 sec) 
Heartbeat CPU 0 instructions: 400000000 cycles: 1099999608 heartbeat IPC: 0.150001 cumulative IPC: 0.203192 (Simulation time: 0 hr 14 min 49 sec) 
Heartbeat CPU 0 instructions: 410000003 cycles: 1134777734 heartbeat IPC: 0.287537 cumulative IPC: 0.20607 (Simulation time: 0 hr 15 min 18 sec) 
Heartbeat CPU 0 instructions: 420000000 cycles: 1163031340 heartbeat IPC: 0.353937 cumulative IPC: 0.210059 (Simulation time: 0 hr 15 min 45 sec) 
Heartbeat CPU 0 instructions: 430000000 cycles: 1200138313 heartbeat IPC: 0.269491 cumulative IPC: 0.212093 (Simulation time: 0 hr 16 min 14 sec) 
Heartbeat CPU 0 instructions: 440000000 cycles: 1272626546 heartbeat IPC: 0.137953 cumulative IPC: 0.207448 (Simulation time: 0 hr 16 min 54 sec) 
Heartbeat CPU 0 instructions: 450000002 cycles: 1300183822 heartbeat IPC: 0.362881 cumulative IPC: 0.211064 (Simulation time: 0 hr 17 min 21 sec) 
Heartbeat CPU 0 instructions: 460000000 cycles: 1339431117 heartbeat IPC: 0.254795 cumulative IPC: 0.212466 (Simulation time: 0 hr 17 min 52 sec) 
Heartbeat CPU 0 instructions: 470000003 cycles: 1368386617 heartbeat IPC: 0.345358 cumulative IPC: 0.215538 (Simulation time: 0 hr 18 min 19 sec) 
Heartbeat CPU 0 instructions: 480000000 cycles: 1401820420 heartbeat IPC: 0.299098 cumulative IPC: 0.21771 (Simulation time: 0 hr 18 min 55 sec) 
Heartbeat CPU 0 instructions: 490000001 cycles: 1467789668 heartbeat IPC: 0.151586 cumulative IPC: 0.214484 (Simulation time: 0 hr 19 min 31 sec) 
Heartbeat CPU 0 instructions: 500000000 cycles: 1503799936 heartbeat IPC: 0.277699 cumulative IPC: 0.216124 (Simulation time: 0 hr 19 min 59 sec) 
Heartbeat CPU 0 instructions: 510000003 cycles: 1541011500 heartbeat IPC: 0.268734 cumulative IPC: 0.217498 (Simulation time: 0 hr 20 min 29 sec) 
Heartbeat CPU 0 instructions: 520000000 cycles: 1571216544 heartbeat IPC: 0.33107 cumulative IPC: 0.219855 (Simulation time: 0 hr 20 min 56 sec) 
Heartbeat CPU 0 instructions: 530000000 cycles: 1605894871 heartbeat IPC: 0.288365 cumulative IPC: 0.221449 (Simulation time: 0 hr 21 min 24 sec) 
Heartbeat CPU 0 instructions: 540000000 cycles: 1666174760 heartbeat IPC: 0.165893 cumulative IPC: 0.219289 (Simulation time: 0 hr 21 min 58 sec) 
Heartbeat CPU 0 instructions: 550000000 cycles: 1739920645 heartbeat IPC: 0.135601 cumulative IPC: 0.215489 (Simulation time: 0 hr 22 min 35 sec) 
Heartbeat CPU 0 instructions: 560000000 cycles: 1812826557 heartbeat IPC: 0.137163 cumulative IPC: 0.212124 (Simulation time: 0 hr 23 min 13 sec) 
Heartbeat CPU 0 instructions: 570000002 cycles: 1886478161 heartbeat IPC: 0.135774 cumulative IPC: 0.208949 (Simulation time: 0 hr 23 min 50 sec) 
Heartbeat CPU 0 instructions: 580000000 cycles: 1958829201 heartbeat IPC: 0.138215 cumulative IPC: 0.206172 (Simulation time: 0 hr 24 min 27 sec) 
Heartbeat CPU 0 instructions: 590000001 cycles: 2032680018 heartbeat IPC: 0.135408 cumulative IPC: 0.203446 (Simulation time: 0 hr 25 min 4 sec) 
Heartbeat CPU 0 instructions: 600000000 cycles: 2105278139 heartbeat IPC: 0.137745 cumulative IPC: 0.201049 (Simulation time: 0 hr 25 min 42 sec) 
Heartbeat CPU 0 instructions: 610000003 cycles: 2178107908 heartbeat IPC: 0.137307 cumulative IPC: 0.198798 (Simulation time: 0 hr 26 min 19 sec) 
Heartbeat CPU 0 instructions: 620000000 cycles: 2253470941 heartbeat IPC: 0.132691 cumulative IPC: 0.196467 (Simulation time: 0 hr 26 min 58 sec) 
Heartbeat CPU 0 instructions: 630000000 cycles: 2328920767 heartbeat IPC: 0.132538 cumulative IPC: 0.194288 (Simulation time: 0 hr 27 min 38 sec) 
Heartbeat CPU 0 instructions: 640000000 cycles: 2402971498 heartbeat IPC: 0.135043 cumulative IPC: 0.19237 (Simulation time: 0 hr 28 min 18 sec) 
Heartbeat CPU 0 instructions: 650000000 cycles: 2486283169 heartbeat IPC: 0.120031 cumulative IPC: 0.189827 (Simulation time: 0 hr 28 min 57 sec) 
Heartbeat CPU 0 instructions: 660000000 cycles: 2576042500 heartbeat IPC: 0.111409 cumulative IPC: 0.186966 (Simulation time: 0 hr 29 min 35 sec) 
Heartbeat CPU 0 instructions: 670000001 cycles: 2668808166 heartbeat IPC: 0.107799 cumulative IPC: 0.18409 (Simulation time: 0 hr 30 min 14 sec) 
Heartbeat CPU 0 instructions: 680000000 cycles: 2767113429 heartbeat IPC: 0.101724 cumulative IPC: 0.181036 (Simulation time: 0 hr 30 min 55 sec) 
Heartbeat CPU 0 instructions: 690000002 cycles: 2848135755 heartbeat IPC: 0.123423 cumulative IPC: 0.179328 (Simulation time: 0 hr 31 min 39 sec) 
Heartbeat CPU 0 instructions: 700000000 cycles: 2899987223 heartbeat IPC: 0.192859 cumulative IPC: 0.17958 (Simulation time: 0 hr 32 min 12 sec) 
Heartbeat CPU 0 instructions: 710000000 cycles: 2933923445 heartbeat IPC: 0.29467 cumulative IPC: 0.180966 (Simulation time: 0 hr 32 min 39 sec) 
Heartbeat CPU 0 instructions: 720000000 cycles: 2973944432 heartbeat IPC: 0.249869 cumulative IPC: 0.18193 (Simulation time: 0 hr 33 min 10 sec) 
Heartbeat CPU 0 instructions: 730000000 cycles: 3008956038 heartbeat IPC: 0.28562 cumulative IPC: 0.183185 (Simulation time: 0 hr 33 min 38 sec) 
Heartbeat CPU 0 instructions: 740000000 cycles: 3037164028 heartbeat IPC: 0.354509 cumulative IPC: 0.184839 (Simulation time: 0 hr 34 min 4 sec) 
Heartbeat CPU 0 instructions: 750000000 cycles: 3082526025 heartbeat IPC: 0.220449 cumulative IPC: 0.185384 (Simulation time: 0 hr 34 min 38 sec) 
Heartbeat CPU 0 instructions: 760000000 cycles: 3110843629 heartbeat IPC: 0.353137 cumulative IPC: 0.18697 (Simulation time: 0 hr 35 min 5 sec) 
Heartbeat CPU 0 instructions: 770000002 cycles: 3143308073 heartbeat IPC: 0.308029 cumulative IPC: 0.188268 (Simulation time: 0 hr 35 min 33 sec) 
Heartbeat CPU 0 instructions: 780000000 cycles: 3184884578 heartbeat IPC: 0.24052 cumulative IPC: 0.188976 (Simulation time: 0 hr 36 min 1 sec) 
Heartbeat CPU 0 instructions: 790000001 cycles: 3228137529 heartbeat IPC: 0.231198 cumulative IPC: 0.189563 (Simulation time: 0 hr 36 min 31 sec) 
Heartbeat CPU 0 instructions: 800000000 cycles: 3291339944 heartbeat IPC: 0.158222 cumulative IPC: 0.188939 (Simulation time: 0 hr 37 min 5 sec) 
Heartbeat CPU 0 instructions: 810000000 cycles: 3345364988 heartbeat IPC: 0.185099 cumulative IPC: 0.188875 (Simulation time: 0 hr 37 min 37 sec) 
Heartbeat CPU 0 instructions: 820000000 cycles: 3389104569 heartbeat IPC: 0.228626 cumulative IPC: 0.189406 (Simulation time: 0 hr 38 min 6 sec) 
Heartbeat CPU 0 instructions: 830000000 cycles: 3426057676 heartbeat IPC: 0.270613 cumulative IPC: 0.190312 (Simulation time: 0 hr 38 min 35 sec) 
Heartbeat CPU 0 instructions: 840000000 cycles: 3484909299 heartbeat IPC: 0.169919 cumulative IPC: 0.189956 (Simulation time: 0 hr 39 min 9 sec) 
Heartbeat CPU 0 instructions: 850000000 cycles: 3539017447 heartbeat IPC: 0.184815 cumulative IPC: 0.189875 (Simulation time: 0 hr 39 min 45 sec) 
Heartbeat CPU 0 instructions: 860000000 cycles: 3574983620 heartbeat IPC: 0.278039 cumulative IPC: 0.190791 (Simulation time: 0 hr 40 min 15 sec) 
Heartbeat CPU 0 instructions: 870000001 cycles: 3602464966 heartbeat IPC: 0.363883 cumulative IPC: 0.192156 (Simulation time: 0 hr 40 min 41 sec) 
Heartbeat CPU 0 instructions: 880000000 cycles: 3643357316 heartbeat IPC: 0.244544 cumulative IPC: 0.192763 (Simulation time: 0 hr 41 min 11 sec) 
Heartbeat CPU 0 instructions: 890000000 cycles: 3678296937 heartbeat IPC: 0.286208 cumulative IPC: 0.193679 (Simulation time: 0 hr 41 min 39 sec) 
Heartbeat CPU 0 instructions: 900000000 cycles: 3732154722 heartbeat IPC: 0.185674 cumulative IPC: 0.19356 (Simulation time: 0 hr 42 min 11 sec) 
Heartbeat CPU 0 instructions: 910000001 cycles: 3763363899 heartbeat IPC: 0.320419 cumulative IPC: 0.194646 (Simulation time: 0 hr 42 min 38 sec) 
Heartbeat CPU 0 instructions: 920000000 cycles: 3804358021 heartbeat IPC: 0.243937 cumulative IPC: 0.195193 (Simulation time: 0 hr 43 min 7 sec) 
Heartbeat CPU 0 instructions: 930000000 cycles: 3838847153 heartbeat IPC: 0.289946 cumulative IPC: 0.196071 (Simulation time: 0 hr 43 min 35 sec) 
Heartbeat CPU 0 instructions: 940000000 cycles: 3914892349 heartbeat IPC: 0.131501 cumulative IPC: 0.194779 (Simulation time: 0 hr 44 min 13 sec) 
Heartbeat CPU 0 instructions: 950000003 cycles: 4001529562 heartbeat IPC: 0.115424 cumulative IPC: 0.193009 (Simulation time: 0 hr 44 min 54 sec) 
Heartbeat CPU 0 instructions: 960000000 cycles: 4053584111 heartbeat IPC: 0.192106 cumulative IPC: 0.192997 (Simulation time: 0 hr 45 min 29 sec) 
Heartbeat CPU 0 instructions: 970000000 cycles: 4086127721 heartbeat IPC: 0.30728 cumulative IPC: 0.193934 (Simulation time: 0 hr 45 min 56 sec) 
Heartbeat CPU 0 instructions: 980000000 cycles: 4116628610 heartbeat IPC: 0.327859 cumulative IPC: 0.194955 (Simulation time: 0 hr 46 min 24 sec) 
Heartbeat CPU 0 instructions: 990000001 cycles: 4162147740 heartbeat IPC: 0.219688 cumulative IPC: 0.195233 (Simulation time: 0 hr 46 min 57 sec) 
Heartbeat CPU 0 instructions: 1000000000 cycles: 4196254787 heartbeat IPC: 0.293195 cumulative IPC: 0.196052 (Simulation time: 0 hr 47 min 26 sec) 
Heartbeat CPU 0 instructions: 1010000001 cycles: 4231608616 heartbeat IPC: 0.282855 cumulative IPC: 0.196798 (Simulation time: 0 hr 47 min 54 sec) 
Heartbeat CPU 0 instructions: 1020000000 cycles: 4269022298 heartbeat IPC: 0.267282 cumulative IPC: 0.197433 (Simulation time: 0 hr 48 min 24 sec) 
Heartbeat CPU 0 instructions: 1030000000 cycles: 4304500401 heartbeat IPC: 0.281864 cumulative IPC: 0.198148 (Simulation time: 0 hr 48 min 53 sec) 
Heartbeat CPU 0 instructions: 1040000000 cycles: 4341638053 heartbeat IPC: 0.269269 cumulative IPC: 0.198773 (Simulation time: 0 hr 49 min 21 sec) 
Heartbeat CPU 0 instructions: 1050000003 cycles: 4439674794 heartbeat IPC: 0.102003 cumulative IPC: 0.196579 (Simulation time: 0 hr 50 min 2 sec) 
Heartbeat CPU 0 instructions: 1060000000 cycles: 4522409020 heartbeat IPC: 0.120869 cumulative IPC: 0.195157 (Simulation time: 0 hr 50 min 40 sec) 
Heartbeat CPU 0 instructions: 1070000001 cycles: 4552419764 heartbeat IPC: 0.333214 cumulative IPC: 0.196091 (Simulation time: 0 hr 51 min 7 sec) 
Heartbeat CPU 0 instructions: 1080000000 cycles: 4584679691 heartbeat IPC: 0.309982 cumulative IPC: 0.196913 (Simulation time: 0 hr 51 min 35 sec) 
Heartbeat CPU 0 instructions: 1090000002 cycles: 4661755251 heartbeat IPC: 0.129743 cumulative IPC: 0.195774 (Simulation time: 0 hr 52 min 16 sec) 
Heartbeat CPU 0 instructions: 1100000000 cycles: 4707229933 heartbeat IPC: 0.219903 cumulative IPC: 0.196013 (Simulation time: 0 hr 52 min 48 sec) 
Heartbeat CPU 0 instructions: 1110000001 cycles: 4741648785 heartbeat IPC: 0.290538 cumulative IPC: 0.196717 (Simulation time: 0 hr 53 min 16 sec) 
Heartbeat CPU 0 instructions: 1120000000 cycles: 4773022184 heartbeat IPC: 0.318741 cumulative IPC: 0.197539 (Simulation time: 0 hr 53 min 44 sec) 
Heartbeat CPU 0 instructions: 1130000000 cycles: 4800879355 heartbeat IPC: 0.358974 cumulative IPC: 0.198499 (Simulation time: 0 hr 54 min 10 sec) 
Heartbeat CPU 0 instructions: 1140000000 cycles: 4860086462 heartbeat IPC: 0.168899 cumulative IPC: 0.198129 (Simulation time: 0 hr 54 min 43 sec) 
Heartbeat CPU 0 instructions: 1150000001 cycles: 4895537064 heartbeat IPC: 0.282083 cumulative IPC: 0.198752 (Simulation time: 0 hr 55 min 11 sec) 
Heartbeat CPU 0 instructions: 1160000000 cycles: 4945787258 heartbeat IPC: 0.199004 cumulative IPC: 0.198755 (Simulation time: 0 hr 55 min 43 sec) 
Heartbeat CPU 0 instructions: 1170000003 cycles: 4977164528 heartbeat IPC: 0.318702 cumulative IPC: 0.199529 (Simulation time: 0 hr 56 min 10 sec) 
Heartbeat CPU 0 instructions: 1180000000 cycles: 5012827472 heartbeat IPC: 0.280403 cumulative IPC: 0.200118 (Simulation time: 0 hr 56 min 37 sec) 
Heartbeat CPU 0 instructions: 1190000001 cycles: 5080168098 heartbeat IPC: 0.148499 cumulative IPC: 0.199417 (Simulation time: 0 hr 57 min 16 sec) 
Heartbeat CPU 0 instructions: 1200000000 cycles: 5113686817 heartbeat IPC: 0.298341 cumulative IPC: 0.200081 (Simulation time: 0 hr 57 min 44 sec) 
Finished CPU 0 instructions: 1000000001 cycles: 4997978178 cumulative IPC: 0.200081 (Simulation time: 0 hr 57 min 44 sec) 

CPU 0 Branch Prediction Accuracy: 92.4308% MPKI: 14.6465

ChampSim completed all CPUs

Region of Interest Statistics

CPU 0 cumulative IPC: 0.200081 instructions: 1000000001 cycles: 4997978178
L1D TOTAL     ACCESS:  413371691  HIT:  373344512  MISS:   40027179
L1D LOAD      ACCESS:  313508155  HIT:  273762643  MISS:   39745512
L1D RFO       ACCESS:   99863536  HIT:   99581869  MISS:     281667
L1D PREFETCH  ACCESS:          0  HIT:          0  MISS:          0
L1D WRITEBACK ACCESS:          0  HIT:          0  MISS:          0
L1D PREFETCH  REQUESTED:          0  ISSUED:          0  USEFUL:          0  USELESS:          0
L1I TOTAL     ACCESS:  223641694  HIT:  223641694  MISS:          0
L1I LOAD      ACCESS:  223641694  HIT:  223641694  MISS:          0
L1I RFO       ACCESS:          0  HIT:          0  MISS:          0
L1I PREFETCH  ACCESS:          0  HIT:          0  MISS:          0
L1I WRITEBACK ACCESS:          0  HIT:          0  MISS:          0
L1I PREFETCH  REQUESTED:          0  ISSUED:          0  USEFUL:          0  USELESS:          0
L2C TOTAL     ACCESS:   43120522  HIT:   12442918  MISS:   30677604
L2C LOAD      ACCESS:   39745478  HIT:    9126111  MISS:   30619367
L2C RFO       ACCESS:     281659  HIT:     228512  MISS:      53147
L2C PREFETCH  ACCESS:          0  HIT:          0  MISS:          0
L2C WRITEBACK ACCESS:    3093385  HIT:    3088295  MISS:       5090
L2C PREFETCH  REQUESTED:          0  ISSUED:          0  USEFUL:          0  USELESS:          0
LLC TOTAL     ACCESS:   33002986  HIT:    5452234  MISS:   27550752
LLC LOAD      ACCESS:   30619349  HIT:    3103952  MISS:   27515397
LLC RFO       ACCESS:      53147  HIT:      24977  MISS:      28170
LLC PREFETCH  ACCESS:          0  HIT:          0  MISS:          0
LLC WRITEBACK ACCESS:    2330490  HIT:    2323305  MISS:       7185
LLC PREFETCH  REQUESTED:          0  ISSUED:          0  USEFUL:          0  USELESS:          0
Major fault: 0 Minor fault: 323461

DRAM Statistics
 CHANNEL 0
 RQ ROW_BUFFER_HIT:    8267402  ROW_BUFFER_MISS:   19262860
 DBUS_CONGESTED:    6903867
 WQ ROW_BUFFER_HIT:     259919  ROW_BUFFER_MISS:    1858918  FULL:          0

 AVG_CONGESTED_CYCLE: 12
