
*** ChampSim Multicore Out-of-Order Simulator ***

Warmup Instructions: 200000000
Simulation Instructions: 1000000000
Number of CPUs: 1
LLC sets: 512
LLC ways: 16
Off-chip DRAM Size: 4096 MB Channels: 1 Width: 64-bit Data Rate: 1600 MT/s

CPU 0 runs /scratch/user/djimenez/champsim-traces/speccpu2017/xz/620.omnetpp_s/620.omnetpp_s-141B.champsimtrace.xz
Heartbeat CPU 0 instructions: 10000000 cycles: 7407563 heartbeat IPC: 1.34997 cumulative IPC: 1.34997 (Simulation time: 0 hr 0 min 22 sec) 
Heartbeat CPU 0 instructions: 20000000 cycles: 14839694 heartbeat IPC: 1.34551 cumulative IPC: 1.34774 (Simulation time: 0 hr 0 min 44 sec) 
Heartbeat CPU 0 instructions: 30000003 cycles: 22294911 heartbeat IPC: 1.34134 cumulative IPC: 1.3456 (Simulation time: 0 hr 1 min 6 sec) 
Heartbeat CPU 0 instructions: 40000000 cycles: 29708309 heartbeat IPC: 1.34891 cumulative IPC: 1.34642 (Simulation time: 0 hr 1 min 28 sec) 
Heartbeat CPU 0 instructions: 50000001 cycles: 37169125 heartbeat IPC: 1.34034 cumulative IPC: 1.3452 (Simulation time: 0 hr 1 min 50 sec) 
Heartbeat CPU 0 instructions: 60000000 cycles: 44559873 heartbeat IPC: 1.35304 cumulative IPC: 1.3465 (Simulation time: 0 hr 2 min 13 sec) 
Heartbeat CPU 0 instructions: 70000000 cycles: 52007783 heartbeat IPC: 1.34266 cumulative IPC: 1.34595 (Simulation time: 0 hr 2 min 35 sec) 
Heartbeat CPU 0 instructions: 80000000 cycles: 59433351 heartbeat IPC: 1.3467 cumulative IPC: 1.34605 (Simulation time: 0 hr 2 min 57 sec) 
Heartbeat CPU 0 instructions: 90000002 cycles: 66886447 heartbeat IPC: 1.34172 cumulative IPC: 1.34556 (Simulation time: 0 hr 3 min 19 sec) 
Heartbeat CPU 0 instructions: 100000000 cycles: 74320225 heartbeat IPC: 1.34521 cumulative IPC: 1.34553 (Simulation time: 0 hr 3 min 41 sec) 
Heartbeat CPU 0 instructions: 110000002 cycles: 81755899 heartbeat IPC: 1.34487 cumulative IPC: 1.34547 (Simulation time: 0 hr 4 min 4 sec) 
Heartbeat CPU 0 instructions: 120000000 cycles: 89189289 heartbeat IPC: 1.34528 cumulative IPC: 1.34545 (Simulation time: 0 hr 4 min 26 sec) 
Heartbeat CPU 0 instructions: 130000000 cycles: 96588847 heartbeat IPC: 1.35143 cumulative IPC: 1.34591 (Simulation time: 0 hr 4 min 48 sec) 
Heartbeat CPU 0 instructions: 140000000 cycles: 104018936 heartbeat IPC: 1.34588 cumulative IPC: 1.34591 (Simulation time: 0 hr 5 min 11 sec) 
Heartbeat CPU 0 instructions: 150000001 cycles: 111464350 heartbeat IPC: 1.34311 cumulative IPC: 1.34572 (Simulation time: 0 hr 5 min 33 sec) 
Heartbeat CPU 0 instructions: 160000000 cycles: 118903583 heartbeat IPC: 1.34422 cumulative IPC: 1.34563 (Simulation time: 0 hr 5 min 55 sec) 
Heartbeat CPU 0 instructions: 170000003 cycles: 126314780 heartbeat IPC: 1.34931 cumulative IPC: 1.34584 (Simulation time: 0 hr 6 min 17 sec) 
Heartbeat CPU 0 instructions: 180000000 cycles: 133745330 heartbeat IPC: 1.3458 cumulative IPC: 1.34584 (Simulation time: 0 hr 6 min 39 sec) 
Heartbeat CPU 0 instructions: 190000003 cycles: 141172633 heartbeat IPC: 1.34638 cumulative IPC: 1.34587 (Simulation time: 0 hr 7 min 2 sec) 
Heartbeat CPU 0 instructions: 200000000 cycles: 148616648 heartbeat IPC: 1.34336 cumulative IPC: 1.34574 (Simulation time: 0 hr 7 min 24 sec) 

Warmup complete CPU 0 instructions: 200000003 cycles: 148616649 (Simulation time: 0 hr 7 min 24 sec) 

Heartbeat CPU 0 instructions: 210000003 cycles: 194920430 heartbeat IPC: 0.215965 cumulative IPC: 0.215965 (Simulation time: 0 hr 8 min 8 sec) 
Heartbeat CPU 0 instructions: 220000000 cycles: 240846608 heartbeat IPC: 0.217741 cumulative IPC: 0.216849 (Simulation time: 0 hr 8 min 52 sec) 
Heartbeat CPU 0 instructions: 230000001 cycles: 286839460 heartbeat IPC: 0.217425 cumulative IPC: 0.217041 (Simulation time: 0 hr 9 min 36 sec) 
Heartbeat CPU 0 instructions: 240000000 cycles: 332889629 heartbeat IPC: 0.217154 cumulative IPC: 0.217069 (Simulation time: 0 hr 10 min 20 sec) 
Heartbeat CPU 0 instructions: 250000001 cycles: 377837656 heartbeat IPC: 0.222479 cumulative IPC: 0.21813 (Simulation time: 0 hr 11 min 3 sec) 
Heartbeat CPU 0 instructions: 260000000 cycles: 423026778 heartbeat IPC: 0.221292 cumulative IPC: 0.218651 (Simulation time: 0 hr 11 min 47 sec) 
Heartbeat CPU 0 instructions: 270000002 cycles: 468985980 heartbeat IPC: 0.217584 cumulative IPC: 0.218498 (Simulation time: 0 hr 12 min 30 sec) 
Heartbeat CPU 0 instructions: 280000000 cycles: 515672152 heartbeat IPC: 0.214196 cumulative IPC: 0.217951 (Simulation time: 0 hr 13 min 14 sec) 
Heartbeat CPU 0 instructions: 290000001 cycles: 561662318 heartbeat IPC: 0.217438 cumulative IPC: 0.217894 (Simulation time: 0 hr 13 min 58 sec) 
Heartbeat CPU 0 instructions: 300000000 cycles: 606774946 heartbeat IPC: 0.221667 cumulative IPC: 0.218265 (Simulation time: 0 hr 14 min 42 sec) 
Heartbeat CPU 0 instructions: 310000000 cycles: 652829372 heartbeat IPC: 0.217134 cumulative IPC: 0.218162 (Simulation time: 0 hr 15 min 26 sec) 
Heartbeat CPU 0 instructions: 320000000 cycles: 698469646 heartbeat IPC: 0.219105 cumulative IPC: 0.21824 (Simulation time: 0 hr 16 min 9 sec) 
Heartbeat CPU 0 instructions: 330000000 cycles: 743910574 heartbeat IPC: 0.220066 cumulative IPC: 0.21838 (Simulation time: 0 hr 16 min 53 sec) 
Heartbeat CPU 0 instructions: 340000000 cycles: 788320646 heartbeat IPC: 0.225174 cumulative IPC: 0.218851 (Simulation time: 0 hr 17 min 37 sec) 
Heartbeat CPU 0 instructions: 350000000 cycles: 834200710 heartbeat IPC: 0.21796 cumulative IPC: 0.218792 (Simulation time: 0 hr 18 min 20 sec) 
Heartbeat CPU 0 instructions: 360000000 cycles: 879671709 heartbeat IPC: 0.21992 cumulative IPC: 0.218862 (Simulation time: 0 hr 19 min 4 sec) 
Heartbeat CPU 0 instructions: 370000000 cycles: 925136061 heartbeat IPC: 0.219953 cumulative IPC: 0.218926 (Simulation time: 0 hr 19 min 47 sec) 
Heartbeat CPU 0 instructions: 380000000 cycles: 970531828 heartbeat IPC: 0.220285 cumulative IPC: 0.219001 (Simulation time: 0 hr 20 min 31 sec) 
Heartbeat CPU 0 instructions: 390000000 cycles: 1015947983 heartbeat IPC: 0.220186 cumulative IPC: 0.219063 (Simulation time: 0 hr 21 min 15 sec) 
Heartbeat CPU 0 instructions: 400000000 cycles: 1061281793 heartbeat IPC: 0.220586 cumulative IPC: 0.219138 (Simulation time: 0 hr 21 min 58 sec) 
Heartbeat CPU 0 instructions: 410000000 cycles: 1106704059 heartbeat IPC: 0.220156 cumulative IPC: 0.219187 (Simulation time: 0 hr 22 min 42 sec) 
Heartbeat CPU 0 instructions: 420000000 cycles: 1152547717 heartbeat IPC: 0.218133 cumulative IPC: 0.219139 (Simulation time: 0 hr 23 min 26 sec) 
Heartbeat CPU 0 instructions: 430000000 cycles: 1198377661 heartbeat IPC: 0.218198 cumulative IPC: 0.219097 (Simulation time: 0 hr 24 min 10 sec) 
Heartbeat CPU 0 instructions: 440000000 cycles: 1244125578 heartbeat IPC: 0.218589 cumulative IPC: 0.219076 (Simulation time: 0 hr 24 min 54 sec) 
Heartbeat CPU 0 instructions: 450000000 cycles: 1289910708 heartbeat IPC: 0.218412 cumulative IPC: 0.21905 (Simulation time: 0 hr 25 min 37 sec) 
Heartbeat CPU 0 instructions: 460000000 cycles: 1335569560 heartbeat IPC: 0.219016 cumulative IPC: 0.219048 (Simulation time: 0 hr 26 min 21 sec) 
Heartbeat CPU 0 instructions: 470000000 cycles: 1381195917 heartbeat IPC: 0.219172 cumulative IPC: 0.219053 (Simulation time: 0 hr 27 min 5 sec) 
Heartbeat CPU 0 instructions: 480000000 cycles: 1426945311 heartbeat IPC: 0.218582 cumulative IPC: 0.219036 (Simulation time: 0 hr 27 min 48 sec) 
Heartbeat CPU 0 instructions: 490000000 cycles: 1474016733 heartbeat IPC: 0.212443 cumulative IPC: 0.218802 (Simulation time: 0 hr 28 min 33 sec) 
Heartbeat CPU 0 instructions: 500000000 cycles: 1519673790 heartbeat IPC: 0.219024 cumulative IPC: 0.218809 (Simulation time: 0 hr 29 min 17 sec) 
Heartbeat CPU 0 instructions: 510000000 cycles: 1566238605 heartbeat IPC: 0.214754 cumulative IPC: 0.218676 (Simulation time: 0 hr 30 min 1 sec) 
Heartbeat CPU 0 instructions: 520000000 cycles: 1612201413 heartbeat IPC: 0.217567 cumulative IPC: 0.218641 (Simulation time: 0 hr 30 min 45 sec) 
Heartbeat CPU 0 instructions: 530000001 cycles: 1657753515 heartbeat IPC: 0.219529 cumulative IPC: 0.218668 (Simulation time: 0 hr 31 min 29 sec) 
Heartbeat CPU 0 instructions: 540000000 cycles: 1704451712 heartbeat IPC: 0.214141 cumulative IPC: 0.218532 (Simulation time: 0 hr 32 min 13 sec) 
Heartbeat CPU 0 instructions: 550000000 cycles: 1750766117 heartbeat IPC: 0.215916 cumulative IPC: 0.218457 (Simulation time: 0 hr 32 min 57 sec) 
Heartbeat CPU 0 instructions: 560000000 cycles: 1796844713 heartbeat IPC: 0.21702 cumulative IPC: 0.218416 (Simulation time: 0 hr 33 min 41 sec) 
Heartbeat CPU 0 instructions: 570000000 cycles: 1843264987 heartbeat IPC: 0.215423 cumulative IPC: 0.218334 (Simulation time: 0 hr 34 min 25 sec) 
Heartbeat CPU 0 instructions: 580000000 cycles: 1889147231 heartbeat IPC: 0.217949 cumulative IPC: 0.218324 (Simulation time: 0 hr 35 min 8 sec) 
Heartbeat CPU 0 instructions: 590000002 cycles: 1935550513 heartbeat IPC: 0.215502 cumulative IPC: 0.218251 (Simulation time: 0 hr 35 min 52 sec) 
Heartbeat CPU 0 instructions: 600000000 cycles: 1981216851 heartbeat IPC: 0.21898 cumulative IPC: 0.218269 (Simulation time: 0 hr 36 min 36 sec) 
Heartbeat CPU 0 instructions: 610000000 cycles: 2026975347 heartbeat IPC: 0.218539 cumulative IPC: 0.218276 (Simulation time: 0 hr 37 min 20 sec) 
Heartbeat CPU 0 instructions: 620000000 cycles: 2073092699 heartbeat IPC: 0.216838 cumulative IPC: 0.218241 (Simulation time: 0 hr 38 min 3 sec) 
Heartbeat CPU 0 instructions: 630000001 cycles: 2118992470 heartbeat IPC: 0.217866 cumulative IPC: 0.218232 (Simulation time: 0 hr 38 min 47 sec) 
Heartbeat CPU 0 instructions: 640000000 cycles: 2165270913 heartbeat IPC: 0.216083 cumulative IPC: 0.218183 (Simulation time: 0 hr 39 min 31 sec) 
Heartbeat CPU 0 instructions: 650000000 cycles: 2211334072 heartbeat IPC: 0.217093 cumulative IPC: 0.218159 (Simulation time: 0 hr 40 min 14 sec) 
Heartbeat CPU 0 instructions: 660000000 cycles: 2257128098 heartbeat IPC: 0.218369 cumulative IPC: 0.218163 (Simulation time: 0 hr 40 min 58 sec) 
Heartbeat CPU 0 instructions: 670000000 cycles: 2302771968 heartbeat IPC: 0.219087 cumulative IPC: 0.218183 (Simulation time: 0 hr 41 min 42 sec) 
Heartbeat CPU 0 instructions: 680000000 cycles: 2348613825 heartbeat IPC: 0.218141 cumulative IPC: 0.218182 (Simulation time: 0 hr 42 min 25 sec) 
Heartbeat CPU 0 instructions: 690000000 cycles: 2393957111 heartbeat IPC: 0.22054 cumulative IPC: 0.21823 (Simulation time: 0 hr 43 min 9 sec) 
Heartbeat CPU 0 instructions: 700000000 cycles: 2439492538 heartbeat IPC: 0.219609 cumulative IPC: 0.218257 (Simulation time: 0 hr 43 min 53 sec) 
Heartbeat CPU 0 instructions: 710000000 cycles: 2485185224 heartbeat IPC: 0.218853 cumulative IPC: 0.218269 (Simulation time: 0 hr 44 min 37 sec) 
Heartbeat CPU 0 instructions: 720000000 cycles: 2531199592 heartbeat IPC: 0.217323 cumulative IPC: 0.218251 (Simulation time: 0 hr 45 min 20 sec) 
Heartbeat CPU 0 instructions: 730000001 cycles: 2576618789 heartbeat IPC: 0.220171 cumulative IPC: 0.218286 (Simulation time: 0 hr 46 min 4 sec) 
Heartbeat CPU 0 instructions: 740000000 cycles: 2622406635 heartbeat IPC: 0.218399 cumulative IPC: 0.218289 (Simulation time: 0 hr 46 min 48 sec) 
Heartbeat CPU 0 instructions: 750000003 cycles: 2668158624 heartbeat IPC: 0.21857 cumulative IPC: 0.218294 (Simulation time: 0 hr 47 min 31 sec) 
Heartbeat CPU 0 instructions: 760000000 cycles: 2713549430 heartbeat IPC: 0.220309 cumulative IPC: 0.218329 (Simulation time: 0 hr 48 min 15 sec) 
Heartbeat CPU 0 instructions: 770000001 cycles: 2758574293 heartbeat IPC: 0.2221 cumulative IPC: 0.218394 (Simulation time: 0 hr 48 min 59 sec) 
Heartbeat CPU 0 instructions: 780000000 cycles: 2803754994 heartbeat IPC: 0.221333 cumulative IPC: 0.218444 (Simulation time: 0 hr 49 min 43 sec) 
Heartbeat CPU 0 instructions: 790000001 cycles: 2849706846 heartbeat IPC: 0.217619 cumulative IPC: 0.21843 (Simulation time: 0 hr 50 min 27 sec) 
Heartbeat CPU 0 instructions: 800000000 cycles: 2894803422 heartbeat IPC: 0.221746 cumulative IPC: 0.218485 (Simulation time: 0 hr 51 min 10 sec) 
Heartbeat CPU 0 instructions: 810000003 cycles: 2940778698 heartbeat IPC: 0.217508 cumulative IPC: 0.218469 (Simulation time: 0 hr 51 min 54 sec) 
Heartbeat CPU 0 instructions: 820000000 cycles: 2986560956 heartbeat IPC: 0.218425 cumulative IPC: 0.218468 (Simulation time: 0 hr 52 min 38 sec) 
Heartbeat CPU 0 instructions: 830000000 cycles: 3032168335 heartbeat IPC: 0.219263 cumulative IPC: 0.218481 (Simulation time: 0 hr 53 min 22 sec) 
Heartbeat CPU 0 instructions: 840000000 cycles: 3077976281 heartbeat IPC: 0.218303 cumulative IPC: 0.218478 (Simulation time: 0 hr 54 min 6 sec) 
Heartbeat CPU 0 instructions: 850000002 cycles: 3123854749 heartbeat IPC: 0.217967 cumulative IPC: 0.21847 (Simulation time: 0 hr 54 min 50 sec) 
Heartbeat CPU 0 instructions: 860000000 cycles: 3169510142 heartbeat IPC: 0.219032 cumulative IPC: 0.218478 (Simulation time: 0 hr 55 min 34 sec) 
Heartbeat CPU 0 instructions: 870000000 cycles: 3215386716 heartbeat IPC: 0.217976 cumulative IPC: 0.218471 (Simulation time: 0 hr 56 min 18 sec) 
Heartbeat CPU 0 instructions: 880000000 cycles: 3261478166 heartbeat IPC: 0.21696 cumulative IPC: 0.218449 (Simulation time: 0 hr 57 min 2 sec) 
Heartbeat CPU 0 instructions: 890000000 cycles: 3307103278 heartbeat IPC: 0.219178 cumulative IPC: 0.218459 (Simulation time: 0 hr 57 min 46 sec) 
Heartbeat CPU 0 instructions: 900000000 cycles: 3351993041 heartbeat IPC: 0.222768 cumulative IPC: 0.218519 (Simulation time: 0 hr 58 min 29 sec) 
Heartbeat CPU 0 instructions: 910000002 cycles: 3397837893 heartbeat IPC: 0.218127 cumulative IPC: 0.218514 (Simulation time: 0 hr 59 min 13 sec) 
Heartbeat CPU 0 instructions: 920000000 cycles: 3443998930 heartbeat IPC: 0.216633 cumulative IPC: 0.218488 (Simulation time: 0 hr 59 min 57 sec) 
Heartbeat CPU 0 instructions: 930000001 cycles: 3489059068 heartbeat IPC: 0.221926 cumulative IPC: 0.218534 (Simulation time: 1 hr 0 min 41 sec) 
Heartbeat CPU 0 instructions: 940000000 cycles: 3534541642 heartbeat IPC: 0.219864 cumulative IPC: 0.218552 (Simulation time: 1 hr 1 min 25 sec) 
Heartbeat CPU 0 instructions: 950000000 cycles: 3580413675 heartbeat IPC: 0.217998 cumulative IPC: 0.218544 (Simulation time: 1 hr 2 min 9 sec) 
Heartbeat CPU 0 instructions: 960000000 cycles: 3626043735 heartbeat IPC: 0.219154 cumulative IPC: 0.218552 (Simulation time: 1 hr 2 min 52 sec) 
Heartbeat CPU 0 instructions: 970000003 cycles: 3671847940 heartbeat IPC: 0.218321 cumulative IPC: 0.218549 (Simulation time: 1 hr 3 min 36 sec) 
Heartbeat CPU 0 instructions: 980000000 cycles: 3717196883 heartbeat IPC: 0.220512 cumulative IPC: 0.218574 (Simulation time: 1 hr 4 min 20 sec) 
Heartbeat CPU 0 instructions: 990000000 cycles: 3763052255 heartbeat IPC: 0.218077 cumulative IPC: 0.218568 (Simulation time: 1 hr 5 min 4 sec) 
Heartbeat CPU 0 instructions: 1000000000 cycles: 3809104047 heartbeat IPC: 0.217147 cumulative IPC: 0.21855 (Simulation time: 1 hr 5 min 48 sec) 
Heartbeat CPU 0 instructions: 1010000000 cycles: 3854855041 heartbeat IPC: 0.218574 cumulative IPC: 0.21855 (Simulation time: 1 hr 6 min 32 sec) 
Heartbeat CPU 0 instructions: 1020000000 cycles: 3900909340 heartbeat IPC: 0.217135 cumulative IPC: 0.218533 (Simulation time: 1 hr 7 min 16 sec) 
Heartbeat CPU 0 instructions: 1030000000 cycles: 3946529556 heartbeat IPC: 0.219201 cumulative IPC: 0.218541 (Simulation time: 1 hr 7 min 59 sec) 
Heartbeat CPU 0 instructions: 1040000000 cycles: 3991723228 heartbeat IPC: 0.22127 cumulative IPC: 0.218573 (Simulation time: 1 hr 8 min 43 sec) 
Heartbeat CPU 0 instructions: 1050000001 cycles: 4037046582 heartbeat IPC: 0.220637 cumulative IPC: 0.218597 (Simulation time: 1 hr 9 min 27 sec) 
Heartbeat CPU 0 instructions: 1060000000 cycles: 4081353061 heartbeat IPC: 0.225701 cumulative IPC: 0.218677 (Simulation time: 1 hr 10 min 10 sec) 
Heartbeat CPU 0 instructions: 1070000001 cycles: 4126534904 heartbeat IPC: 0.221328 cumulative IPC: 0.218707 (Simulation time: 1 hr 10 min 53 sec) 
Heartbeat CPU 0 instructions: 1080000000 cycles: 4171941876 heartbeat IPC: 0.22023 cumulative IPC: 0.218725 (Simulation time: 1 hr 11 min 37 sec) 
Heartbeat CPU 0 instructions: 1090000000 cycles: 4217405664 heartbeat IPC: 0.219955 cumulative IPC: 0.218738 (Simulation time: 1 hr 12 min 20 sec) 
Heartbeat CPU 0 instructions: 1100000000 cycles: 4262208978 heartbeat IPC: 0.223198 cumulative IPC: 0.218787 (Simulation time: 1 hr 13 min 4 sec) 
Heartbeat CPU 0 instructions: 1110000002 cycles: 4307693964 heartbeat IPC: 0.219853 cumulative IPC: 0.218799 (Simulation time: 1 hr 13 min 48 sec) 
Heartbeat CPU 0 instructions: 1120000000 cycles: 4352736030 heartbeat IPC: 0.222015 cumulative IPC: 0.218833 (Simulation time: 1 hr 14 min 31 sec) 
Heartbeat CPU 0 instructions: 1130000001 cycles: 4398124290 heartbeat IPC: 0.220321 cumulative IPC: 0.218849 (Simulation time: 1 hr 15 min 15 sec) 
Heartbeat CPU 0 instructions: 1140000000 cycles: 4443289486 heartbeat IPC: 0.221409 cumulative IPC: 0.218876 (Simulation time: 1 hr 15 min 58 sec) 
Heartbeat CPU 0 instructions: 1150000001 cycles: 4487909186 heartbeat IPC: 0.224116 cumulative IPC: 0.21893 (Simulation time: 1 hr 16 min 42 sec) 
Heartbeat CPU 0 instructions: 1160000000 cycles: 4532701939 heartbeat IPC: 0.22325 cumulative IPC: 0.218974 (Simulation time: 1 hr 17 min 25 sec) 
Heartbeat CPU 0 instructions: 1170000000 cycles: 4578248848 heartbeat IPC: 0.219554 cumulative IPC: 0.21898 (Simulation time: 1 hr 18 min 9 sec) 
Heartbeat CPU 0 instructions: 1180000000 cycles: 4623101240 heartbeat IPC: 0.222954 cumulative IPC: 0.21902 (Simulation time: 1 hr 18 min 52 sec) 
Heartbeat CPU 0 instructions: 1190000001 cycles: 4668435880 heartbeat IPC: 0.220582 cumulative IPC: 0.219035 (Simulation time: 1 hr 19 min 36 sec) 
Heartbeat CPU 0 instructions: 1200000000 cycles: 4713295414 heartbeat IPC: 0.222918 cumulative IPC: 0.219073 (Simulation time: 1 hr 20 min 19 sec) 
Finished CPU 0 instructions: 1000000000 cycles: 4564678791 cumulative IPC: 0.219073 (Simulation time: 1 hr 20 min 19 sec) 

CPU 0 Branch Prediction Accuracy: 96.1636% MPKI: 5.73015

ChampSim completed all CPUs

Region of Interest Statistics

CPU 0 cumulative IPC: 0.219073 instructions: 1000000000 cycles: 4564678791
L1D TOTAL     ACCESS:  446833257  HIT:  426235747  MISS:   20597510
L1D LOAD      ACCESS:  266275577  HIT:  248183468  MISS:   18092109
L1D RFO       ACCESS:  180557680  HIT:  178052279  MISS:    2505401
L1D PREFETCH  ACCESS:          0  HIT:          0  MISS:          0
L1D WRITEBACK ACCESS:          0  HIT:          0  MISS:          0
L1D PREFETCH  REQUESTED:          0  ISSUED:          0  USEFUL:          0  USELESS:          0
L1I TOTAL     ACCESS:  350319703  HIT:  349666778  MISS:     652925
L1I LOAD      ACCESS:  350319703  HIT:  349666778  MISS:     652925
L1I RFO       ACCESS:          0  HIT:          0  MISS:          0
L1I PREFETCH  ACCESS:          0  HIT:          0  MISS:          0
L1I WRITEBACK ACCESS:          0  HIT:          0  MISS:          0
L1I PREFETCH  REQUESTED:          0  ISSUED:          0  USEFUL:          0  USELESS:          0
L2C TOTAL     ACCESS:   31015034  HIT:   15811874  MISS:   15203160
L2C LOAD      ACCESS:   18744303  HIT:    5652678  MISS:   13091625
L2C RFO       ACCESS:    2505275  HIT:     425440  MISS:    2079835
L2C PREFETCH  ACCESS:          0  HIT:          0  MISS:          0
L2C WRITEBACK ACCESS:    9765456  HIT:    9733756  MISS:      31700
L2C PREFETCH  REQUESTED:          0  ISSUED:          0  USEFUL:          0  USELESS:          0
LLC TOTAL     ACCESS:   22642908  HIT:    8799613  MISS:   13843295
LLC LOAD      ACCESS:   13091600  HIT:    1315558  MISS:   11776042
LLC RFO       ACCESS:    2079832  HIT:     273003  MISS:    1806829
LLC PREFETCH  ACCESS:          0  HIT:          0  MISS:          0
LLC WRITEBACK ACCESS:    7471476  HIT:    7211052  MISS:     260424
LLC PREFETCH  REQUESTED:          0  ISSUED:          0  USEFUL:          0  USELESS:          0
Major fault: 0 Minor fault: 55545

DRAM Statistics
 CHANNEL 0
 RQ ROW_BUFFER_HIT:    3837781  ROW_BUFFER_MISS:    9732389
 DBUS_CONGESTED:    7902047
 WQ ROW_BUFFER_HIT:    1114055  ROW_BUFFER_MISS:    5575159  FULL:          0

 AVG_CONGESTED_CYCLE: 14
