
*** ChampSim Multicore Out-of-Order Simulator ***

Warmup Instructions: 200000000
Simulation Instructions: 1000000000
Number of CPUs: 1
LLC sets: 512
LLC ways: 16
Off-chip DRAM Size: 4096 MB Channels: 1 Width: 64-bit Data Rate: 1600 MT/s

CPU 0 runs /scratch/user/djimenez/champsim-traces/speccpu2017/xz/641.leela_s/641.leela_s-602B.champsimtrace.xz
Heartbeat CPU 0 instructions: 10000000 cycles: 6397705 heartbeat IPC: 1.56306 cumulative IPC: 1.56306 (Simulation time: 0 hr 0 min 14 sec) 
Heartbeat CPU 0 instructions: 20000000 cycles: 12730974 heartbeat IPC: 1.57896 cumulative IPC: 1.57097 (Simulation time: 0 hr 0 min 27 sec) 
Heartbeat CPU 0 instructions: 30000000 cycles: 19016542 heartbeat IPC: 1.59095 cumulative IPC: 1.57757 (Simulation time: 0 hr 0 min 40 sec) 
Heartbeat CPU 0 instructions: 40000000 cycles: 25308399 heartbeat IPC: 1.58936 cumulative IPC: 1.5805 (Simulation time: 0 hr 0 min 54 sec) 
Heartbeat CPU 0 instructions: 50000000 cycles: 31597072 heartbeat IPC: 1.59016 cumulative IPC: 1.58243 (Simulation time: 0 hr 1 min 7 sec) 
Heartbeat CPU 0 instructions: 60000000 cycles: 37866336 heartbeat IPC: 1.59508 cumulative IPC: 1.58452 (Simulation time: 0 hr 1 min 20 sec) 
Heartbeat CPU 0 instructions: 70000001 cycles: 44115404 heartbeat IPC: 1.60024 cumulative IPC: 1.58675 (Simulation time: 0 hr 1 min 34 sec) 
Heartbeat CPU 0 instructions: 80000000 cycles: 50342795 heartbeat IPC: 1.60581 cumulative IPC: 1.58911 (Simulation time: 0 hr 1 min 47 sec) 
Heartbeat CPU 0 instructions: 90000000 cycles: 56596222 heartbeat IPC: 1.59912 cumulative IPC: 1.59021 (Simulation time: 0 hr 2 min 1 sec) 
Heartbeat CPU 0 instructions: 100000000 cycles: 62928950 heartbeat IPC: 1.5791 cumulative IPC: 1.58909 (Simulation time: 0 hr 2 min 14 sec) 
Heartbeat CPU 0 instructions: 110000003 cycles: 69288586 heartbeat IPC: 1.57242 cumulative IPC: 1.58756 (Simulation time: 0 hr 2 min 27 sec) 
Heartbeat CPU 0 instructions: 120000000 cycles: 75653875 heartbeat IPC: 1.57102 cumulative IPC: 1.58617 (Simulation time: 0 hr 2 min 41 sec) 
Heartbeat CPU 0 instructions: 130000002 cycles: 81922091 heartbeat IPC: 1.59535 cumulative IPC: 1.58687 (Simulation time: 0 hr 2 min 54 sec) 
Heartbeat CPU 0 instructions: 140000000 cycles: 88180814 heartbeat IPC: 1.59777 cumulative IPC: 1.58765 (Simulation time: 0 hr 3 min 8 sec) 
Heartbeat CPU 0 instructions: 150000001 cycles: 94451772 heartbeat IPC: 1.59465 cumulative IPC: 1.58811 (Simulation time: 0 hr 3 min 21 sec) 
Heartbeat CPU 0 instructions: 160000000 cycles: 100768736 heartbeat IPC: 1.58304 cumulative IPC: 1.58779 (Simulation time: 0 hr 3 min 34 sec) 
Heartbeat CPU 0 instructions: 170000000 cycles: 107022661 heartbeat IPC: 1.599 cumulative IPC: 1.58845 (Simulation time: 0 hr 3 min 48 sec) 
Heartbeat CPU 0 instructions: 180000000 cycles: 113251646 heartbeat IPC: 1.6054 cumulative IPC: 1.58938 (Simulation time: 0 hr 4 min 1 sec) 
Heartbeat CPU 0 instructions: 190000003 cycles: 121568424 heartbeat IPC: 1.20239 cumulative IPC: 1.56291 (Simulation time: 0 hr 4 min 19 sec) 
Heartbeat CPU 0 instructions: 200000000 cycles: 128295061 heartbeat IPC: 1.48663 cumulative IPC: 1.55891 (Simulation time: 0 hr 4 min 34 sec) 

Warmup complete CPU 0 instructions: 200000001 cycles: 128295062 (Simulation time: 0 hr 4 min 34 sec) 

Heartbeat CPU 0 instructions: 210000003 cycles: 152299120 heartbeat IPC: 0.416596 cumulative IPC: 0.416596 (Simulation time: 0 hr 4 min 59 sec) 
Heartbeat CPU 0 instructions: 220000000 cycles: 176124618 heartbeat IPC: 0.419718 cumulative IPC: 0.418151 (Simulation time: 0 hr 5 min 24 sec) 
Heartbeat CPU 0 instructions: 230000000 cycles: 199977389 heartbeat IPC: 0.419239 cumulative IPC: 0.418513 (Simulation time: 0 hr 5 min 49 sec) 
Heartbeat CPU 0 instructions: 240000000 cycles: 223734479 heartbeat IPC: 0.420927 cumulative IPC: 0.419114 (Simulation time: 0 hr 6 min 14 sec) 
Heartbeat CPU 0 instructions: 250000000 cycles: 247421960 heartbeat IPC: 0.422164 cumulative IPC: 0.41972 (Simulation time: 0 hr 6 min 39 sec) 
Heartbeat CPU 0 instructions: 260000000 cycles: 271031842 heartbeat IPC: 0.423551 cumulative IPC: 0.420354 (Simulation time: 0 hr 7 min 4 sec) 
Heartbeat CPU 0 instructions: 270000001 cycles: 294727810 heartbeat IPC: 0.422013 cumulative IPC: 0.42059 (Simulation time: 0 hr 7 min 29 sec) 
Heartbeat CPU 0 instructions: 280000000 cycles: 318355881 heartbeat IPC: 0.423225 cumulative IPC: 0.420918 (Simulation time: 0 hr 7 min 54 sec) 
Heartbeat CPU 0 instructions: 290000000 cycles: 341930272 heartbeat IPC: 0.424189 cumulative IPC: 0.421279 (Simulation time: 0 hr 8 min 19 sec) 
Heartbeat CPU 0 instructions: 300000000 cycles: 365610617 heartbeat IPC: 0.422291 cumulative IPC: 0.42138 (Simulation time: 0 hr 8 min 44 sec) 
Heartbeat CPU 0 instructions: 310000000 cycles: 389122860 heartbeat IPC: 0.42531 cumulative IPC: 0.421734 (Simulation time: 0 hr 9 min 9 sec) 
Heartbeat CPU 0 instructions: 320000000 cycles: 412565870 heartbeat IPC: 0.426566 cumulative IPC: 0.422133 (Simulation time: 0 hr 9 min 34 sec) 
Heartbeat CPU 0 instructions: 330000002 cycles: 436011999 heartbeat IPC: 0.42651 cumulative IPC: 0.422466 (Simulation time: 0 hr 9 min 59 sec) 
Heartbeat CPU 0 instructions: 340000000 cycles: 459661204 heartbeat IPC: 0.422847 cumulative IPC: 0.422493 (Simulation time: 0 hr 10 min 24 sec) 
Heartbeat CPU 0 instructions: 350000000 cycles: 483132897 heartbeat IPC: 0.426045 cumulative IPC: 0.422728 (Simulation time: 0 hr 10 min 49 sec) 
Heartbeat CPU 0 instructions: 360000000 cycles: 506530290 heartbeat IPC: 0.427398 cumulative IPC: 0.423017 (Simulation time: 0 hr 11 min 14 sec) 
Heartbeat CPU 0 instructions: 370000001 cycles: 530147822 heartbeat IPC: 0.423414 cumulative IPC: 0.423041 (Simulation time: 0 hr 11 min 39 sec) 
Heartbeat CPU 0 instructions: 380000000 cycles: 553685308 heartbeat IPC: 0.424854 cumulative IPC: 0.423141 (Simulation time: 0 hr 12 min 4 sec) 
Heartbeat CPU 0 instructions: 390000000 cycles: 577015836 heartbeat IPC: 0.428623 cumulative IPC: 0.423426 (Simulation time: 0 hr 12 min 28 sec) 
Heartbeat CPU 0 instructions: 400000000 cycles: 600401310 heartbeat IPC: 0.427616 cumulative IPC: 0.423633 (Simulation time: 0 hr 12 min 53 sec) 
Heartbeat CPU 0 instructions: 410000000 cycles: 623807335 heartbeat IPC: 0.42724 cumulative IPC: 0.423804 (Simulation time: 0 hr 13 min 18 sec) 
Heartbeat CPU 0 instructions: 420000000 cycles: 647217713 heartbeat IPC: 0.427161 cumulative IPC: 0.423955 (Simulation time: 0 hr 13 min 43 sec) 
Heartbeat CPU 0 instructions: 430000003 cycles: 670548224 heartbeat IPC: 0.428623 cumulative IPC: 0.424156 (Simulation time: 0 hr 14 min 8 sec) 
Heartbeat CPU 0 instructions: 440000000 cycles: 693956865 heartbeat IPC: 0.427193 cumulative IPC: 0.424282 (Simulation time: 0 hr 14 min 33 sec) 
Heartbeat CPU 0 instructions: 450000003 cycles: 717525650 heartbeat IPC: 0.42429 cumulative IPC: 0.424282 (Simulation time: 0 hr 14 min 58 sec) 
Heartbeat CPU 0 instructions: 460000000 cycles: 741041582 heartbeat IPC: 0.425243 cumulative IPC: 0.424319 (Simulation time: 0 hr 15 min 23 sec) 
Heartbeat CPU 0 instructions: 470000002 cycles: 764536350 heartbeat IPC: 0.425627 cumulative IPC: 0.424367 (Simulation time: 0 hr 15 min 48 sec) 
Heartbeat CPU 0 instructions: 480000000 cycles: 788082686 heartbeat IPC: 0.424694 cumulative IPC: 0.424379 (Simulation time: 0 hr 16 min 13 sec) 
Heartbeat CPU 0 instructions: 490000000 cycles: 811484521 heartbeat IPC: 0.427317 cumulative IPC: 0.42448 (Simulation time: 0 hr 16 min 38 sec) 
Heartbeat CPU 0 instructions: 500000000 cycles: 834812812 heartbeat IPC: 0.428664 cumulative IPC: 0.424618 (Simulation time: 0 hr 17 min 2 sec) 
Heartbeat CPU 0 instructions: 510000000 cycles: 858176738 heartbeat IPC: 0.42801 cumulative IPC: 0.424726 (Simulation time: 0 hr 17 min 27 sec) 
Heartbeat CPU 0 instructions: 520000000 cycles: 884502996 heartbeat IPC: 0.379849 cumulative IPC: 0.423164 (Simulation time: 0 hr 17 min 54 sec) 
Heartbeat CPU 0 instructions: 530000000 cycles: 907758267 heartbeat IPC: 0.43001 cumulative IPC: 0.423368 (Simulation time: 0 hr 18 min 19 sec) 
Heartbeat CPU 0 instructions: 540000000 cycles: 931088830 heartbeat IPC: 0.428622 cumulative IPC: 0.423521 (Simulation time: 0 hr 18 min 51 sec) 
Heartbeat CPU 0 instructions: 550000000 cycles: 954409558 heartbeat IPC: 0.428803 cumulative IPC: 0.42367 (Simulation time: 0 hr 19 min 16 sec) 
Heartbeat CPU 0 instructions: 560000000 cycles: 977570280 heartbeat IPC: 0.431765 cumulative IPC: 0.423891 (Simulation time: 0 hr 19 min 41 sec) 
Heartbeat CPU 0 instructions: 570000002 cycles: 1001012946 heartbeat IPC: 0.426573 cumulative IPC: 0.423963 (Simulation time: 0 hr 20 min 6 sec) 
Heartbeat CPU 0 instructions: 580000000 cycles: 1024347670 heartbeat IPC: 0.428546 cumulative IPC: 0.424082 (Simulation time: 0 hr 20 min 31 sec) 
Heartbeat CPU 0 instructions: 590000000 cycles: 1047567661 heartbeat IPC: 0.430663 cumulative IPC: 0.424248 (Simulation time: 0 hr 20 min 56 sec) 
Heartbeat CPU 0 instructions: 600000000 cycles: 1070783684 heartbeat IPC: 0.430737 cumulative IPC: 0.424408 (Simulation time: 0 hr 21 min 21 sec) 
Heartbeat CPU 0 instructions: 610000000 cycles: 1094008405 heartbeat IPC: 0.430576 cumulative IPC: 0.424557 (Simulation time: 0 hr 21 min 46 sec) 
Heartbeat CPU 0 instructions: 620000000 cycles: 1117032708 heartbeat IPC: 0.434324 cumulative IPC: 0.424784 (Simulation time: 0 hr 22 min 11 sec) 
Heartbeat CPU 0 instructions: 630000001 cycles: 1140316351 heartbeat IPC: 0.429486 cumulative IPC: 0.424892 (Simulation time: 0 hr 22 min 36 sec) 
Heartbeat CPU 0 instructions: 640000000 cycles: 1163572611 heartbeat IPC: 0.429992 cumulative IPC: 0.425007 (Simulation time: 0 hr 23 min 1 sec) 
Heartbeat CPU 0 instructions: 650000001 cycles: 1186926295 heartbeat IPC: 0.428198 cumulative IPC: 0.425077 (Simulation time: 0 hr 23 min 26 sec) 
Heartbeat CPU 0 instructions: 660000000 cycles: 1210278599 heartbeat IPC: 0.428223 cumulative IPC: 0.425145 (Simulation time: 0 hr 23 min 51 sec) 
Heartbeat CPU 0 instructions: 670000002 cycles: 1233552211 heartbeat IPC: 0.429671 cumulative IPC: 0.42524 (Simulation time: 0 hr 24 min 15 sec) 
Heartbeat CPU 0 instructions: 680000000 cycles: 1256777932 heartbeat IPC: 0.430557 cumulative IPC: 0.42535 (Simulation time: 0 hr 24 min 40 sec) 
Heartbeat CPU 0 instructions: 690000001 cycles: 1279984770 heartbeat IPC: 0.430908 cumulative IPC: 0.425462 (Simulation time: 0 hr 25 min 5 sec) 
Heartbeat CPU 0 instructions: 700000000 cycles: 1303121281 heartbeat IPC: 0.432217 cumulative IPC: 0.425595 (Simulation time: 0 hr 25 min 30 sec) 
Heartbeat CPU 0 instructions: 710000000 cycles: 1326106370 heartbeat IPC: 0.435065 cumulative IPC: 0.425777 (Simulation time: 0 hr 25 min 55 sec) 
Heartbeat CPU 0 instructions: 720000000 cycles: 1349117417 heartbeat IPC: 0.434574 cumulative IPC: 0.425942 (Simulation time: 0 hr 26 min 19 sec) 
Heartbeat CPU 0 instructions: 730000002 cycles: 1372015791 heartbeat IPC: 0.436712 cumulative IPC: 0.426141 (Simulation time: 0 hr 26 min 44 sec) 
Heartbeat CPU 0 instructions: 740000000 cycles: 1395161144 heartbeat IPC: 0.432052 cumulative IPC: 0.426249 (Simulation time: 0 hr 27 min 9 sec) 
Heartbeat CPU 0 instructions: 750000000 cycles: 1418117511 heartbeat IPC: 0.435609 cumulative IPC: 0.426415 (Simulation time: 0 hr 27 min 34 sec) 
Heartbeat CPU 0 instructions: 760000000 cycles: 1441271425 heartbeat IPC: 0.431892 cumulative IPC: 0.426512 (Simulation time: 0 hr 27 min 58 sec) 
Heartbeat CPU 0 instructions: 770000001 cycles: 1464882919 heartbeat IPC: 0.423523 cumulative IPC: 0.426459 (Simulation time: 0 hr 28 min 23 sec) 
Heartbeat CPU 0 instructions: 780000000 cycles: 1487851641 heartbeat IPC: 0.435375 cumulative IPC: 0.42661 (Simulation time: 0 hr 28 min 48 sec) 
Heartbeat CPU 0 instructions: 790000000 cycles: 1511107122 heartbeat IPC: 0.430006 cumulative IPC: 0.426667 (Simulation time: 0 hr 29 min 13 sec) 
Heartbeat CPU 0 instructions: 800000000 cycles: 1534227501 heartbeat IPC: 0.432519 cumulative IPC: 0.426763 (Simulation time: 0 hr 29 min 38 sec) 
Heartbeat CPU 0 instructions: 810000000 cycles: 1557393769 heartbeat IPC: 0.431662 cumulative IPC: 0.426842 (Simulation time: 0 hr 30 min 3 sec) 
Heartbeat CPU 0 instructions: 820000000 cycles: 1580404402 heartbeat IPC: 0.434582 cumulative IPC: 0.426965 (Simulation time: 0 hr 30 min 27 sec) 
Heartbeat CPU 0 instructions: 830000001 cycles: 1606395473 heartbeat IPC: 0.384748 cumulative IPC: 0.426223 (Simulation time: 0 hr 30 min 54 sec) 
Heartbeat CPU 0 instructions: 840000000 cycles: 1629323836 heartbeat IPC: 0.436141 cumulative IPC: 0.426374 (Simulation time: 0 hr 31 min 19 sec) 
Heartbeat CPU 0 instructions: 850000001 cycles: 1652300451 heartbeat IPC: 0.435225 cumulative IPC: 0.426508 (Simulation time: 0 hr 31 min 44 sec) 
Heartbeat CPU 0 instructions: 860000000 cycles: 1675128998 heartbeat IPC: 0.438048 cumulative IPC: 0.426678 (Simulation time: 0 hr 32 min 9 sec) 
Heartbeat CPU 0 instructions: 870000001 cycles: 1698059461 heartbeat IPC: 0.436101 cumulative IPC: 0.426816 (Simulation time: 0 hr 32 min 34 sec) 
Heartbeat CPU 0 instructions: 880000000 cycles: 1720910899 heartbeat IPC: 0.437609 cumulative IPC: 0.426971 (Simulation time: 0 hr 32 min 58 sec) 
Heartbeat CPU 0 instructions: 890000002 cycles: 1743954553 heartbeat IPC: 0.433959 cumulative IPC: 0.42707 (Simulation time: 0 hr 33 min 23 sec) 
Heartbeat CPU 0 instructions: 900000000 cycles: 1766780554 heartbeat IPC: 0.438097 cumulative IPC: 0.427224 (Simulation time: 0 hr 33 min 48 sec) 
Heartbeat CPU 0 instructions: 910000002 cycles: 1789479175 heartbeat IPC: 0.440555 cumulative IPC: 0.427406 (Simulation time: 0 hr 34 min 13 sec) 
Heartbeat CPU 0 instructions: 920000000 cycles: 1812268658 heartbeat IPC: 0.438799 cumulative IPC: 0.42756 (Simulation time: 0 hr 34 min 37 sec) 
Heartbeat CPU 0 instructions: 930000000 cycles: 1834862946 heartbeat IPC: 0.44259 cumulative IPC: 0.427759 (Simulation time: 0 hr 35 min 2 sec) 
Heartbeat CPU 0 instructions: 940000000 cycles: 1857411935 heartbeat IPC: 0.443479 cumulative IPC: 0.427964 (Simulation time: 0 hr 35 min 27 sec) 
Heartbeat CPU 0 instructions: 950000002 cycles: 1880143569 heartbeat IPC: 0.439916 cumulative IPC: 0.428119 (Simulation time: 0 hr 35 min 52 sec) 
Heartbeat CPU 0 instructions: 960000000 cycles: 1902720504 heartbeat IPC: 0.44293 cumulative IPC: 0.428308 (Simulation time: 0 hr 36 min 16 sec) 
Heartbeat CPU 0 instructions: 970000000 cycles: 1925256272 heartbeat IPC: 0.443739 cumulative IPC: 0.428501 (Simulation time: 0 hr 36 min 41 sec) 
Heartbeat CPU 0 instructions: 980000000 cycles: 1947867743 heartbeat IPC: 0.442253 cumulative IPC: 0.428672 (Simulation time: 0 hr 37 min 6 sec) 
Heartbeat CPU 0 instructions: 990000000 cycles: 1970321835 heartbeat IPC: 0.445353 cumulative IPC: 0.428875 (Simulation time: 0 hr 37 min 30 sec) 
Heartbeat CPU 0 instructions: 1000000000 cycles: 1992547196 heartbeat IPC: 0.449936 cumulative IPC: 0.429127 (Simulation time: 0 hr 37 min 55 sec) 
Heartbeat CPU 0 instructions: 1010000000 cycles: 2014678685 heartbeat IPC: 0.451845 cumulative IPC: 0.429393 (Simulation time: 0 hr 38 min 20 sec) 
Heartbeat CPU 0 instructions: 1020000000 cycles: 2037007818 heartbeat IPC: 0.447845 cumulative IPC: 0.429609 (Simulation time: 0 hr 38 min 44 sec) 
Heartbeat CPU 0 instructions: 1030000001 cycles: 2059365089 heartbeat IPC: 0.447282 cumulative IPC: 0.429814 (Simulation time: 0 hr 39 min 9 sec) 
Heartbeat CPU 0 instructions: 1040000000 cycles: 2081857097 heartbeat IPC: 0.444602 cumulative IPC: 0.429984 (Simulation time: 0 hr 39 min 34 sec) 
Heartbeat CPU 0 instructions: 1050000002 cycles: 2104058106 heartbeat IPC: 0.45043 cumulative IPC: 0.430214 (Simulation time: 0 hr 39 min 58 sec) 
Heartbeat CPU 0 instructions: 1060000000 cycles: 2126351712 heartbeat IPC: 0.448559 cumulative IPC: 0.430418 (Simulation time: 0 hr 40 min 23 sec) 
Heartbeat CPU 0 instructions: 1070000002 cycles: 2148531335 heartbeat IPC: 0.450864 cumulative IPC: 0.430643 (Simulation time: 0 hr 40 min 48 sec) 
Heartbeat CPU 0 instructions: 1080000000 cycles: 2171059944 heartbeat IPC: 0.44388 cumulative IPC: 0.430789 (Simulation time: 0 hr 41 min 12 sec) 
Heartbeat CPU 0 instructions: 1090000003 cycles: 2193478195 heartbeat IPC: 0.446065 cumulative IPC: 0.430955 (Simulation time: 0 hr 41 min 37 sec) 
Heartbeat CPU 0 instructions: 1100000000 cycles: 2215920396 heartbeat IPC: 0.445589 cumulative IPC: 0.431112 (Simulation time: 0 hr 42 min 2 sec) 
Heartbeat CPU 0 instructions: 1110000002 cycles: 2238213140 heartbeat IPC: 0.448577 cumulative IPC: 0.431296 (Simulation time: 0 hr 42 min 26 sec) 
Heartbeat CPU 0 instructions: 1120000000 cycles: 2260903329 heartbeat IPC: 0.440719 cumulative IPC: 0.431397 (Simulation time: 0 hr 42 min 51 sec) 
Heartbeat CPU 0 instructions: 1130000003 cycles: 2283727398 heartbeat IPC: 0.438134 cumulative IPC: 0.431468 (Simulation time: 0 hr 43 min 16 sec) 
Heartbeat CPU 0 instructions: 1140000000 cycles: 2306513388 heartbeat IPC: 0.438866 cumulative IPC: 0.431545 (Simulation time: 0 hr 43 min 41 sec) 
Heartbeat CPU 0 instructions: 1150000003 cycles: 2329446457 heartbeat IPC: 0.436052 cumulative IPC: 0.431592 (Simulation time: 0 hr 44 min 5 sec) 
Heartbeat CPU 0 instructions: 1160000000 cycles: 2355410030 heartbeat IPC: 0.385155 cumulative IPC: 0.431051 (Simulation time: 0 hr 44 min 32 sec) 
Heartbeat CPU 0 instructions: 1170000003 cycles: 2378583460 heartbeat IPC: 0.431529 cumulative IPC: 0.431056 (Simulation time: 0 hr 44 min 57 sec) 
Heartbeat CPU 0 instructions: 1180000000 cycles: 2401864566 heartbeat IPC: 0.429533 cumulative IPC: 0.43104 (Simulation time: 0 hr 45 min 22 sec) 
Heartbeat CPU 0 instructions: 1190000003 cycles: 2425173708 heartbeat IPC: 0.429016 cumulative IPC: 0.43102 (Simulation time: 0 hr 45 min 47 sec) 
Heartbeat CPU 0 instructions: 1200000000 cycles: 2447897256 heartbeat IPC: 0.440072 cumulative IPC: 0.431108 (Simulation time: 0 hr 46 min 12 sec) 
Finished CPU 0 instructions: 1000000000 cycles: 2319602202 cumulative IPC: 0.431108 (Simulation time: 0 hr 46 min 12 sec) 

CPU 0 Branch Prediction Accuracy: 85.1768% MPKI: 16.3973

ChampSim completed all CPUs

Region of Interest Statistics

CPU 0 cumulative IPC: 0.431108 instructions: 1000000000 cycles: 2319602202
L1D TOTAL     ACCESS:  323879315  HIT:  320047177  MISS:    3832138
L1D LOAD      ACCESS:  205404386  HIT:  202455321  MISS:    2949065
L1D RFO       ACCESS:  118474929  HIT:  117591856  MISS:     883073
L1D PREFETCH  ACCESS:          0  HIT:          0  MISS:          0
L1D WRITEBACK ACCESS:          0  HIT:          0  MISS:          0
L1D PREFETCH  REQUESTED:          0  ISSUED:          0  USEFUL:          0  USELESS:          0
L1I TOTAL     ACCESS:  233824715  HIT:  233551660  MISS:     273055
L1I LOAD      ACCESS:  233824715  HIT:  233551660  MISS:     273055
L1I RFO       ACCESS:          0  HIT:          0  MISS:          0
L1I PREFETCH  ACCESS:          0  HIT:          0  MISS:          0
L1I WRITEBACK ACCESS:          0  HIT:          0  MISS:          0
L1I PREFETCH  REQUESTED:          0  ISSUED:          0  USEFUL:          0  USELESS:          0
L2C TOTAL     ACCESS:    5548216  HIT:    5419552  MISS:     128664
L2C LOAD      ACCESS:    3222106  HIT:    3140055  MISS:      82051
L2C RFO       ACCESS:     883041  HIT:     836662  MISS:      46379
L2C PREFETCH  ACCESS:          0  HIT:          0  MISS:          0
L2C WRITEBACK ACCESS:    1443069  HIT:    1442835  MISS:        234
L2C PREFETCH  REQUESTED:          0  ISSUED:          0  USEFUL:          0  USELESS:          0
LLC TOTAL     ACCESS:     187346  HIT:      82680  MISS:     104666
LLC LOAD      ACCESS:      82051  HIT:      23761  MISS:      58290
LLC RFO       ACCESS:      46379  HIT:       1110  MISS:      45269
LLC PREFETCH  ACCESS:          0  HIT:          0  MISS:          0
LLC WRITEBACK ACCESS:      58916  HIT:      57809  MISS:       1107
LLC PREFETCH  REQUESTED:          0  ISSUED:          0  USEFUL:          0  USELESS:          0
Major fault: 0 Minor fault: 1620

DRAM Statistics
 CHANNEL 0
 RQ ROW_BUFFER_HIT:      76077  ROW_BUFFER_MISS:      27450
 DBUS_CONGESTED:      56701
 WQ ROW_BUFFER_HIT:      29933  ROW_BUFFER_MISS:      23736  FULL:          0

 AVG_CONGESTED_CYCLE: 14
