Initialize SIGNATURE TABLE
ST_SET: 1
ST_WAY: 256
ST_TAG_BIT: 16
ST_TAG_MASK: ffff

Initialize PATTERN TABLE
PT_SET: 512
PT_WAY: 4
SIG_DELTA_BIT: 7
C_SIG_BIT: 4
C_DELTA_BIT: 4

Initialize PREFETCH FILTER
FILTER_SET: 1024

*** ChampSim Multicore Out-of-Order Simulator ***

Warmup Instructions: 20000000
Simulation Instructions: 100000000
Number of CPUs: 8
LLC sets: 16384
LLC ways: 16
Off-chip DRAM Size: 8192 MB Channels: 2 Width: 64-bit Data Rate: 1600 MT/s

CPU 0 runs /scratch/user/djimenez/champsim-traces/speccpu2017/xz/623.xalancbmk_s/623.xalancbmk_s-700B.champsimtrace.xz
CPU 1 runs /scratch/user/djimenez/champsim-traces/speccpu2017/xz/605.mcf_s/605.mcf_s-484B.champsimtrace.xz
CPU 2 runs /scratch/user/djimenez/champsim-traces/speccpu2017/xz/602.gcc_s/602.gcc_s-2226B.champsimtrace.xz
CPU 3 runs /scratch/user/djimenez/champsim-traces/speccpu2017/xz/627.cam4_s/627.cam4_s-490B.champsimtrace.xz
CPU 4 runs /scratch/user/djimenez/champsim-traces/speccpu2017/xz/621.wrf_s/621.wrf_s-8065B.champsimtrace.xz
CPU 5 runs /scratch/user/djimenez/champsim-traces/speccpu2017/xz/605.mcf_s/605.mcf_s-994B.champsimtrace.xz
CPU 6 runs /scratch/user/djimenez/champsim-traces/speccpu2017/xz/603.bwaves_s/603.bwaves_s-1740B.champsimtrace.xz
CPU 7 runs /scratch/user/djimenez/champsim-traces/speccpu2017/xz/605.mcf_s/605.mcf_s-1536B.champsimtrace.xz
Heartbeat CPU 7 instructions: 10000002 cycles: 3662307 heartbeat IPC: 2.73052 cumulative IPC: 2.73052 (Simulation time: 0 hr 3 min 11 sec) 
Heartbeat CPU 3 instructions: 10000002 cycles: 4156923 heartbeat IPC: 2.40563 cumulative IPC: 2.40563 (Simulation time: 0 hr 3 min 37 sec) 
Heartbeat CPU 4 instructions: 10000003 cycles: 5000734 heartbeat IPC: 1.99971 cumulative IPC: 1.99971 (Simulation time: 0 hr 4 min 23 sec) 
Heartbeat CPU 6 instructions: 10000001 cycles: 5386390 heartbeat IPC: 1.85653 cumulative IPC: 1.85653 (Simulation time: 0 hr 4 min 44 sec) 
Heartbeat CPU 5 instructions: 10000000 cycles: 5637225 heartbeat IPC: 1.77392 cumulative IPC: 1.77392 (Simulation time: 0 hr 4 min 57 sec) 
Heartbeat CPU 0 instructions: 10000001 cycles: 5995764 heartbeat IPC: 1.66784 cumulative IPC: 1.66784 (Simulation time: 0 hr 5 min 16 sec) 
Heartbeat CPU 2 instructions: 10000000 cycles: 6846742 heartbeat IPC: 1.46055 cumulative IPC: 1.46055 (Simulation time: 0 hr 6 min 2 sec) 
Heartbeat CPU 1 instructions: 10000000 cycles: 6953989 heartbeat IPC: 1.43802 cumulative IPC: 1.43802 (Simulation time: 0 hr 6 min 8 sec) 
Heartbeat CPU 7 instructions: 20000000 cycles: 7321852 heartbeat IPC: 2.73258 cumulative IPC: 2.73155 (Simulation time: 0 hr 6 min 28 sec) 
Heartbeat CPU 3 instructions: 20000000 cycles: 8018870 heartbeat IPC: 2.58937 cumulative IPC: 2.49412 (Simulation time: 0 hr 7 min 5 sec) 
Heartbeat CPU 4 instructions: 20000000 cycles: 9528830 heartbeat IPC: 2.20843 cumulative IPC: 2.09889 (Simulation time: 0 hr 8 min 26 sec) 
Heartbeat CPU 6 instructions: 20000000 cycles: 10750057 heartbeat IPC: 1.8644 cumulative IPC: 1.86046 (Simulation time: 0 hr 9 min 29 sec) 
Heartbeat CPU 0 instructions: 20000000 cycles: 10880972 heartbeat IPC: 2.047 cumulative IPC: 1.83807 (Simulation time: 0 hr 9 min 36 sec) 
Heartbeat CPU 7 instructions: 30000002 cycles: 10994946 heartbeat IPC: 2.7225 cumulative IPC: 0.909509 (Simulation time: 0 hr 9 min 42 sec) 
Heartbeat CPU 5 instructions: 20000000 cycles: 11325370 heartbeat IPC: 1.75804 cumulative IPC: 1.76595 (Simulation time: 0 hr 10 min 0 sec) 
Heartbeat CPU 3 instructions: 30000000 cycles: 12154456 heartbeat IPC: 2.41804 cumulative IPC: 0.822744 (Simulation time: 0 hr 10 min 46 sec) 
Heartbeat CPU 2 instructions: 20000000 cycles: 13439337 heartbeat IPC: 1.51685 cumulative IPC: 1.48817 (Simulation time: 0 hr 11 min 50 sec) 
Heartbeat CPU 1 instructions: 20000000 cycles: 13907360 heartbeat IPC: 1.43815 cumulative IPC: 1.43809 (Simulation time: 0 hr 12 min 13 sec) 

Warmup complete CPU 0 instructions: 25290880 cycles: 13907361 (Simulation time: 0 hr 12 min 13 sec) 
Warmup complete CPU 1 instructions: 20000001 cycles: 13907361 (Simulation time: 0 hr 12 min 13 sec) 
Warmup complete CPU 2 instructions: 20699362 cycles: 13907360 (Simulation time: 0 hr 12 min 13 sec) 
Warmup complete CPU 3 instructions: 34566912 cycles: 13907360 (Simulation time: 0 hr 12 min 13 sec) 
Warmup complete CPU 4 instructions: 29794736 cycles: 13907360 (Simulation time: 0 hr 12 min 13 sec) 
Warmup complete CPU 5 instructions: 24589760 cycles: 13907360 (Simulation time: 0 hr 12 min 13 sec) 
Warmup complete CPU 6 instructions: 25884231 cycles: 13907360 (Simulation time: 0 hr 12 min 13 sec) 
Warmup complete CPU 7 instructions: 37924617 cycles: 13907360 (Simulation time: 0 hr 12 min 13 sec) 

Heartbeat CPU 4 instructions: 30000000 cycles: 14241229 heartbeat IPC: 2.12206 cumulative IPC: 0.614804 (Simulation time: 0 hr 12 min 19 sec) 
Heartbeat CPU 6 instructions: 30000003 cycles: 17977646 heartbeat IPC: 1.38359 cumulative IPC: 1.01118 (Simulation time: 0 hr 13 min 29 sec) 
Heartbeat CPU 3 instructions: 40000000 cycles: 19950979 heartbeat IPC: 1.28262 cumulative IPC: 0.898979 (Simulation time: 0 hr 14 min 7 sec) 
Heartbeat CPU 7 instructions: 40000000 cycles: 22513173 heartbeat IPC: 0.868189 cumulative IPC: 0.241161 (Simulation time: 0 hr 14 min 55 sec) 
Heartbeat CPU 4 instructions: 40000000 cycles: 24393207 heartbeat IPC: 0.98503 cumulative IPC: 0.973242 (Simulation time: 0 hr 15 min 32 sec) 
Heartbeat CPU 6 instructions: 40000000 cycles: 27554285 heartbeat IPC: 1.04421 cumulative IPC: 1.03436 (Simulation time: 0 hr 16 min 33 sec) 
Heartbeat CPU 0 instructions: 30000001 cycles: 29027524 heartbeat IPC: 0.551069 cumulative IPC: 0.311446 (Simulation time: 0 hr 17 min 1 sec) 
Heartbeat CPU 3 instructions: 50000000 cycles: 31110953 heartbeat IPC: 0.896059 cumulative IPC: 0.897085 (Simulation time: 0 hr 17 min 47 sec) 
Heartbeat CPU 4 instructions: 50000002 cycles: 33568022 heartbeat IPC: 1.08994 cumulative IPC: 1.0277 (Simulation time: 0 hr 18 min 40 sec) 
Heartbeat CPU 6 instructions: 50000003 cycles: 37003260 heartbeat IPC: 1.05832 cumulative IPC: 1.04416 (Simulation time: 0 hr 20 min 1 sec) 
Heartbeat CPU 3 instructions: 60000000 cycles: 42466555 heartbeat IPC: 0.880623 cumulative IPC: 0.890539 (Simulation time: 0 hr 22 min 7 sec) 
Heartbeat CPU 4 instructions: 60000000 cycles: 43525195 heartbeat IPC: 1.0043 cumulative IPC: 1.01983 (Simulation time: 0 hr 22 min 31 sec) 
Heartbeat CPU 5 instructions: 30000000 cycles: 44794804 heartbeat IPC: 0.29878 cumulative IPC: 0.17516 (Simulation time: 0 hr 23 min 0 sec) 
Heartbeat CPU 1 instructions: 30000000 cycles: 44855453 heartbeat IPC: 0.323122 cumulative IPC: 0.323122 (Simulation time: 0 hr 23 min 1 sec) 
Heartbeat CPU 6 instructions: 60000000 cycles: 46346355 heartbeat IPC: 1.07031 cumulative IPC: 1.05169 (Simulation time: 0 hr 23 min 39 sec) 
Heartbeat CPU 4 instructions: 70000001 cycles: 51441747 heartbeat IPC: 1.26318 cumulative IPC: 1.07116 (Simulation time: 0 hr 25 min 45 sec) 
Heartbeat CPU 3 instructions: 70000000 cycles: 52334758 heartbeat IPC: 1.01336 cumulative IPC: 0.922079 (Simulation time: 0 hr 26 min 3 sec) 
Heartbeat CPU 6 instructions: 70000001 cycles: 55687086 heartbeat IPC: 1.07058 cumulative IPC: 1.05591 (Simulation time: 0 hr 27 min 16 sec) 
Heartbeat CPU 0 instructions: 40000000 cycles: 58412595 heartbeat IPC: 0.340309 cumulative IPC: 0.330503 (Simulation time: 0 hr 28 min 16 sec) 
Heartbeat CPU 4 instructions: 80000000 cycles: 61965781 heartbeat IPC: 0.950206 cumulative IPC: 1.04467 (Simulation time: 0 hr 29 min 30 sec) 
Heartbeat CPU 3 instructions: 80000000 cycles: 63334261 heartbeat IPC: 0.909132 cumulative IPC: 0.919198 (Simulation time: 0 hr 30 min 0 sec) 
Heartbeat CPU 6 instructions: 80000000 cycles: 65054156 heartbeat IPC: 1.06757 cumulative IPC: 1.05805 (Simulation time: 0 hr 30 min 42 sec) 
Heartbeat CPU 7 instructions: 50000003 cycles: 65195558 heartbeat IPC: 0.234289 cumulative IPC: 0.235442 (Simulation time: 0 hr 30 min 45 sec) 
Heartbeat CPU 4 instructions: 90000003 cycles: 70162558 heartbeat IPC: 1.21999 cumulative IPC: 1.07022 (Simulation time: 0 hr 32 min 45 sec) 
Heartbeat CPU 3 instructions: 90000002 cycles: 73628734 heartbeat IPC: 0.971395 cumulative IPC: 0.928195 (Simulation time: 0 hr 34 min 4 sec) 
Heartbeat CPU 6 instructions: 90000000 cycles: 74424244 heartbeat IPC: 1.06723 cumulative IPC: 1.05947 (Simulation time: 0 hr 34 min 23 sec) 
Heartbeat CPU 1 instructions: 40000000 cycles: 74655273 heartbeat IPC: 0.335573 cumulative IPC: 0.329229 (Simulation time: 0 hr 34 min 30 sec) 
Heartbeat CPU 2 instructions: 30000000 cycles: 77712094 heartbeat IPC: 0.155587 cumulative IPC: 0.145767 (Simulation time: 0 hr 35 min 39 sec) 
Heartbeat CPU 4 instructions: 100000000 cycles: 80649284 heartbeat IPC: 0.953586 cumulative IPC: 1.05189 (Simulation time: 0 hr 36 min 51 sec) 
Heartbeat CPU 5 instructions: 40000000 cycles: 81076093 heartbeat IPC: 0.275624 cumulative IPC: 0.229426 (Simulation time: 0 hr 37 min 2 sec) 
Heartbeat CPU 6 instructions: 100000000 cycles: 83595537 heartbeat IPC: 1.09036 cumulative IPC: 1.06353 (Simulation time: 0 hr 38 min 5 sec) 
Heartbeat CPU 3 instructions: 100000000 cycles: 84228880 heartbeat IPC: 0.943383 cumulative IPC: 0.930485 (Simulation time: 0 hr 38 min 17 sec) 
Heartbeat CPU 0 instructions: 50000001 cycles: 85696288 heartbeat IPC: 0.366519 cumulative IPC: 0.344191 (Simulation time: 0 hr 38 min 48 sec) 
Heartbeat CPU 4 instructions: 110000000 cycles: 88786872 heartbeat IPC: 1.22887 cumulative IPC: 1.07112 (Simulation time: 0 hr 40 min 3 sec) 
Heartbeat CPU 6 instructions: 110000000 cycles: 93107896 heartbeat IPC: 1.05126 cumulative IPC: 1.06206 (Simulation time: 0 hr 41 min 32 sec) 
Heartbeat CPU 3 instructions: 110000001 cycles: 95433774 heartbeat IPC: 0.892467 cumulative IPC: 0.925259 (Simulation time: 0 hr 42 min 30 sec) 
Heartbeat CPU 6 instructions: 120000000 cycles: 102277956 heartbeat IPC: 1.09051 cumulative IPC: 1.06501 (Simulation time: 0 hr 44 min 51 sec) 
Heartbeat CPU 4 instructions: 120000000 cycles: 103442656 heartbeat IPC: 0.682324 cumulative IPC: 1.00748 (Simulation time: 0 hr 45 min 14 sec) 
Heartbeat CPU 0 instructions: 60000000 cycles: 105695342 heartbeat IPC: 0.500024 cumulative IPC: 0.378145 (Simulation time: 0 hr 45 min 59 sec) 
Heartbeat CPU 3 instructions: 120000000 cycles: 105872674 heartbeat IPC: 0.957955 cumulative IPC: 0.928971 (Simulation time: 0 hr 46 min 3 sec) 
Heartbeat CPU 1 instructions: 50000003 cycles: 107275720 heartbeat IPC: 0.306556 cumulative IPC: 0.321308 (Simulation time: 0 hr 46 min 31 sec) 
Finished CPU 6 instructions: 100000002 cycles: 93645447 cumulative IPC: 1.06786 (Simulation time: 0 hr 46 min 36 sec) 
Heartbeat CPU 6 instructions: 130000003 cycles: 111240629 heartbeat IPC: 1.11574 cumulative IPC: 1.06968 (Simulation time: 0 hr 47 min 57 sec) 
Heartbeat CPU 7 instructions: 60000000 cycles: 111907256 heartbeat IPC: 0.214079 cumulative IPC: 0.225259 (Simulation time: 0 hr 48 min 10 sec) 
Heartbeat CPU 3 instructions: 130000001 cycles: 116301138 heartbeat IPC: 0.958914 cumulative IPC: 0.93202 (Simulation time: 0 hr 49 min 32 sec) 
Finished CPU 4 instructions: 100000000 cycles: 104223417 cumulative IPC: 0.959477 (Simulation time: 0 hr 50 min 9 sec) 
Heartbeat CPU 4 instructions: 130000000 cycles: 118434554 heartbeat IPC: 0.667027 cumulative IPC: 0.958653 (Simulation time: 0 hr 50 min 16 sec) 
Heartbeat CPU 6 instructions: 140000000 cycles: 120307238 heartbeat IPC: 1.10295 cumulative IPC: 1.07252 (Simulation time: 0 hr 50 min 53 sec) 
Finished CPU 3 instructions: 100000000 cycles: 107237014 cumulative IPC: 0.932514 (Simulation time: 0 hr 51 min 9 sec) 
Heartbeat CPU 3 instructions: 140000000 cycles: 126773827 heartbeat IPC: 0.954865 cumulative IPC: 0.93414 (Simulation time: 0 hr 53 min 1 sec) 
Heartbeat CPU 0 instructions: 70000001 cycles: 128783236 heartbeat IPC: 0.433127 cumulative IPC: 0.389195 (Simulation time: 0 hr 53 min 41 sec) 
Heartbeat CPU 6 instructions: 150000001 cycles: 129294701 heartbeat IPC: 1.11266 cumulative IPC: 1.07564 (Simulation time: 0 hr 53 min 54 sec) 
Heartbeat CPU 4 instructions: 140000000 cycles: 133424429 heartbeat IPC: 0.667117 cumulative IPC: 0.922088 (Simulation time: 0 hr 55 min 14 sec) 
Heartbeat CPU 1 instructions: 60000000 cycles: 136888782 heartbeat IPC: 0.337689 cumulative IPC: 0.325252 (Simulation time: 0 hr 56 min 15 sec) 
Heartbeat CPU 3 instructions: 150000001 cycles: 137224127 heartbeat IPC: 0.95691 cumulative IPC: 0.93607 (Simulation time: 0 hr 56 min 21 sec) 
Heartbeat CPU 6 instructions: 160000000 cycles: 138486436 heartbeat IPC: 1.08793 cumulative IPC: 1.07655 (Simulation time: 0 hr 56 min 44 sec) 
Heartbeat CPU 2 instructions: 40000000 cycles: 140012522 heartbeat IPC: 0.160513 cumulative IPC: 0.153052 (Simulation time: 0 hr 57 min 11 sec) 
Heartbeat CPU 6 instructions: 170000000 cycles: 147875051 heartbeat IPC: 1.06512 cumulative IPC: 1.07575 (Simulation time: 0 hr 59 min 32 sec) 
Heartbeat CPU 3 instructions: 160000000 cycles: 148671926 heartbeat IPC: 0.87353 cumulative IPC: 0.930757 (Simulation time: 0 hr 59 min 45 sec) 
Heartbeat CPU 4 instructions: 150000001 cycles: 149952352 heartbeat IPC: 0.605037 cumulative IPC: 0.88357 (Simulation time: 1 hr 0 min 6 sec) 
Heartbeat CPU 7 instructions: 70000000 cycles: 153776137 heartbeat IPC: 0.238841 cumulative IPC: 0.229325 (Simulation time: 1 hr 1 min 17 sec) 
Heartbeat CPU 6 instructions: 180000000 cycles: 157587371 heartbeat IPC: 1.02962 cumulative IPC: 1.07263 (Simulation time: 1 hr 2 min 36 sec) 
Heartbeat CPU 3 instructions: 170000001 cycles: 160142270 heartbeat IPC: 0.871814 cumulative IPC: 0.926134 (Simulation time: 1 hr 3 min 35 sec) 
Heartbeat CPU 4 instructions: 160000000 cycles: 161398655 heartbeat IPC: 0.873644 cumulative IPC: 0.8828 (Simulation time: 1 hr 4 min 1 sec) 
Heartbeat CPU 0 instructions: 80000000 cycles: 163686403 heartbeat IPC: 0.286507 cumulative IPC: 0.365266 (Simulation time: 1 hr 4 min 49 sec) 
Heartbeat CPU 6 instructions: 190000002 cycles: 167351081 heartbeat IPC: 1.0242 cumulative IPC: 1.06955 (Simulation time: 1 hr 5 min 52 sec) 
Heartbeat CPU 3 instructions: 180000000 cycles: 172583993 heartbeat IPC: 0.803747 cumulative IPC: 0.916538 (Simulation time: 1 hr 7 min 23 sec) 
Heartbeat CPU 4 instructions: 170000002 cycles: 176975535 heartbeat IPC: 0.641977 cumulative IPC: 0.859795 (Simulation time: 1 hr 9 min 3 sec) 
Heartbeat CPU 6 instructions: 200000000 cycles: 177731037 heartbeat IPC: 0.963395 cumulative IPC: 1.06282 (Simulation time: 1 hr 9 min 18 sec) 
Heartbeat CPU 5 instructions: 50000000 cycles: 178198499 heartbeat IPC: 0.102963 cumulative IPC: 0.154666 (Simulation time: 1 hr 9 min 28 sec) 
Heartbeat CPU 1 instructions: 70000002 cycles: 180851443 heartbeat IPC: 0.227466 cumulative IPC: 0.299501 (Simulation time: 1 hr 10 min 30 sec) 
Heartbeat CPU 3 instructions: 190000000 cycles: 184121034 heartbeat IPC: 0.866773 cumulative IPC: 0.913164 (Simulation time: 1 hr 11 min 45 sec) 
Heartbeat CPU 4 instructions: 180000000 cycles: 185930027 heartbeat IPC: 1.11676 cumulative IPC: 0.873171 (Simulation time: 1 hr 12 min 23 sec) 
Heartbeat CPU 6 instructions: 210000002 cycles: 186980257 heartbeat IPC: 1.08117 cumulative IPC: 1.0638 (Simulation time: 1 hr 12 min 49 sec) 
Heartbeat CPU 0 instructions: 90000001 cycles: 193548111 heartbeat IPC: 0.334877 cumulative IPC: 0.360214 (Simulation time: 1 hr 15 min 8 sec) 
Heartbeat CPU 7 instructions: 80000000 cycles: 194325520 heartbeat IPC: 0.246613 cumulative IPC: 0.23321 (Simulation time: 1 hr 15 min 28 sec) 
Heartbeat CPU 3 instructions: 200000000 cycles: 194633339 heartbeat IPC: 0.951266 cumulative IPC: 0.915381 (Simulation time: 1 hr 15 min 35 sec) 
Heartbeat CPU 4 instructions: 190000001 cycles: 195020851 heartbeat IPC: 1.10001 cumulative IPC: 0.884557 (Simulation time: 1 hr 15 min 43 sec) 
Heartbeat CPU 6 instructions: 220000000 cycles: 196170124 heartbeat IPC: 1.08815 cumulative IPC: 1.06503 (Simulation time: 1 hr 16 min 8 sec) 
Heartbeat CPU 4 instructions: 200000000 cycles: 204527938 heartbeat IPC: 1.05185 cumulative IPC: 0.892901 (Simulation time: 1 hr 19 min 5 sec) 
Heartbeat CPU 6 instructions: 230000002 cycles: 205397945 heartbeat IPC: 1.08368 cumulative IPC: 1.06593 (Simulation time: 1 hr 19 min 23 sec) 
Heartbeat CPU 3 instructions: 210000000 cycles: 205753254 heartbeat IPC: 0.899287 cumulative IPC: 0.914448 (Simulation time: 1 hr 19 min 30 sec) 
Heartbeat CPU 2 instructions: 50000003 cycles: 211866844 heartbeat IPC: 0.139171 cumulative IPC: 0.148013 (Simulation time: 1 hr 21 min 42 sec) 
Heartbeat CPU 4 instructions: 210000003 cycles: 213223061 heartbeat IPC: 1.15007 cumulative IPC: 0.90412 (Simulation time: 1 hr 22 min 11 sec) 
Heartbeat CPU 6 instructions: 240000000 cycles: 214742272 heartbeat IPC: 1.07017 cumulative IPC: 1.06613 (Simulation time: 1 hr 22 min 45 sec) 
Heartbeat CPU 3 instructions: 220000000 cycles: 216856456 heartbeat IPC: 0.900641 cumulative IPC: 0.913693 (Simulation time: 1 hr 23 min 33 sec) 
Heartbeat CPU 1 instructions: 80000000 cycles: 219709807 heartbeat IPC: 0.257345 cumulative IPC: 0.291542 (Simulation time: 1 hr 24 min 36 sec) 
Heartbeat CPU 4 instructions: 220000000 cycles: 222328599 heartbeat IPC: 1.09823 cumulative IPC: 0.9126 (Simulation time: 1 hr 25 min 37 sec) 
Heartbeat CPU 6 instructions: 250000003 cycles: 223902428 heartbeat IPC: 1.09168 cumulative IPC: 1.06724 (Simulation time: 1 hr 26 min 16 sec) 
Heartbeat CPU 5 instructions: 60000000 cycles: 227347413 heartbeat IPC: 0.203463 cumulative IPC: 0.165903 (Simulation time: 1 hr 27 min 31 sec) 
Heartbeat CPU 3 instructions: 230000001 cycles: 228021721 heartbeat IPC: 0.895635 cumulative IPC: 0.912751 (Simulation time: 1 hr 27 min 45 sec) 
Heartbeat CPU 0 instructions: 100000000 cycles: 228306662 heartbeat IPC: 0.287699 cumulative IPC: 0.348458 (Simulation time: 1 hr 27 min 50 sec) 
Heartbeat CPU 4 instructions: 230000000 cycles: 232915351 heartbeat IPC: 0.944577 cumulative IPC: 0.914146 (Simulation time: 1 hr 29 min 14 sec) 
Heartbeat CPU 6 instructions: 260000000 cycles: 233477212 heartbeat IPC: 1.04441 cumulative IPC: 1.06625 (Simulation time: 1 hr 29 min 24 sec) 
Heartbeat CPU 7 instructions: 90000003 cycles: 239802381 heartbeat IPC: 0.219892 cumulative IPC: 0.230529 (Simulation time: 1 hr 31 min 19 sec) 
Heartbeat CPU 3 instructions: 240000000 cycles: 239926341 heartbeat IPC: 0.84001 cumulative IPC: 0.90892 (Simulation time: 1 hr 31 min 21 sec) 
Heartbeat CPU 6 instructions: 270000001 cycles: 243295445 heartbeat IPC: 1.01851 cumulative IPC: 1.0642 (Simulation time: 1 hr 32 min 21 sec) 
Heartbeat CPU 4 instructions: 240000000 cycles: 245425695 heartbeat IPC: 0.799339 cumulative IPC: 0.907942 (Simulation time: 1 hr 33 min 3 sec) 
Heartbeat CPU 3 instructions: 250000001 cycles: 251508878 heartbeat IPC: 0.863369 cumulative IPC: 0.906699 (Simulation time: 1 hr 35 min 1 sec) 
Heartbeat CPU 6 instructions: 280000000 cycles: 252690844 heartbeat IPC: 1.06435 cumulative IPC: 1.06421 (Simulation time: 1 hr 35 min 23 sec) 
Heartbeat CPU 1 instructions: 90000000 cycles: 255847650 heartbeat IPC: 0.276718 cumulative IPC: 0.289328 (Simulation time: 1 hr 36 min 25 sec) 
Heartbeat CPU 0 instructions: 110000002 cycles: 258618370 heartbeat IPC: 0.329906 cumulative IPC: 0.34616 (Simulation time: 1 hr 37 min 20 sec) 
Heartbeat CPU 4 instructions: 250000003 cycles: 259181465 heartbeat IPC: 0.726968 cumulative IPC: 0.897793 (Simulation time: 1 hr 37 min 31 sec) 
Heartbeat CPU 6 instructions: 290000002 cycles: 261877549 heartbeat IPC: 1.08853 cumulative IPC: 1.06511 (Simulation time: 1 hr 38 min 25 sec) 
Heartbeat CPU 3 instructions: 260000000 cycles: 262678011 heartbeat IPC: 0.895325 cumulative IPC: 0.906188 (Simulation time: 1 hr 38 min 40 sec) 
Heartbeat CPU 4 instructions: 260000000 cycles: 269391443 heartbeat IPC: 0.979434 cumulative IPC: 0.901055 (Simulation time: 1 hr 40 min 49 sec) 
Heartbeat CPU 6 instructions: 300000000 cycles: 271758650 heartbeat IPC: 1.01203 cumulative IPC: 1.06308 (Simulation time: 1 hr 41 min 33 sec) 
Heartbeat CPU 3 instructions: 270000000 cycles: 274358075 heartbeat IPC: 0.85616 cumulative IPC: 0.903945 (Simulation time: 1 hr 42 min 27 sec) 
Heartbeat CPU 4 instructions: 270000000 cycles: 279005598 heartbeat IPC: 1.04013 cumulative IPC: 0.906099 (Simulation time: 1 hr 44 min 3 sec) 
Heartbeat CPU 6 instructions: 310000001 cycles: 281054335 heartbeat IPC: 1.07577 cumulative IPC: 1.06352 (Simulation time: 1 hr 44 min 44 sec) 
Heartbeat CPU 2 instructions: 60000000 cycles: 282353135 heartbeat IPC: 0.141872 cumulative IPC: 0.146401 (Simulation time: 1 hr 45 min 11 sec) 
Heartbeat CPU 7 instructions: 100000000 cycles: 283619827 heartbeat IPC: 0.22822 cumulative IPC: 0.230154 (Simulation time: 1 hr 45 min 36 sec) 
Heartbeat CPU 3 instructions: 280000000 cycles: 286425738 heartbeat IPC: 0.828661 cumulative IPC: 0.900611 (Simulation time: 1 hr 46 min 28 sec) 
Heartbeat CPU 0 instructions: 120000000 cycles: 286688528 heartbeat IPC: 0.35625 cumulative IPC: 0.347198 (Simulation time: 1 hr 46 min 33 sec) 
Heartbeat CPU 1 instructions: 100000000 cycles: 286740162 heartbeat IPC: 0.323703 cumulative IPC: 0.29322 (Simulation time: 1 hr 46 min 34 sec) 
Heartbeat CPU 5 instructions: 70000001 cycles: 286777883 heartbeat IPC: 0.168264 cumulative IPC: 0.166417 (Simulation time: 1 hr 46 min 35 sec) 
Heartbeat CPU 6 instructions: 320000000 cycles: 291658989 heartbeat IPC: 0.942982 cumulative IPC: 1.05892 (Simulation time: 1 hr 47 min 52 sec) 
Heartbeat CPU 4 instructions: 280000000 cycles: 295446361 heartbeat IPC: 0.608244 cumulative IPC: 0.888705 (Simulation time: 1 hr 49 min 15 sec) 
Finished CPU 0 instructions: 100000001 cycles: 285874778 cumulative IPC: 0.349804 (Simulation time: 1 hr 50 min 42 sec) 
Heartbeat CPU 3 instructions: 290000001 cycles: 299856388 heartbeat IPC: 0.744566 cumulative IPC: 0.893282 (Simulation time: 1 hr 50 min 43 sec) 
Heartbeat CPU 6 instructions: 330000003 cycles: 301614259 heartbeat IPC: 1.00449 cumulative IPC: 1.05703 (Simulation time: 1 hr 51 min 28 sec) 
Heartbeat CPU 4 instructions: 290000001 cycles: 308406418 heartbeat IPC: 0.771602 cumulative IPC: 0.883552 (Simulation time: 1 hr 54 min 8 sec) 
Heartbeat CPU 0 instructions: 130000001 cycles: 308757094 heartbeat IPC: 0.453133 cumulative IPC: 0.355127 (Simulation time: 1 hr 54 min 16 sec) 
Heartbeat CPU 6 instructions: 340000000 cycles: 311211808 heartbeat IPC: 1.04193 cumulative IPC: 1.05655 (Simulation time: 1 hr 55 min 9 sec) 
Heartbeat CPU 3 instructions: 300000000 cycles: 311379034 heartbeat IPC: 0.867856 cumulative IPC: 0.892297 (Simulation time: 1 hr 55 min 13 sec) 
Heartbeat CPU 6 instructions: 350000002 cycles: 320841526 heartbeat IPC: 1.03845 cumulative IPC: 1.05598 (Simulation time: 1 hr 58 min 38 sec) 
Heartbeat CPU 4 instructions: 300000000 cycles: 321496785 heartbeat IPC: 0.76392 cumulative IPC: 0.878461 (Simulation time: 1 hr 58 min 52 sec) 
Heartbeat CPU 1 instructions: 110000002 cycles: 321756758 heartbeat IPC: 0.285579 cumulative IPC: 0.292351 (Simulation time: 1 hr 58 min 58 sec) 
Heartbeat CPU 3 instructions: 310000000 cycles: 322898296 heartbeat IPC: 0.868111 cumulative IPC: 0.891395 (Simulation time: 1 hr 59 min 22 sec) 
Heartbeat CPU 7 instructions: 110000002 cycles: 327906228 heartbeat IPC: 0.225803 cumulative IPC: 0.22954 (Simulation time: 2 hr 1 min 10 sec) 
Heartbeat CPU 5 instructions: 80000000 cycles: 328264323 heartbeat IPC: 0.241043 cumulative IPC: 0.176265 (Simulation time: 2 hr 1 min 17 sec) 
Heartbeat CPU 6 instructions: 360000000 cycles: 330431682 heartbeat IPC: 1.04274 cumulative IPC: 1.05558 (Simulation time: 2 hr 2 min 5 sec) 
Heartbeat CPU 0 instructions: 140000000 cycles: 332586198 heartbeat IPC: 0.419655 cumulative IPC: 0.359952 (Simulation time: 2 hr 2 min 47 sec) 
Heartbeat CPU 3 instructions: 320000000 cycles: 335814712 heartbeat IPC: 0.774209 cumulative IPC: 0.886693 (Simulation time: 2 hr 3 min 57 sec) 
Heartbeat CPU 4 instructions: 310000002 cycles: 336683112 heartbeat IPC: 0.658487 cumulative IPC: 0.868111 (Simulation time: 2 hr 4 min 14 sec) 
Heartbeat CPU 6 instructions: 370000000 cycles: 340462568 heartbeat IPC: 0.996921 cumulative IPC: 1.05378 (Simulation time: 2 hr 5 min 32 sec) 
Heartbeat CPU 3 instructions: 330000001 cycles: 347250558 heartbeat IPC: 0.874443 cumulative IPC: 0.886273 (Simulation time: 2 hr 7 min 57 sec) 
Heartbeat CPU 4 instructions: 320000000 cycles: 348932139 heartbeat IPC: 0.816391 cumulative IPC: 0.86622 (Simulation time: 2 hr 8 min 31 sec) 
Heartbeat CPU 1 instructions: 120000000 cycles: 348953643 heartbeat IPC: 0.367689 cumulative IPC: 0.298466 (Simulation time: 2 hr 8 min 31 sec) 
Finished CPU 1 instructions: 100000000 cycles: 335046297 cumulative IPC: 0.298466 (Simulation time: 2 hr 8 min 31 sec) 
Heartbeat CPU 6 instructions: 380000000 cycles: 350011559 heartbeat IPC: 1.04723 cumulative IPC: 1.05359 (Simulation time: 2 hr 8 min 53 sec) 
Heartbeat CPU 3 instructions: 340000000 cycles: 359088737 heartbeat IPC: 0.844724 cumulative IPC: 0.884848 (Simulation time: 2 hr 11 min 45 sec) 
Heartbeat CPU 6 instructions: 390000001 cycles: 359715977 heartbeat IPC: 1.03046 cumulative IPC: 1.05294 (Simulation time: 2 hr 11 min 58 sec) 
Heartbeat CPU 2 instructions: 70000000 cycles: 361625237 heartbeat IPC: 0.126148 cumulative IPC: 0.141783 (Simulation time: 2 hr 12 min 35 sec) 
Heartbeat CPU 4 instructions: 330000001 cycles: 362501894 heartbeat IPC: 0.736933 cumulative IPC: 0.861188 (Simulation time: 2 hr 12 min 53 sec) 
Heartbeat CPU 0 instructions: 150000001 cycles: 365701627 heartbeat IPC: 0.301974 cumulative IPC: 0.354494 (Simulation time: 2 hr 13 min 58 sec) 
Heartbeat CPU 5 instructions: 90000000 cycles: 365879792 heartbeat IPC: 0.265848 cumulative IPC: 0.185839 (Simulation time: 2 hr 14 min 2 sec) 
Heartbeat CPU 6 instructions: 400000000 cycles: 369388611 heartbeat IPC: 1.03384 cumulative IPC: 1.05242 (Simulation time: 2 hr 15 min 8 sec) 
Heartbeat CPU 3 instructions: 350000001 cycles: 370753165 heartbeat IPC: 0.857307 cumulative IPC: 0.883948 (Simulation time: 2 hr 15 min 33 sec) 
Heartbeat CPU 7 instructions: 120000000 cycles: 372321917 heartbeat IPC: 0.225146 cumulative IPC: 0.228996 (Simulation time: 2 hr 16 min 1 sec) 
Heartbeat CPU 1 instructions: 130000000 cycles: 377352863 heartbeat IPC: 0.352122 cumulative IPC: 0.302659 (Simulation time: 2 hr 17 min 33 sec) 
Heartbeat CPU 6 instructions: 410000000 cycles: 379594858 heartbeat IPC: 0.979792 cumulative IPC: 1.05039 (Simulation time: 2 hr 18 min 9 sec) 
Heartbeat CPU 4 instructions: 340000000 cycles: 379873636 heartbeat IPC: 0.575647 cumulative IPC: 0.847633 (Simulation time: 2 hr 18 min 15 sec) 
Heartbeat CPU 3 instructions: 360000000 cycles: 383120658 heartbeat IPC: 0.808571 cumulative IPC: 0.881423 (Simulation time: 2 hr 19 min 15 sec) 
Heartbeat CPU 4 instructions: 350000002 cycles: 388763743 heartbeat IPC: 1.12485 cumulative IPC: 0.854208 (Simulation time: 2 hr 21 min 3 sec) 
Heartbeat CPU 6 instructions: 420000000 cycles: 389126532 heartbeat IPC: 1.04913 cumulative IPC: 1.05036 (Simulation time: 2 hr 21 min 10 sec) 
Heartbeat CPU 3 instructions: 370000000 cycles: 395147767 heartbeat IPC: 0.831455 cumulative IPC: 0.879847 (Simulation time: 2 hr 23 min 5 sec) 
Heartbeat CPU 0 instructions: 160000000 cycles: 395246738 heartbeat IPC: 0.338465 cumulative IPC: 0.353253 (Simulation time: 2 hr 23 min 7 sec) 
Heartbeat CPU 6 instructions: 430000000 cycles: 398444865 heartbeat IPC: 1.07315 cumulative IPC: 1.05091 (Simulation time: 2 hr 24 min 12 sec) 
Heartbeat CPU 4 instructions: 360000000 cycles: 399473611 heartbeat IPC: 0.933718 cumulative IPC: 0.856416 (Simulation time: 2 hr 24 min 33 sec) 
Heartbeat CPU 5 instructions: 100000000 cycles: 401941504 heartbeat IPC: 0.277302 cumulative IPC: 0.194339 (Simulation time: 2 hr 25 min 23 sec) 
Heartbeat CPU 3 instructions: 380000000 cycles: 405590037 heartbeat IPC: 0.957646 cumulative IPC: 0.881921 (Simulation time: 2 hr 26 min 33 sec) 
Heartbeat CPU 6 instructions: 440000000 cycles: 407897412 heartbeat IPC: 1.05792 cumulative IPC: 1.05108 (Simulation time: 2 hr 27 min 15 sec) 
Heartbeat CPU 4 instructions: 370000003 cycles: 408044893 heartbeat IPC: 1.16669 cumulative IPC: 0.863164 (Simulation time: 2 hr 27 min 18 sec) 
Heartbeat CPU 1 instructions: 140000000 cycles: 409561435 heartbeat IPC: 0.310476 cumulative IPC: 0.303295 (Simulation time: 2 hr 27 min 46 sec) 
Heartbeat CPU 7 instructions: 130000002 cycles: 413223503 heartbeat IPC: 0.244489 cumulative IPC: 0.230583 (Simulation time: 2 hr 28 min 53 sec) 
Heartbeat CPU 6 instructions: 450000000 cycles: 417409711 heartbeat IPC: 1.05127 cumulative IPC: 1.05109 (Simulation time: 2 hr 30 min 6 sec) 
Heartbeat CPU 4 instructions: 380000000 cycles: 418706034 heartbeat IPC: 0.937986 cumulative IPC: 0.865134 (Simulation time: 2 hr 30 min 29 sec) 
Heartbeat CPU 6 instructions: 460000000 cycles: 426922282 heartbeat IPC: 1.05124 cumulative IPC: 1.05109 (Simulation time: 2 hr 32 min 44 sec) 
Heartbeat CPU 0 instructions: 170000000 cycles: 428363835 heartbeat IPC: 0.301959 cumulative IPC: 0.349154 (Simulation time: 2 hr 33 min 4 sec) 
Heartbeat CPU 4 instructions: 390000001 cycles: 429769072 heartbeat IPC: 0.903911 cumulative IPC: 0.866166 (Simulation time: 2 hr 33 min 25 sec) 
Heartbeat CPU 3 instructions: 390000002 cycles: 432047000 heartbeat IPC: 0.377972 cumulative IPC: 0.850034 (Simulation time: 2 hr 34 min 11 sec) 
Heartbeat CPU 2 instructions: 80000000 cycles: 434880562 heartbeat IPC: 0.136509 cumulative IPC: 0.140866 (Simulation time: 2 hr 35 min 7 sec) 
Heartbeat CPU 6 instructions: 470000000 cycles: 436425608 heartbeat IPC: 1.05226 cumulative IPC: 1.05112 (Simulation time: 2 hr 35 min 39 sec) 
Heartbeat CPU 1 instructions: 150000000 cycles: 436553131 heartbeat IPC: 0.370484 cumulative IPC: 0.307586 (Simulation time: 2 hr 35 min 42 sec) 
Heartbeat CPU 4 instructions: 400000000 cycles: 438354917 heartbeat IPC: 1.16471 cumulative IPC: 0.872205 (Simulation time: 2 hr 36 min 19 sec) 
Heartbeat CPU 3 instructions: 400000000 cycles: 443940932 heartbeat IPC: 0.840765 cumulative IPC: 0.849778 (Simulation time: 2 hr 38 min 16 sec) 
Heartbeat CPU 6 instructions: 480000000 cycles: 445478568 heartbeat IPC: 1.10461 cumulative IPC: 1.05224 (Simulation time: 2 hr 38 min 45 sec) 
Finished CPU 7 instructions: 100000002 cycles: 433165322 cumulative IPC: 0.230859 (Simulation time: 2 hr 39 min 16 sec) 
Heartbeat CPU 4 instructions: 410000000 cycles: 448271771 heartbeat IPC: 1.00838 cumulative IPC: 0.875314 (Simulation time: 2 hr 39 min 39 sec) 
Heartbeat CPU 6 instructions: 490000003 cycles: 454687591 heartbeat IPC: 1.08589 cumulative IPC: 1.05294 (Simulation time: 2 hr 41 min 49 sec) 
Heartbeat CPU 3 instructions: 410000001 cycles: 455944802 heartbeat IPC: 0.833065 cumulative IPC: 0.849324 (Simulation time: 2 hr 42 min 16 sec) 
Heartbeat CPU 4 instructions: 420000000 cycles: 456366562 heartbeat IPC: 1.23536 cumulative IPC: 0.881901 (Simulation time: 2 hr 42 min 25 sec) 
Heartbeat CPU 7 instructions: 140000000 cycles: 456392130 heartbeat IPC: 0.23165 cumulative IPC: 0.230687 (Simulation time: 2 hr 42 min 25 sec) 
Heartbeat CPU 0 instructions: 180000000 cycles: 459142385 heartbeat IPC: 0.324902 cumulative IPC: 0.347477 (Simulation time: 2 hr 43 min 22 sec) 
Heartbeat CPU 6 instructions: 500000000 cycles: 463820066 heartbeat IPC: 1.09499 cumulative IPC: 1.05379 (Simulation time: 2 hr 44 min 50 sec) 
Heartbeat CPU 1 instructions: 160000000 cycles: 465248508 heartbeat IPC: 0.348488 cumulative IPC: 0.310187 (Simulation time: 2 hr 45 min 18 sec) 
Heartbeat CPU 5 instructions: 110000000 cycles: 466257915 heartbeat IPC: 0.155481 cumulative IPC: 0.188814 (Simulation time: 2 hr 45 min 38 sec) 
Heartbeat CPU 3 instructions: 420000000 cycles: 467892454 heartbeat IPC: 0.836984 cumulative IPC: 0.848999 (Simulation time: 2 hr 46 min 10 sec) 
Heartbeat CPU 4 instructions: 430000001 cycles: 470452523 heartbeat IPC: 0.709927 cumulative IPC: 0.876595 (Simulation time: 2 hr 46 min 59 sec) 
Heartbeat CPU 6 instructions: 510000002 cycles: 472711126 heartbeat IPC: 1.12473 cumulative IPC: 1.05517 (Simulation time: 2 hr 47 min 41 sec) 
Heartbeat CPU 3 instructions: 430000000 cycles: 479795623 heartbeat IPC: 0.840112 cumulative IPC: 0.848772 (Simulation time: 2 hr 50 min 1 sec) 
Heartbeat CPU 6 instructions: 520000000 cycles: 481517518 heartbeat IPC: 1.13554 cumulative IPC: 1.05668 (Simulation time: 2 hr 50 min 36 sec) 
Heartbeat CPU 4 instructions: 440000000 cycles: 485435148 heartbeat IPC: 0.66744 cumulative IPC: 0.869949 (Simulation time: 2 hr 51 min 55 sec) 
Heartbeat CPU 0 instructions: 190000001 cycles: 487016192 heartbeat IPC: 0.35876 cumulative IPC: 0.348142 (Simulation time: 2 hr 52 min 28 sec) 
Heartbeat CPU 6 instructions: 530000003 cycles: 490249788 heartbeat IPC: 1.14518 cumulative IPC: 1.05831 (Simulation time: 2 hr 53 min 32 sec) 
Heartbeat CPU 3 instructions: 440000000 cycles: 491601873 heartbeat IPC: 0.847009 cumulative IPC: 0.848729 (Simulation time: 2 hr 53 min 57 sec) 
Heartbeat CPU 2 instructions: 90000000 cycles: 493292134 heartbeat IPC: 0.171199 cumulative IPC: 0.144562 (Simulation time: 2 hr 54 min 28 sec) 
Heartbeat CPU 1 instructions: 170000000 cycles: 495735316 heartbeat IPC: 0.328011 cumulative IPC: 0.311314 (Simulation time: 2 hr 55 min 14 sec) 
Heartbeat CPU 6 instructions: 540000000 cycles: 499126066 heartbeat IPC: 1.1266 cumulative IPC: 1.05955 (Simulation time: 2 hr 56 min 21 sec) 
Heartbeat CPU 4 instructions: 450000000 cycles: 500420934 heartbeat IPC: 0.667299 cumulative IPC: 0.863707 (Simulation time: 2 hr 56 min 46 sec) 
Heartbeat CPU 7 instructions: 150000000 cycles: 500435835 heartbeat IPC: 0.227047 cumulative IPC: 0.230357 (Simulation time: 2 hr 56 min 47 sec) 
Heartbeat CPU 3 instructions: 450000002 cycles: 503477509 heartbeat IPC: 0.84206 cumulative IPC: 0.848567 (Simulation time: 2 hr 57 min 46 sec) 
Heartbeat CPU 6 instructions: 550000001 cycles: 507926452 heartbeat IPC: 1.13631 cumulative IPC: 1.06092 (Simulation time: 2 hr 59 min 13 sec) 
Heartbeat CPU 5 instructions: 120000000 cycles: 510100265 heartbeat IPC: 0.22809 cumulative IPC: 0.192285 (Simulation time: 2 hr 59 min 56 sec) 
Heartbeat CPU 0 instructions: 200000000 cycles: 510228461 heartbeat IPC: 0.430807 cumulative IPC: 0.352008 (Simulation time: 2 hr 59 min 59 sec) 
Heartbeat CPU 3 instructions: 460000000 cycles: 515335468 heartbeat IPC: 0.843315 cumulative IPC: 0.848443 (Simulation time: 3 hr 1 min 37 sec) 
Heartbeat CPU 4 instructions: 460000000 cycles: 516840237 heartbeat IPC: 0.609039 cumulative IPC: 0.855393 (Simulation time: 3 hr 2 min 3 sec) 
Heartbeat CPU 6 instructions: 560000000 cycles: 517105964 heartbeat IPC: 1.08938 cumulative IPC: 1.06144 (Simulation time: 3 hr 2 min 8 sec) 
Heartbeat CPU 1 instructions: 180000000 cycles: 523908162 heartbeat IPC: 0.354952 cumulative IPC: 0.313725 (Simulation time: 3 hr 4 min 26 sec) 
Heartbeat CPU 6 instructions: 570000003 cycles: 526261123 heartbeat IPC: 1.09228 cumulative IPC: 1.06199 (Simulation time: 3 hr 5 min 16 sec) 
Heartbeat CPU 4 instructions: 470000000 cycles: 526857170 heartbeat IPC: 0.99831 cumulative IPC: 0.858184 (Simulation time: 3 hr 5 min 28 sec) 
Heartbeat CPU 3 instructions: 470000003 cycles: 527387276 heartbeat IPC: 0.829751 cumulative IPC: 0.848004 (Simulation time: 3 hr 5 min 39 sec) 
Finished CPU 5 instructions: 100000001 cycles: 514203252 cumulative IPC: 0.194476 (Simulation time: 3 hr 5 min 53 sec) 
Heartbeat CPU 0 instructions: 210000000 cycles: 530549243 heartbeat IPC: 0.492107 cumulative IPC: 0.357519 (Simulation time: 3 hr 6 min 39 sec) 
Heartbeat CPU 6 instructions: 580000000 cycles: 536199123 heartbeat IPC: 1.00624 cumulative IPC: 1.06093 (Simulation time: 3 hr 8 min 15 sec) 
Heartbeat CPU 3 instructions: 480000000 cycles: 539731874 heartbeat IPC: 0.810071 cumulative IPC: 0.847114 (Simulation time: 3 hr 9 min 19 sec) 
Heartbeat CPU 4 instructions: 480000000 cycles: 541325092 heartbeat IPC: 0.691184 cumulative IPC: 0.853603 (Simulation time: 3 hr 9 min 48 sec) 
Heartbeat CPU 6 instructions: 590000001 cycles: 545522892 heartbeat IPC: 1.07253 cumulative IPC: 1.06113 (Simulation time: 3 hr 11 min 12 sec) 
Heartbeat CPU 7 instructions: 160000000 cycles: 546243849 heartbeat IPC: 0.218302 cumulative IPC: 0.22932 (Simulation time: 3 hr 11 min 25 sec) 
Heartbeat CPU 4 instructions: 490000003 cycles: 550020073 heartbeat IPC: 1.15009 cumulative IPC: 0.858411 (Simulation time: 3 hr 12 min 38 sec) 
Heartbeat CPU 3 instructions: 490000003 cycles: 551723880 heartbeat IPC: 0.833889 cumulative IPC: 0.846819 (Simulation time: 3 hr 13 min 11 sec) 
Heartbeat CPU 5 instructions: 130000001 cycles: 554037258 heartbeat IPC: 0.227599 cumulative IPC: 0.195157 (Simulation time: 3 hr 13 min 59 sec) 
Heartbeat CPU 6 instructions: 600000000 cycles: 554502110 heartbeat IPC: 1.11368 cumulative IPC: 1.06201 (Simulation time: 3 hr 14 min 9 sec) 
Heartbeat CPU 1 instructions: 190000000 cycles: 555131458 heartbeat IPC: 0.320274 cumulative IPC: 0.314103 (Simulation time: 3 hr 14 min 21 sec) 
Heartbeat CPU 2 instructions: 100000000 cycles: 556553728 heartbeat IPC: 0.158074 cumulative IPC: 0.146137 (Simulation time: 3 hr 14 min 50 sec) 
Heartbeat CPU 4 instructions: 500000000 cycles: 558980059 heartbeat IPC: 1.11607 cumulative IPC: 0.862647 (Simulation time: 3 hr 15 min 37 sec) 
Heartbeat CPU 0 instructions: 220000000 cycles: 561724417 heartbeat IPC: 0.320768 cumulative IPC: 0.355427 (Simulation time: 3 hr 16 min 31 sec) 
Heartbeat CPU 6 instructions: 610000000 cycles: 563581514 heartbeat IPC: 1.10139 cumulative IPC: 1.06266 (Simulation time: 3 hr 17 min 7 sec) 
Heartbeat CPU 3 instructions: 500000000 cycles: 563649080 heartbeat IPC: 0.83856 cumulative IPC: 0.84664 (Simulation time: 3 hr 17 min 8 sec) 
Heartbeat CPU 4 instructions: 510000000 cycles: 568192123 heartbeat IPC: 1.08553 cumulative IPC: 0.866351 (Simulation time: 3 hr 18 min 36 sec) 
Heartbeat CPU 6 instructions: 620000000 cycles: 572671375 heartbeat IPC: 1.10013 cumulative IPC: 1.06327 (Simulation time: 3 hr 20 min 3 sec) 
Heartbeat CPU 4 instructions: 520000000 cycles: 576753634 heartbeat IPC: 1.16802 cumulative IPC: 0.87094 (Simulation time: 3 hr 21 min 12 sec) 
Heartbeat CPU 6 instructions: 630000002 cycles: 581960487 heartbeat IPC: 1.07653 cumulative IPC: 1.06348 (Simulation time: 3 hr 22 min 42 sec) 
Heartbeat CPU 4 instructions: 530000003 cycles: 585964627 heartbeat IPC: 1.08566 cumulative IPC: 0.874397 (Simulation time: 3 hr 23 min 53 sec) 
Heartbeat CPU 3 instructions: 510000001 cycles: 589998329 heartbeat IPC: 0.379517 cumulative IPC: 0.825274 (Simulation time: 3 hr 25 min 1 sec) 
Heartbeat CPU 6 instructions: 640000000 cycles: 591339886 heartbeat IPC: 1.06617 cumulative IPC: 1.06353 (Simulation time: 3 hr 25 min 25 sec) 
Heartbeat CPU 0 instructions: 230000000 cycles: 591941730 heartbeat IPC: 0.330936 cumulative IPC: 0.354147 (Simulation time: 3 hr 25 min 35 sec) 
Heartbeat CPU 1 instructions: 200000000 cycles: 593462098 heartbeat IPC: 0.260888 cumulative IPC: 0.310583 (Simulation time: 3 hr 26 min 0 sec) 
Heartbeat CPU 4 instructions: 540000000 cycles: 596357066 heartbeat IPC: 0.962238 cumulative IPC: 0.875965 (Simulation time: 3 hr 26 min 49 sec) 
Heartbeat CPU 7 instructions: 170000001 cycles: 596425302 heartbeat IPC: 0.199277 cumulative IPC: 0.226732 (Simulation time: 3 hr 26 min 51 sec) 
Heartbeat CPU 6 instructions: 650000000 cycles: 600680098 heartbeat IPC: 1.07064 cumulative IPC: 1.06364 (Simulation time: 3 hr 28 min 7 sec) 
Heartbeat CPU 3 instructions: 520000000 cycles: 602099738 heartbeat IPC: 0.82635 cumulative IPC: 0.825296 (Simulation time: 3 hr 28 min 33 sec) 
Heartbeat CPU 5 instructions: 140000000 cycles: 605109036 heartbeat IPC: 0.195803 cumulative IPC: 0.195213 (Simulation time: 3 hr 29 min 28 sec) 
Heartbeat CPU 4 instructions: 550000000 cycles: 607227481 heartbeat IPC: 0.919928 cumulative IPC: 0.87677 (Simulation time: 3 hr 30 min 6 sec) 
Heartbeat CPU 6 instructions: 660000000 cycles: 609966621 heartbeat IPC: 1.07683 cumulative IPC: 1.06385 (Simulation time: 3 hr 30 min 54 sec) 
Heartbeat CPU 3 instructions: 530000001 cycles: 615793256 heartbeat IPC: 0.730273 cumulative IPC: 0.823135 (Simulation time: 3 hr 32 min 33 sec) 
Heartbeat CPU 6 instructions: 670000001 cycles: 619532702 heartbeat IPC: 1.04536 cumulative IPC: 1.06355 (Simulation time: 3 hr 33 min 34 sec) 
Heartbeat CPU 0 instructions: 240000000 cycles: 619818583 heartbeat IPC: 0.358721 cumulative IPC: 0.354357 (Simulation time: 3 hr 33 min 38 sec) 
Heartbeat CPU 4 instructions: 560000000 cycles: 621445705 heartbeat IPC: 0.703323 cumulative IPC: 0.872711 (Simulation time: 3 hr 34 min 3 sec) 
Heartbeat CPU 2 instructions: 110000001 cycles: 621582643 heartbeat IPC: 0.153778 cumulative IPC: 0.146955 (Simulation time: 3 hr 34 min 6 sec) 
Heartbeat CPU 6 instructions: 680000000 cycles: 629969398 heartbeat IPC: 0.958158 cumulative IPC: 1.06177 (Simulation time: 3 hr 36 min 13 sec) 
Heartbeat CPU 3 instructions: 540000000 cycles: 633668291 heartbeat IPC: 0.559439 cumulative IPC: 0.815529 (Simulation time: 3 hr 37 min 8 sec) 
Heartbeat CPU 4 instructions: 570000002 cycles: 634274388 heartbeat IPC: 0.779503 cumulative IPC: 0.870783 (Simulation time: 3 hr 37 min 18 sec) 
Heartbeat CPU 1 instructions: 210000001 cycles: 639958227 heartbeat IPC: 0.215072 cumulative IPC: 0.30349 (Simulation time: 3 hr 38 min 47 sec) 
Heartbeat CPU 6 instructions: 690000003 cycles: 640247098 heartbeat IPC: 0.972981 cumulative IPC: 1.06031 (Simulation time: 3 hr 38 min 52 sec) 
Heartbeat CPU 4 instructions: 580000000 cycles: 644403650 heartbeat IPC: 0.987239 cumulative IPC: 0.872654 (Simulation time: 3 hr 40 min 6 sec) 
Heartbeat CPU 7 instructions: 180000000 cycles: 644422754 heartbeat IPC: 0.208344 cumulative IPC: 0.225332 (Simulation time: 3 hr 40 min 6 sec) 
Heartbeat CPU 3 instructions: 550000001 cycles: 646543773 heartbeat IPC: 0.77667 cumulative IPC: 0.814738 (Simulation time: 3 hr 40 min 43 sec) 
Heartbeat CPU 0 instructions: 250000001 cycles: 646745774 heartbeat IPC: 0.371372 cumulative IPC: 0.355081 (Simulation time: 3 hr 40 min 47 sec) 
Heartbeat CPU 6 instructions: 700000000 cycles: 650020795 heartbeat IPC: 1.02315 cumulative IPC: 1.05974 (Simulation time: 3 hr 41 min 41 sec) 
Heartbeat CPU 3 instructions: 560000000 cycles: 659461014 heartbeat IPC: 0.774159 cumulative IPC: 0.813926 (Simulation time: 3 hr 44 min 7 sec) 
Heartbeat CPU 4 instructions: 590000001 cycles: 660060648 heartbeat IPC: 0.638692 cumulative IPC: 0.866985 (Simulation time: 3 hr 44 min 17 sec) 
Heartbeat CPU 6 instructions: 710000002 cycles: 660727075 heartbeat IPC: 0.934031 cumulative IPC: 1.05766 (Simulation time: 3 hr 44 min 27 sec) 
Heartbeat CPU 6 instructions: 720000000 cycles: 670730289 heartbeat IPC: 0.999678 cumulative IPC: 1.05678 (Simulation time: 3 hr 47 min 12 sec) 
Heartbeat CPU 0 instructions: 260000000 cycles: 671630896 heartbeat IPC: 0.401846 cumulative IPC: 0.356851 (Simulation time: 3 hr 47 min 29 sec) 
Heartbeat CPU 3 instructions: 570000000 cycles: 672057753 heartbeat IPC: 0.793856 cumulative IPC: 0.813542 (Simulation time: 3 hr 47 min 36 sec) 
Heartbeat CPU 1 instructions: 220000000 cycles: 672502709 heartbeat IPC: 0.307272 cumulative IPC: 0.303677 (Simulation time: 3 hr 47 min 43 sec) 
Heartbeat CPU 4 instructions: 600000000 cycles: 673168701 heartbeat IPC: 0.76289 cumulative IPC: 0.864915 (Simulation time: 3 hr 47 min 54 sec) 
Heartbeat CPU 6 instructions: 730000000 cycles: 680257225 heartbeat IPC: 1.04966 cumulative IPC: 1.05668 (Simulation time: 3 hr 50 min 3 sec) 
Heartbeat CPU 3 instructions: 580000000 cycles: 683308977 heartbeat IPC: 0.888792 cumulative IPC: 0.814807 (Simulation time: 3 hr 51 min 0 sec) 
Heartbeat CPU 4 instructions: 610000000 cycles: 685765298 heartbeat IPC: 0.793865 cumulative IPC: 0.863583 (Simulation time: 3 hr 51 min 43 sec) 
Heartbeat CPU 5 instructions: 150000002 cycles: 688931588 heartbeat IPC: 0.1193 cumulative IPC: 0.185786 (Simulation time: 3 hr 52 min 39 sec) 
Heartbeat CPU 0 instructions: 270000000 cycles: 688943014 heartbeat IPC: 0.57763 cumulative IPC: 0.362513 (Simulation time: 3 hr 52 min 39 sec) 
Heartbeat CPU 6 instructions: 740000000 cycles: 689781634 heartbeat IPC: 1.04993 cumulative IPC: 1.05658 (Simulation time: 3 hr 52 min 54 sec) 
Heartbeat CPU 3 instructions: 590000000 cycles: 695264940 heartbeat IPC: 0.836403 cumulative IPC: 0.815186 (Simulation time: 3 hr 54 min 27 sec) 
Heartbeat CPU 7 instructions: 190000003 cycles: 698713485 heartbeat IPC: 0.184194 cumulative IPC: 0.222071 (Simulation time: 3 hr 55 min 22 sec) 
Heartbeat CPU 6 instructions: 750000001 cycles: 699601460 heartbeat IPC: 1.01835 cumulative IPC: 1.05603 (Simulation time: 3 hr 55 min 38 sec) 
Heartbeat CPU 4 instructions: 620000000 cycles: 700424169 heartbeat IPC: 0.682181 cumulative IPC: 0.85971 (Simulation time: 3 hr 55 min 52 sec) 
Heartbeat CPU 2 instructions: 120000000 cycles: 700915114 heartbeat IPC: 0.126052 cumulative IPC: 0.144541 (Simulation time: 3 hr 56 min 0 sec) 
Heartbeat CPU 1 instructions: 230000001 cycles: 704212884 heartbeat IPC: 0.315356 cumulative IPC: 0.304213 (Simulation time: 3 hr 56 min 57 sec) 
Finished CPU 2 instructions: 100000000 cycles: 691965864 cumulative IPC: 0.144516 (Simulation time: 3 hr 57 min 28 sec) 

CPU 0 Branch Prediction Accuracy: 99.2919% MPKI: 1.72621

CPU 1 Branch Prediction Accuracy: 98.584% MPKI: 1.40008

CPU 2 Branch Prediction Accuracy: 99.5575% MPKI: 1.55114

CPU 3 Branch Prediction Accuracy: 95.7135% MPKI: 3.46772

CPU 4 Branch Prediction Accuracy: 99.2887% MPKI: 0.359624

CPU 5 Branch Prediction Accuracy: 92.486% MPKI: 13.5422

CPU 6 Branch Prediction Accuracy: 99.9708% MPKI: 0.00723612

CPU 7 Branch Prediction Accuracy: 99.9809% MPKI: 0.0190812

ChampSim completed all CPUs

Total Simulation Statistics (not including warmup)

CPU 0 cumulative IPC: 0.366701 instructions: 253744796 cycles: 691965863
L1D TOTAL     ACCESS:   64120440  HIT:   51050260  MISS:   13070180
L1D LOAD      ACCESS:   45694789  HIT:   33047713  MISS:   12647076
L1D RFO       ACCESS:   18425651  HIT:   18002547  MISS:     423104
L1D PREFETCH  ACCESS:          0  HIT:          0  MISS:          0
L1D WRITEBACK ACCESS:          0  HIT:          0  MISS:          0
L1I TOTAL     ACCESS:  109992965  HIT:  109324545  MISS:     668420
L1I LOAD      ACCESS:  109992965  HIT:  109324545  MISS:     668420
L1I RFO       ACCESS:          0  HIT:          0  MISS:          0
L1I PREFETCH  ACCESS:          0  HIT:          0  MISS:          0
L1I WRITEBACK ACCESS:          0  HIT:          0  MISS:          0
L2C TOTAL     ACCESS:   23132717  HIT:   17926112  MISS:    5206605
L2C LOAD      ACCESS:   13315449  HIT:    8628124  MISS:    4687325
L2C RFO       ACCESS:     423094  HIT:      77009  MISS:     346085
L2C PREFETCH  ACCESS:    8707158  HIT:    8534195  MISS:     172963
L2C WRITEBACK ACCESS:     687016  HIT:     686784  MISS:        232
LLC TOTAL     ACCESS:   15639210  HIT:   14688515  MISS:     950695
LLC LOAD      ACCESS:    4588813  HIT:    4433783  MISS:     155030
LLC RFO       ACCESS:     345903  HIT:      44608  MISS:     301295
LLC PREFETCH  ACCESS:   10226789  HIT:    9766413  MISS:     460376
LLC WRITEBACK ACCESS:     477705  HIT:     443711  MISS:      33994

CPU 1 cumulative IPC: 0.304572 instructions: 210753141 cycles: 691965863
L1D TOTAL     ACCESS:  104361842  HIT:   98695091  MISS:    5666751
L1D LOAD      ACCESS:   45776352  HIT:   40623130  MISS:    5153222
L1D RFO       ACCESS:   58585490  HIT:   58071961  MISS:     513529
L1D PREFETCH  ACCESS:          0  HIT:          0  MISS:          0
L1D WRITEBACK ACCESS:          0  HIT:          0  MISS:          0
L1I TOTAL     ACCESS:   67718577  HIT:   67718577  MISS:          0
L1I LOAD      ACCESS:   67718577  HIT:   67718577  MISS:          0
L1I RFO       ACCESS:          0  HIT:          0  MISS:          0
L1I PREFETCH  ACCESS:          0  HIT:          0  MISS:          0
L1I WRITEBACK ACCESS:          0  HIT:          0  MISS:          0
L2C TOTAL     ACCESS:    7829264  HIT:    2323515  MISS:    5505749
L2C LOAD      ACCESS:    5153196  HIT:     322402  MISS:    4830794
L2C RFO       ACCESS:     513517  HIT:      16197  MISS:     497320
L2C PREFETCH  ACCESS:     810513  HIT:     636863  MISS:     173650
L2C WRITEBACK ACCESS:    1352038  HIT:    1348053  MISS:       3985
LLC TOTAL     ACCESS:   11564461  HIT:    5392389  MISS:    6172072
LLC LOAD      ACCESS:    4736767  HIT:    1906210  MISS:    2830557
LLC RFO       ACCESS:     496259  HIT:      30862  MISS:     465397
LLC PREFETCH  ACCESS:    5109564  HIT:    2236290  MISS:    2873274
LLC WRITEBACK ACCESS:    1221871  HIT:    1219027  MISS:       2844

CPU 2 cumulative IPC: 0.144516 instructions: 100000000 cycles: 691965864
L1D TOTAL     ACCESS:   16540726  HIT:    9303578  MISS:    7237148
L1D LOAD      ACCESS:   15057238  HIT:    7822880  MISS:    7234358
L1D RFO       ACCESS:    1483488  HIT:    1480698  MISS:       2790
L1D PREFETCH  ACCESS:          0  HIT:          0  MISS:          0
L1D WRITEBACK ACCESS:          0  HIT:          0  MISS:          0
L1I TOTAL     ACCESS:   36419069  HIT:   36419044  MISS:         25
L1I LOAD      ACCESS:   36419069  HIT:   36419044  MISS:         25
L1I RFO       ACCESS:          0  HIT:          0  MISS:          0
L1I PREFETCH  ACCESS:          0  HIT:          0  MISS:          0
L1I WRITEBACK ACCESS:          0  HIT:          0  MISS:          0
L2C TOTAL     ACCESS:    9390123  HIT:    2385937  MISS:    7004186
L2C LOAD      ACCESS:    7234383  HIT:    2208258  MISS:    5026125
L2C RFO       ACCESS:       2790  HIT:        130  MISS:       2660
L2C PREFETCH  ACCESS:    2127478  HIT:     152077  MISS:    1975401
L2C WRITEBACK ACCESS:      25472  HIT:      25472  MISS:          0
LLC TOTAL     ACCESS:   20430302  HIT:   13301956  MISS:    7128346
LLC LOAD      ACCESS:    2589841  HIT:    2026820  MISS:     563021
LLC RFO       ACCESS:       2621  HIT:       1614  MISS:       1007
LLC PREFETCH  ACCESS:   17826674  HIT:   11262361  MISS:    6564313
LLC WRITEBACK ACCESS:      11166  HIT:      11161  MISS:          5

CPU 3 cumulative IPC: 0.815594 instructions: 564363562 cycles: 691965864
L1D TOTAL     ACCESS:   97613394  HIT:   85386916  MISS:   12226478
L1D LOAD      ACCESS:   63290786  HIT:   55344014  MISS:    7946772
L1D RFO       ACCESS:   34322608  HIT:   30042902  MISS:    4279706
L1D PREFETCH  ACCESS:          0  HIT:          0  MISS:          0
L1D WRITEBACK ACCESS:          0  HIT:          0  MISS:          0
L1I TOTAL     ACCESS:  140837745  HIT:  140828852  MISS:       8893
L1I LOAD      ACCESS:  140837745  HIT:  140828852  MISS:       8893
L1I RFO       ACCESS:          0  HIT:          0  MISS:          0
L1I PREFETCH  ACCESS:          0  HIT:          0  MISS:          0
L1I WRITEBACK ACCESS:          0  HIT:          0  MISS:          0
L2C TOTAL     ACCESS:   24982615  HIT:   16269417  MISS:    8713198
L2C LOAD      ACCESS:    7955553  HIT:    3888716  MISS:    4066837
L2C RFO       ACCESS:    4278085  HIT:    1272436  MISS:    3005649
L2C PREFETCH  ACCESS:    7412520  HIT:    5780540  MISS:    1631980
L2C WRITEBACK ACCESS:    5336457  HIT:    5327725  MISS:       8732
LLC TOTAL     ACCESS:   25235961  HIT:   21681953  MISS:    3554008
LLC LOAD      ACCESS:    2986748  HIT:    2712916  MISS:     273832
LLC RFO       ACCESS:    3005643  HIT:    1356404  MISS:    1649239
LLC PREFETCH  ACCESS:   15394115  HIT:   13785796  MISS:    1608319
LLC WRITEBACK ACCESS:    3849455  HIT:    3826837  MISS:      22618

CPU 4 cumulative IPC: 0.859657 instructions: 594853562 cycles: 691965864
L1D TOTAL     ACCESS:  145352309  HIT:  134672350  MISS:   10679959
L1D LOAD      ACCESS:  122310059  HIT:  113403476  MISS:    8906583
L1D RFO       ACCESS:   23042250  HIT:   21268874  MISS:    1773376
L1D PREFETCH  ACCESS:          0  HIT:          0  MISS:          0
L1D WRITEBACK ACCESS:          0  HIT:          0  MISS:          0
L1I TOTAL     ACCESS:  159950643  HIT:  159933161  MISS:      17482
L1I LOAD      ACCESS:  159950643  HIT:  159933161  MISS:      17482
L1I RFO       ACCESS:          0  HIT:          0  MISS:          0
L1I PREFETCH  ACCESS:          0  HIT:          0  MISS:          0
L1I WRITEBACK ACCESS:          0  HIT:          0  MISS:          0
L2C TOTAL     ACCESS:   27518668  HIT:   19845074  MISS:    7673594
L2C LOAD      ACCESS:    8923761  HIT:    4807269  MISS:    4116492
L2C RFO       ACCESS:    1773342  HIT:     403274  MISS:    1370068
L2C PREFETCH  ACCESS:   13148857  HIT:   10969234  MISS:    2179623
L2C WRITEBACK ACCESS:    3672708  HIT:    3665297  MISS:       7411
LLC TOTAL     ACCESS:   26135802  HIT:   19648742  MISS:    6487060
LLC LOAD      ACCESS:    3105751  HIT:    2459181  MISS:     646570
LLC RFO       ACCESS:    1370067  HIT:     179460  MISS:    1190607
LLC PREFETCH  ACCESS:   18658934  HIT:   14028693  MISS:    4630241
LLC WRITEBACK ACCESS:    3001050  HIT:    2981408  MISS:      19642

CPU 5 cumulative IPC: 0.185455 instructions: 128328282 cycles: 691965864
L1D TOTAL     ACCESS:   52869877  HIT:   47886270  MISS:    4983607
L1D LOAD      ACCESS:   40014374  HIT:   35075490  MISS:    4938884
L1D RFO       ACCESS:   12855503  HIT:   12810780  MISS:      44723
L1D PREFETCH  ACCESS:          0  HIT:          0  MISS:          0
L1D WRITEBACK ACCESS:          0  HIT:          0  MISS:          0
L1I TOTAL     ACCESS:   27813692  HIT:   27813692  MISS:          0
L1I LOAD      ACCESS:   27813692  HIT:   27813692  MISS:          0
L1I RFO       ACCESS:          0  HIT:          0  MISS:          0
L1I PREFETCH  ACCESS:          0  HIT:          0  MISS:          0
L1I WRITEBACK ACCESS:          0  HIT:          0  MISS:          0
L2C TOTAL     ACCESS:    6348344  HIT:    2752369  MISS:    3595975
L2C LOAD      ACCESS:    4938872  HIT:    1517867  MISS:    3421005
L2C RFO       ACCESS:      44718  HIT:      36009  MISS:       8709
L2C PREFETCH  ACCESS:    1012280  HIT:     846860  MISS:     165420
L2C WRITEBACK ACCESS:     352474  HIT:     351633  MISS:        841
LLC TOTAL     ACCESS:    8328979  HIT:    3191891  MISS:    5137088
LLC LOAD      ACCESS:    3405861  HIT:    1067118  MISS:    2338743
LLC RFO       ACCESS:       8709  HIT:       5634  MISS:       3075
LLC PREFETCH  ACCESS:    4681229  HIT:    1888551  MISS:    2792678
LLC WRITEBACK ACCESS:     233180  HIT:     230588  MISS:       2592

CPU 6 cumulative IPC: 1.05577 instructions: 730559669 cycles: 691965864
L1D TOTAL     ACCESS:  277175913  HIT:  262014337  MISS:   15161576
L1D LOAD      ACCESS:  236759281  HIT:  222056782  MISS:   14702499
L1D RFO       ACCESS:   40416632  HIT:   39957555  MISS:     459077
L1D PREFETCH  ACCESS:          0  HIT:          0  MISS:          0
L1D WRITEBACK ACCESS:          0  HIT:          0  MISS:          0
L1I TOTAL     ACCESS:  181606345  HIT:  181606345  MISS:          0
L1I LOAD      ACCESS:  181606345  HIT:  181606345  MISS:          0
L1I RFO       ACCESS:          0  HIT:          0  MISS:          0
L1I PREFETCH  ACCESS:          0  HIT:          0  MISS:          0
L1I WRITEBACK ACCESS:          0  HIT:          0  MISS:          0
L2C TOTAL     ACCESS:   23480192  HIT:    9584874  MISS:   13895318
L2C LOAD      ACCESS:   14698648  HIT:    5352863  MISS:    9345785
L2C RFO       ACCESS:     450286  HIT:      94326  MISS:     355960
L2C PREFETCH  ACCESS:    7831238  HIT:    3638779  MISS:    4192459
L2C WRITEBACK ACCESS:     500020  HIT:     498906  MISS:       1114
LLC TOTAL     ACCESS:   46548184  HIT:   32664410  MISS:   13883774
LLC LOAD      ACCESS:    7933629  HIT:    7280197  MISS:     653432
LLC RFO       ACCESS:     355960  HIT:          0  MISS:     355960
LLC PREFETCH  ACCESS:   37901175  HIT:   25027165  MISS:   12874010
LLC WRITEBACK ACCESS:     357420  HIT:     357048  MISS:        372

CPU 7 cumulative IPC: 0.221833 instructions: 153500768 cycles: 691965864
L1D TOTAL     ACCESS:   30188753  HIT:   21738867  MISS:    8449886
L1D LOAD      ACCESS:   23382073  HIT:   15357732  MISS:    8024341
L1D RFO       ACCESS:    6806680  HIT:    6381135  MISS:     425545
L1D PREFETCH  ACCESS:          0  HIT:          0  MISS:          0
L1D WRITEBACK ACCESS:          0  HIT:          0  MISS:          0
L1I TOTAL     ACCESS:   38674656  HIT:   38674656  MISS:          0
L1I LOAD      ACCESS:   38674656  HIT:   38674656  MISS:          0
L1I RFO       ACCESS:          0  HIT:          0  MISS:          0
L1I PREFETCH  ACCESS:          0  HIT:          0  MISS:          0
L1I WRITEBACK ACCESS:          0  HIT:          0  MISS:          0
L2C TOTAL     ACCESS:   12888595  HIT:    7020054  MISS:    5868541
L2C LOAD      ACCESS:    8024341  HIT:    2670859  MISS:    5353482
L2C RFO       ACCESS:     425545  HIT:      63721  MISS:     361824
L2C PREFETCH  ACCESS:    1035257  HIT:     882022  MISS:     153235
L2C WRITEBACK ACCESS:    3403452  HIT:    3403452  MISS:          0
LLC TOTAL     ACCESS:   16165587  HIT:   12004196  MISS:    4161391
LLC LOAD      ACCESS:    5353292  HIT:    4296049  MISS:    1057243
LLC RFO       ACCESS:     361783  HIT:     361782  MISS:          1
LLC PREFETCH  ACCESS:    7046230  HIT:    3942348  MISS:    3103882
LLC WRITEBACK ACCESS:    3404282  HIT:    3404017  MISS:        265

Region of Interest Statistics

CPU 0 cumulative IPC: 0.349804 instructions: 100000001 cycles: 285874778
L1D TOTAL     ACCESS:   27087187  HIT:   21900080  MISS:    5187107
L1D LOAD      ACCESS:   18920580  HIT:   13900716  MISS:    5019864
L1D RFO       ACCESS:    8166607  HIT:    7999364  MISS:     167243
L1D PREFETCH  ACCESS:          0  HIT:          0  MISS:          0
L1D WRITEBACK ACCESS:          0  HIT:          0  MISS:          0
L1D PREFETCH  REQUESTED:          0  ISSUED:          0  USEFUL:          0  USELESS:          0
L1I TOTAL     ACCESS:   42826120  HIT:   42525077  MISS:     301043
L1I LOAD      ACCESS:   42826120  HIT:   42525077  MISS:     301043
L1I RFO       ACCESS:          0  HIT:          0  MISS:          0
L1I PREFETCH  ACCESS:          0  HIT:          0  MISS:          0
L1I WRITEBACK ACCESS:          0  HIT:          0  MISS:          0
L1I PREFETCH  REQUESTED:          0  ISSUED:          0  USEFUL:          0  USELESS:          0
L2C TOTAL     ACCESS:    8989779  HIT:    6896794  MISS:    2092985
L2C LOAD      ACCESS:    5320887  HIT:    3433526  MISS:    1887361
L2C RFO       ACCESS:     167238  HIT:      30730  MISS:     136508
L2C PREFETCH  ACCESS:    3231502  HIT:    3162493  MISS:      69009
L2C WRITEBACK ACCESS:     270152  HIT:     270045  MISS:        107
L2C PREFETCH  REQUESTED:   25266745  ISSUED:   25264396  USEFUL:      51391  USELESS:     143005
LLC TOTAL     ACCESS:    6586765  HIT:    6191870  MISS:     394895
LLC LOAD      ACCESS:    1852218  HIT:    1784682  MISS:      67536
LLC RFO       ACCESS:     136426  HIT:      19399  MISS:     117027
LLC PREFETCH  ACCESS:    4408418  HIT:    4213553  MISS:     194865
LLC WRITEBACK ACCESS:     189703  HIT:     174236  MISS:      15467
LLC PREFETCH  REQUESTED:          0  ISSUED:          0  USEFUL:   18942796  USELESS:   19495554
Major fault: 0 Minor fault: 4581

CPU 1 cumulative IPC: 0.298466 instructions: 100000000 cycles: 335046297
L1D TOTAL     ACCESS:   49489689  HIT:   46766087  MISS:    2723602
L1D LOAD      ACCESS:   21697850  HIT:   19218415  MISS:    2479435
L1D RFO       ACCESS:   27791839  HIT:   27547672  MISS:     244167
L1D PREFETCH  ACCESS:          0  HIT:          0  MISS:          0
L1D WRITEBACK ACCESS:          0  HIT:          0  MISS:          0
L1D PREFETCH  REQUESTED:          0  ISSUED:          0  USEFUL:          0  USELESS:          0
L1I TOTAL     ACCESS:   32141315  HIT:   32141315  MISS:          0
L1I LOAD      ACCESS:   32141315  HIT:   32141315  MISS:          0
L1I RFO       ACCESS:          0  HIT:          0  MISS:          0
L1I PREFETCH  ACCESS:          0  HIT:          0  MISS:          0
L1I WRITEBACK ACCESS:          0  HIT:          0  MISS:          0
L1I PREFETCH  REQUESTED:          0  ISSUED:          0  USEFUL:          0  USELESS:          0
L2C TOTAL     ACCESS:    3792752  HIT:    1145670  MISS:    2647082
L2C LOAD      ACCESS:    2479428  HIT:     155691  MISS:    2323737
L2C RFO       ACCESS:     244159  HIT:       7889  MISS:     236270
L2C PREFETCH  ACCESS:     404525  HIT:     319338  MISS:      85187
L2C WRITEBACK ACCESS:     664640  HIT:     662752  MISS:       1888
L2C PREFETCH  REQUESTED:    9286334  ISSUED:    9286334  USEFUL:     181176  USELESS:      11748
LLC TOTAL     ACCESS:    5607679  HIT:    2614467  MISS:    2993212
LLC LOAD      ACCESS:    2275430  HIT:     911979  MISS:    1363451
LLC RFO       ACCESS:     235785  HIT:      15112  MISS:     220673
LLC PREFETCH  ACCESS:    2494042  HIT:    1086356  MISS:    1407686
LLC WRITEBACK ACCESS:     602422  HIT:     601020  MISS:       1402
LLC PREFETCH  REQUESTED:          0  ISSUED:          0  USEFUL:   18942796  USELESS:   19495554
Major fault: 0 Minor fault: 55613

CPU 2 cumulative IPC: 0.144516 instructions: 100000000 cycles: 691965864
L1D TOTAL     ACCESS:   16540726  HIT:    9303578  MISS:    7237148
L1D LOAD      ACCESS:   15057238  HIT:    7822880  MISS:    7234358
L1D RFO       ACCESS:    1483488  HIT:    1480698  MISS:       2790
L1D PREFETCH  ACCESS:          0  HIT:          0  MISS:          0
L1D WRITEBACK ACCESS:          0  HIT:          0  MISS:          0
L1D PREFETCH  REQUESTED:          0  ISSUED:          0  USEFUL:          0  USELESS:          0
L1I TOTAL     ACCESS:   36419069  HIT:   36419044  MISS:         25
L1I LOAD      ACCESS:   36419069  HIT:   36419044  MISS:         25
L1I RFO       ACCESS:          0  HIT:          0  MISS:          0
L1I PREFETCH  ACCESS:          0  HIT:          0  MISS:          0
L1I WRITEBACK ACCESS:          0  HIT:          0  MISS:          0
L1I PREFETCH  REQUESTED:          0  ISSUED:          0  USEFUL:          0  USELESS:          0
L2C TOTAL     ACCESS:    9390123  HIT:    2385937  MISS:    7004186
L2C LOAD      ACCESS:    7234383  HIT:    2208258  MISS:    5026125
L2C RFO       ACCESS:       2790  HIT:        130  MISS:       2660
L2C PREFETCH  ACCESS:    2127478  HIT:     152077  MISS:    1975401
L2C WRITEBACK ACCESS:      25472  HIT:      25472  MISS:          0
L2C PREFETCH  REQUESTED:   44006941  ISSUED:   44006941  USEFUL:    2543904  USELESS:      14420
LLC TOTAL     ACCESS:   20430302  HIT:   13301956  MISS:    7128346
LLC LOAD      ACCESS:    2589841  HIT:    2026820  MISS:     563021
LLC RFO       ACCESS:       2621  HIT:       1614  MISS:       1007
LLC PREFETCH  ACCESS:   17826674  HIT:   11262361  MISS:    6564313
LLC WRITEBACK ACCESS:      11166  HIT:      11161  MISS:          5
LLC PREFETCH  REQUESTED:          0  ISSUED:          0  USEFUL:   18942796  USELESS:   19495554
Major fault: 0 Minor fault: 48143

CPU 3 cumulative IPC: 0.932514 instructions: 100000000 cycles: 107237014
L1D TOTAL     ACCESS:   14550283  HIT:   12719222  MISS:    1831061
L1D LOAD      ACCESS:   10127475  HIT:    8859042  MISS:    1268433
L1D RFO       ACCESS:    4422808  HIT:    3860180  MISS:     562628
L1D PREFETCH  ACCESS:          0  HIT:          0  MISS:          0
L1D WRITEBACK ACCESS:          0  HIT:          0  MISS:          0
L1D PREFETCH  REQUESTED:          0  ISSUED:          0  USEFUL:          0  USELESS:          0
L1I TOTAL     ACCESS:   21279494  HIT:   21277068  MISS:       2426
L1I LOAD      ACCESS:   21279494  HIT:   21277068  MISS:       2426
L1I RFO       ACCESS:          0  HIT:          0  MISS:          0
L1I PREFETCH  ACCESS:          0  HIT:          0  MISS:          0
L1I WRITEBACK ACCESS:          0  HIT:          0  MISS:          0
L1I PREFETCH  REQUESTED:          0  ISSUED:          0  USEFUL:          0  USELESS:          0
L2C TOTAL     ACCESS:    3767065  HIT:    2101183  MISS:    1665882
L2C LOAD      ACCESS:    1270859  HIT:     499708  MISS:     771151
L2C RFO       ACCESS:     562628  HIT:      12226  MISS:     550402
L2C PREFETCH  ACCESS:    1148203  HIT:     806265  MISS:     341938
L2C WRITEBACK ACCESS:     785375  HIT:     782984  MISS:       2391
L2C PREFETCH  REQUESTED:   38708850  ISSUED:   38505851  USEFUL:    1775698  USELESS:       8441
LLC TOTAL     ACCESS:    5134173  HIT:    4579638  MISS:     554535
LLC LOAD      ACCESS:     591598  HIT:     553155  MISS:      38443
LLC RFO       ACCESS:     550402  HIT:     241483  MISS:     308919
LLC PREFETCH  ACCESS:    3253524  HIT:    3046399  MISS:     207125
LLC WRITEBACK ACCESS:     738649  HIT:     738601  MISS:         48
LLC PREFETCH  REQUESTED:          0  ISSUED:          0  USEFUL:   18942796  USELESS:   19495554
Major fault: 0 Minor fault: 14759

CPU 4 cumulative IPC: 0.959477 instructions: 100000000 cycles: 104223417
L1D TOTAL     ACCESS:   23303767  HIT:   22033824  MISS:    1269943
L1D LOAD      ACCESS:   19997603  HIT:   18984723  MISS:    1012880
L1D RFO       ACCESS:    3306164  HIT:    3049101  MISS:     257063
L1D PREFETCH  ACCESS:          0  HIT:          0  MISS:          0
L1D WRITEBACK ACCESS:          0  HIT:          0  MISS:          0
L1D PREFETCH  REQUESTED:          0  ISSUED:          0  USEFUL:          0  USELESS:          0
L1I TOTAL     ACCESS:   27799938  HIT:   27797808  MISS:       2130
L1I LOAD      ACCESS:   27799938  HIT:   27797808  MISS:       2130
L1I RFO       ACCESS:          0  HIT:          0  MISS:          0
L1I PREFETCH  ACCESS:          0  HIT:          0  MISS:          0
L1I WRITEBACK ACCESS:          0  HIT:          0  MISS:          0
L1I PREFETCH  REQUESTED:          0  ISSUED:          0  USEFUL:          0  USELESS:          0
L2C TOTAL     ACCESS:    3696076  HIT:    2801767  MISS:     894309
L2C LOAD      ACCESS:    1014986  HIT:     592701  MISS:     422285
L2C RFO       ACCESS:     257063  HIT:      25606  MISS:     231457
L2C PREFETCH  ACCESS:    1946241  HIT:    1707219  MISS:     239022
L2C WRITEBACK ACCESS:     477786  HIT:     476241  MISS:       1545
L2C PREFETCH  REQUESTED:   47800042  ISSUED:   44808423  USEFUL:    2350929  USELESS:      34644
LLC TOTAL     ACCESS:    3106855  HIT:    2432209  MISS:     674646
LLC LOAD      ACCESS:     331229  HIT:     274331  MISS:      56898
LLC RFO       ACCESS:     231457  HIT:      66824  MISS:     164633
LLC PREFETCH  ACCESS:    2099499  HIT:    1650181  MISS:     449318
LLC WRITEBACK ACCESS:     444670  HIT:     440873  MISS:       3797
LLC PREFETCH  REQUESTED:          0  ISSUED:          0  USEFUL:   18942796  USELESS:   19495554
Major fault: 0 Minor fault: 10908

CPU 5 cumulative IPC: 0.194476 instructions: 100000001 cycles: 514203252
L1D TOTAL     ACCESS:   41132934  HIT:   37387998  MISS:    3744936
L1D LOAD      ACCESS:   31030156  HIT:   27320980  MISS:    3709176
L1D RFO       ACCESS:   10102778  HIT:   10067018  MISS:      35760
L1D PREFETCH  ACCESS:          0  HIT:          0  MISS:          0
L1D WRITEBACK ACCESS:          0  HIT:          0  MISS:          0
L1D PREFETCH  REQUESTED:          0  ISSUED:          0  USEFUL:          0  USELESS:          0
L1I TOTAL     ACCESS:   21618346  HIT:   21618346  MISS:          0
L1I LOAD      ACCESS:   21618346  HIT:   21618346  MISS:          0
L1I RFO       ACCESS:          0  HIT:          0  MISS:          0
L1I PREFETCH  ACCESS:          0  HIT:          0  MISS:          0
L1I WRITEBACK ACCESS:          0  HIT:          0  MISS:          0
L1I PREFETCH  REQUESTED:          0  ISSUED:          0  USEFUL:          0  USELESS:          0
L2C TOTAL     ACCESS:    4816565  HIT:    2186699  MISS:    2629866
L2C LOAD      ACCESS:    3709171  HIT:    1211516  MISS:    2497655
L2C RFO       ACCESS:      35757  HIT:      28854  MISS:       6903
L2C PREFETCH  ACCESS:     802144  HIT:     677505  MISS:     124639
L2C WRITEBACK ACCESS:     269493  HIT:     268824  MISS:        669
L2C PREFETCH  REQUESTED:    7608267  ISSUED:    7607561  USEFUL:      88858  USELESS:      98365
LLC TOTAL     ACCESS:    6296770  HIT:    2453747  MISS:    3843023
LLC LOAD      ACCESS:    2486383  HIT:     813893  MISS:    1672490
LLC RFO       ACCESS:       6903  HIT:       4391  MISS:       2512
LLC PREFETCH  ACCESS:    3630067  HIT:    1464130  MISS:    2165937
LLC WRITEBACK ACCESS:     173417  HIT:     171333  MISS:       2084
LLC PREFETCH  REQUESTED:          0  ISSUED:          0  USEFUL:   18942796  USELESS:   19495554
Major fault: 0 Minor fault: 166258

CPU 6 cumulative IPC: 1.06786 instructions: 100000002 cycles: 93645447
L1D TOTAL     ACCESS:   37940769  HIT:   35865448  MISS:    2075321
L1D LOAD      ACCESS:   32410966  HIT:   30398443  MISS:    2012523
L1D RFO       ACCESS:    5529803  HIT:    5467005  MISS:      62798
L1D PREFETCH  ACCESS:          0  HIT:          0  MISS:          0
L1D WRITEBACK ACCESS:          0  HIT:          0  MISS:          0
L1D PREFETCH  REQUESTED:          0  ISSUED:          0  USEFUL:          0  USELESS:          0
L1I TOTAL     ACCESS:   24853798  HIT:   24853798  MISS:          0
L1I LOAD      ACCESS:   24853798  HIT:   24853798  MISS:          0
L1I RFO       ACCESS:          0  HIT:          0  MISS:          0
L1I PREFETCH  ACCESS:          0  HIT:          0  MISS:          0
L1I WRITEBACK ACCESS:          0  HIT:          0  MISS:          0
L1I PREFETCH  REQUESTED:          0  ISSUED:          0  USEFUL:          0  USELESS:          0
L2C TOTAL     ACCESS:    3213490  HIT:    1310703  MISS:    1902787
L2C LOAD      ACCESS:    2011998  HIT:     732255  MISS:    1279743
L2C RFO       ACCESS:      61593  HIT:      12869  MISS:      48724
L2C PREFETCH  ACCESS:    1071477  HIT:     497291  MISS:     574186
L2C WRITEBACK ACCESS:      68422  HIT:      68288  MISS:        134
L2C PREFETCH  REQUESTED:   78044687  ISSUED:   57321514  USEFUL:    4383525  USELESS:         79
LLC TOTAL     ACCESS:    6430670  HIT:    4530264  MISS:    1900406
LLC LOAD      ACCESS:    1094504  HIT:    1006342  MISS:      88162
LLC RFO       ACCESS:      48724  HIT:          0  MISS:      48724
LLC PREFETCH  ACCESS:    5238517  HIT:    3475036  MISS:    1763481
LLC WRITEBACK ACCESS:      48925  HIT:      48886  MISS:         39
LLC PREFETCH  REQUESTED:          0  ISSUED:          0  USEFUL:   18942796  USELESS:   19495554
Major fault: 0 Minor fault: 213371

CPU 7 cumulative IPC: 0.230859 instructions: 100000002 cycles: 433165322
L1D TOTAL     ACCESS:   19655280  HIT:   14171576  MISS:    5483704
L1D LOAD      ACCESS:   15220905  HIT:   10014460  MISS:    5206445
L1D RFO       ACCESS:    4434375  HIT:    4157116  MISS:     277259
L1D PREFETCH  ACCESS:          0  HIT:          0  MISS:          0
L1D WRITEBACK ACCESS:          0  HIT:          0  MISS:          0
L1D PREFETCH  REQUESTED:          0  ISSUED:          0  USEFUL:          0  USELESS:          0
L1I TOTAL     ACCESS:   25214089  HIT:   25214089  MISS:          0
L1I LOAD      ACCESS:   25214089  HIT:   25214089  MISS:          0
L1I RFO       ACCESS:          0  HIT:          0  MISS:          0
L1I PREFETCH  ACCESS:          0  HIT:          0  MISS:          0
L1I WRITEBACK ACCESS:          0  HIT:          0  MISS:          0
L1I PREFETCH  REQUESTED:          0  ISSUED:          0  USEFUL:          0  USELESS:          0
L2C TOTAL     ACCESS:    8504358  HIT:    4969018  MISS:    3535340
L2C LOAD      ACCESS:    5206445  HIT:    1998078  MISS:    3208367
L2C RFO       ACCESS:     277259  HIT:      47170  MISS:     230089
L2C PREFETCH  ACCESS:     803353  HIT:     706469  MISS:      96884
L2C WRITEBACK ACCESS:    2217301  HIT:    2217301  MISS:          0
L2C PREFETCH  REQUESTED:   10497367  ISSUED:   10489562  USEFUL:      10732  USELESS:     176295
LLC TOTAL     ACCESS:   10520450  HIT:    7841133  MISS:    2679317
LLC LOAD      ACCESS:    3208257  HIT:    2655957  MISS:     552300
LLC RFO       ACCESS:     230060  HIT:     230059  MISS:          1
LLC PREFETCH  ACCESS:    4864205  HIT:    2737344  MISS:    2126861
LLC WRITEBACK ACCESS:    2217928  HIT:    2217773  MISS:        155
LLC PREFETCH  REQUESTED:          0  ISSUED:          0  USEFUL:   18942796  USELESS:   19495554
Major fault: 0 Minor fault: 77906

DRAM Statistics
 CHANNEL 0
 RQ ROW_BUFFER_HIT:    9058062  ROW_BUFFER_MISS:   14629964
 DBUS_CONGESTED:   44150092
 WQ ROW_BUFFER_HIT:     284623  ROW_BUFFER_MISS:    4839773  FULL:          0

 CHANNEL 1
 RQ ROW_BUFFER_HIT:    9023857  ROW_BUFFER_MISS:   14678331
 DBUS_CONGESTED:   44150092
 WQ ROW_BUFFER_HIT:     284608  ROW_BUFFER_MISS:    4837216  FULL:          0

 AVG_CONGESTED_CYCLE: 13
