Initialize SIGNATURE TABLE
ST_SET: 1
ST_WAY: 256
ST_TAG_BIT: 16
ST_TAG_MASK: ffff

Initialize PATTERN TABLE
PT_SET: 512
PT_WAY: 4
SIG_DELTA_BIT: 7
C_SIG_BIT: 4
C_DELTA_BIT: 4

Initialize PREFETCH FILTER
FILTER_SET: 1024

*** ChampSim Multicore Out-of-Order Simulator ***

Warmup Instructions: 20000000
Simulation Instructions: 100000000
Number of CPUs: 8
LLC sets: 16384
LLC ways: 16
Off-chip DRAM Size: 8192 MB Channels: 2 Width: 64-bit Data Rate: 1600 MT/s

CPU 0 runs /scratch/user/djimenez/champsim-traces/speccpu2017/xz/654.roms_s/654.roms_s-1390B.champsimtrace.xz
CPU 1 runs /scratch/user/djimenez/champsim-traces/speccpu2017/xz/649.fotonik3d_s/649.fotonik3d_s-8225B.champsimtrace.xz
CPU 2 runs /scratch/user/djimenez/champsim-traces/speccpu2017/xz/605.mcf_s/605.mcf_s-1554B.champsimtrace.xz
CPU 3 runs /scratch/user/djimenez/champsim-traces/speccpu2017/xz/603.bwaves_s/603.bwaves_s-2609B.champsimtrace.xz
CPU 4 runs /scratch/user/djimenez/champsim-traces/speccpu2017/xz/627.cam4_s/627.cam4_s-490B.champsimtrace.xz
CPU 5 runs /scratch/user/djimenez/champsim-traces/speccpu2017/xz/619.lbm_s/619.lbm_s-2676B.champsimtrace.xz
CPU 6 runs /scratch/user/djimenez/champsim-traces/speccpu2017/xz/623.xalancbmk_s/623.xalancbmk_s-10B.champsimtrace.xz
CPU 7 runs /scratch/user/djimenez/champsim-traces/speccpu2017/xz/623.xalancbmk_s/623.xalancbmk_s-165B.champsimtrace.xz
Heartbeat CPU 4 instructions: 10000002 cycles: 4274116 heartbeat IPC: 2.33967 cumulative IPC: 2.33967 (Simulation time: 0 hr 3 min 55 sec) 
Heartbeat CPU 1 instructions: 10000001 cycles: 4596778 heartbeat IPC: 2.17544 cumulative IPC: 2.17544 (Simulation time: 0 hr 4 min 13 sec) 
Heartbeat CPU 7 instructions: 10000001 cycles: 4761592 heartbeat IPC: 2.10014 cumulative IPC: 2.10014 (Simulation time: 0 hr 4 min 22 sec) 
Heartbeat CPU 6 instructions: 10000001 cycles: 5087814 heartbeat IPC: 1.96548 cumulative IPC: 1.96548 (Simulation time: 0 hr 4 min 40 sec) 
Heartbeat CPU 5 instructions: 10000000 cycles: 5151332 heartbeat IPC: 1.94125 cumulative IPC: 1.94125 (Simulation time: 0 hr 4 min 44 sec) 
Heartbeat CPU 3 instructions: 10000001 cycles: 5440763 heartbeat IPC: 1.83798 cumulative IPC: 1.83798 (Simulation time: 0 hr 5 min 0 sec) 
Heartbeat CPU 0 instructions: 10000001 cycles: 6749820 heartbeat IPC: 1.48152 cumulative IPC: 1.48152 (Simulation time: 0 hr 6 min 12 sec) 
Heartbeat CPU 2 instructions: 10000001 cycles: 6920676 heartbeat IPC: 1.44495 cumulative IPC: 1.44495 (Simulation time: 0 hr 6 min 21 sec) 
Heartbeat CPU 4 instructions: 20000000 cycles: 8307401 heartbeat IPC: 2.47937 cumulative IPC: 2.40749 (Simulation time: 0 hr 7 min 37 sec) 
Heartbeat CPU 1 instructions: 20000000 cycles: 9193042 heartbeat IPC: 2.17568 cumulative IPC: 2.17556 (Simulation time: 0 hr 8 min 26 sec) 
Heartbeat CPU 7 instructions: 20000000 cycles: 9535001 heartbeat IPC: 2.09494 cumulative IPC: 2.09754 (Simulation time: 0 hr 8 min 45 sec) 
Heartbeat CPU 6 instructions: 20000000 cycles: 10133234 heartbeat IPC: 1.982 cumulative IPC: 1.9737 (Simulation time: 0 hr 9 min 18 sec) 
Heartbeat CPU 5 instructions: 20000000 cycles: 10276158 heartbeat IPC: 1.95129 cumulative IPC: 1.94625 (Simulation time: 0 hr 9 min 26 sec) 
Heartbeat CPU 3 instructions: 20000000 cycles: 10902520 heartbeat IPC: 1.83091 cumulative IPC: 1.83444 (Simulation time: 0 hr 10 min 0 sec) 
Heartbeat CPU 0 instructions: 20000000 cycles: 12202684 heartbeat IPC: 1.8339 cumulative IPC: 1.63898 (Simulation time: 0 hr 11 min 13 sec) 
Heartbeat CPU 4 instructions: 30000000 cycles: 12564389 heartbeat IPC: 2.34908 cumulative IPC: 0.7959 (Simulation time: 0 hr 11 min 43 sec) 
Heartbeat CPU 1 instructions: 30000003 cycles: 13843842 heartbeat IPC: 2.15017 cumulative IPC: 0.722343 (Simulation time: 0 hr 12 min 57 sec) 
Heartbeat CPU 2 instructions: 20000000 cycles: 14017430 heartbeat IPC: 1.40909 cumulative IPC: 1.4268 (Simulation time: 0 hr 13 min 7 sec) 

Warmup complete CPU 0 instructions: 23625478 cycles: 14017440 (Simulation time: 0 hr 13 min 7 sec) 
Warmup complete CPU 1 instructions: 30371589 cycles: 14017440 (Simulation time: 0 hr 13 min 7 sec) 
Warmup complete CPU 2 instructions: 20000001 cycles: 14017440 (Simulation time: 0 hr 13 min 7 sec) 
Warmup complete CPU 3 instructions: 25665241 cycles: 14017439 (Simulation time: 0 hr 13 min 7 sec) 
Warmup complete CPU 4 instructions: 33638559 cycles: 14017439 (Simulation time: 0 hr 13 min 7 sec) 
Warmup complete CPU 5 instructions: 27175424 cycles: 14017439 (Simulation time: 0 hr 13 min 7 sec) 
Warmup complete CPU 6 instructions: 27402961 cycles: 14017439 (Simulation time: 0 hr 13 min 7 sec) 
Warmup complete CPU 7 instructions: 29180179 cycles: 14017439 (Simulation time: 0 hr 13 min 7 sec) 

Heartbeat CPU 7 instructions: 30000001 cycles: 16936453 heartbeat IPC: 1.35109 cumulative IPC: 0.280856 (Simulation time: 0 hr 14 min 5 sec) 
Heartbeat CPU 3 instructions: 30000000 cycles: 18934006 heartbeat IPC: 1.2451 cumulative IPC: 0.881664 (Simulation time: 0 hr 14 min 39 sec) 
Heartbeat CPU 5 instructions: 30000001 cycles: 20303201 heartbeat IPC: 0.997303 cumulative IPC: 0.449361 (Simulation time: 0 hr 15 min 4 sec) 
Heartbeat CPU 4 instructions: 40000000 cycles: 23593033 heartbeat IPC: 0.90673 cumulative IPC: 0.664339 (Simulation time: 0 hr 16 min 4 sec) 
Heartbeat CPU 6 instructions: 30000000 cycles: 29185153 heartbeat IPC: 0.524881 cumulative IPC: 0.171222 (Simulation time: 0 hr 17 min 45 sec) 
Heartbeat CPU 3 instructions: 40000000 cycles: 30354860 heartbeat IPC: 0.875591 cumulative IPC: 0.877419 (Simulation time: 0 hr 18 min 8 sec) 
Heartbeat CPU 0 instructions: 30000002 cycles: 33684688 heartbeat IPC: 0.465506 cumulative IPC: 0.324119 (Simulation time: 0 hr 19 min 17 sec) 
Heartbeat CPU 1 instructions: 40000000 cycles: 34043878 heartbeat IPC: 0.495048 cumulative IPC: 0.480785 (Simulation time: 0 hr 19 min 24 sec) 
Heartbeat CPU 4 instructions: 50000000 cycles: 39116551 heartbeat IPC: 0.644184 cumulative IPC: 0.651873 (Simulation time: 0 hr 21 min 6 sec) 
Heartbeat CPU 3 instructions: 50000001 cycles: 41892876 heartbeat IPC: 0.8667 cumulative IPC: 0.872982 (Simulation time: 0 hr 22 min 1 sec) 
Heartbeat CPU 5 instructions: 40000000 cycles: 44142519 heartbeat IPC: 0.419475 cumulative IPC: 0.425711 (Simulation time: 0 hr 22 min 50 sec) 
Heartbeat CPU 3 instructions: 60000000 cycles: 53989648 heartbeat IPC: 0.826667 cumulative IPC: 0.858966 (Simulation time: 0 hr 26 min 17 sec) 
Heartbeat CPU 7 instructions: 40000000 cycles: 56254874 heartbeat IPC: 0.254334 cumulative IPC: 0.256167 (Simulation time: 0 hr 27 min 3 sec) 
Heartbeat CPU 4 instructions: 60000000 cycles: 56735727 heartbeat IPC: 0.567563 cumulative IPC: 0.6171 (Simulation time: 0 hr 27 min 13 sec) 
Heartbeat CPU 1 instructions: 50000000 cycles: 56851247 heartbeat IPC: 0.438455 cumulative IPC: 0.458246 (Simulation time: 0 hr 27 min 16 sec) 
Heartbeat CPU 0 instructions: 40000000 cycles: 59510619 heartbeat IPC: 0.387208 cumulative IPC: 0.359934 (Simulation time: 0 hr 28 min 11 sec) 
Heartbeat CPU 3 instructions: 70000003 cycles: 66984120 heartbeat IPC: 0.769558 cumulative IPC: 0.837031 (Simulation time: 0 hr 30 min 46 sec) 
Heartbeat CPU 5 instructions: 50000001 cycles: 69653485 heartbeat IPC: 0.391988 cumulative IPC: 0.410248 (Simulation time: 0 hr 31 min 41 sec) 
Heartbeat CPU 2 instructions: 30000003 cycles: 72950340 heartbeat IPC: 0.169685 cumulative IPC: 0.169685 (Simulation time: 0 hr 32 min 46 sec) 
Heartbeat CPU 4 instructions: 70000002 cycles: 74472348 heartbeat IPC: 0.563805 cumulative IPC: 0.601464 (Simulation time: 0 hr 33 min 20 sec) 
Heartbeat CPU 3 instructions: 80000000 cycles: 79429006 heartbeat IPC: 0.803543 cumulative IPC: 0.83066 (Simulation time: 0 hr 35 min 1 sec) 
Heartbeat CPU 1 instructions: 60000000 cycles: 82180819 heartbeat IPC: 0.394795 cumulative IPC: 0.434668 (Simulation time: 0 hr 35 min 50 sec) 
Heartbeat CPU 0 instructions: 50000003 cycles: 82343580 heartbeat IPC: 0.437963 cumulative IPC: 0.386009 (Simulation time: 0 hr 35 min 53 sec) 
Heartbeat CPU 4 instructions: 80000000 cycles: 90777787 heartbeat IPC: 0.613292 cumulative IPC: 0.603976 (Simulation time: 0 hr 38 min 53 sec) 
Heartbeat CPU 3 instructions: 90000002 cycles: 91125748 heartbeat IPC: 0.854939 cumulative IPC: 0.834343 (Simulation time: 0 hr 39 min 3 sec) 
Heartbeat CPU 6 instructions: 40000000 cycles: 91841261 heartbeat IPC: 0.159601 cumulative IPC: 0.161866 (Simulation time: 0 hr 39 min 22 sec) 
Heartbeat CPU 5 instructions: 60000000 cycles: 92471061 heartbeat IPC: 0.438259 cumulative IPC: 0.418395 (Simulation time: 0 hr 39 min 36 sec) 
Heartbeat CPU 0 instructions: 60000000 cycles: 95532655 heartbeat IPC: 0.758203 cumulative IPC: 0.44623 (Simulation time: 0 hr 40 min 40 sec) 
Heartbeat CPU 7 instructions: 50000003 cycles: 97677999 heartbeat IPC: 0.241411 cumulative IPC: 0.248861 (Simulation time: 0 hr 41 min 24 sec) 
Heartbeat CPU 3 instructions: 100000000 cycles: 102511935 heartbeat IPC: 0.878257 cumulative IPC: 0.839993 (Simulation time: 0 hr 43 min 3 sec) 
Heartbeat CPU 1 instructions: 70000001 cycles: 103049333 heartbeat IPC: 0.479191 cumulative IPC: 0.445104 (Simulation time: 0 hr 43 min 14 sec) 
Heartbeat CPU 4 instructions: 90000002 cycles: 105355944 heartbeat IPC: 0.685958 cumulative IPC: 0.617061 (Simulation time: 0 hr 44 min 6 sec) 
Heartbeat CPU 0 instructions: 70000002 cycles: 105932331 heartbeat IPC: 0.961569 cumulative IPC: 0.504538 (Simulation time: 0 hr 44 min 18 sec) 
Heartbeat CPU 5 instructions: 70000000 cycles: 113190021 heartbeat IPC: 0.48265 cumulative IPC: 0.431819 (Simulation time: 0 hr 46 min 44 sec) 
Heartbeat CPU 3 instructions: 110000002 cycles: 113675088 heartbeat IPC: 0.895804 cumulative IPC: 0.846245 (Simulation time: 0 hr 46 min 54 sec) 
Heartbeat CPU 0 instructions: 80000000 cycles: 116678291 heartbeat IPC: 0.930582 cumulative IPC: 0.549134 (Simulation time: 0 hr 48 min 6 sec) 
Heartbeat CPU 4 instructions: 100000000 cycles: 120927860 heartbeat IPC: 0.642182 cumulative IPC: 0.62072 (Simulation time: 0 hr 49 min 31 sec) 
Heartbeat CPU 1 instructions: 80000000 cycles: 123565082 heartbeat IPC: 0.48743 cumulative IPC: 0.45303 (Simulation time: 0 hr 50 min 19 sec) 
Heartbeat CPU 3 instructions: 120000000 cycles: 125234700 heartbeat IPC: 0.865081 cumulative IPC: 0.848203 (Simulation time: 0 hr 50 min 50 sec) 
Heartbeat CPU 2 instructions: 40000000 cycles: 126715990 heartbeat IPC: 0.185992 cumulative IPC: 0.177465 (Simulation time: 0 hr 51 min 17 sec) 
Finished CPU 3 instructions: 100000002 cycles: 117781911 cumulative IPC: 0.849027 (Simulation time: 0 hr 52 min 56 sec) 
Heartbeat CPU 5 instructions: 80000000 cycles: 132992737 heartbeat IPC: 0.504981 cumulative IPC: 0.443996 (Simulation time: 0 hr 53 min 19 sec) 
Heartbeat CPU 7 instructions: 60000000 cycles: 134929625 heartbeat IPC: 0.268445 cumulative IPC: 0.254894 (Simulation time: 0 hr 54 min 4 sec) 
Heartbeat CPU 3 instructions: 130000002 cycles: 136817612 heartbeat IPC: 0.863341 cumulative IPC: 0.84963 (Simulation time: 0 hr 54 min 41 sec) 
Heartbeat CPU 4 instructions: 110000001 cycles: 137125392 heartbeat IPC: 0.617378 cumulative IPC: 0.62028 (Simulation time: 0 hr 54 min 46 sec) 
Heartbeat CPU 0 instructions: 90000003 cycles: 137481647 heartbeat IPC: 0.480692 cumulative IPC: 0.537601 (Simulation time: 0 hr 54 min 53 sec) 
Heartbeat CPU 1 instructions: 90000000 cycles: 144541112 heartbeat IPC: 0.476735 cumulative IPC: 0.45684 (Simulation time: 0 hr 57 min 10 sec) 
Heartbeat CPU 3 instructions: 140000000 cycles: 148146563 heartbeat IPC: 0.882694 cumulative IPC: 0.852423 (Simulation time: 0 hr 58 min 19 sec) 
Heartbeat CPU 5 instructions: 90000000 cycles: 152395369 heartbeat IPC: 0.515394 cumulative IPC: 0.454007 (Simulation time: 0 hr 59 min 39 sec) 
Heartbeat CPU 4 instructions: 120000000 cycles: 152564096 heartbeat IPC: 0.647723 cumulative IPC: 0.623338 (Simulation time: 0 hr 59 min 43 sec) 
Heartbeat CPU 3 instructions: 150000002 cycles: 159668801 heartbeat IPC: 0.867887 cumulative IPC: 0.853646 (Simulation time: 1 hr 1 min 59 sec) 
Heartbeat CPU 0 instructions: 100000000 cycles: 160143418 heartbeat IPC: 0.441272 cumulative IPC: 0.522662 (Simulation time: 1 hr 2 min 8 sec) 
Heartbeat CPU 1 instructions: 100000000 cycles: 165303879 heartbeat IPC: 0.481631 cumulative IPC: 0.460242 (Simulation time: 1 hr 4 min 15 sec) 
Heartbeat CPU 6 instructions: 50000001 cycles: 165903864 heartbeat IPC: 0.135021 cumulative IPC: 0.148776 (Simulation time: 1 hr 4 min 27 sec) 
Heartbeat CPU 4 instructions: 130000001 cycles: 167842121 heartbeat IPC: 0.654535 cumulative IPC: 0.626437 (Simulation time: 1 hr 5 min 10 sec) 
Heartbeat CPU 5 instructions: 100000000 cycles: 170967544 heartbeat IPC: 0.53844 cumulative IPC: 0.463998 (Simulation time: 1 hr 6 min 17 sec) 
Heartbeat CPU 3 instructions: 160000000 cycles: 171045403 heartbeat IPC: 0.878997 cumulative IPC: 0.855483 (Simulation time: 1 hr 6 min 19 sec) 
Heartbeat CPU 7 instructions: 70000000 cycles: 171963630 heartbeat IPC: 0.270022 cumulative IPC: 0.258441 (Simulation time: 1 hr 6 min 37 sec) 
Finished CPU 4 instructions: 100000001 cycles: 159483515 cumulative IPC: 0.627024 (Simulation time: 1 hr 7 min 7 sec) 
Heartbeat CPU 2 instructions: 50000000 cycles: 180643426 heartbeat IPC: 0.185434 cumulative IPC: 0.180044 (Simulation time: 1 hr 9 min 31 sec) 
Heartbeat CPU 0 instructions: 110000000 cycles: 182502102 heartbeat IPC: 0.447254 cumulative IPC: 0.512655 (Simulation time: 1 hr 10 min 11 sec) 
Heartbeat CPU 3 instructions: 170000002 cycles: 182612427 heartbeat IPC: 0.864527 cumulative IPC: 0.856104 (Simulation time: 1 hr 10 min 13 sec) 
Heartbeat CPU 4 instructions: 140000000 cycles: 183929735 heartbeat IPC: 0.621596 cumulative IPC: 0.625978 (Simulation time: 1 hr 10 min 41 sec) 
Heartbeat CPU 1 instructions: 110000002 cycles: 185848108 heartbeat IPC: 0.486755 cumulative IPC: 0.463412 (Simulation time: 1 hr 11 min 21 sec) 
Heartbeat CPU 5 instructions: 110000002 cycles: 189481105 heartbeat IPC: 0.540145 cumulative IPC: 0.472033 (Simulation time: 1 hr 12 min 35 sec) 
Heartbeat CPU 3 instructions: 180000000 cycles: 193865690 heartbeat IPC: 0.888631 cumulative IPC: 0.858139 (Simulation time: 1 hr 14 min 16 sec) 
Heartbeat CPU 0 instructions: 120000000 cycles: 197830880 heartbeat IPC: 0.652368 cumulative IPC: 0.524306 (Simulation time: 1 hr 15 min 41 sec) 
Heartbeat CPU 4 instructions: 150000001 cycles: 198374175 heartbeat IPC: 0.692308 cumulative IPC: 0.631175 (Simulation time: 1 hr 15 min 51 sec) 
Finished CPU 0 instructions: 100000003 cycles: 189733951 cumulative IPC: 0.527054 (Simulation time: 1 hr 17 min 45 sec) 
Heartbeat CPU 3 instructions: 190000000 cycles: 205452848 heartbeat IPC: 0.863024 cumulative IPC: 0.858434 (Simulation time: 1 hr 18 min 24 sec) 
Heartbeat CPU 1 instructions: 120000000 cycles: 206458052 heartbeat IPC: 0.485203 cumulative IPC: 0.465746 (Simulation time: 1 hr 18 min 48 sec) 
Heartbeat CPU 5 instructions: 120000000 cycles: 207341041 heartbeat IPC: 0.559912 cumulative IPC: 0.480151 (Simulation time: 1 hr 19 min 8 sec) 
Heartbeat CPU 7 instructions: 80000000 cycles: 209342070 heartbeat IPC: 0.267534 cumulative IPC: 0.260181 (Simulation time: 1 hr 19 min 52 sec) 
Heartbeat CPU 0 instructions: 130000001 cycles: 215135903 heartbeat IPC: 0.577867 cumulative IPC: 0.528915 (Simulation time: 1 hr 21 min 55 sec) 
Heartbeat CPU 4 instructions: 160000000 cycles: 215175821 heartbeat IPC: 0.59518 cumulative IPC: 0.628169 (Simulation time: 1 hr 21 min 56 sec) 
Heartbeat CPU 3 instructions: 200000000 cycles: 216980949 heartbeat IPC: 0.867446 cumulative IPC: 0.858946 (Simulation time: 1 hr 22 min 33 sec) 
Finished CPU 5 instructions: 100000000 cycles: 205491729 cumulative IPC: 0.486638 (Simulation time: 1 hr 23 min 27 sec) 
Heartbeat CPU 5 instructions: 130000001 cycles: 224436764 heartbeat IPC: 0.584942 cumulative IPC: 0.488665 (Simulation time: 1 hr 25 min 10 sec) 
Heartbeat CPU 1 instructions: 130000000 cycles: 227441424 heartbeat IPC: 0.476568 cumulative IPC: 0.46681 (Simulation time: 1 hr 26 min 14 sec) 
Finished CPU 1 instructions: 100000000 cycles: 214318616 cumulative IPC: 0.466595 (Simulation time: 1 hr 26 min 32 sec) 
Heartbeat CPU 3 instructions: 210000002 cycles: 228696142 heartbeat IPC: 0.853593 cumulative IPC: 0.858654 (Simulation time: 1 hr 26 min 39 sec) 
Heartbeat CPU 4 instructions: 170000001 cycles: 231010219 heartbeat IPC: 0.631537 cumulative IPC: 0.628415 (Simulation time: 1 hr 27 min 22 sec) 
Heartbeat CPU 6 instructions: 60000000 cycles: 234420058 heartbeat IPC: 0.145951 cumulative IPC: 0.147898 (Simulation time: 1 hr 28 min 28 sec) 
Heartbeat CPU 2 instructions: 60000000 cycles: 235176293 heartbeat IPC: 0.183376 cumulative IPC: 0.180865 (Simulation time: 1 hr 28 min 43 sec) 
Heartbeat CPU 3 instructions: 220000000 cycles: 240420210 heartbeat IPC: 0.852946 cumulative IPC: 0.858359 (Simulation time: 1 hr 30 min 26 sec) 
Heartbeat CPU 5 instructions: 140000000 cycles: 241813422 heartbeat IPC: 0.575485 cumulative IPC: 0.495288 (Simulation time: 1 hr 30 min 53 sec) 
Heartbeat CPU 0 instructions: 140000000 cycles: 242344131 heartbeat IPC: 0.367536 cumulative IPC: 0.509684 (Simulation time: 1 hr 31 min 3 sec) 
Heartbeat CPU 4 instructions: 180000000 cycles: 247023561 heartbeat IPC: 0.624479 cumulative IPC: 0.628144 (Simulation time: 1 hr 32 min 34 sec) 
Heartbeat CPU 7 instructions: 90000000 cycles: 247193600 heartbeat IPC: 0.26419 cumulative IPC: 0.260832 (Simulation time: 1 hr 32 min 37 sec) 
Heartbeat CPU 1 instructions: 140000000 cycles: 248954006 heartbeat IPC: 0.464844 cumulative IPC: 0.46663 (Simulation time: 1 hr 33 min 13 sec) 
Heartbeat CPU 3 instructions: 230000001 cycles: 251937071 heartbeat IPC: 0.868292 cumulative IPC: 0.858839 (Simulation time: 1 hr 34 min 8 sec) 
Heartbeat CPU 5 instructions: 150000001 cycles: 258454178 heartbeat IPC: 0.600934 cumulative IPC: 0.50248 (Simulation time: 1 hr 36 min 10 sec) 
Heartbeat CPU 4 instructions: 190000000 cycles: 262714208 heartbeat IPC: 0.637322 cumulative IPC: 0.628723 (Simulation time: 1 hr 37 min 36 sec) 
Heartbeat CPU 3 instructions: 240000000 cycles: 263214043 heartbeat IPC: 0.886763 cumulative IPC: 0.860103 (Simulation time: 1 hr 37 min 47 sec) 
Heartbeat CPU 0 instructions: 150000000 cycles: 267123909 heartbeat IPC: 0.403555 cumulative IPC: 0.499294 (Simulation time: 1 hr 39 min 2 sec) 
Heartbeat CPU 1 instructions: 150000003 cycles: 269603502 heartbeat IPC: 0.484273 cumulative IPC: 0.468055 (Simulation time: 1 hr 39 min 52 sec) 
Heartbeat CPU 5 instructions: 160000000 cycles: 274614353 heartbeat IPC: 0.618805 cumulative IPC: 0.509694 (Simulation time: 1 hr 41 min 34 sec) 
Heartbeat CPU 3 instructions: 250000001 cycles: 274930169 heartbeat IPC: 0.853525 cumulative IPC: 0.859808 (Simulation time: 1 hr 41 min 40 sec) 
Heartbeat CPU 4 instructions: 200000000 cycles: 278069691 heartbeat IPC: 0.651233 cumulative IPC: 0.630032 (Simulation time: 1 hr 42 min 49 sec) 
Heartbeat CPU 0 instructions: 160000000 cycles: 284467598 heartbeat IPC: 0.576579 cumulative IPC: 0.50425 (Simulation time: 1 hr 44 min 55 sec) 
Heartbeat CPU 7 instructions: 100000000 cycles: 284743206 heartbeat IPC: 0.266314 cumulative IPC: 0.261592 (Simulation time: 1 hr 45 min 1 sec) 
Heartbeat CPU 3 instructions: 260000000 cycles: 286383213 heartbeat IPC: 0.87313 cumulative IPC: 0.860368 (Simulation time: 1 hr 45 min 34 sec) 
Heartbeat CPU 2 instructions: 70000001 cycles: 289044687 heartbeat IPC: 0.185638 cumulative IPC: 0.1818 (Simulation time: 1 hr 46 min 25 sec) 
Heartbeat CPU 5 instructions: 170000002 cycles: 290778565 heartbeat IPC: 0.618651 cumulative IPC: 0.516057 (Simulation time: 1 hr 47 min 3 sec) 
Heartbeat CPU 1 instructions: 160000000 cycles: 291193443 heartbeat IPC: 0.463179 cumulative IPC: 0.467675 (Simulation time: 1 hr 47 min 11 sec) 
Heartbeat CPU 4 instructions: 210000000 cycles: 294928004 heartbeat IPC: 0.593179 cumulative IPC: 0.627821 (Simulation time: 1 hr 48 min 32 sec) 
Heartbeat CPU 3 instructions: 270000003 cycles: 297927428 heartbeat IPC: 0.866235 cumulative IPC: 0.860606 (Simulation time: 1 hr 49 min 42 sec) 
Heartbeat CPU 6 instructions: 70000000 cycles: 299483627 heartbeat IPC: 0.153696 cumulative IPC: 0.149219 (Simulation time: 1 hr 50 min 17 sec) 
Heartbeat CPU 0 instructions: 170000003 cycles: 301259361 heartbeat IPC: 0.59553 cumulative IPC: 0.509586 (Simulation time: 1 hr 50 min 58 sec) 
Heartbeat CPU 5 instructions: 180000000 cycles: 306908768 heartbeat IPC: 0.619955 cumulative IPC: 0.521779 (Simulation time: 1 hr 53 min 6 sec) 
Heartbeat CPU 3 instructions: 280000000 cycles: 309258388 heartbeat IPC: 0.882537 cumulative IPC: 0.861448 (Simulation time: 1 hr 53 min 59 sec) 
Heartbeat CPU 4 instructions: 220000000 cycles: 310869402 heartbeat IPC: 0.627298 cumulative IPC: 0.627793 (Simulation time: 1 hr 54 min 38 sec) 
Heartbeat CPU 1 instructions: 170000001 cycles: 312805496 heartbeat IPC: 0.462705 cumulative IPC: 0.467316 (Simulation time: 1 hr 55 min 18 sec) 
Heartbeat CPU 0 instructions: 180000000 cycles: 318007459 heartbeat IPC: 0.597083 cumulative IPC: 0.514407 (Simulation time: 1 hr 57 min 13 sec) 
Heartbeat CPU 3 instructions: 290000003 cycles: 320589345 heartbeat IPC: 0.882538 cumulative IPC: 0.862228 (Simulation time: 1 hr 58 min 11 sec) 
Heartbeat CPU 5 instructions: 190000002 cycles: 322485555 heartbeat IPC: 0.641981 cumulative IPC: 0.527849 (Simulation time: 1 hr 58 min 52 sec) 
Heartbeat CPU 7 instructions: 110000001 cycles: 323034900 heartbeat IPC: 0.261153 cumulative IPC: 0.261538 (Simulation time: 1 hr 59 min 5 sec) 
Heartbeat CPU 4 instructions: 230000000 cycles: 327086331 heartbeat IPC: 0.61664 cumulative IPC: 0.627215 (Simulation time: 2 hr 0 min 34 sec) 
Heartbeat CPU 3 instructions: 300000000 cycles: 331859417 heartbeat IPC: 0.887305 cumulative IPC: 0.863117 (Simulation time: 2 hr 2 min 20 sec) 
Heartbeat CPU 1 instructions: 180000000 cycles: 332915584 heartbeat IPC: 0.497263 cumulative IPC: 0.469204 (Simulation time: 2 hr 2 min 45 sec) 
Heartbeat CPU 5 instructions: 200000000 cycles: 337447225 heartbeat IPC: 0.668374 cumulative IPC: 0.53435 (Simulation time: 2 hr 4 min 33 sec) 
Heartbeat CPU 0 instructions: 190000001 cycles: 337733058 heartbeat IPC: 0.506956 cumulative IPC: 0.513953 (Simulation time: 2 hr 4 min 39 sec) 
Heartbeat CPU 2 instructions: 80000000 cycles: 341532507 heartbeat IPC: 0.19052 cumulative IPC: 0.183198 (Simulation time: 2 hr 5 min 56 sec) 
Heartbeat CPU 4 instructions: 240000000 cycles: 342047755 heartbeat IPC: 0.668386 cumulative IPC: 0.629093 (Simulation time: 2 hr 6 min 8 sec) 
Heartbeat CPU 3 instructions: 310000001 cycles: 342959829 heartbeat IPC: 0.900868 cumulative IPC: 0.864391 (Simulation time: 2 hr 6 min 29 sec) 
Heartbeat CPU 5 instructions: 210000000 cycles: 352247274 heartbeat IPC: 0.675673 cumulative IPC: 0.540534 (Simulation time: 2 hr 9 min 28 sec) 
Heartbeat CPU 1 instructions: 190000003 cycles: 352552465 heartbeat IPC: 0.509246 cumulative IPC: 0.471527 (Simulation time: 2 hr 9 min 34 sec) 
Heartbeat CPU 3 instructions: 320000000 cycles: 354216755 heartbeat IPC: 0.888342 cumulative IPC: 0.865183 (Simulation time: 2 hr 10 min 6 sec) 
Heartbeat CPU 4 instructions: 250000001 cycles: 357410716 heartbeat IPC: 0.650916 cumulative IPC: 0.630069 (Simulation time: 2 hr 11 min 7 sec) 
Heartbeat CPU 7 instructions: 120000000 cycles: 358645163 heartbeat IPC: 0.280818 cumulative IPC: 0.26353 (Simulation time: 2 hr 11 min 29 sec) 
Heartbeat CPU 0 instructions: 200000000 cycles: 364828211 heartbeat IPC: 0.36907 cumulative IPC: 0.502763 (Simulation time: 2 hr 13 min 25 sec) 
Heartbeat CPU 3 instructions: 330000002 cycles: 365507551 heartbeat IPC: 0.885677 cumulative IPC: 0.865842 (Simulation time: 2 hr 13 min 38 sec) 
Heartbeat CPU 6 instructions: 80000000 cycles: 366607449 heartbeat IPC: 0.148978 cumulative IPC: 0.149173 (Simulation time: 2 hr 14 min 0 sec) 
Heartbeat CPU 5 instructions: 220000000 cycles: 367445167 heartbeat IPC: 0.657986 cumulative IPC: 0.545584 (Simulation time: 2 hr 14 min 17 sec) 
Heartbeat CPU 1 instructions: 200000000 cycles: 372756087 heartbeat IPC: 0.494961 cumulative IPC: 0.472847 (Simulation time: 2 hr 16 min 5 sec) 
Heartbeat CPU 4 instructions: 260000000 cycles: 373088808 heartbeat IPC: 0.637833 cumulative IPC: 0.630408 (Simulation time: 2 hr 16 min 11 sec) 
Heartbeat CPU 3 instructions: 340000000 cycles: 376877764 heartbeat IPC: 0.879491 cumulative IPC: 0.866269 (Simulation time: 2 hr 17 min 23 sec) 
Heartbeat CPU 5 instructions: 230000001 cycles: 382450535 heartbeat IPC: 0.666428 cumulative IPC: 0.550506 (Simulation time: 2 hr 19 min 10 sec) 
Heartbeat CPU 0 instructions: 210000001 cycles: 383036878 heartbeat IPC: 0.549189 cumulative IPC: 0.505053 (Simulation time: 2 hr 19 min 22 sec) 
Heartbeat CPU 3 instructions: 350000000 cycles: 388284061 heartbeat IPC: 0.876709 cumulative IPC: 0.866587 (Simulation time: 2 hr 21 min 1 sec) 
Heartbeat CPU 4 instructions: 270000000 cycles: 388888100 heartbeat IPC: 0.63294 cumulative IPC: 0.630515 (Simulation time: 2 hr 21 min 12 sec) 
Finished CPU 7 instructions: 100000002 cycles: 378791915 cumulative IPC: 0.263997 (Simulation time: 2 hr 22 min 28 sec) 
Heartbeat CPU 1 instructions: 210000001 cycles: 393639787 heartbeat IPC: 0.478842 cumulative IPC: 0.473177 (Simulation time: 2 hr 22 min 44 sec) 
Heartbeat CPU 2 instructions: 90000002 cycles: 393669363 heartbeat IPC: 0.191803 cumulative IPC: 0.184379 (Simulation time: 2 hr 22 min 44 sec) 
Heartbeat CPU 7 instructions: 130000003 cycles: 395792264 heartbeat IPC: 0.2692 cumulative IPC: 0.264082 (Simulation time: 2 hr 23 min 26 sec) 
Heartbeat CPU 5 instructions: 240000000 cycles: 397405951 heartbeat IPC: 0.668654 cumulative IPC: 0.555115 (Simulation time: 2 hr 23 min 55 sec) 
Heartbeat CPU 3 instructions: 360000000 cycles: 399532764 heartbeat IPC: 0.888991 cumulative IPC: 0.867241 (Simulation time: 2 hr 24 min 33 sec) 
Heartbeat CPU 4 instructions: 280000000 cycles: 404983655 heartbeat IPC: 0.62129 cumulative IPC: 0.630135 (Simulation time: 2 hr 26 min 9 sec) 
Heartbeat CPU 0 instructions: 220000000 cycles: 407298570 heartbeat IPC: 0.412172 cumulative IPC: 0.499324 (Simulation time: 2 hr 26 min 50 sec) 
Heartbeat CPU 3 instructions: 370000000 cycles: 411149248 heartbeat IPC: 0.860846 cumulative IPC: 0.867054 (Simulation time: 2 hr 27 min 58 sec) 
Heartbeat CPU 5 instructions: 250000000 cycles: 412749144 heartbeat IPC: 0.651755 cumulative IPC: 0.558833 (Simulation time: 2 hr 28 min 27 sec) 
Heartbeat CPU 1 instructions: 220000000 cycles: 414284102 heartbeat IPC: 0.484395 cumulative IPC: 0.473755 (Simulation time: 2 hr 28 min 54 sec) 
Heartbeat CPU 4 instructions: 290000001 cycles: 420467631 heartbeat IPC: 0.645829 cumulative IPC: 0.630733 (Simulation time: 2 hr 30 min 50 sec) 
Heartbeat CPU 3 instructions: 380000000 cycles: 422321860 heartbeat IPC: 0.895046 cumulative IPC: 0.86782 (Simulation time: 2 hr 31 min 25 sec) 
Heartbeat CPU 6 instructions: 90000002 cycles: 425453722 heartbeat IPC: 0.169934 cumulative IPC: 0.152143 (Simulation time: 2 hr 32 min 24 sec) 
Heartbeat CPU 5 instructions: 260000000 cycles: 427479895 heartbeat IPC: 0.678852 cumulative IPC: 0.563109 (Simulation time: 2 hr 33 min 1 sec) 
Heartbeat CPU 7 instructions: 140000000 cycles: 432453378 heartbeat IPC: 0.272768 cumulative IPC: 0.264843 (Simulation time: 2 hr 34 min 30 sec) 
Heartbeat CPU 3 instructions: 390000003 cycles: 433556102 heartbeat IPC: 0.890136 cumulative IPC: 0.868418 (Simulation time: 2 hr 34 min 49 sec) 
Heartbeat CPU 1 instructions: 230000003 cycles: 433958810 heartbeat IPC: 0.508267 cumulative IPC: 0.475372 (Simulation time: 2 hr 34 min 57 sec) 
Heartbeat CPU 4 instructions: 300000000 cycles: 435847737 heartbeat IPC: 0.650191 cumulative IPC: 0.631442 (Simulation time: 2 hr 35 min 32 sec) 
Heartbeat CPU 0 instructions: 230000001 cycles: 436662576 heartbeat IPC: 0.340553 cumulative IPC: 0.488293 (Simulation time: 2 hr 35 min 47 sec) 
Heartbeat CPU 5 instructions: 270000002 cycles: 442099893 heartbeat IPC: 0.683995 cumulative IPC: 0.567238 (Simulation time: 2 hr 37 min 23 sec) 
Heartbeat CPU 2 instructions: 100000000 cycles: 444600198 heartbeat IPC: 0.196345 cumulative IPC: 0.185795 (Simulation time: 2 hr 38 min 7 sec) 
Heartbeat CPU 3 instructions: 400000000 cycles: 444628516 heartbeat IPC: 0.903145 cumulative IPC: 0.869311 (Simulation time: 2 hr 38 min 8 sec) 
Heartbeat CPU 4 instructions: 310000000 cycles: 451068958 heartbeat IPC: 0.656978 cumulative IPC: 0.632331 (Simulation time: 2 hr 40 min 6 sec) 
Heartbeat CPU 1 instructions: 240000000 cycles: 454020821 heartbeat IPC: 0.498454 cumulative IPC: 0.476425 (Simulation time: 2 hr 41 min 2 sec) 
Heartbeat CPU 3 instructions: 410000000 cycles: 456206516 heartbeat IPC: 0.863707 cumulative IPC: 0.869164 (Simulation time: 2 hr 41 min 43 sec) 
Heartbeat CPU 5 instructions: 280000000 cycles: 457416542 heartbeat IPC: 0.652884 cumulative IPC: 0.570196 (Simulation time: 2 hr 42 min 6 sec) 
Heartbeat CPU 0 instructions: 240000000 cycles: 458134402 heartbeat IPC: 0.465727 cumulative IPC: 0.487202 (Simulation time: 2 hr 42 min 20 sec) 
Heartbeat CPU 3 instructions: 420000000 cycles: 467958674 heartbeat IPC: 0.850908 cumulative IPC: 0.868691 (Simulation time: 2 hr 45 min 29 sec) 
Heartbeat CPU 4 instructions: 320000000 cycles: 468732175 heartbeat IPC: 0.566148 cumulative IPC: 0.629761 (Simulation time: 2 hr 45 min 44 sec) 
Heartbeat CPU 7 instructions: 150000001 cycles: 470669818 heartbeat IPC: 0.261668 cumulative IPC: 0.264577 (Simulation time: 2 hr 46 min 21 sec) 
Heartbeat CPU 5 instructions: 290000000 cycles: 473096446 heartbeat IPC: 0.637759 cumulative IPC: 0.572504 (Simulation time: 2 hr 47 min 7 sec) 
Heartbeat CPU 0 instructions: 250000003 cycles: 473393210 heartbeat IPC: 0.655359 cumulative IPC: 0.492787 (Simulation time: 2 hr 47 min 13 sec) 
Heartbeat CPU 1 instructions: 250000000 cycles: 476626022 heartbeat IPC: 0.442376 cumulative IPC: 0.474761 (Simulation time: 2 hr 48 min 14 sec) 
Heartbeat CPU 3 instructions: 430000000 cycles: 479606106 heartbeat IPC: 0.858558 cumulative IPC: 0.868438 (Simulation time: 2 hr 49 min 12 sec) 
Heartbeat CPU 4 instructions: 330000001 cycles: 484593038 heartbeat IPC: 0.630483 cumulative IPC: 0.629785 (Simulation time: 2 hr 50 min 44 sec) 
Heartbeat CPU 5 instructions: 300000000 cycles: 488469404 heartbeat IPC: 0.650493 cumulative IPC: 0.575031 (Simulation time: 2 hr 51 min 54 sec) 
Heartbeat CPU 0 instructions: 260000000 cycles: 489940628 heartbeat IPC: 0.604324 cumulative IPC: 0.496665 (Simulation time: 2 hr 52 min 21 sec) 
Heartbeat CPU 3 instructions: 440000000 cycles: 491133576 heartbeat IPC: 0.867493 cumulative IPC: 0.868415 (Simulation time: 2 hr 52 min 44 sec) 
Heartbeat CPU 6 instructions: 100000000 cycles: 492199191 heartbeat IPC: 0.149823 cumulative IPC: 0.151819 (Simulation time: 2 hr 53 min 5 sec) 
Heartbeat CPU 1 instructions: 260000000 cycles: 497058289 heartbeat IPC: 0.489422 cumulative IPC: 0.475381 (Simulation time: 2 hr 54 min 46 sec) 
Heartbeat CPU 2 instructions: 110000000 cycles: 498189055 heartbeat IPC: 0.186606 cumulative IPC: 0.185885 (Simulation time: 2 hr 55 min 9 sec) 
Heartbeat CPU 0 instructions: 270000000 cycles: 500128275 heartbeat IPC: 0.981581 cumulative IPC: 0.506828 (Simulation time: 2 hr 55 min 47 sec) 
Heartbeat CPU 4 instructions: 340000000 cycles: 500326184 heartbeat IPC: 0.635601 cumulative IPC: 0.629973 (Simulation time: 2 hr 55 min 51 sec) 
Heartbeat CPU 3 instructions: 450000002 cycles: 502112191 heartbeat IPC: 0.910862 cumulative IPC: 0.86937 (Simulation time: 2 hr 56 min 27 sec) 
Heartbeat CPU 5 instructions: 310000002 cycles: 502736834 heartbeat IPC: 0.700897 cumulative IPC: 0.578705 (Simulation time: 2 hr 56 min 40 sec) 
Heartbeat CPU 7 instructions: 160000000 cycles: 507582223 heartbeat IPC: 0.270912 cumulative IPC: 0.265051 (Simulation time: 2 hr 58 min 19 sec) 
Heartbeat CPU 0 instructions: 280000000 cycles: 510169829 heartbeat IPC: 0.995862 cumulative IPC: 0.516725 (Simulation time: 2 hr 59 min 11 sec) 
Heartbeat CPU 3 instructions: 460000000 cycles: 513130128 heartbeat IPC: 0.907611 cumulative IPC: 0.870214 (Simulation time: 3 hr 0 min 8 sec) 
Heartbeat CPU 4 instructions: 350000001 cycles: 514664804 heartbeat IPC: 0.697417 cumulative IPC: 0.631905 (Simulation time: 3 hr 0 min 39 sec) 
Heartbeat CPU 1 instructions: 270000002 cycles: 516280547 heartbeat IPC: 0.52023 cumulative IPC: 0.477097 (Simulation time: 3 hr 1 min 10 sec) 
Heartbeat CPU 5 instructions: 320000000 cycles: 517020251 heartbeat IPC: 0.700112 cumulative IPC: 0.582153 (Simulation time: 3 hr 1 min 24 sec) 
Heartbeat CPU 0 instructions: 290000000 cycles: 522188086 heartbeat IPC: 0.832067 cumulative IPC: 0.524183 (Simulation time: 3 hr 3 min 5 sec) 
Heartbeat CPU 3 instructions: 470000000 cycles: 524259976 heartbeat IPC: 0.898485 cumulative IPC: 0.87083 (Simulation time: 3 hr 3 min 44 sec) 
Heartbeat CPU 4 instructions: 360000000 cycles: 530217133 heartbeat IPC: 0.64299 cumulative IPC: 0.632239 (Simulation time: 3 hr 5 min 34 sec) 
Heartbeat CPU 5 instructions: 330000003 cycles: 531717921 heartbeat IPC: 0.68038 cumulative IPC: 0.584942 (Simulation time: 3 hr 6 min 0 sec) 
Heartbeat CPU 3 instructions: 480000000 cycles: 535611141 heartbeat IPC: 0.880967 cumulative IPC: 0.871051 (Simulation time: 3 hr 7 min 14 sec) 
Heartbeat CPU 1 instructions: 280000000 cycles: 536411285 heartbeat IPC: 0.496753 cumulative IPC: 0.477855 (Simulation time: 3 hr 7 min 29 sec) 
Heartbeat CPU 6 instructions: 110000000 cycles: 543678179 heartbeat IPC: 0.194254 cumulative IPC: 0.155943 (Simulation time: 3 hr 9 min 47 sec) 
Heartbeat CPU 7 instructions: 170000001 cycles: 543729264 heartbeat IPC: 0.276648 cumulative IPC: 0.265842 (Simulation time: 3 hr 9 min 48 sec) 
Heartbeat CPU 0 instructions: 300000000 cycles: 545007846 heartbeat IPC: 0.438217 cumulative IPC: 0.520489 (Simulation time: 3 hr 10 min 9 sec) 
Heartbeat CPU 5 instructions: 340000000 cycles: 546237414 heartbeat IPC: 0.688729 cumulative IPC: 0.587773 (Simulation time: 3 hr 10 min 31 sec) 
Heartbeat CPU 4 instructions: 370000000 cycles: 546439899 heartbeat IPC: 0.616418 cumulative IPC: 0.631757 (Simulation time: 3 hr 10 min 35 sec) 
Heartbeat CPU 3 instructions: 490000001 cycles: 546732468 heartbeat IPC: 0.899173 cumulative IPC: 0.871638 (Simulation time: 3 hr 10 min 40 sec) 
Heartbeat CPU 2 instructions: 120000000 cycles: 548089859 heartbeat IPC: 0.200398 cumulative IPC: 0.187241 (Simulation time: 3 hr 11 min 5 sec) 
Finished CPU 2 instructions: 100000000 cycles: 534072427 cumulative IPC: 0.187241 (Simulation time: 3 hr 11 min 5 sec) 
Heartbeat CPU 1 instructions: 290000001 cycles: 556123978 heartbeat IPC: 0.507287 cumulative IPC: 0.478925 (Simulation time: 3 hr 13 min 33 sec) 
Heartbeat CPU 3 instructions: 500000000 cycles: 558034113 heartbeat IPC: 0.884827 cumulative IPC: 0.871912 (Simulation time: 3 hr 14 min 11 sec) 
Heartbeat CPU 5 instructions: 350000000 cycles: 560816733 heartbeat IPC: 0.685903 cumulative IPC: 0.59039 (Simulation time: 3 hr 15 min 2 sec) 
Heartbeat CPU 4 instructions: 380000000 cycles: 561075661 heartbeat IPC: 0.683258 cumulative IPC: 0.633134 (Simulation time: 3 hr 15 min 6 sec) 
Heartbeat CPU 0 instructions: 310000002 cycles: 564225937 heartbeat IPC: 0.520343 cumulative IPC: 0.520484 (Simulation time: 3 hr 16 min 5 sec) 
Heartbeat CPU 3 instructions: 510000001 cycles: 569221756 heartbeat IPC: 0.893843 cumulative IPC: 0.872354 (Simulation time: 3 hr 17 min 35 sec) 
Heartbeat CPU 5 instructions: 360000000 cycles: 575314133 heartbeat IPC: 0.689779 cumulative IPC: 0.592957 (Simulation time: 3 hr 19 min 22 sec) 
Heartbeat CPU 1 instructions: 300000000 cycles: 575904849 heartbeat IPC: 0.505539 cumulative IPC: 0.479862 (Simulation time: 3 hr 19 min 32 sec) 
Heartbeat CPU 7 instructions: 180000000 cycles: 579976855 heartbeat IPC: 0.27588 cumulative IPC: 0.266485 (Simulation time: 3 hr 20 min 42 sec) 
Heartbeat CPU 3 instructions: 520000000 cycles: 580565033 heartbeat IPC: 0.881579 cumulative IPC: 0.872539 (Simulation time: 3 hr 20 min 52 sec) 
Heartbeat CPU 0 instructions: 320000000 cycles: 584972611 heartbeat IPC: 0.482005 cumulative IPC: 0.519085 (Simulation time: 3 hr 22 min 7 sec) 
Heartbeat CPU 5 instructions: 370000002 cycles: 590167926 heartbeat IPC: 0.673229 cumulative IPC: 0.595026 (Simulation time: 3 hr 23 min 38 sec) 
Heartbeat CPU 3 instructions: 530000002 cycles: 591910803 heartbeat IPC: 0.881386 cumulative IPC: 0.872712 (Simulation time: 3 hr 24 min 8 sec) 
Heartbeat CPU 1 instructions: 310000000 cycles: 596189008 heartbeat IPC: 0.492996 cumulative IPC: 0.48032 (Simulation time: 3 hr 25 min 24 sec) 
Heartbeat CPU 4 instructions: 390000002 cycles: 597401805 heartbeat IPC: 0.275284 cumulative IPC: 0.610852 (Simulation time: 3 hr 25 min 49 sec) 
Heartbeat CPU 2 instructions: 130000001 cycles: 599485898 heartbeat IPC: 0.194568 cumulative IPC: 0.187884 (Simulation time: 3 hr 26 min 32 sec) 
Heartbeat CPU 0 instructions: 330000003 cycles: 599595436 heartbeat IPC: 0.683863 cumulative IPC: 0.5232 (Simulation time: 3 hr 26 min 34 sec) 
Heartbeat CPU 6 instructions: 120000000 cycles: 602136736 heartbeat IPC: 0.171061 cumulative IPC: 0.157446 (Simulation time: 3 hr 27 min 27 sec) 
Heartbeat CPU 3 instructions: 540000000 cycles: 603069011 heartbeat IPC: 0.896201 cumulative IPC: 0.873157 (Simulation time: 3 hr 27 min 46 sec) 
Heartbeat CPU 5 instructions: 380000000 cycles: 604577839 heartbeat IPC: 0.693967 cumulative IPC: 0.59744 (Simulation time: 3 hr 28 min 16 sec) 
Heartbeat CPU 4 instructions: 400000000 cycles: 609931026 heartbeat IPC: 0.798134 cumulative IPC: 0.61479 (Simulation time: 3 hr 30 min 4 sec) 
Heartbeat CPU 3 instructions: 550000000 cycles: 613947255 heartbeat IPC: 0.919266 cumulative IPC: 0.873994 (Simulation time: 3 hr 31 min 24 sec) 
Heartbeat CPU 1 instructions: 320000000 cycles: 614657068 heartbeat IPC: 0.541475 cumulative IPC: 0.4822 (Simulation time: 3 hr 31 min 39 sec) 
Heartbeat CPU 7 instructions: 190000001 cycles: 615286917 heartbeat IPC: 0.283205 cumulative IPC: 0.267467 (Simulation time: 3 hr 31 min 52 sec) 
Heartbeat CPU 5 instructions: 390000001 cycles: 618805645 heartbeat IPC: 0.702849 cumulative IPC: 0.59992 (Simulation time: 3 hr 32 min 58 sec) 
Heartbeat CPU 0 instructions: 340000000 cycles: 620702059 heartbeat IPC: 0.473785 cumulative IPC: 0.521481 (Simulation time: 3 hr 33 min 35 sec) 
Heartbeat CPU 4 instructions: 410000001 cycles: 622482546 heartbeat IPC: 0.796716 cumulative IPC: 0.618542 (Simulation time: 3 hr 34 min 9 sec) 
Heartbeat CPU 3 instructions: 560000000 cycles: 625089205 heartbeat IPC: 0.897509 cumulative IPC: 0.874422 (Simulation time: 3 hr 35 min 1 sec) 
Heartbeat CPU 5 instructions: 400000000 cycles: 633101951 heartbeat IPC: 0.699481 cumulative IPC: 0.602219 (Simulation time: 3 hr 37 min 43 sec) 
Heartbeat CPU 1 instructions: 330000002 cycles: 634119505 heartbeat IPC: 0.51381 cumulative IPC: 0.483192 (Simulation time: 3 hr 38 min 3 sec) 
Heartbeat CPU 4 instructions: 420000000 cycles: 635113586 heartbeat IPC: 0.7917 cumulative IPC: 0.622064 (Simulation time: 3 hr 38 min 23 sec) 
Heartbeat CPU 3 instructions: 570000003 cycles: 636105440 heartbeat IPC: 0.907751 cumulative IPC: 0.875012 (Simulation time: 3 hr 38 min 43 sec) 
Heartbeat CPU 0 instructions: 350000001 cycles: 643984777 heartbeat IPC: 0.429503 cumulative IPC: 0.518082 (Simulation time: 3 hr 41 min 20 sec) 
Heartbeat CPU 3 instructions: 580000000 cycles: 647070348 heartbeat IPC: 0.912 cumulative IPC: 0.875653 (Simulation time: 3 hr 42 min 21 sec) 
Heartbeat CPU 5 instructions: 410000003 cycles: 647292256 heartbeat IPC: 0.704707 cumulative IPC: 0.604516 (Simulation time: 3 hr 42 min 26 sec) 
Heartbeat CPU 2 instructions: 140000000 cycles: 647536731 heartbeat IPC: 0.208113 cumulative IPC: 0.189418 (Simulation time: 3 hr 42 min 31 sec) 
Heartbeat CPU 4 instructions: 430000000 cycles: 647697583 heartbeat IPC: 0.79466 cumulative IPC: 0.625491 (Simulation time: 3 hr 42 min 34 sec) 
Heartbeat CPU 7 instructions: 200000000 cycles: 650646829 heartbeat IPC: 0.282806 cumulative IPC: 0.268319 (Simulation time: 3 hr 43 min 34 sec) 
Heartbeat CPU 1 instructions: 340000000 cycles: 652354002 heartbeat IPC: 0.548411 cumulative IPC: 0.485055 (Simulation time: 3 hr 44 min 11 sec) 
Finished CPU 6 instructions: 100000001 cycles: 638367057 cumulative IPC: 0.15665 (Simulation time: 3 hr 44 min 12 sec) 

CPU 0 Branch Prediction Accuracy: 99.7452% MPKI: 0.0938748

CPU 1 Branch Prediction Accuracy: 99.975% MPKI: 0.00424039

CPU 2 Branch Prediction Accuracy: 97.9611% MPKI: 3.71308

CPU 3 Branch Prediction Accuracy: 99.9708% MPKI: 0.00722316

CPU 4 Branch Prediction Accuracy: 94.8128% MPKI: 4.65212

CPU 5 Branch Prediction Accuracy: 99.2694% MPKI: 0.0842538

CPU 6 Branch Prediction Accuracy: 99.2326% MPKI: 1.68096

CPU 7 Branch Prediction Accuracy: 99.9785% MPKI: 0.0542023

ChampSim completed all CPUs

Total Simulation Statistics (not including warmup)

CPU 0 cumulative IPC: 0.516743 instructions: 329871822 cycles: 638367056
L1D TOTAL     ACCESS:   85583153  HIT:   75028600  MISS:   10554553
L1D LOAD      ACCESS:   73131701  HIT:   64644460  MISS:    8487241
L1D RFO       ACCESS:   12451452  HIT:   10384140  MISS:    2067312
L1D PREFETCH  ACCESS:          0  HIT:          0  MISS:          0
L1D WRITEBACK ACCESS:          0  HIT:          0  MISS:          0
L1I TOTAL     ACCESS:   79626227  HIT:   79625087  MISS:       1140
L1I LOAD      ACCESS:   79626227  HIT:   79625087  MISS:       1140
L1I RFO       ACCESS:          0  HIT:          0  MISS:          0
L1I PREFETCH  ACCESS:          0  HIT:          0  MISS:          0
L1I WRITEBACK ACCESS:          0  HIT:          0  MISS:          0
L2C TOTAL     ACCESS:   23863085  HIT:   15353344  MISS:    8509741
L2C LOAD      ACCESS:    8488138  HIT:    4301909  MISS:    4186229
L2C RFO       ACCESS:    2067261  HIT:        163  MISS:    2067098
L2C PREFETCH  ACCESS:   10586539  HIT:    8330441  MISS:    2256098
L2C WRITEBACK ACCESS:    2721147  HIT:    2720831  MISS:        316
LLC TOTAL     ACCESS:   26002071  HIT:   17143783  MISS:    8858288
LLC LOAD      ACCESS:    2625773  HIT:    2047323  MISS:     578450
LLC RFO       ACCESS:    2067082  HIT:        386  MISS:    2066696
LLC PREFETCH  ACCESS:   18610879  HIT:   12397889  MISS:    6212990
LLC WRITEBACK ACCESS:    2698337  HIT:    2698185  MISS:        152

CPU 1 cumulative IPC: 0.485059 instructions: 309645898 cycles: 638367056
L1D TOTAL     ACCESS:   65102615  HIT:   61004841  MISS:    4097774
L1D LOAD      ACCESS:   43372538  HIT:   39278843  MISS:    4093695
L1D RFO       ACCESS:   21730077  HIT:   21725998  MISS:       4079
L1D PREFETCH  ACCESS:          0  HIT:          0  MISS:          0
L1D WRITEBACK ACCESS:          0  HIT:          0  MISS:          0
L1I TOTAL     ACCESS:   62974697  HIT:   62974697  MISS:          0
L1I LOAD      ACCESS:   62974697  HIT:   62974697  MISS:          0
L1I RFO       ACCESS:          0  HIT:          0  MISS:          0
L1I PREFETCH  ACCESS:          0  HIT:          0  MISS:          0
L1I WRITEBACK ACCESS:          0  HIT:          0  MISS:          0
L2C TOTAL     ACCESS:    8635458  HIT:    4643461  MISS:    3991997
L2C LOAD      ACCESS:    4093695  HIT:    1416619  MISS:    2677076
L2C RFO       ACCESS:       4079  HIT:       1171  MISS:       2908
L2C PREFETCH  ACCESS:    1816766  HIT:     504753  MISS:    1312013
L2C WRITEBACK ACCESS:    2720918  HIT:    2720918  MISS:          0
LLC TOTAL     ACCESS:   15233548  HIT:   12500724  MISS:    2732824
LLC LOAD      ACCESS:    1465679  HIT:    1294579  MISS:     171100
LLC RFO       ACCESS:       2907  HIT:       2884  MISS:         23
LLC PREFETCH  ACCESS:   11046949  HIT:    8485742  MISS:    2561207
LLC WRITEBACK ACCESS:    2718013  HIT:    2717519  MISS:        494

CPU 2 cumulative IPC: 0.189738 instructions: 121122289 cycles: 638367056
L1D TOTAL     ACCESS:   47229016  HIT:   28588203  MISS:   18640813
L1D LOAD      ACCESS:   39645770  HIT:   21346604  MISS:   18299166
L1D RFO       ACCESS:    7583246  HIT:    7241599  MISS:     341647
L1D PREFETCH  ACCESS:          0  HIT:          0  MISS:          0
L1D WRITEBACK ACCESS:          0  HIT:          0  MISS:          0
L1I TOTAL     ACCESS:   42804530  HIT:   42804530  MISS:          0
L1I LOAD      ACCESS:   42804530  HIT:   42804530  MISS:          0
L1I RFO       ACCESS:          0  HIT:          0  MISS:          0
L1I PREFETCH  ACCESS:          0  HIT:          0  MISS:          0
L1I WRITEBACK ACCESS:          0  HIT:          0  MISS:          0
L2C TOTAL     ACCESS:   21159438  HIT:    2454314  MISS:   18705124
L2C LOAD      ACCESS:   18299166  HIT:    1230050  MISS:   17069116
L2C RFO       ACCESS:     341647  HIT:       2323  MISS:     339324
L2C PREFETCH  ACCESS:    2093110  HIT:     797599  MISS:    1295511
L2C WRITEBACK ACCESS:     425515  HIT:     424342  MISS:       1173
LLC TOTAL     ACCESS:   37811973  HIT:   35951868  MISS:    1860105
LLC LOAD      ACCESS:   15125379  HIT:   15010406  MISS:     114973
LLC RFO       ACCESS:     333267  HIT:       6697  MISS:     326570
LLC PREFETCH  ACCESS:   21929633  HIT:   20511256  MISS:    1418377
LLC WRITEBACK ACCESS:     423694  HIT:     423509  MISS:        185

CPU 3 cumulative IPC: 0.876178 instructions: 559322995 cycles: 638367057
L1D TOTAL     ACCESS:  212011357  HIT:  200408807  MISS:   11602550
L1D LOAD      ACCESS:  181143851  HIT:  169890485  MISS:   11253366
L1D RFO       ACCESS:   30867506  HIT:   30518322  MISS:     349184
L1D PREFETCH  ACCESS:          0  HIT:          0  MISS:          0
L1D WRITEBACK ACCESS:          0  HIT:          0  MISS:          0
L1I TOTAL     ACCESS:  139326319  HIT:  139326319  MISS:          0
L1I LOAD      ACCESS:  139326319  HIT:  139326319  MISS:          0
L1I RFO       ACCESS:          0  HIT:          0  MISS:          0
L1I PREFETCH  ACCESS:          0  HIT:          0  MISS:          0
L1I WRITEBACK ACCESS:          0  HIT:          0  MISS:          0
L2C TOTAL     ACCESS:   17694579  HIT:    7053692  MISS:   10640887
L2C LOAD      ACCESS:   11250433  HIT:    3836781  MISS:    7413652
L2C RFO       ACCESS:     342285  HIT:      69759  MISS:     272526
L2C PREFETCH  ACCESS:    5721192  HIT:    2767243  MISS:    2953949
L2C WRITEBACK ACCESS:     380669  HIT:     379909  MISS:        760
LLC TOTAL     ACCESS:   31708689  HIT:   21079444  MISS:   10629245
LLC LOAD      ACCESS:    5381890  HIT:    4911314  MISS:     470576
LLC RFO       ACCESS:     272526  HIT:          0  MISS:     272526
LLC PREFETCH  ACCESS:   25780721  HIT:   15894870  MISS:    9885851
LLC WRITEBACK ACCESS:     273552  HIT:     273260  MISS:        292

CPU 4 cumulative IPC: 0.626812 instructions: 400136264 cycles: 638367057
L1D TOTAL     ACCESS:   60701371  HIT:   53875556  MISS:    6825815
L1D LOAD      ACCESS:   41926795  HIT:   37225178  MISS:    4701617
L1D RFO       ACCESS:   18774576  HIT:   16650378  MISS:    2124198
L1D PREFETCH  ACCESS:          0  HIT:          0  MISS:          0
L1D WRITEBACK ACCESS:          0  HIT:          0  MISS:          0
L1I TOTAL     ACCESS:   92704165  HIT:   92695742  MISS:       8423
L1I LOAD      ACCESS:   92704165  HIT:   92695742  MISS:       8423
L1I RFO       ACCESS:          0  HIT:          0  MISS:          0
L1I PREFETCH  ACCESS:          0  HIT:          0  MISS:          0
L1I WRITEBACK ACCESS:          0  HIT:          0  MISS:          0
L2C TOTAL     ACCESS:   13579411  HIT:    7428720  MISS:    6150691
L2C LOAD      ACCESS:    4710040  HIT:    1491119  MISS:    3218921
L2C RFO       ACCESS:    2124198  HIT:      45788  MISS:    2078410
L2C PREFETCH  ACCESS:    3791551  HIT:    2945084  MISS:     846467
L2C WRITEBACK ACCESS:    2953622  HIT:    2946729  MISS:       6893
LLC TOTAL     ACCESS:   15124334  HIT:   12012269  MISS:    3112065
LLC LOAD      ACCESS:    2151178  HIT:    1870243  MISS:     280935
LLC RFO       ACCESS:    2078401  HIT:     376647  MISS:    1701754
LLC PREFETCH  ACCESS:    8136296  HIT:    7025961  MISS:    1110335
LLC WRITEBACK ACCESS:    2758459  HIT:    2739418  MISS:      19041

CPU 5 cumulative IPC: 0.60555 instructions: 386563262 cycles: 638367057
L1D TOTAL     ACCESS:   98342384  HIT:   82190267  MISS:   16152117
L1D LOAD      ACCESS:   38903986  HIT:   36456483  MISS:    2447503
L1D RFO       ACCESS:   59438398  HIT:   45733784  MISS:   13704614
L1D PREFETCH  ACCESS:          0  HIT:          0  MISS:          0
L1D WRITEBACK ACCESS:          0  HIT:          0  MISS:          0
L1I TOTAL     ACCESS:   91585060  HIT:   91585060  MISS:          0
L1I LOAD      ACCESS:   91585060  HIT:   91585060  MISS:          0
L1I RFO       ACCESS:          0  HIT:          0  MISS:          0
L1I PREFETCH  ACCESS:          0  HIT:          0  MISS:          0
L1I WRITEBACK ACCESS:          0  HIT:          0  MISS:          0
L2C TOTAL     ACCESS:   30224086  HIT:   18172172  MISS:   12051914
L2C LOAD      ACCESS:    2447503  HIT:     313802  MISS:    2133701
L2C RFO       ACCESS:   13704613  HIT:    4100551  MISS:    9604062
L2C PREFETCH  ACCESS:     367359  HIT:      53643  MISS:     313716
L2C WRITEBACK ACCESS:   13704611  HIT:   13704176  MISS:        435
LLC TOTAL     ACCESS:   24880963  HIT:   15091886  MISS:    9789077
LLC LOAD      ACCESS:    1696141  HIT:    1294352  MISS:     401789
LLC RFO       ACCESS:    9597613  HIT:    2256181  MISS:    7341432
LLC PREFETCH  ACCESS:    3982871  HIT:    1937240  MISS:    2045631
LLC WRITEBACK ACCESS:    9604338  HIT:    9604113  MISS:        225

CPU 6 cumulative IPC: 0.15665 instructions: 100000001 cycles: 638367057
L1D TOTAL     ACCESS:   23394452  HIT:   20595526  MISS:    2798926
L1D LOAD      ACCESS:   18702998  HIT:   15964897  MISS:    2738101
L1D RFO       ACCESS:    4691454  HIT:    4630629  MISS:      60825
L1D PREFETCH  ACCESS:          0  HIT:          0  MISS:          0
L1D WRITEBACK ACCESS:          0  HIT:          0  MISS:          0
L1I TOTAL     ACCESS:   31904249  HIT:   31543823  MISS:     360426
L1I LOAD      ACCESS:   31904249  HIT:   31543823  MISS:     360426
L1I RFO       ACCESS:          0  HIT:          0  MISS:          0
L1I PREFETCH  ACCESS:          0  HIT:          0  MISS:          0
L1I WRITEBACK ACCESS:          0  HIT:          0  MISS:          0
L2C TOTAL     ACCESS:    4139648  HIT:    1415342  MISS:    2724306
L2C LOAD      ACCESS:    3098468  HIT:     545393  MISS:    2553075
L2C RFO       ACCESS:      60819  HIT:      30063  MISS:      30756
L2C PREFETCH  ACCESS:     854063  HIT:     714454  MISS:     139609
L2C WRITEBACK ACCESS:     126298  HIT:     125432  MISS:        866
LLC TOTAL     ACCESS:    6063364  HIT:    1632140  MISS:    4431224
LLC LOAD      ACCESS:    2513670  HIT:     541873  MISS:    1971797
LLC RFO       ACCESS:      30731  HIT:       6808  MISS:      23923
LLC PREFETCH  ACCESS:    3466286  HIT:    1032939  MISS:    2433347
LLC WRITEBACK ACCESS:      52677  HIT:      50520  MISS:       2157

CPU 7 cumulative IPC: 0.268444 instructions: 171365720 cycles: 638367057
L1D TOTAL     ACCESS:   32680644  HIT:   29421235  MISS:    3259409
L1D LOAD      ACCESS:   30433481  HIT:   27175047  MISS:    3258434
L1D RFO       ACCESS:    2247163  HIT:    2246188  MISS:        975
L1D PREFETCH  ACCESS:          0  HIT:          0  MISS:          0
L1D WRITEBACK ACCESS:          0  HIT:          0  MISS:          0
L1I TOTAL     ACCESS:   60319025  HIT:   60319025  MISS:          0
L1I LOAD      ACCESS:   60319025  HIT:   60319025  MISS:          0
L1I RFO       ACCESS:          0  HIT:          0  MISS:          0
L1I PREFETCH  ACCESS:          0  HIT:          0  MISS:          0
L1I WRITEBACK ACCESS:          0  HIT:          0  MISS:          0
L2C TOTAL     ACCESS:    3912986  HIT:     466308  MISS:    3446678
L2C LOAD      ACCESS:    3258434  HIT:     252219  MISS:    3006215
L2C RFO       ACCESS:        975  HIT:         44  MISS:        931
L2C PREFETCH  ACCESS:     652144  HIT:     212612  MISS:     439532
L2C WRITEBACK ACCESS:       1433  HIT:       1433  MISS:          0
LLC TOTAL     ACCESS:    6690604  HIT:    3154841  MISS:    3535763
LLC LOAD      ACCESS:    2528584  HIT:    1160567  MISS:    1368017
LLC RFO       ACCESS:        931  HIT:        353  MISS:        578
LLC PREFETCH  ACCESS:    4159666  HIT:    1992498  MISS:    2167168
LLC WRITEBACK ACCESS:       1423  HIT:       1423  MISS:          0

Region of Interest Statistics

CPU 0 cumulative IPC: 0.527054 instructions: 100000003 cycles: 189733951
L1D TOTAL     ACCESS:   20721513  HIT:   17758289  MISS:    2963224
L1D LOAD      ACCESS:   17583884  HIT:   15372938  MISS:    2210946
L1D RFO       ACCESS:    3137629  HIT:    2385351  MISS:     752278
L1D PREFETCH  ACCESS:          0  HIT:          0  MISS:          0
L1D WRITEBACK ACCESS:          0  HIT:          0  MISS:          0
L1D PREFETCH  REQUESTED:          0  ISSUED:          0  USEFUL:          0  USELESS:          0
L1I TOTAL     ACCESS:   23275650  HIT:   23275345  MISS:        305
L1I LOAD      ACCESS:   23275650  HIT:   23275345  MISS:        305
L1I RFO       ACCESS:          0  HIT:          0  MISS:          0
L1I PREFETCH  ACCESS:          0  HIT:          0  MISS:          0
L1I WRITEBACK ACCESS:          0  HIT:          0  MISS:          0
L1I PREFETCH  REQUESTED:          0  ISSUED:          0  USEFUL:          0  USELESS:          0
L2C TOTAL     ACCESS:    6831865  HIT:    4436980  MISS:    2394885
L2C LOAD      ACCESS:    2211231  HIT:    1124584  MISS:    1086647
L2C RFO       ACCESS:     752278  HIT:          7  MISS:     752271
L2C PREFETCH  ACCESS:    2943328  HIT:    2387436  MISS:     555892
L2C WRITEBACK ACCESS:     925028  HIT:     924953  MISS:         75
L2C PREFETCH  REQUESTED:   42306757  ISSUED:   42276490  USEFUL:    2497955  USELESS:      41419
LLC TOTAL     ACCESS:    6993395  HIT:    4507169  MISS:    2486226
LLC LOAD      ACCESS:     651394  HIT:     511977  MISS:     139417
LLC RFO       ACCESS:     752268  HIT:        117  MISS:     752151
LLC PREFETCH  ACCESS:    4670019  HIT:    3075392  MISS:    1594627
LLC WRITEBACK ACCESS:     919714  HIT:     919683  MISS:         31
LLC PREFETCH  REQUESTED:          0  ISSUED:          0  USEFUL:   12305381  USELESS:   18293197
Major fault: 0 Minor fault: 55264

CPU 1 cumulative IPC: 0.466595 instructions: 100000000 cycles: 214318616
L1D TOTAL     ACCESS:   21020273  HIT:   19696898  MISS:    1323375
L1D LOAD      ACCESS:   14002570  HIT:   12680513  MISS:    1322057
L1D RFO       ACCESS:    7017703  HIT:    7016385  MISS:       1318
L1D PREFETCH  ACCESS:          0  HIT:          0  MISS:          0
L1D WRITEBACK ACCESS:          0  HIT:          0  MISS:          0
L1D PREFETCH  REQUESTED:          0  ISSUED:          0  USEFUL:          0  USELESS:          0
L1I TOTAL     ACCESS:   20334862  HIT:   20334862  MISS:          0
L1I LOAD      ACCESS:   20334862  HIT:   20334862  MISS:          0
L1I RFO       ACCESS:          0  HIT:          0  MISS:          0
L1I PREFETCH  ACCESS:          0  HIT:          0  MISS:          0
L1I WRITEBACK ACCESS:          0  HIT:          0  MISS:          0
L1I PREFETCH  REQUESTED:          0  ISSUED:          0  USEFUL:          0  USELESS:          0
L2C TOTAL     ACCESS:    2779408  HIT:    1489398  MISS:    1290010
L2C LOAD      ACCESS:    1322057  HIT:     451130  MISS:     870927
L2C RFO       ACCESS:       1318  HIT:        372  MISS:        946
L2C PREFETCH  ACCESS:     577310  HIT:     159173  MISS:     418137
L2C WRITEBACK ACCESS:     878723  HIT:     878723  MISS:          0
L2C PREFETCH  REQUESTED:   21547788  ISSUED:   21547788  USEFUL:    1498489  USELESS:       1404
LLC TOTAL     ACCESS:    4912801  HIT:    4029551  MISS:     883250
LLC LOAD      ACCESS:     474783  HIT:     419517  MISS:      55266
LLC RFO       ACCESS:        945  HIT:        934  MISS:         11
LLC PREFETCH  ACCESS:    3559291  HIT:    2731528  MISS:     827763
LLC WRITEBACK ACCESS:     877782  HIT:     877572  MISS:        210
LLC PREFETCH  REQUESTED:          0  ISSUED:          0  USEFUL:   12305381  USELESS:   18293197
Major fault: 0 Minor fault: 46705

CPU 2 cumulative IPC: 0.187241 instructions: 100000000 cycles: 534072427
L1D TOTAL     ACCESS:   38998627  HIT:   23636093  MISS:   15362534
L1D LOAD      ACCESS:   32702865  HIT:   17630897  MISS:   15071968
L1D RFO       ACCESS:    6295762  HIT:    6005196  MISS:     290566
L1D PREFETCH  ACCESS:          0  HIT:          0  MISS:          0
L1D WRITEBACK ACCESS:          0  HIT:          0  MISS:          0
L1D PREFETCH  REQUESTED:          0  ISSUED:          0  USEFUL:          0  USELESS:          0
L1I TOTAL     ACCESS:   35221784  HIT:   35221784  MISS:          0
L1I LOAD      ACCESS:   35221784  HIT:   35221784  MISS:          0
L1I RFO       ACCESS:          0  HIT:          0  MISS:          0
L1I PREFETCH  ACCESS:          0  HIT:          0  MISS:          0
L1I WRITEBACK ACCESS:          0  HIT:          0  MISS:          0
L1I PREFETCH  REQUESTED:          0  ISSUED:          0  USEFUL:          0  USELESS:          0
L2C TOTAL     ACCESS:   17459595  HIT:    2043915  MISS:   15415680
L2C LOAD      ACCESS:   15071968  HIT:    1004984  MISS:   14066984
L2C RFO       ACCESS:     290566  HIT:       1910  MISS:     288656
L2C PREFETCH  ACCESS:    1736702  HIT:     677629  MISS:    1059073
L2C WRITEBACK ACCESS:     360359  HIT:     359392  MISS:        967
L2C PREFETCH  REQUESTED:   56932642  ISSUED:   56919567  USEFUL:    1462293  USELESS:      74688
LLC TOTAL     ACCESS:   31083400  HIT:   29520956  MISS:    1562444
LLC LOAD      ACCESS:   12470165  HIT:   12369141  MISS:     101024
LLC RFO       ACCESS:     283546  HIT:       5576  MISS:     277970
LLC PREFETCH  ACCESS:   17970852  HIT:   16787548  MISS:    1183304
LLC WRITEBACK ACCESS:     358837  HIT:     358691  MISS:        146
LLC PREFETCH  REQUESTED:          0  ISSUED:          0  USEFUL:   12305381  USELESS:   18293197
Major fault: 0 Minor fault: 12579

CPU 3 cumulative IPC: 0.849027 instructions: 100000002 cycles: 117781911
L1D TOTAL     ACCESS:   37897529  HIT:   35823335  MISS:    2074194
L1D LOAD      ACCESS:   32379905  HIT:   30368033  MISS:    2011872
L1D RFO       ACCESS:    5517624  HIT:    5455302  MISS:      62322
L1D PREFETCH  ACCESS:          0  HIT:          0  MISS:          0
L1D WRITEBACK ACCESS:          0  HIT:          0  MISS:          0
L1D PREFETCH  REQUESTED:          0  ISSUED:          0  USEFUL:          0  USELESS:          0
L1I TOTAL     ACCESS:   24914335  HIT:   24914335  MISS:          0
L1I LOAD      ACCESS:   24914335  HIT:   24914335  MISS:          0
L1I RFO       ACCESS:          0  HIT:          0  MISS:          0
L1I PREFETCH  ACCESS:          0  HIT:          0  MISS:          0
L1I WRITEBACK ACCESS:          0  HIT:          0  MISS:          0
L1I PREFETCH  REQUESTED:          0  ISSUED:          0  USEFUL:          0  USELESS:          0
L2C TOTAL     ACCESS:    3160758  HIT:    1259041  MISS:    1901717
L2C LOAD      ACCESS:    2011362  HIT:     683917  MISS:    1327445
L2C RFO       ACCESS:      61111  HIT:      12387  MISS:      48724
L2C PREFETCH  ACCESS:    1020361  HIT:     494938  MISS:     525423
L2C WRITEBACK ACCESS:      67924  HIT:      67799  MISS:        125
L2C PREFETCH  REQUESTED:   55757348  ISSUED:   45636138  USEFUL:    3140314  USELESS:        336
LLC TOTAL     ACCESS:    5591512  HIT:    3691142  MISS:    1900370
LLC LOAD      ACCESS:     947361  HIT:     862588  MISS:      84773
LLC RFO       ACCESS:      48724  HIT:          0  MISS:      48724
LLC PREFETCH  ACCESS:    4546527  HIT:    2779705  MISS:    1766822
LLC WRITEBACK ACCESS:      48900  HIT:      48849  MISS:         51
LLC PREFETCH  REQUESTED:          0  ISSUED:          0  USEFUL:   12305381  USELESS:   18293197
Major fault: 0 Minor fault: 165071

CPU 4 cumulative IPC: 0.627024 instructions: 100000001 cycles: 159483515
L1D TOTAL     ACCESS:   14129288  HIT:   12298506  MISS:    1830782
L1D LOAD      ACCESS:    9998703  HIT:    8729654  MISS:    1269049
L1D RFO       ACCESS:    4130585  HIT:    3568852  MISS:     561733
L1D PREFETCH  ACCESS:          0  HIT:          0  MISS:          0
L1D WRITEBACK ACCESS:          0  HIT:          0  MISS:          0
L1D PREFETCH  REQUESTED:          0  ISSUED:          0  USEFUL:          0  USELESS:          0
L1I TOTAL     ACCESS:   21406022  HIT:   21403593  MISS:       2429
L1I LOAD      ACCESS:   21406022  HIT:   21403593  MISS:       2429
L1I RFO       ACCESS:          0  HIT:          0  MISS:          0
L1I PREFETCH  ACCESS:          0  HIT:          0  MISS:          0
L1I WRITEBACK ACCESS:          0  HIT:          0  MISS:          0
L1I PREFETCH  REQUESTED:          0  ISSUED:          0  USEFUL:          0  USELESS:          0
L2C TOTAL     ACCESS:    3641532  HIT:    1987147  MISS:    1654385
L2C LOAD      ACCESS:    1271478  HIT:     390103  MISS:     881375
L2C RFO       ACCESS:     561733  HIT:      13004  MISS:     548729
L2C PREFETCH  ACCESS:    1024826  HIT:     802476  MISS:     222350
L2C WRITEBACK ACCESS:     783495  HIT:     781564  MISS:       1931
L2C PREFETCH  REQUESTED:   23547806  ISSUED:   23546053  USEFUL:     952705  USELESS:       6361
LLC TOTAL     ACCESS:    4036771  HIT:    3239990  MISS:     796781
LLC LOAD      ACCESS:     590192  HIT:     513687  MISS:      76505
LLC RFO       ACCESS:     548727  HIT:     104305  MISS:     444422
LLC PREFETCH  ACCESS:    2161087  HIT:    1886116  MISS:     274971
LLC WRITEBACK ACCESS:     736765  HIT:     735882  MISS:        883
LLC PREFETCH  REQUESTED:          0  ISSUED:          0  USEFUL:   12305381  USELESS:   18293197
Major fault: 0 Minor fault: 9658

CPU 5 cumulative IPC: 0.486638 instructions: 100000000 cycles: 205491729
L1D TOTAL     ACCESS:   26367167  HIT:   20873656  MISS:    5493511
L1D LOAD      ACCESS:    9924598  HIT:    9092067  MISS:     832531
L1D RFO       ACCESS:   16442569  HIT:   11781589  MISS:    4660980
L1D PREFETCH  ACCESS:          0  HIT:          0  MISS:          0
L1D WRITEBACK ACCESS:          0  HIT:          0  MISS:          0
L1D PREFETCH  REQUESTED:          0  ISSUED:          0  USEFUL:          0  USELESS:          0
L1I TOTAL     ACCESS:   23891640  HIT:   23891640  MISS:          0
L1I LOAD      ACCESS:   23891640  HIT:   23891640  MISS:          0
L1I RFO       ACCESS:          0  HIT:          0  MISS:          0
L1I PREFETCH  ACCESS:          0  HIT:          0  MISS:          0
L1I WRITEBACK ACCESS:          0  HIT:          0  MISS:          0
L1I PREFETCH  REQUESTED:          0  ISSUED:          0  USEFUL:          0  USELESS:          0
L2C TOTAL     ACCESS:   10265026  HIT:    6156746  MISS:    4108280
L2C LOAD      ACCESS:     832531  HIT:      93562  MISS:     738969
L2C RFO       ACCESS:    4660979  HIT:    1385486  MISS:    3275493
L2C PREFETCH  ACCESS:     110537  HIT:      17062  MISS:      93475
L2C WRITEBACK ACCESS:    4660979  HIT:    4660636  MISS:        343
L2C PREFETCH  REQUESTED:   11664365  ISSUED:   11664365  USEFUL:     351942  USELESS:         20
LLC TOTAL     ACCESS:    8384236  HIT:    5055020  MISS:    3329216
LLC LOAD      ACCESS:     580342  HIT:     400786  MISS:     179556
LLC RFO       ACCESS:    3273339  HIT:     776659  MISS:    2496680
LLC PREFETCH  ACCESS:    1254763  HIT:     601919  MISS:     652844
LLC WRITEBACK ACCESS:    3275792  HIT:    3275656  MISS:        136
LLC PREFETCH  REQUESTED:          0  ISSUED:          0  USEFUL:   12305381  USELESS:   18293197
Major fault: 0 Minor fault: 89033

CPU 6 cumulative IPC: 0.15665 instructions: 100000001 cycles: 638367057
L1D TOTAL     ACCESS:   23394452  HIT:   20595526  MISS:    2798926
L1D LOAD      ACCESS:   18702998  HIT:   15964897  MISS:    2738101
L1D RFO       ACCESS:    4691454  HIT:    4630629  MISS:      60825
L1D PREFETCH  ACCESS:          0  HIT:          0  MISS:          0
L1D WRITEBACK ACCESS:          0  HIT:          0  MISS:          0
L1D PREFETCH  REQUESTED:          0  ISSUED:          0  USEFUL:          0  USELESS:          0
L1I TOTAL     ACCESS:   31904249  HIT:   31543823  MISS:     360426
L1I LOAD      ACCESS:   31904249  HIT:   31543823  MISS:     360426
L1I RFO       ACCESS:          0  HIT:          0  MISS:          0
L1I PREFETCH  ACCESS:          0  HIT:          0  MISS:          0
L1I WRITEBACK ACCESS:          0  HIT:          0  MISS:          0
L1I PREFETCH  REQUESTED:          0  ISSUED:          0  USEFUL:          0  USELESS:          0
L2C TOTAL     ACCESS:    4139648  HIT:    1415342  MISS:    2724306
L2C LOAD      ACCESS:    3098468  HIT:     545393  MISS:    2553075
L2C RFO       ACCESS:      60819  HIT:      30063  MISS:      30756
L2C PREFETCH  ACCESS:     854063  HIT:     714454  MISS:     139609
L2C WRITEBACK ACCESS:     126298  HIT:     125432  MISS:        866
L2C PREFETCH  REQUESTED:    7224224  ISSUED:    7218776  USEFUL:      56387  USELESS:     111589
LLC TOTAL     ACCESS:    6063364  HIT:    1632140  MISS:    4431224
LLC LOAD      ACCESS:    2513670  HIT:     541873  MISS:    1971797
LLC RFO       ACCESS:      30731  HIT:       6808  MISS:      23923
LLC PREFETCH  ACCESS:    3466286  HIT:    1032939  MISS:    2433347
LLC WRITEBACK ACCESS:      52677  HIT:      50520  MISS:       2157
LLC PREFETCH  REQUESTED:          0  ISSUED:          0  USEFUL:   12305381  USELESS:   18293197
Major fault: 0 Minor fault: 11123

CPU 7 cumulative IPC: 0.263997 instructions: 100000002 cycles: 378791915
L1D TOTAL     ACCESS:   19062273  HIT:   17159948  MISS:    1902325
L1D LOAD      ACCESS:   17750669  HIT:   15848914  MISS:    1901755
L1D RFO       ACCESS:    1311604  HIT:    1311034  MISS:        570
L1D PREFETCH  ACCESS:          0  HIT:          0  MISS:          0
L1D WRITEBACK ACCESS:          0  HIT:          0  MISS:          0
L1D PREFETCH  REQUESTED:          0  ISSUED:          0  USEFUL:          0  USELESS:          0
L1I TOTAL     ACCESS:   35234918  HIT:   35234918  MISS:          0
L1I LOAD      ACCESS:   35234918  HIT:   35234918  MISS:          0
L1I RFO       ACCESS:          0  HIT:          0  MISS:          0
L1I PREFETCH  ACCESS:          0  HIT:          0  MISS:          0
L1I WRITEBACK ACCESS:          0  HIT:          0  MISS:          0
L1I PREFETCH  REQUESTED:          0  ISSUED:          0  USEFUL:          0  USELESS:          0
L2C TOTAL     ACCESS:    2278237  HIT:     266901  MISS:    2011336
L2C LOAD      ACCESS:    1901755  HIT:     144617  MISS:    1757138
L2C RFO       ACCESS:        570  HIT:         27  MISS:        543
L2C PREFETCH  ACCESS:     375074  HIT:     121419  MISS:     253655
L2C WRITEBACK ACCESS:        838  HIT:        838  MISS:          0
L2C PREFETCH  REQUESTED:   13988821  ISSUED:   13988821  USEFUL:     325740  USELESS:     218792
LLC TOTAL     ACCESS:    3886185  HIT:    1822627  MISS:    2063558
LLC LOAD      ACCESS:    1474480  HIT:     666234  MISS:     808246
LLC RFO       ACCESS:        543  HIT:        211  MISS:        332
LLC PREFETCH  ACCESS:    2410324  HIT:    1155344  MISS:    1254980
LLC WRITEBACK ACCESS:        838  HIT:        838  MISS:          0
LLC PREFETCH  REQUESTED:          0  ISSUED:          0  USEFUL:   12305381  USELESS:   18293197
Major fault: 0 Minor fault: 861

DRAM Statistics
 CHANNEL 0
 RQ ROW_BUFFER_HIT:    7527149  ROW_BUFFER_MISS:   14928353
 DBUS_CONGESTED:   50861052
 WQ ROW_BUFFER_HIT:     538202  ROW_BUFFER_MISS:    7203818  FULL:          0

 CHANNEL 1
 RQ ROW_BUFFER_HIT:    7516099  ROW_BUFFER_MISS:   14953751
 DBUS_CONGESTED:   50861052
 WQ ROW_BUFFER_HIT:     538307  ROW_BUFFER_MISS:    7202387  FULL:          0

 AVG_CONGESTED_CYCLE: 14
