Initialize SIGNATURE TABLE
ST_SET: 1
ST_WAY: 256
ST_TAG_BIT: 16
ST_TAG_MASK: ffff

Initialize PATTERN TABLE
PT_SET: 512
PT_WAY: 4
SIG_DELTA_BIT: 7
C_SIG_BIT: 4
C_DELTA_BIT: 4

Initialize PREFETCH FILTER
FILTER_SET: 1024

*** ChampSim Multicore Out-of-Order Simulator ***

Warmup Instructions: 20000000
Simulation Instructions: 100000000
Number of CPUs: 8
LLC sets: 16384
LLC ways: 16
Off-chip DRAM Size: 8192 MB Channels: 2 Width: 64-bit Data Rate: 1600 MT/s

CPU 0 runs /scratch/user/djimenez/champsim-traces/speccpu2017/xz/605.mcf_s/605.mcf_s-665B.champsimtrace.xz
CPU 1 runs /scratch/user/djimenez/champsim-traces/speccpu2017/xz/649.fotonik3d_s/649.fotonik3d_s-1176B.champsimtrace.xz
CPU 2 runs /scratch/user/djimenez/champsim-traces/speccpu2017/xz/623.xalancbmk_s/623.xalancbmk_s-700B.champsimtrace.xz
CPU 3 runs /scratch/user/djimenez/champsim-traces/speccpu2017/xz/623.xalancbmk_s/623.xalancbmk_s-10B.champsimtrace.xz
CPU 4 runs /scratch/user/djimenez/champsim-traces/speccpu2017/xz/620.omnetpp_s/620.omnetpp_s-141B.champsimtrace.xz
CPU 5 runs /scratch/user/djimenez/champsim-traces/speccpu2017/xz/623.xalancbmk_s/623.xalancbmk_s-592B.champsimtrace.xz
CPU 6 runs /scratch/user/djimenez/champsim-traces/speccpu2017/xz/628.pop2_s/628.pop2_s-17B.champsimtrace.xz
CPU 7 runs /scratch/user/djimenez/champsim-traces/speccpu2017/xz/621.wrf_s/621.wrf_s-6673B.champsimtrace.xz
Heartbeat CPU 6 instructions: 10000002 cycles: 4129269 heartbeat IPC: 2.42174 cumulative IPC: 2.42174 (Simulation time: 0 hr 3 min 24 sec) 
Heartbeat CPU 1 instructions: 10000000 cycles: 4414871 heartbeat IPC: 2.26507 cumulative IPC: 2.26507 (Simulation time: 0 hr 3 min 39 sec) 
Heartbeat CPU 3 instructions: 10000001 cycles: 4879410 heartbeat IPC: 2.04943 cumulative IPC: 2.04943 (Simulation time: 0 hr 4 min 5 sec) 
Heartbeat CPU 5 instructions: 10000002 cycles: 5037261 heartbeat IPC: 1.98521 cumulative IPC: 1.98521 (Simulation time: 0 hr 4 min 13 sec) 
Heartbeat CPU 7 instructions: 10000001 cycles: 5377226 heartbeat IPC: 1.8597 cumulative IPC: 1.8597 (Simulation time: 0 hr 4 min 31 sec) 
Heartbeat CPU 2 instructions: 10000001 cycles: 5960672 heartbeat IPC: 1.67766 cumulative IPC: 1.67766 (Simulation time: 0 hr 5 min 2 sec) 
Heartbeat CPU 0 instructions: 10000001 cycles: 6537023 heartbeat IPC: 1.52975 cumulative IPC: 1.52975 (Simulation time: 0 hr 5 min 34 sec) 
Heartbeat CPU 4 instructions: 10000000 cycles: 7405956 heartbeat IPC: 1.35026 cumulative IPC: 1.35026 (Simulation time: 0 hr 6 min 19 sec) 
Heartbeat CPU 6 instructions: 20000000 cycles: 8261416 heartbeat IPC: 2.42005 cumulative IPC: 2.42089 (Simulation time: 0 hr 7 min 5 sec) 
Heartbeat CPU 1 instructions: 20000000 cycles: 8849964 heartbeat IPC: 2.25474 cumulative IPC: 2.2599 (Simulation time: 0 hr 7 min 36 sec) 
Heartbeat CPU 7 instructions: 20000000 cycles: 9470972 heartbeat IPC: 2.44275 cumulative IPC: 2.11172 (Simulation time: 0 hr 8 min 11 sec) 
Heartbeat CPU 3 instructions: 20000000 cycles: 9693633 heartbeat IPC: 2.07718 cumulative IPC: 2.06321 (Simulation time: 0 hr 8 min 23 sec) 
Heartbeat CPU 5 instructions: 20000000 cycles: 10155331 heartbeat IPC: 1.95386 cumulative IPC: 1.96941 (Simulation time: 0 hr 8 min 48 sec) 
Heartbeat CPU 2 instructions: 20000000 cycles: 10840735 heartbeat IPC: 2.04915 cumulative IPC: 1.84489 (Simulation time: 0 hr 9 min 25 sec) 
Heartbeat CPU 6 instructions: 30000002 cycles: 12417140 heartbeat IPC: 2.40632 cumulative IPC: 0.805339 (Simulation time: 0 hr 10 min 48 sec) 
Heartbeat CPU 0 instructions: 20000000 cycles: 13200004 heartbeat IPC: 1.50083 cumulative IPC: 1.51515 (Simulation time: 0 hr 11 min 29 sec) 
Heartbeat CPU 7 instructions: 30000000 cycles: 13233835 heartbeat IPC: 2.65755 cumulative IPC: 0.755639 (Simulation time: 0 hr 11 min 31 sec) 
Heartbeat CPU 1 instructions: 30000002 cycles: 13322897 heartbeat IPC: 2.23567 cumulative IPC: 0.750588 (Simulation time: 0 hr 11 min 35 sec) 
Heartbeat CPU 3 instructions: 30000000 cycles: 14612766 heartbeat IPC: 2.03288 cumulative IPC: 0.684333 (Simulation time: 0 hr 12 min 41 sec) 
Heartbeat CPU 4 instructions: 20000000 cycles: 14837155 heartbeat IPC: 1.34568 cumulative IPC: 1.34797 (Simulation time: 0 hr 12 min 53 sec) 

Warmup complete CPU 0 instructions: 22501623 cycles: 14837156 (Simulation time: 0 hr 12 min 53 sec) 
Warmup complete CPU 1 instructions: 33416652 cycles: 14837156 (Simulation time: 0 hr 12 min 53 sec) 
Warmup complete CPU 2 instructions: 26788059 cycles: 14837156 (Simulation time: 0 hr 12 min 53 sec) 
Warmup complete CPU 3 instructions: 30391919 cycles: 14837156 (Simulation time: 0 hr 12 min 53 sec) 
Warmup complete CPU 4 instructions: 20000002 cycles: 14837156 (Simulation time: 0 hr 12 min 53 sec) 
Warmup complete CPU 5 instructions: 27657511 cycles: 14837155 (Simulation time: 0 hr 12 min 53 sec) 
Warmup complete CPU 6 instructions: 35867040 cycles: 14837155 (Simulation time: 0 hr 12 min 53 sec) 
Warmup complete CPU 7 instructions: 34161807 cycles: 14837155 (Simulation time: 0 hr 12 min 53 sec) 

Heartbeat CPU 6 instructions: 40000000 cycles: 18899984 heartbeat IPC: 1.54253 cumulative IPC: 1.01726 (Simulation time: 0 hr 14 min 8 sec) 
Heartbeat CPU 1 instructions: 40000000 cycles: 23170115 heartbeat IPC: 1.01552 cumulative IPC: 0.790037 (Simulation time: 0 hr 15 min 24 sec) 
Heartbeat CPU 5 instructions: 30000000 cycles: 23642443 heartbeat IPC: 0.741449 cumulative IPC: 0.266032 (Simulation time: 0 hr 15 min 33 sec) 
Heartbeat CPU 7 instructions: 40000000 cycles: 23854660 heartbeat IPC: 0.941546 cumulative IPC: 0.647429 (Simulation time: 0 hr 15 min 38 sec) 
Heartbeat CPU 2 instructions: 30000001 cycles: 24969942 heartbeat IPC: 0.707754 cumulative IPC: 0.316985 (Simulation time: 0 hr 16 min 0 sec) 
Heartbeat CPU 6 instructions: 50000001 cycles: 28423896 heartbeat IPC: 1.04999 cumulative IPC: 1.0402 (Simulation time: 0 hr 17 min 10 sec) 
Heartbeat CPU 1 instructions: 50000001 cycles: 34580551 heartbeat IPC: 0.876391 cumulative IPC: 0.839944 (Simulation time: 0 hr 19 min 16 sec) 
Heartbeat CPU 7 instructions: 50000003 cycles: 34808982 heartbeat IPC: 0.912882 cumulative IPC: 0.793027 (Simulation time: 0 hr 19 min 21 sec) 
Heartbeat CPU 6 instructions: 60000000 cycles: 37664510 heartbeat IPC: 1.08218 cumulative IPC: 1.05719 (Simulation time: 0 hr 20 min 21 sec) 
Heartbeat CPU 0 instructions: 30000001 cycles: 41631416 heartbeat IPC: 0.351724 cumulative IPC: 0.27985 (Simulation time: 0 hr 21 min 46 sec) 
Heartbeat CPU 1 instructions: 60000000 cycles: 45630921 heartbeat IPC: 0.904947 cumulative IPC: 0.86327 (Simulation time: 0 hr 23 min 8 sec) 
Heartbeat CPU 7 instructions: 60000000 cycles: 46123403 heartbeat IPC: 0.883828 cumulative IPC: 0.825864 (Simulation time: 0 hr 23 min 18 sec) 
Heartbeat CPU 6 instructions: 70000002 cycles: 46689100 heartbeat IPC: 1.10808 cumulative IPC: 1.07161 (Simulation time: 0 hr 23 min 30 sec) 
Heartbeat CPU 2 instructions: 40000000 cycles: 54140269 heartbeat IPC: 0.342814 cumulative IPC: 0.336155 (Simulation time: 0 hr 26 min 5 sec) 
Heartbeat CPU 6 instructions: 80000000 cycles: 54732858 heartbeat IPC: 1.2432 cumulative IPC: 1.10621 (Simulation time: 0 hr 26 min 16 sec) 
Heartbeat CPU 5 instructions: 40000000 cycles: 54945480 heartbeat IPC: 0.319458 cumulative IPC: 0.307729 (Simulation time: 0 hr 26 min 20 sec) 
Heartbeat CPU 1 instructions: 70000000 cycles: 57375342 heartbeat IPC: 0.851468 cumulative IPC: 0.860012 (Simulation time: 0 hr 27 min 4 sec) 
Heartbeat CPU 7 instructions: 70000003 cycles: 59497521 heartbeat IPC: 0.747713 cumulative IPC: 0.802461 (Simulation time: 0 hr 27 min 47 sec) 
Heartbeat CPU 3 instructions: 40000000 cycles: 61583566 heartbeat IPC: 0.212898 cumulative IPC: 0.205536 (Simulation time: 0 hr 28 min 33 sec) 
Heartbeat CPU 6 instructions: 90000002 cycles: 65030443 heartbeat IPC: 0.971102 cumulative IPC: 1.07849 (Simulation time: 0 hr 29 min 44 sec) 
Heartbeat CPU 4 instructions: 30000003 cycles: 65370919 heartbeat IPC: 0.197888 cumulative IPC: 0.197888 (Simulation time: 0 hr 29 min 51 sec) 
Heartbeat CPU 1 instructions: 80000000 cycles: 68282805 heartbeat IPC: 0.916803 cumulative IPC: 0.871602 (Simulation time: 0 hr 30 min 50 sec) 
Heartbeat CPU 7 instructions: 80000000 cycles: 69678217 heartbeat IPC: 0.982251 cumulative IPC: 0.835837 (Simulation time: 0 hr 31 min 19 sec) 
Heartbeat CPU 6 instructions: 100000000 cycles: 74118890 heartbeat IPC: 1.1003 cumulative IPC: 1.08183 (Simulation time: 0 hr 32 min 55 sec) 
Heartbeat CPU 0 instructions: 40000000 cycles: 76682539 heartbeat IPC: 0.285298 cumulative IPC: 0.282937 (Simulation time: 0 hr 33 min 46 sec) 
Heartbeat CPU 1 instructions: 90000001 cycles: 79394098 heartbeat IPC: 0.899985 cumulative IPC: 0.876487 (Simulation time: 0 hr 34 min 42 sec) 
Heartbeat CPU 7 instructions: 90000003 cycles: 81186757 heartbeat IPC: 0.86892 cumulative IPC: 0.841575 (Simulation time: 0 hr 35 min 19 sec) 
Heartbeat CPU 2 instructions: 50000001 cycles: 81311734 heartbeat IPC: 0.368033 cumulative IPC: 0.349185 (Simulation time: 0 hr 35 min 22 sec) 
Heartbeat CPU 6 instructions: 110000001 cycles: 82845761 heartbeat IPC: 1.14589 cumulative IPC: 1.09005 (Simulation time: 0 hr 35 min 53 sec) 
Heartbeat CPU 5 instructions: 50000002 cycles: 83342325 heartbeat IPC: 0.352152 cumulative IPC: 0.326143 (Simulation time: 0 hr 36 min 3 sec) 
Heartbeat CPU 1 instructions: 100000000 cycles: 91551223 heartbeat IPC: 0.822563 cumulative IPC: 0.867942 (Simulation time: 0 hr 38 min 48 sec) 
Heartbeat CPU 6 instructions: 120000000 cycles: 92073266 heartbeat IPC: 1.08372 cumulative IPC: 1.0893 (Simulation time: 0 hr 38 min 59 sec) 
Heartbeat CPU 7 instructions: 100000000 cycles: 96582406 heartbeat IPC: 0.649534 cumulative IPC: 0.805407 (Simulation time: 0 hr 40 min 28 sec) 
Heartbeat CPU 2 instructions: 60000000 cycles: 101585906 heartbeat IPC: 0.493238 cumulative IPC: 0.382852 (Simulation time: 0 hr 42 min 15 sec) 
Heartbeat CPU 6 instructions: 130000001 cycles: 102016601 heartbeat IPC: 1.0057 cumulative IPC: 1.07976 (Simulation time: 0 hr 42 min 24 sec) 
Heartbeat CPU 1 instructions: 110000001 cycles: 102851239 heartbeat IPC: 0.884955 cumulative IPC: 0.870126 (Simulation time: 0 hr 42 min 44 sec) 
Heartbeat CPU 7 instructions: 110000001 cycles: 104634182 heartbeat IPC: 1.24196 cumulative IPC: 0.844551 (Simulation time: 0 hr 43 min 21 sec) 
Finished CPU 6 instructions: 100000000 cycles: 92779134 cumulative IPC: 1.07783 (Simulation time: 0 hr 44 min 22 sec) 
Heartbeat CPU 5 instructions: 60000000 cycles: 110023161 heartbeat IPC: 0.374801 cumulative IPC: 0.339782 (Simulation time: 0 hr 45 min 10 sec) 
Heartbeat CPU 6 instructions: 140000000 cycles: 110394240 heartbeat IPC: 1.19365 cumulative IPC: 1.08975 (Simulation time: 0 hr 45 min 17 sec) 
Heartbeat CPU 0 instructions: 50000003 cycles: 111799504 heartbeat IPC: 0.284763 cumulative IPC: 0.283599 (Simulation time: 0 hr 45 min 44 sec) 
Heartbeat CPU 7 instructions: 120000000 cycles: 113870848 heartbeat IPC: 1.08264 cumulative IPC: 0.866757 (Simulation time: 0 hr 46 min 26 sec) 
Heartbeat CPU 1 instructions: 120000000 cycles: 114022996 heartbeat IPC: 0.895114 cumulative IPC: 0.872941 (Simulation time: 0 hr 46 min 29 sec) 
Heartbeat CPU 4 instructions: 40000000 cycles: 116772001 heartbeat IPC: 0.194548 cumulative IPC: 0.196204 (Simulation time: 0 hr 47 min 25 sec) 
Heartbeat CPU 6 instructions: 150000001 cycles: 118132848 heartbeat IPC: 1.29222 cumulative IPC: 1.10492 (Simulation time: 0 hr 47 min 54 sec) 
Heartbeat CPU 3 instructions: 50000001 cycles: 119567023 heartbeat IPC: 0.172463 cumulative IPC: 0.187225 (Simulation time: 0 hr 48 min 25 sec) 
Heartbeat CPU 7 instructions: 130000001 cycles: 121280029 heartbeat IPC: 1.34968 cumulative IPC: 0.900372 (Simulation time: 0 hr 49 min 3 sec) 
Heartbeat CPU 2 instructions: 70000001 cycles: 124923218 heartbeat IPC: 0.428498 cumulative IPC: 0.392529 (Simulation time: 0 hr 50 min 15 sec) 
Heartbeat CPU 1 instructions: 130000003 cycles: 125146481 heartbeat IPC: 0.898999 cumulative IPC: 0.875568 (Simulation time: 0 hr 50 min 20 sec) 
Finished CPU 7 instructions: 100000000 cycles: 111225919 cumulative IPC: 0.899071 (Simulation time: 0 hr 50 min 54 sec) 
Heartbeat CPU 6 instructions: 160000000 cycles: 127196457 heartbeat IPC: 1.10331 cumulative IPC: 1.10479 (Simulation time: 0 hr 51 min 26 sec) 
Finished CPU 1 instructions: 100000000 cycles: 114136862 cumulative IPC: 0.876141 (Simulation time: 0 hr 52 min 2 sec) 
Heartbeat CPU 7 instructions: 140000000 cycles: 131010819 heartbeat IPC: 1.02767 cumulative IPC: 0.911034 (Simulation time: 0 hr 52 min 43 sec) 
Heartbeat CPU 5 instructions: 70000001 cycles: 135201355 heartbeat IPC: 0.397169 cumulative IPC: 0.351786 (Simulation time: 0 hr 54 min 15 sec) 
Heartbeat CPU 1 instructions: 140000000 cycles: 135799983 heartbeat IPC: 0.938658 cumulative IPC: 0.881125 (Simulation time: 0 hr 54 min 27 sec) 
Heartbeat CPU 6 instructions: 170000001 cycles: 136970810 heartbeat IPC: 1.02309 cumulative IPC: 1.09825 (Simulation time: 0 hr 54 min 51 sec) 
Heartbeat CPU 7 instructions: 150000000 cycles: 138864557 heartbeat IPC: 1.27328 cumulative IPC: 0.933973 (Simulation time: 0 hr 55 min 28 sec) 
Heartbeat CPU 0 instructions: 60000000 cycles: 145614872 heartbeat IPC: 0.295723 cumulative IPC: 0.286734 (Simulation time: 0 hr 57 min 44 sec) 
Heartbeat CPU 1 instructions: 150000001 cycles: 146610695 heartbeat IPC: 0.925009 cumulative IPC: 0.884725 (Simulation time: 0 hr 58 min 12 sec) 
Heartbeat CPU 6 instructions: 180000000 cycles: 147059226 heartbeat IPC: 0.991236 cumulative IPC: 1.09008 (Simulation time: 0 hr 58 min 23 sec) 
Heartbeat CPU 7 instructions: 160000000 cycles: 147552099 heartbeat IPC: 1.15107 cumulative IPC: 0.948184 (Simulation time: 0 hr 58 min 34 sec) 
Heartbeat CPU 5 instructions: 80000000 cycles: 154039299 heartbeat IPC: 0.530843 cumulative IPC: 0.376018 (Simulation time: 1 hr 1 min 4 sec) 
Heartbeat CPU 6 instructions: 190000002 cycles: 156254972 heartbeat IPC: 1.08746 cumulative IPC: 1.08991 (Simulation time: 1 hr 1 min 56 sec) 
Heartbeat CPU 7 instructions: 170000000 cycles: 156724265 heartbeat IPC: 1.09026 cumulative IPC: 0.957368 (Simulation time: 1 hr 2 min 8 sec) 
Heartbeat CPU 1 instructions: 160000000 cycles: 157623032 heartbeat IPC: 0.908072 cumulative IPC: 0.886526 (Simulation time: 1 hr 2 min 29 sec) 
Heartbeat CPU 2 instructions: 80000000 cycles: 158786855 heartbeat IPC: 0.295302 cumulative IPC: 0.369657 (Simulation time: 1 hr 2 min 56 sec) 
Heartbeat CPU 7 instructions: 180000000 cycles: 164329577 heartbeat IPC: 1.31487 cumulative IPC: 0.975556 (Simulation time: 1 hr 5 min 7 sec) 
Heartbeat CPU 6 instructions: 200000000 cycles: 165365329 heartbeat IPC: 1.09765 cumulative IPC: 1.09038 (Simulation time: 1 hr 5 min 32 sec) 
Heartbeat CPU 4 instructions: 50000001 cycles: 165574830 heartbeat IPC: 0.204906 cumulative IPC: 0.199021 (Simulation time: 1 hr 5 min 36 sec) 
Heartbeat CPU 3 instructions: 60000000 cycles: 168148058 heartbeat IPC: 0.205842 cumulative IPC: 0.193124 (Simulation time: 1 hr 6 min 35 sec) 
Heartbeat CPU 1 instructions: 170000003 cycles: 168353071 heartbeat IPC: 0.931963 cumulative IPC: 0.889702 (Simulation time: 1 hr 6 min 39 sec) 
Heartbeat CPU 5 instructions: 90000000 cycles: 171487041 heartbeat IPC: 0.57314 cumulative IPC: 0.397973 (Simulation time: 1 hr 7 min 47 sec) 
Heartbeat CPU 6 instructions: 210000001 cycles: 174496764 heartbeat IPC: 1.09512 cumulative IPC: 1.09065 (Simulation time: 1 hr 8 min 47 sec) 
Heartbeat CPU 7 instructions: 190000002 cycles: 177233473 heartbeat IPC: 0.77496 cumulative IPC: 0.959617 (Simulation time: 1 hr 9 min 43 sec) 
Heartbeat CPU 0 instructions: 70000000 cycles: 178665465 heartbeat IPC: 0.302566 cumulative IPC: 0.289928 (Simulation time: 1 hr 10 min 16 sec) 
Heartbeat CPU 1 instructions: 180000000 cycles: 179096768 heartbeat IPC: 0.930778 cumulative IPC: 0.892388 (Simulation time: 1 hr 10 min 26 sec) 
Heartbeat CPU 6 instructions: 220000000 cycles: 183438480 heartbeat IPC: 1.11835 cumulative IPC: 1.09212 (Simulation time: 1 hr 11 min 56 sec) 
Heartbeat CPU 2 instructions: 90000001 cycles: 187921364 heartbeat IPC: 0.343236 cumulative IPC: 0.365209 (Simulation time: 1 hr 13 min 38 sec) 
Heartbeat CPU 1 instructions: 190000001 cycles: 189627454 heartbeat IPC: 0.949606 cumulative IPC: 0.895835 (Simulation time: 1 hr 14 min 14 sec) 
Heartbeat CPU 5 instructions: 100000000 cycles: 191758109 heartbeat IPC: 0.493314 cumulative IPC: 0.408897 (Simulation time: 1 hr 14 min 59 sec) 
Heartbeat CPU 7 instructions: 200000000 cycles: 192251273 heartbeat IPC: 0.665876 cumulative IPC: 0.934752 (Simulation time: 1 hr 15 min 10 sec) 
Heartbeat CPU 6 instructions: 230000003 cycles: 192407179 heartbeat IPC: 1.11499 cumulative IPC: 1.09328 (Simulation time: 1 hr 15 min 13 sec) 
Heartbeat CPU 1 instructions: 200000000 cycles: 200198342 heartbeat IPC: 0.945994 cumulative IPC: 0.898696 (Simulation time: 1 hr 17 min 57 sec) 
Heartbeat CPU 6 instructions: 240000000 cycles: 201356465 heartbeat IPC: 1.11741 cumulative IPC: 1.09443 (Simulation time: 1 hr 18 min 21 sec) 
Heartbeat CPU 7 instructions: 210000003 cycles: 207239284 heartbeat IPC: 0.6672 cumulative IPC: 0.91391 (Simulation time: 1 hr 20 min 27 sec) 
Heartbeat CPU 6 instructions: 250000003 cycles: 210125696 heartbeat IPC: 1.14035 cumulative IPC: 1.0965 (Simulation time: 1 hr 21 min 29 sec) 
Heartbeat CPU 1 instructions: 210000003 cycles: 210845297 heartbeat IPC: 0.939236 cumulative IPC: 0.900898 (Simulation time: 1 hr 21 min 42 sec) 
Heartbeat CPU 0 instructions: 80000000 cycles: 211010047 heartbeat IPC: 0.309171 cumulative IPC: 0.293101 (Simulation time: 1 hr 21 min 46 sec) 
Heartbeat CPU 4 instructions: 60000000 cycles: 211741092 heartbeat IPC: 0.216608 cumulative IPC: 0.203145 (Simulation time: 1 hr 22 min 3 sec) 
Heartbeat CPU 3 instructions: 70000000 cycles: 212020753 heartbeat IPC: 0.227932 cumulative IPC: 0.200869 (Simulation time: 1 hr 22 min 9 sec) 
Heartbeat CPU 6 instructions: 260000000 cycles: 218119814 heartbeat IPC: 1.25092 cumulative IPC: 1.10257 (Simulation time: 1 hr 24 min 7 sec) 
Heartbeat CPU 5 instructions: 110000000 cycles: 220506021 heartbeat IPC: 0.347851 cumulative IPC: 0.400364 (Simulation time: 1 hr 24 min 50 sec) 
Heartbeat CPU 1 instructions: 220000000 cycles: 221432249 heartbeat IPC: 0.944559 cumulative IPC: 0.903135 (Simulation time: 1 hr 25 min 8 sec) 
Heartbeat CPU 2 instructions: 100000000 cycles: 221773076 heartbeat IPC: 0.295406 cumulative IPC: 0.35379 (Simulation time: 1 hr 25 min 14 sec) 
Heartbeat CPU 7 instructions: 220000000 cycles: 222387285 heartbeat IPC: 0.660153 cumulative IPC: 0.895389 (Simulation time: 1 hr 25 min 25 sec) 
Heartbeat CPU 6 instructions: 270000001 cycles: 228364913 heartbeat IPC: 0.976077 cumulative IPC: 1.0965 (Simulation time: 1 hr 27 min 25 sec) 
Heartbeat CPU 1 instructions: 230000002 cycles: 232738489 heartbeat IPC: 0.884468 cumulative IPC: 0.902167 (Simulation time: 1 hr 28 min 49 sec) 
Heartbeat CPU 7 instructions: 230000003 cycles: 233442364 heartbeat IPC: 0.904562 cumulative IPC: 0.895853 (Simulation time: 1 hr 29 min 5 sec) 
Heartbeat CPU 6 instructions: 280000000 cycles: 237975972 heartbeat IPC: 1.04047 cumulative IPC: 1.09409 (Simulation time: 1 hr 30 min 39 sec) 
Heartbeat CPU 1 instructions: 240000000 cycles: 244679774 heartbeat IPC: 0.837431 cumulative IPC: 0.898803 (Simulation time: 1 hr 32 min 51 sec) 
Heartbeat CPU 0 instructions: 90000000 cycles: 246743448 heartbeat IPC: 0.27985 cumulative IPC: 0.291059 (Simulation time: 1 hr 33 min 37 sec) 
Heartbeat CPU 7 instructions: 240000000 cycles: 247100771 heartbeat IPC: 0.73215 cumulative IPC: 0.886227 (Simulation time: 1 hr 33 min 46 sec) 
Heartbeat CPU 6 instructions: 290000000 cycles: 247271792 heartbeat IPC: 1.07575 cumulative IPC: 1.09335 (Simulation time: 1 hr 33 min 50 sec) 
Heartbeat CPU 5 instructions: 120000000 cycles: 251311899 heartbeat IPC: 0.324613 cumulative IPC: 0.390496 (Simulation time: 1 hr 35 min 18 sec) 
Heartbeat CPU 2 instructions: 110000002 cycles: 251887451 heartbeat IPC: 0.332067 cumulative IPC: 0.351031 (Simulation time: 1 hr 35 min 31 sec) 
Heartbeat CPU 7 instructions: 250000003 cycles: 255291216 heartbeat IPC: 1.22094 cumulative IPC: 0.897628 (Simulation time: 1 hr 36 min 40 sec) 
Heartbeat CPU 1 instructions: 250000000 cycles: 255745514 heartbeat IPC: 0.90369 cumulative IPC: 0.899028 (Simulation time: 1 hr 36 min 49 sec) 
Heartbeat CPU 6 instructions: 300000000 cycles: 256438164 heartbeat IPC: 1.09094 cumulative IPC: 1.09326 (Simulation time: 1 hr 37 min 4 sec) 
Heartbeat CPU 4 instructions: 70000000 cycles: 261972083 heartbeat IPC: 0.19908 cumulative IPC: 0.202319 (Simulation time: 1 hr 38 min 57 sec) 
Heartbeat CPU 7 instructions: 260000000 cycles: 263655054 heartbeat IPC: 1.19562 cumulative IPC: 0.907645 (Simulation time: 1 hr 39 min 31 sec) 
Heartbeat CPU 3 instructions: 80000000 cycles: 264079583 heartbeat IPC: 0.19209 cumulative IPC: 0.199035 (Simulation time: 1 hr 39 min 39 sec) 
Heartbeat CPU 6 instructions: 310000000 cycles: 266337442 heartbeat IPC: 1.01017 cumulative IPC: 1.08999 (Simulation time: 1 hr 40 min 27 sec) 
Heartbeat CPU 1 instructions: 260000000 cycles: 266360664 heartbeat IPC: 0.94205 cumulative IPC: 0.900844 (Simulation time: 1 hr 40 min 28 sec) 
Heartbeat CPU 7 instructions: 270000000 cycles: 272101140 heartbeat IPC: 1.18398 cumulative IPC: 0.916717 (Simulation time: 1 hr 42 min 23 sec) 
Finished CPU 5 instructions: 100000000 cycles: 257918138 cumulative IPC: 0.38772 (Simulation time: 1 hr 42 min 37 sec) 
Heartbeat CPU 6 instructions: 320000000 cycles: 275029105 heartbeat IPC: 1.15053 cumulative IPC: 1.09201 (Simulation time: 1 hr 43 min 24 sec) 
Heartbeat CPU 1 instructions: 270000000 cycles: 278118573 heartbeat IPC: 0.850491 cumulative IPC: 0.898595 (Simulation time: 1 hr 44 min 24 sec) 
Heartbeat CPU 5 instructions: 130000002 cycles: 279047605 heartbeat IPC: 0.360546 cumulative IPC: 0.387352 (Simulation time: 1 hr 44 min 41 sec) 
Heartbeat CPU 2 instructions: 120000000 cycles: 279169516 heartbeat IPC: 0.366541 cumulative IPC: 0.352632 (Simulation time: 1 hr 44 min 43 sec) 
Heartbeat CPU 0 instructions: 100000000 cycles: 279390934 heartbeat IPC: 0.306302 cumulative IPC: 0.29294 (Simulation time: 1 hr 44 min 47 sec) 
Heartbeat CPU 7 instructions: 280000000 cycles: 279652093 heartbeat IPC: 1.32434 cumulative IPC: 0.92834 (Simulation time: 1 hr 44 min 52 sec) 
Heartbeat CPU 6 instructions: 330000002 cycles: 282838998 heartbeat IPC: 1.28043 cumulative IPC: 1.0975 (Simulation time: 1 hr 45 min 54 sec) 
Heartbeat CPU 7 instructions: 290000003 cycles: 287925452 heartbeat IPC: 1.2087 cumulative IPC: 0.936833 (Simulation time: 1 hr 48 min 16 sec) 
Heartbeat CPU 1 instructions: 280000000 cycles: 290139935 heartbeat IPC: 0.831852 cumulative IPC: 0.895681 (Simulation time: 1 hr 49 min 20 sec) 
Heartbeat CPU 6 instructions: 340000000 cycles: 292029004 heartbeat IPC: 1.08814 cumulative IPC: 1.09719 (Simulation time: 1 hr 50 min 0 sec) 
Finished CPU 2 instructions: 100000003 cycles: 279216368 cumulative IPC: 0.358145 (Simulation time: 1 hr 50 min 44 sec) 
Heartbeat CPU 7 instructions: 300000000 cycles: 296623714 heartbeat IPC: 1.14965 cumulative IPC: 0.943403 (Simulation time: 1 hr 51 min 39 sec) 
Heartbeat CPU 2 instructions: 130000001 cycles: 300130343 heartbeat IPC: 0.47708 cumulative IPC: 0.361775 (Simulation time: 1 hr 52 min 54 sec) 
Heartbeat CPU 1 instructions: 290000002 cycles: 300802501 heartbeat IPC: 0.937861 cumulative IPC: 0.897253 (Simulation time: 1 hr 53 min 7 sec) 
Heartbeat CPU 6 instructions: 350000000 cycles: 301795658 heartbeat IPC: 1.02389 cumulative IPC: 1.0947 (Simulation time: 1 hr 53 min 27 sec) 
Heartbeat CPU 5 instructions: 140000000 cycles: 305220665 heartbeat IPC: 0.382072 cumulative IPC: 0.386876 (Simulation time: 1 hr 54 min 39 sec) 
Heartbeat CPU 3 instructions: 90000002 cycles: 306209446 heartbeat IPC: 0.237361 cumulative IPC: 0.204577 (Simulation time: 1 hr 55 min 1 sec) 
Heartbeat CPU 7 instructions: 310000002 cycles: 306446997 heartbeat IPC: 1.01799 cumulative IPC: 0.945915 (Simulation time: 1 hr 55 min 6 sec) 
Heartbeat CPU 4 instructions: 80000000 cycles: 309854395 heartbeat IPC: 0.208845 cumulative IPC: 0.203378 (Simulation time: 1 hr 56 min 14 sec) 
Heartbeat CPU 1 instructions: 300000000 cycles: 311468158 heartbeat IPC: 0.937589 cumulative IPC: 0.898704 (Simulation time: 1 hr 56 min 47 sec) 
Heartbeat CPU 0 instructions: 110000000 cycles: 312027642 heartbeat IPC: 0.306403 cumulative IPC: 0.294419 (Simulation time: 1 hr 56 min 58 sec) 
Heartbeat CPU 6 instructions: 360000000 cycles: 312061853 heartbeat IPC: 0.974071 cumulative IPC: 1.09053 (Simulation time: 1 hr 56 min 58 sec) 
Heartbeat CPU 7 instructions: 320000000 cycles: 319973914 heartbeat IPC: 0.739267 cumulative IPC: 0.936754 (Simulation time: 1 hr 59 min 37 sec) 
Heartbeat CPU 6 instructions: 370000001 cycles: 321177935 heartbeat IPC: 1.09696 cumulative IPC: 1.09072 (Simulation time: 2 hr 0 min 1 sec) 
Heartbeat CPU 1 instructions: 310000000 cycles: 322063526 heartbeat IPC: 0.943809 cumulative IPC: 0.900259 (Simulation time: 2 hr 0 min 19 sec) 
Heartbeat CPU 2 instructions: 140000000 cycles: 323517865 heartbeat IPC: 0.427578 cumulative IPC: 0.366761 (Simulation time: 2 hr 0 min 48 sec) 
Heartbeat CPU 5 instructions: 150000000 cycles: 327097823 heartbeat IPC: 0.457098 cumulative IPC: 0.391796 (Simulation time: 2 hr 1 min 59 sec) 
Heartbeat CPU 7 instructions: 330000002 cycles: 328635571 heartbeat IPC: 1.15451 cumulative IPC: 0.942765 (Simulation time: 2 hr 2 min 29 sec) 
Heartbeat CPU 6 instructions: 380000000 cycles: 330514201 heartbeat IPC: 1.07109 cumulative IPC: 1.09014 (Simulation time: 2 hr 3 min 7 sec) 
Heartbeat CPU 1 instructions: 320000000 cycles: 333115209 heartbeat IPC: 0.90484 cumulative IPC: 0.900418 (Simulation time: 2 hr 3 min 59 sec) 
Heartbeat CPU 7 instructions: 340000000 cycles: 337301159 heartbeat IPC: 1.15399 cumulative IPC: 0.948441 (Simulation time: 2 hr 5 min 26 sec) 
Heartbeat CPU 6 instructions: 390000003 cycles: 339747829 heartbeat IPC: 1.083 cumulative IPC: 1.08994 (Simulation time: 2 hr 6 min 15 sec) 
Heartbeat CPU 1 instructions: 330000000 cycles: 344283576 heartbeat IPC: 0.895386 cumulative IPC: 0.900248 (Simulation time: 2 hr 7 min 37 sec) 
Heartbeat CPU 5 instructions: 160000000 cycles: 344938060 heartbeat IPC: 0.560531 cumulative IPC: 0.400915 (Simulation time: 2 hr 7 min 48 sec) 
Heartbeat CPU 0 instructions: 120000000 cycles: 345066513 heartbeat IPC: 0.302674 cumulative IPC: 0.295244 (Simulation time: 2 hr 7 min 50 sec) 
Heartbeat CPU 6 instructions: 400000000 cycles: 349475820 heartbeat IPC: 1.02796 cumulative IPC: 1.08814 (Simulation time: 2 hr 9 min 12 sec) 
Heartbeat CPU 7 instructions: 350000000 cycles: 350505681 heartbeat IPC: 0.757316 cumulative IPC: 0.940923 (Simulation time: 2 hr 9 min 32 sec) 
Finished CPU 0 instructions: 100000003 cycles: 338485447 cumulative IPC: 0.295434 (Simulation time: 2 hr 10 min 25 sec) 
Heartbeat CPU 2 instructions: 150000001 cycles: 356014634 heartbeat IPC: 0.307723 cumulative IPC: 0.361137 (Simulation time: 2 hr 11 min 15 sec) 
Heartbeat CPU 1 instructions: 340000000 cycles: 356100912 heartbeat IPC: 0.846214 cumulative IPC: 0.898377 (Simulation time: 2 hr 11 min 17 sec) 
Heartbeat CPU 3 instructions: 100000000 cycles: 356615090 heartbeat IPC: 0.19839 cumulative IPC: 0.203665 (Simulation time: 2 hr 11 min 26 sec) 
Heartbeat CPU 6 instructions: 410000001 cycles: 358884746 heartbeat IPC: 1.06282 cumulative IPC: 1.08745 (Simulation time: 2 hr 12 min 11 sec) 
Heartbeat CPU 4 instructions: 90000002 cycles: 359498740 heartbeat IPC: 0.201433 cumulative IPC: 0.203098 (Simulation time: 2 hr 12 min 24 sec) 
Heartbeat CPU 7 instructions: 360000000 cycles: 361254178 heartbeat IPC: 0.930363 cumulative IPC: 0.940595 (Simulation time: 2 hr 12 min 59 sec) 
Heartbeat CPU 5 instructions: 170000000 cycles: 366611568 heartbeat IPC: 0.461393 cumulative IPC: 0.404641 (Simulation time: 2 hr 14 min 42 sec) 
Heartbeat CPU 1 instructions: 350000003 cycles: 367088930 heartbeat IPC: 0.910083 cumulative IPC: 0.898742 (Simulation time: 2 hr 14 min 51 sec) 
Heartbeat CPU 6 instructions: 420000000 cycles: 368143068 heartbeat IPC: 1.08011 cumulative IPC: 1.08725 (Simulation time: 2 hr 15 min 10 sec) 
Heartbeat CPU 7 instructions: 370000001 cycles: 372453417 heartbeat IPC: 0.892918 cumulative IPC: 0.939102 (Simulation time: 2 hr 16 min 36 sec) 
Heartbeat CPU 6 instructions: 430000003 cycles: 377289356 heartbeat IPC: 1.09334 cumulative IPC: 1.08741 (Simulation time: 2 hr 18 min 5 sec) 
Heartbeat CPU 1 instructions: 360000000 cycles: 378490035 heartbeat IPC: 0.877108 cumulative IPC: 0.898063 (Simulation time: 2 hr 18 min 28 sec) 
Heartbeat CPU 0 instructions: 130000000 cycles: 378978843 heartbeat IPC: 0.294878 cumulative IPC: 0.29521 (Simulation time: 2 hr 18 min 36 sec) 
Heartbeat CPU 2 instructions: 160000000 cycles: 385021924 heartbeat IPC: 0.344741 cumulative IPC: 0.359853 (Simulation time: 2 hr 20 min 23 sec) 
Heartbeat CPU 6 instructions: 440000000 cycles: 385306019 heartbeat IPC: 1.2474 cumulative IPC: 1.09087 (Simulation time: 2 hr 20 min 28 sec) 
Heartbeat CPU 7 instructions: 380000000 cycles: 385502647 heartbeat IPC: 0.766329 cumulative IPC: 0.93302 (Simulation time: 2 hr 20 min 32 sec) 
Heartbeat CPU 1 instructions: 370000001 cycles: 389829861 heartbeat IPC: 0.881848 cumulative IPC: 0.897573 (Simulation time: 2 hr 21 min 51 sec) 
Heartbeat CPU 7 instructions: 390000000 cycles: 395563395 heartbeat IPC: 0.993962 cumulative IPC: 0.93463 (Simulation time: 2 hr 23 min 42 sec) 
Heartbeat CPU 6 instructions: 450000000 cycles: 396068810 heartbeat IPC: 0.929127 cumulative IPC: 1.0863 (Simulation time: 2 hr 23 min 52 sec) 
Heartbeat CPU 3 instructions: 110000000 cycles: 397609925 heartbeat IPC: 0.243933 cumulative IPC: 0.207977 (Simulation time: 2 hr 24 min 21 sec) 
Heartbeat CPU 5 instructions: 180000000 cycles: 397672118 heartbeat IPC: 0.321952 cumulative IPC: 0.397933 (Simulation time: 2 hr 24 min 22 sec) 
Heartbeat CPU 1 instructions: 380000000 cycles: 400386080 heartbeat IPC: 0.947309 cumulative IPC: 0.898935 (Simulation time: 2 hr 25 min 13 sec) 
Heartbeat CPU 6 instructions: 460000000 cycles: 405236270 heartbeat IPC: 1.09081 cumulative IPC: 1.08641 (Simulation time: 2 hr 26 min 46 sec) 
Heartbeat CPU 7 instructions: 400000000 cycles: 406557849 heartbeat IPC: 0.909549 cumulative IPC: 0.933926 (Simulation time: 2 hr 27 min 12 sec) 
Heartbeat CPU 4 instructions: 100000000 cycles: 408631719 heartbeat IPC: 0.203529 cumulative IPC: 0.203152 (Simulation time: 2 hr 27 min 52 sec) 
Heartbeat CPU 1 instructions: 390000003 cycles: 412207604 heartbeat IPC: 0.845915 cumulative IPC: 0.897358 (Simulation time: 2 hr 28 min 50 sec) 
Heartbeat CPU 0 instructions: 140000000 cycles: 413577470 heartbeat IPC: 0.289029 cumulative IPC: 0.294674 (Simulation time: 2 hr 29 min 12 sec) 
Heartbeat CPU 6 instructions: 470000003 cycles: 414531338 heartbeat IPC: 1.07584 cumulative IPC: 1.08616 (Simulation time: 2 hr 29 min 29 sec) 
Heartbeat CPU 2 instructions: 170000000 cycles: 418114198 heartbeat IPC: 0.302185 cumulative IPC: 0.35512 (Simulation time: 2 hr 30 min 38 sec) 
Heartbeat CPU 7 instructions: 410000003 cycles: 419661733 heartbeat IPC: 0.763133 cumulative IPC: 0.928398 (Simulation time: 2 hr 31 min 6 sec) 
Heartbeat CPU 6 instructions: 480000000 cycles: 423414859 heartbeat IPC: 1.12568 cumulative IPC: 1.08702 (Simulation time: 2 hr 32 min 17 sec) 
Heartbeat CPU 1 instructions: 400000000 cycles: 423652949 heartbeat IPC: 0.873717 cumulative IPC: 0.896696 (Simulation time: 2 hr 32 min 21 sec) 
Heartbeat CPU 5 instructions: 190000000 cycles: 427183293 heartbeat IPC: 0.338855 cumulative IPC: 0.393704 (Simulation time: 2 hr 33 min 26 sec) 
Heartbeat CPU 7 instructions: 420000000 cycles: 430519985 heartbeat IPC: 0.920958 cumulative IPC: 0.928203 (Simulation time: 2 hr 34 min 30 sec) 
Heartbeat CPU 6 instructions: 490000000 cycles: 432911093 heartbeat IPC: 1.05305 cumulative IPC: 1.08625 (Simulation time: 2 hr 35 min 15 sec) 
Heartbeat CPU 1 instructions: 410000001 cycles: 434478347 heartbeat IPC: 0.923754 cumulative IPC: 0.897394 (Simulation time: 2 hr 35 min 43 sec) 
Heartbeat CPU 7 instructions: 430000000 cycles: 442795805 heartbeat IPC: 0.81461 cumulative IPC: 0.924945 (Simulation time: 2 hr 38 min 13 sec) 
Heartbeat CPU 6 instructions: 500000000 cycles: 442797329 heartbeat IPC: 1.01151 cumulative IPC: 1.08452 (Simulation time: 2 hr 38 min 13 sec) 
Heartbeat CPU 3 instructions: 120000000 cycles: 443737281 heartbeat IPC: 0.216791 cumulative IPC: 0.208925 (Simulation time: 2 hr 38 min 31 sec) 
Heartbeat CPU 1 instructions: 420000000 cycles: 446243051 heartbeat IPC: 0.85 cumulative IPC: 0.896101 (Simulation time: 2 hr 39 min 17 sec) 
Heartbeat CPU 0 instructions: 150000000 cycles: 448141130 heartbeat IPC: 0.289321 cumulative IPC: 0.294247 (Simulation time: 2 hr 39 min 53 sec) 
Heartbeat CPU 2 instructions: 180000000 cycles: 448783050 heartbeat IPC: 0.326064 cumulative IPC: 0.353067 (Simulation time: 2 hr 40 min 5 sec) 
Heartbeat CPU 6 instructions: 510000001 cycles: 450291744 heartbeat IPC: 1.33433 cumulative IPC: 1.08882 (Simulation time: 2 hr 40 min 33 sec) 
Heartbeat CPU 5 instructions: 200000000 cycles: 450796385 heartbeat IPC: 0.423494 cumulative IPC: 0.395318 (Simulation time: 2 hr 40 min 43 sec) 
Heartbeat CPU 7 instructions: 440000000 cycles: 453846486 heartbeat IPC: 0.904922 cumulative IPC: 0.924441 (Simulation time: 2 hr 41 min 41 sec) 
Heartbeat CPU 1 instructions: 430000002 cycles: 457391287 heartbeat IPC: 0.897003 cumulative IPC: 0.896124 (Simulation time: 2 hr 42 min 47 sec) 
Heartbeat CPU 6 instructions: 520000000 cycles: 459567881 heartbeat IPC: 1.07803 cumulative IPC: 1.0886 (Simulation time: 2 hr 43 min 25 sec) 
Heartbeat CPU 4 instructions: 110000002 cycles: 459664909 heartbeat IPC: 0.195951 cumulative IPC: 0.202326 (Simulation time: 2 hr 43 min 27 sec) 
Heartbeat CPU 7 instructions: 450000000 cycles: 465034660 heartbeat IPC: 0.893801 cumulative IPC: 0.923679 (Simulation time: 2 hr 45 min 4 sec) 
Heartbeat CPU 1 instructions: 440000000 cycles: 468555946 heartbeat IPC: 0.895683 cumulative IPC: 0.896113 (Simulation time: 2 hr 46 min 9 sec) 
Heartbeat CPU 6 instructions: 530000001 cycles: 468897419 heartbeat IPC: 1.07186 cumulative IPC: 1.08825 (Simulation time: 2 hr 46 min 15 sec) 
Heartbeat CPU 2 instructions: 190000001 cycles: 476743153 heartbeat IPC: 0.357653 cumulative IPC: 0.353345 (Simulation time: 2 hr 48 min 36 sec) 
Heartbeat CPU 7 instructions: 460000000 cycles: 478115283 heartbeat IPC: 0.76449 cumulative IPC: 0.919185 (Simulation time: 2 hr 48 min 59 sec) 
Heartbeat CPU 6 instructions: 540000000 cycles: 479534780 heartbeat IPC: 0.940083 cumulative IPC: 1.08486 (Simulation time: 2 hr 49 min 24 sec) 
Heartbeat CPU 1 instructions: 450000003 cycles: 479974721 heartbeat IPC: 0.875751 cumulative IPC: 0.895613 (Simulation time: 2 hr 49 min 32 sec) 
Heartbeat CPU 0 instructions: 160000000 cycles: 482016620 heartbeat IPC: 0.295199 cumulative IPC: 0.294316 (Simulation time: 2 hr 50 min 8 sec) 
Heartbeat CPU 5 instructions: 210000000 cycles: 483574391 heartbeat IPC: 0.305083 cumulative IPC: 0.389008 (Simulation time: 2 hr 50 min 34 sec) 
Heartbeat CPU 6 instructions: 550000003 cycles: 489030653 heartbeat IPC: 1.05309 cumulative IPC: 1.08423 (Simulation time: 2 hr 52 min 14 sec) 
Heartbeat CPU 1 instructions: 460000000 cycles: 491724777 heartbeat IPC: 0.851059 cumulative IPC: 0.894515 (Simulation time: 2 hr 53 min 2 sec) 
Heartbeat CPU 7 instructions: 470000001 cycles: 494017713 heartbeat IPC: 0.628835 cumulative IPC: 0.909549 (Simulation time: 2 hr 53 min 45 sec) 
Heartbeat CPU 6 instructions: 560000000 cycles: 498390854 heartbeat IPC: 1.06835 cumulative IPC: 1.08392 (Simulation time: 2 hr 55 min 13 sec) 
Heartbeat CPU 2 instructions: 200000000 cycles: 500374883 heartbeat IPC: 0.42316 cumulative IPC: 0.356743 (Simulation time: 2 hr 55 min 53 sec) 
Heartbeat CPU 3 instructions: 130000003 cycles: 501490082 heartbeat IPC: 0.173152 cumulative IPC: 0.20468 (Simulation time: 2 hr 56 min 16 sec) 
Finished CPU 3 instructions: 100000003 cycles: 487393324 cumulative IPC: 0.205173 (Simulation time: 2 hr 56 min 31 sec) 
Heartbeat CPU 7 instructions: 480000000 cycles: 502584326 heartbeat IPC: 1.16732 cumulative IPC: 0.914076 (Simulation time: 2 hr 56 min 38 sec) 
Heartbeat CPU 1 instructions: 470000000 cycles: 502997897 heartbeat IPC: 0.887066 cumulative IPC: 0.894343 (Simulation time: 2 hr 56 min 46 sec) 
Heartbeat CPU 6 instructions: 570000000 cycles: 507471958 heartbeat IPC: 1.10119 cumulative IPC: 1.08424 (Simulation time: 2 hr 58 min 14 sec) 
Heartbeat CPU 4 instructions: 120000000 cycles: 509895426 heartbeat IPC: 0.199082 cumulative IPC: 0.201996 (Simulation time: 2 hr 59 min 1 sec) 
Finished CPU 4 instructions: 100000000 cycles: 495058280 cumulative IPC: 0.201996 (Simulation time: 2 hr 59 min 1 sec) 

CPU 0 Branch Prediction Accuracy: 89.8562% MPKI: 19.2565

CPU 1 Branch Prediction Accuracy: 99.8859% MPKI: 0.020327

CPU 2 Branch Prediction Accuracy: 99.2602% MPKI: 1.72606

CPU 3 Branch Prediction Accuracy: 99.2557% MPKI: 1.59131

CPU 4 Branch Prediction Accuracy: 96.0991% MPKI: 5.8203

CPU 5 Branch Prediction Accuracy: 99.2753% MPKI: 1.7944

CPU 6 Branch Prediction Accuracy: 97.7608% MPKI: 3.25823

CPU 7 Branch Prediction Accuracy: 99.2845% MPKI: 0.350369

ChampSim completed all CPUs

Total Simulation Statistics (not including warmup)

CPU 0 cumulative IPC: 0.294095 instructions: 145594030 cycles: 495058280
L1D TOTAL     ACCESS:   56916043  HIT:   51223360  MISS:    5692683
L1D LOAD      ACCESS:   40805616  HIT:   35688253  MISS:    5117363
L1D RFO       ACCESS:   16110427  HIT:   15535107  MISS:     575320
L1D PREFETCH  ACCESS:          0  HIT:          0  MISS:          0
L1D WRITEBACK ACCESS:          0  HIT:          0  MISS:          0
L1I TOTAL     ACCESS:   34818049  HIT:   34818047  MISS:          2
L1I LOAD      ACCESS:   34818049  HIT:   34818047  MISS:          2
L1I RFO       ACCESS:          0  HIT:          0  MISS:          0
L1I PREFETCH  ACCESS:          0  HIT:          0  MISS:          0
L1I WRITEBACK ACCESS:          0  HIT:          0  MISS:          0
L2C TOTAL     ACCESS:    7859917  HIT:    3785483  MISS:    4074434
L2C LOAD      ACCESS:    5117326  HIT:    1749127  MISS:    3368199
L2C RFO       ACCESS:     575310  HIT:     164888  MISS:     410422
L2C PREFETCH  ACCESS:    1352341  HIT:    1057196  MISS:     295145
L2C WRITEBACK ACCESS:     814940  HIT:     814272  MISS:        668
LLC TOTAL     ACCESS:    9087490  HIT:    6805494  MISS:    2281996
LLC LOAD      ACCESS:    3313541  HIT:    2658252  MISS:     655289
LLC RFO       ACCESS:     410416  HIT:     408378  MISS:       2038
LLC PREFETCH  ACCESS:    4808601  HIT:    3184294  MISS:    1624307
LLC WRITEBACK ACCESS:     554932  HIT:     554570  MISS:        362

CPU 1 cumulative IPC: 0.894785 instructions: 442970676 cycles: 495058280
L1D TOTAL     ACCESS:   94196091  HIT:   88376469  MISS:    5819622
L1D LOAD      ACCESS:   63010210  HIT:   57199341  MISS:    5810869
L1D RFO       ACCESS:   31185881  HIT:   31177128  MISS:       8753
L1D PREFETCH  ACCESS:          0  HIT:          0  MISS:          0
L1D WRITEBACK ACCESS:          0  HIT:          0  MISS:          0
L1I TOTAL     ACCESS:   91573770  HIT:   91573493  MISS:        277
L1I LOAD      ACCESS:   91573770  HIT:   91573493  MISS:        277
L1I RFO       ACCESS:          0  HIT:          0  MISS:          0
L1I PREFETCH  ACCESS:          0  HIT:          0  MISS:          0
L1I WRITEBACK ACCESS:          0  HIT:          0  MISS:          0
L2C TOTAL     ACCESS:   13183597  HIT:    7465163  MISS:    5718434
L2C LOAD      ACCESS:    5811146  HIT:    3102696  MISS:    2708450
L2C RFO       ACCESS:       8753  HIT:       2275  MISS:       6478
L2C PREFETCH  ACCESS:    3500548  HIT:     497042  MISS:    3003506
L2C WRITEBACK ACCESS:    3863150  HIT:    3863150  MISS:          0
LLC TOTAL     ACCESS:   29636462  HIT:   25778665  MISS:    3857797
LLC LOAD      ACCESS:    2232777  HIT:    2054318  MISS:     178459
LLC RFO       ACCESS:       6478  HIT:       6439  MISS:         39
LLC PREFETCH  ACCESS:   23537071  HIT:   19858517  MISS:    3678554
LLC WRITEBACK ACCESS:    3860136  HIT:    3859391  MISS:        745

CPU 2 cumulative IPC: 0.360007 instructions: 178224220 cycles: 495058280
L1D TOTAL     ACCESS:   46782031  HIT:   37486690  MISS:    9295341
L1D LOAD      ACCESS:   33164756  HIT:   24138717  MISS:    9026039
L1D RFO       ACCESS:   13617275  HIT:   13347973  MISS:     269302
L1D PREFETCH  ACCESS:          0  HIT:          0  MISS:          0
L1D WRITEBACK ACCESS:          0  HIT:          0  MISS:          0
L1I TOTAL     ACCESS:   76866045  HIT:   76373085  MISS:     492960
L1I LOAD      ACCESS:   76866045  HIT:   76373085  MISS:     492960
L1I RFO       ACCESS:          0  HIT:          0  MISS:          0
L1I PREFETCH  ACCESS:          0  HIT:          0  MISS:          0
L1I WRITEBACK ACCESS:          0  HIT:          0  MISS:          0
L2C TOTAL     ACCESS:   14929567  HIT:   11133648  MISS:    3795919
L2C LOAD      ACCESS:    9518974  HIT:    6056082  MISS:    3462892
L2C RFO       ACCESS:     269292  HIT:      51166  MISS:     218126
L2C PREFETCH  ACCESS:    4692849  HIT:    4578001  MISS:     114848
L2C WRITEBACK ACCESS:     448452  HIT:     448399  MISS:         53
LLC TOTAL     ACCESS:   11033161  HIT:   10485556  MISS:     547605
LLC LOAD      ACCESS:    3399383  HIT:    3289159  MISS:     110224
LLC RFO       ACCESS:     218065  HIT:      31780  MISS:     186285
LLC PREFETCH  ACCESS:    7094960  HIT:    6857331  MISS:     237629
LLC WRITEBACK ACCESS:     320753  HIT:     307286  MISS:      13467

CPU 3 cumulative IPC: 0.204891 instructions: 101432859 cycles: 495058280
L1D TOTAL     ACCESS:   23637059  HIT:   20778265  MISS:    2858794
L1D LOAD      ACCESS:   18941485  HIT:   16143523  MISS:    2797962
L1D RFO       ACCESS:    4695574  HIT:    4634742  MISS:      60832
L1D PREFETCH  ACCESS:          0  HIT:          0  MISS:          0
L1D WRITEBACK ACCESS:          0  HIT:          0  MISS:          0
L1I TOTAL     ACCESS:   32516532  HIT:   32162979  MISS:     353553
L1I LOAD      ACCESS:   32516532  HIT:   32162979  MISS:     353553
L1I RFO       ACCESS:          0  HIT:          0  MISS:          0
L1I PREFETCH  ACCESS:          0  HIT:          0  MISS:          0
L1I WRITEBACK ACCESS:          0  HIT:          0  MISS:          0
L2C TOTAL     ACCESS:    3834242  HIT:    1099758  MISS:    2734484
L2C LOAD      ACCESS:    3151457  HIT:     512125  MISS:    2639332
L2C RFO       ACCESS:      60825  HIT:      28818  MISS:      32007
L2C PREFETCH  ACCESS:     496036  HIT:     433917  MISS:      62119
L2C WRITEBACK ACCESS:     125924  HIT:     124898  MISS:       1026
LLC TOTAL     ACCESS:    5212457  HIT:    1564205  MISS:    3648252
LLC LOAD      ACCESS:    2628445  HIT:     681943  MISS:    1946502
LLC RFO       ACCESS:      31988  HIT:       9204  MISS:      22784
LLC PREFETCH  ACCESS:    2497404  HIT:     818767  MISS:    1678637
LLC WRITEBACK ACCESS:      54620  HIT:      54291  MISS:        329

CPU 4 cumulative IPC: 0.201996 instructions: 100000000 cycles: 495058280
L1D TOTAL     ACCESS:   44656823  HIT:   42602138  MISS:    2054685
L1D LOAD      ACCESS:   26647299  HIT:   24841706  MISS:    1805593
L1D RFO       ACCESS:   18009524  HIT:   17760432  MISS:     249092
L1D PREFETCH  ACCESS:          0  HIT:          0  MISS:          0
L1D WRITEBACK ACCESS:          0  HIT:          0  MISS:          0
L1I TOTAL     ACCESS:   34864180  HIT:   34802031  MISS:      62149
L1I LOAD      ACCESS:   34864180  HIT:   34802031  MISS:      62149
L1I RFO       ACCESS:          0  HIT:          0  MISS:          0
L1I PREFETCH  ACCESS:          0  HIT:          0  MISS:          0
L1I WRITEBACK ACCESS:          0  HIT:          0  MISS:          0
L2C TOTAL     ACCESS:    3375777  HIT:    1818692  MISS:    1557085
L2C LOAD      ACCESS:    1867676  HIT:     560513  MISS:    1307163
L2C RFO       ACCESS:     249079  HIT:      41219  MISS:     207860
L2C PREFETCH  ACCESS:     283624  HIT:     244501  MISS:      39123
L2C WRITEBACK ACCESS:     975398  HIT:     972459  MISS:       2939
LLC TOTAL     ACCESS:    3898710  HIT:    1958314  MISS:    1940396
LLC LOAD      ACCESS:    1306384  HIT:     471030  MISS:     835354
LLC RFO       ACCESS:     207508  HIT:      83007  MISS:     124501
LLC PREFETCH  ACCESS:    1636318  HIT:     666293  MISS:     970025
LLC WRITEBACK ACCESS:     748500  HIT:     737984  MISS:      10516

CPU 5 cumulative IPC: 0.385531 instructions: 190860118 cycles: 495058281
L1D TOTAL     ACCESS:   45847540  HIT:   36096278  MISS:    9751262
L1D LOAD      ACCESS:   33092731  HIT:   23714040  MISS:    9378691
L1D RFO       ACCESS:   12754809  HIT:   12382238  MISS:     372571
L1D PREFETCH  ACCESS:          0  HIT:          0  MISS:          0
L1D WRITEBACK ACCESS:          0  HIT:          0  MISS:          0
L1I TOTAL     ACCESS:   83210230  HIT:   82751206  MISS:     459024
L1I LOAD      ACCESS:   83210230  HIT:   82751206  MISS:     459024
L1I RFO       ACCESS:          0  HIT:          0  MISS:          0
L1I PREFETCH  ACCESS:          0  HIT:          0  MISS:          0
L1I WRITEBACK ACCESS:          0  HIT:          0  MISS:          0
L2C TOTAL     ACCESS:   16745299  HIT:   12664897  MISS:    4080402
L2C LOAD      ACCESS:    9837629  HIT:    6199053  MISS:    3638576
L2C RFO       ACCESS:     372559  HIT:      60161  MISS:     312398
L2C PREFETCH  ACCESS:    5955482  HIT:    5826092  MISS:     129390
L2C WRITEBACK ACCESS:     579629  HIT:     579591  MISS:         38
LLC TOTAL     ACCESS:   11508977  HIT:   10918862  MISS:     590115
LLC LOAD      ACCESS:    3561458  HIT:    3475797  MISS:      85661
LLC RFO       ACCESS:     312332  HIT:      33797  MISS:     278535
LLC PREFETCH  ACCESS:    7226581  HIT:    7011491  MISS:     215090
LLC WRITEBACK ACCESS:     408606  HIT:     397777  MISS:      10829

CPU 6 cumulative IPC: 1.08434 instructions: 536811630 cycles: 495058281
L1D TOTAL     ACCESS:   97942394  HIT:   88916546  MISS:    9025848
L1D LOAD      ACCESS:   69715923  HIT:   63758369  MISS:    5957554
L1D RFO       ACCESS:   28226471  HIT:   25158177  MISS:    3068294
L1D PREFETCH  ACCESS:          0  HIT:          0  MISS:          0
L1D WRITEBACK ACCESS:          0  HIT:          0  MISS:          0
L1I TOTAL     ACCESS:  129965540  HIT:  129700776  MISS:     264764
L1I LOAD      ACCESS:  129965540  HIT:  129700776  MISS:     264764
L1I RFO       ACCESS:          0  HIT:          0  MISS:          0
L1I PREFETCH  ACCESS:          0  HIT:          0  MISS:          0
L1I WRITEBACK ACCESS:          0  HIT:          0  MISS:          0
L2C TOTAL     ACCESS:   25496365  HIT:   21260930  MISS:    4235435
L2C LOAD      ACCESS:    6222004  HIT:    4179257  MISS:    2042747
L2C RFO       ACCESS:    3068183  HIT:    1650423  MISS:    1417760
L2C PREFETCH  ACCESS:   12308589  HIT:   11535496  MISS:     773093
L2C WRITEBACK ACCESS:    3897589  HIT:    3895754  MISS:       1835
LLC TOTAL     ACCESS:   12708011  HIT:   10696268  MISS:    2011743
LLC LOAD      ACCESS:    1742254  HIT:    1555721  MISS:     186533
LLC RFO       ACCESS:    1417754  HIT:     696463  MISS:     721291
LLC PREFETCH  ACCESS:    7573212  HIT:    6492863  MISS:    1080349
LLC WRITEBACK ACCESS:    1974791  HIT:    1951221  MISS:      23570

CPU 7 cumulative IPC: 0.916566 instructions: 453753652 cycles: 495058281
L1D TOTAL     ACCESS:  114952347  HIT:  104639485  MISS:   10312862
L1D LOAD      ACCESS:   95200118  HIT:   86519148  MISS:    8680970
L1D RFO       ACCESS:   19752229  HIT:   18120337  MISS:    1631892
L1D PREFETCH  ACCESS:          0  HIT:          0  MISS:          0
L1D WRITEBACK ACCESS:          0  HIT:          0  MISS:          0
L1I TOTAL     ACCESS:  117982234  HIT:  117965899  MISS:      16335
L1I LOAD      ACCESS:  117982234  HIT:  117965899  MISS:      16335
L1I RFO       ACCESS:          0  HIT:          0  MISS:          0
L1I PREFETCH  ACCESS:          0  HIT:          0  MISS:          0
L1I WRITEBACK ACCESS:          0  HIT:          0  MISS:          0
L2C TOTAL     ACCESS:   25746877  HIT:   18282950  MISS:    7463927
L2C LOAD      ACCESS:    8696991  HIT:    4721363  MISS:    3975628
L2C RFO       ACCESS:    1631875  HIT:     493387  MISS:    1138488
L2C PREFETCH  ACCESS:   11741336  HIT:    9396172  MISS:    2345164
L2C WRITEBACK ACCESS:    3676675  HIT:    3672028  MISS:       4647
LLC TOTAL     ACCESS:   27023465  HIT:   21645373  MISS:    5378092
LLC LOAD      ACCESS:    3229231  HIT:    2708239  MISS:     520992
LLC RFO       ACCESS:    1138482  HIT:     183933  MISS:     954549
LLC PREFETCH  ACCESS:   19821774  HIT:   15923787  MISS:    3897987
LLC WRITEBACK ACCESS:    2833978  HIT:    2829414  MISS:       4564

Region of Interest Statistics

CPU 0 cumulative IPC: 0.295434 instructions: 100000003 cycles: 338485447
L1D TOTAL     ACCESS:   38897018  HIT:   34879709  MISS:    4017309
L1D LOAD      ACCESS:   27915130  HIT:   24290813  MISS:    3624317
L1D RFO       ACCESS:   10981888  HIT:   10588896  MISS:     392992
L1D PREFETCH  ACCESS:          0  HIT:          0  MISS:          0
L1D WRITEBACK ACCESS:          0  HIT:          0  MISS:          0
L1D PREFETCH  REQUESTED:          0  ISSUED:          0  USEFUL:          0  USELESS:          0
L1I TOTAL     ACCESS:   23871996  HIT:   23871996  MISS:          0
L1I LOAD      ACCESS:   23871996  HIT:   23871996  MISS:          0
L1I RFO       ACCESS:          0  HIT:          0  MISS:          0
L1I PREFETCH  ACCESS:          0  HIT:          0  MISS:          0
L1I WRITEBACK ACCESS:          0  HIT:          0  MISS:          0
L1I PREFETCH  REQUESTED:          0  ISSUED:          0  USEFUL:          0  USELESS:          0
L2C TOTAL     ACCESS:    5475441  HIT:    2548426  MISS:    2927015
L2C LOAD      ACCESS:    3624289  HIT:    1187523  MISS:    2436766
L2C RFO       ACCESS:     392986  HIT:     108105  MISS:     284881
L2C PREFETCH  ACCESS:     898825  HIT:     693917  MISS:     204908
L2C WRITEBACK ACCESS:     559341  HIT:     558881  MISS:        460
L2C PREFETCH  REQUESTED:   10455027  ISSUED:   10454905  USEFUL:     309412  USELESS:      48678
LLC TOTAL     ACCESS:    6403621  HIT:    4805861  MISS:    1597760
LLC LOAD      ACCESS:    2394341  HIT:    1925635  MISS:     468706
LLC RFO       ACCESS:     284876  HIT:     283723  MISS:       1153
LLC PREFETCH  ACCESS:    3338086  HIT:    2210356  MISS:    1127730
LLC WRITEBACK ACCESS:     386318  HIT:     386147  MISS:        171
LLC PREFETCH  REQUESTED:          0  ISSUED:          0  USEFUL:    5798258  USELESS:    9007754
Major fault: 0 Minor fault: 22198

CPU 1 cumulative IPC: 0.876141 instructions: 100000000 cycles: 114136862
L1D TOTAL     ACCESS:   21227591  HIT:   19904216  MISS:    1323375
L1D LOAD      ACCESS:   14210281  HIT:   12888439  MISS:    1321842
L1D RFO       ACCESS:    7017310  HIT:    7015777  MISS:       1533
L1D PREFETCH  ACCESS:          0  HIT:          0  MISS:          0
L1D WRITEBACK ACCESS:          0  HIT:          0  MISS:          0
L1D PREFETCH  REQUESTED:          0  ISSUED:          0  USEFUL:          0  USELESS:          0
L1I TOTAL     ACCESS:   20556797  HIT:   20556797  MISS:          0
L1I LOAD      ACCESS:   20556797  HIT:   20556797  MISS:          0
L1I RFO       ACCESS:          0  HIT:          0  MISS:          0
L1I PREFETCH  ACCESS:          0  HIT:          0  MISS:          0
L1I WRITEBACK ACCESS:          0  HIT:          0  MISS:          0
L1I PREFETCH  REQUESTED:          0  ISSUED:          0  USEFUL:          0  USELESS:          0
L2C TOTAL     ACCESS:    3004839  HIT:    1709997  MISS:    1294842
L2C LOAD      ACCESS:    1321842  HIT:     689374  MISS:     632468
L2C RFO       ACCESS:       1533  HIT:        325  MISS:       1208
L2C PREFETCH  ACCESS:     802972  HIT:     141806  MISS:     661166
L2C WRITEBACK ACCESS:     878492  HIT:     878492  MISS:          0
L2C PREFETCH  REQUESTED:   31921716  ISSUED:   31921710  USEFUL:    3231089  USELESS:       1263
LLC TOTAL     ACCESS:    6695212  HIT:    5817860  MISS:     877352
LLC LOAD      ACCESS:     511630  HIT:     468590  MISS:      43040
LLC RFO       ACCESS:       1208  HIT:       1208  MISS:          0
LLC PREFETCH  ACCESS:    5304680  HIT:    4470377  MISS:     834303
LLC WRITEBACK ACCESS:     877694  HIT:     877685  MISS:          9
LLC PREFETCH  REQUESTED:          0  ISSUED:          0  USEFUL:    5798258  USELESS:    9007754
Major fault: 0 Minor fault: 64982

CPU 2 cumulative IPC: 0.358145 instructions: 100000003 cycles: 279216368
L1D TOTAL     ACCESS:   26772163  HIT:   21594869  MISS:    5177294
L1D LOAD      ACCESS:   18773800  HIT:   13759558  MISS:    5014242
L1D RFO       ACCESS:    7998363  HIT:    7835311  MISS:     163052
L1D PREFETCH  ACCESS:          0  HIT:          0  MISS:          0
L1D WRITEBACK ACCESS:          0  HIT:          0  MISS:          0
L1D PREFETCH  REQUESTED:          0  ISSUED:          0  USEFUL:          0  USELESS:          0
L1I TOTAL     ACCESS:   43033771  HIT:   42740222  MISS:     293549
L1I LOAD      ACCESS:   43033771  HIT:   42740222  MISS:     293549
L1I RFO       ACCESS:          0  HIT:          0  MISS:          0
L1I PREFETCH  ACCESS:          0  HIT:          0  MISS:          0
L1I WRITEBACK ACCESS:          0  HIT:          0  MISS:          0
L1I PREFETCH  REQUESTED:          0  ISSUED:          0  USEFUL:          0  USELESS:          0
L2C TOTAL     ACCESS:    8319526  HIT:    6188052  MISS:    2131474
L2C LOAD      ACCESS:    5307775  HIT:    3371875  MISS:    1935900
L2C RFO       ACCESS:     163046  HIT:      31212  MISS:     131834
L2C PREFETCH  ACCESS:    2583529  HIT:    2519816  MISS:      63713
L2C WRITEBACK ACCESS:     265176  HIT:     265149  MISS:         27
L2C PREFETCH  REQUESTED:   16010938  ISSUED:   16009007  USEFUL:      52179  USELESS:      86143
LLC TOTAL     ACCESS:    5996566  HIT:    5692882  MISS:     303684
LLC LOAD      ACCESS:    1900468  HIT:    1841911  MISS:      58557
LLC RFO       ACCESS:     131797  HIT:      19150  MISS:     112647
LLC PREFETCH  ACCESS:    3775616  HIT:    3649953  MISS:     125663
LLC WRITEBACK ACCESS:     188685  HIT:     181868  MISS:       6817
LLC PREFETCH  REQUESTED:          0  ISSUED:          0  USEFUL:    5798258  USELESS:    9007754
Major fault: 0 Minor fault: 3667

CPU 3 cumulative IPC: 0.205173 instructions: 100000003 cycles: 487393324
L1D TOTAL     ACCESS:   23337717  HIT:   20525152  MISS:    2812565
L1D LOAD      ACCESS:   18678406  HIT:   15926482  MISS:    2751924
L1D RFO       ACCESS:    4659311  HIT:    4598670  MISS:      60641
L1D PREFETCH  ACCESS:          0  HIT:          0  MISS:          0
L1D WRITEBACK ACCESS:          0  HIT:          0  MISS:          0
L1D PREFETCH  REQUESTED:          0  ISSUED:          0  USEFUL:          0  USELESS:          0
L1I TOTAL     ACCESS:   32051644  HIT:   31699759  MISS:     351885
L1I LOAD      ACCESS:   32051644  HIT:   31699759  MISS:     351885
L1I RFO       ACCESS:          0  HIT:          0  MISS:          0
L1I PREFETCH  ACCESS:          0  HIT:          0  MISS:          0
L1I WRITEBACK ACCESS:          0  HIT:          0  MISS:          0
L1I PREFETCH  REQUESTED:          0  ISSUED:          0  USEFUL:          0  USELESS:          0
L2C TOTAL     ACCESS:    3782422  HIT:    1094897  MISS:    2687525
L2C LOAD      ACCESS:    3103751  HIT:     510387  MISS:    2593364
L2C RFO       ACCESS:      60634  HIT:      28728  MISS:      31906
L2C PREFETCH  ACCESS:     492614  HIT:     431376  MISS:      61238
L2C WRITEBACK ACCESS:     125423  HIT:     124406  MISS:       1017
L2C PREFETCH  REQUESTED:    5000108  ISSUED:    4997589  USEFUL:      37065  USELESS:      46556
LLC TOTAL     ACCESS:    5128832  HIT:    1545305  MISS:    3583527
LLC LOAD      ACCESS:    2582611  HIT:     672258  MISS:    1910353
LLC RFO       ACCESS:      31887  HIT:       9123  MISS:      22764
LLC PREFETCH  ACCESS:    2461276  HIT:     811193  MISS:    1650083
LLC WRITEBACK ACCESS:      53058  HIT:      52731  MISS:        327
LLC PREFETCH  REQUESTED:          0  ISSUED:          0  USEFUL:    5798258  USELESS:    9007754
Major fault: 0 Minor fault: 11138

CPU 4 cumulative IPC: 0.201996 instructions: 100000000 cycles: 495058280
L1D TOTAL     ACCESS:   44656823  HIT:   42602138  MISS:    2054685
L1D LOAD      ACCESS:   26647299  HIT:   24841706  MISS:    1805593
L1D RFO       ACCESS:   18009524  HIT:   17760432  MISS:     249092
L1D PREFETCH  ACCESS:          0  HIT:          0  MISS:          0
L1D WRITEBACK ACCESS:          0  HIT:          0  MISS:          0
L1D PREFETCH  REQUESTED:          0  ISSUED:          0  USEFUL:          0  USELESS:          0
L1I TOTAL     ACCESS:   34864180  HIT:   34802031  MISS:      62149
L1I LOAD      ACCESS:   34864180  HIT:   34802031  MISS:      62149
L1I RFO       ACCESS:          0  HIT:          0  MISS:          0
L1I PREFETCH  ACCESS:          0  HIT:          0  MISS:          0
L1I WRITEBACK ACCESS:          0  HIT:          0  MISS:          0
L1I PREFETCH  REQUESTED:          0  ISSUED:          0  USEFUL:          0  USELESS:          0
L2C TOTAL     ACCESS:    3375777  HIT:    1818692  MISS:    1557085
L2C LOAD      ACCESS:    1867676  HIT:     560513  MISS:    1307163
L2C RFO       ACCESS:     249079  HIT:      41219  MISS:     207860
L2C PREFETCH  ACCESS:     283624  HIT:     244501  MISS:      39123
L2C WRITEBACK ACCESS:     975398  HIT:     972459  MISS:       2939
L2C PREFETCH  REQUESTED:    2569523  ISSUED:    2569428  USEFUL:      11094  USELESS:      33954
LLC TOTAL     ACCESS:    3898710  HIT:    1958314  MISS:    1940396
LLC LOAD      ACCESS:    1306384  HIT:     471030  MISS:     835354
LLC RFO       ACCESS:     207508  HIT:      83007  MISS:     124501
LLC PREFETCH  ACCESS:    1636318  HIT:     666293  MISS:     970025
LLC WRITEBACK ACCESS:     748500  HIT:     737984  MISS:      10516
LLC PREFETCH  REQUESTED:          0  ISSUED:          0  USEFUL:    5798258  USELESS:    9007754
Major fault: 0 Minor fault: 50067

CPU 5 cumulative IPC: 0.38772 instructions: 100000000 cycles: 257918138
L1D TOTAL     ACCESS:   24141552  HIT:   19105796  MISS:    5035756
L1D LOAD      ACCESS:   17245856  HIT:   12421355  MISS:    4824501
L1D RFO       ACCESS:    6895696  HIT:    6684441  MISS:     211255
L1D PREFETCH  ACCESS:          0  HIT:          0  MISS:          0
L1D WRITEBACK ACCESS:          0  HIT:          0  MISS:          0
L1D PREFETCH  REQUESTED:          0  ISSUED:          0  USEFUL:          0  USELESS:          0
L1I TOTAL     ACCESS:   43565325  HIT:   43313694  MISS:     251631
L1I LOAD      ACCESS:   43565325  HIT:   43313694  MISS:     251631
L1I RFO       ACCESS:          0  HIT:          0  MISS:          0
L1I PREFETCH  ACCESS:          0  HIT:          0  MISS:          0
L1I WRITEBACK ACCESS:          0  HIT:          0  MISS:          0
L1I PREFETCH  REQUESTED:          0  ISSUED:          0  USEFUL:          0  USELESS:          0
L2C TOTAL     ACCESS:    8849912  HIT:    6728210  MISS:    2121702
L2C LOAD      ACCESS:    5076090  HIT:    3199240  MISS:    1876850
L2C RFO       ACCESS:     211248  HIT:      33651  MISS:     177597
L2C PREFETCH  ACCESS:    3238958  HIT:    3171726  MISS:      67232
L2C WRITEBACK ACCESS:     323616  HIT:     323593  MISS:         23
L2C PREFETCH  REQUESTED:   18239803  ISSUED:   18218717  USEFUL:      57773  USELESS:      95288
LLC TOTAL     ACCESS:    5832188  HIT:    5520825  MISS:     311363
LLC LOAD      ACCESS:    1834395  HIT:    1793916  MISS:      40479
LLC RFO       ACCESS:     177561  HIT:      17928  MISS:     159633
LLC PREFETCH  ACCESS:    3593049  HIT:    3486533  MISS:     106516
LLC WRITEBACK ACCESS:     227183  HIT:     222448  MISS:       4735
LLC PREFETCH  REQUESTED:          0  ISSUED:          0  USEFUL:    5798258  USELESS:    9007754
Major fault: 0 Minor fault: 4282

CPU 6 cumulative IPC: 1.07783 instructions: 100000000 cycles: 92779134
L1D TOTAL     ACCESS:   18463492  HIT:   16659148  MISS:    1804344
L1D LOAD      ACCESS:   13231858  HIT:   12109413  MISS:    1122445
L1D RFO       ACCESS:    5231634  HIT:    4549735  MISS:     681899
L1D PREFETCH  ACCESS:          0  HIT:          0  MISS:          0
L1D WRITEBACK ACCESS:          0  HIT:          0  MISS:          0
L1D PREFETCH  REQUESTED:          0  ISSUED:          0  USEFUL:          0  USELESS:          0
L1I TOTAL     ACCESS:   23591323  HIT:   23548545  MISS:      42778
L1I LOAD      ACCESS:   23591323  HIT:   23548545  MISS:      42778
L1I RFO       ACCESS:          0  HIT:          0  MISS:          0
L1I PREFETCH  ACCESS:          0  HIT:          0  MISS:          0
L1I WRITEBACK ACCESS:          0  HIT:          0  MISS:          0
L1I PREFETCH  REQUESTED:          0  ISSUED:          0  USEFUL:          0  USELESS:          0
L2C TOTAL     ACCESS:    5041610  HIT:    4229353  MISS:     812257
L2C LOAD      ACCESS:    1165135  HIT:     779203  MISS:     385932
L2C RFO       ACCESS:     681863  HIT:     387265  MISS:     294598
L2C PREFETCH  ACCESS:    2357727  HIT:    2226408  MISS:     131319
L2C WRITEBACK ACCESS:     836885  HIT:     836477  MISS:        408
L2C PREFETCH  REQUESTED:   28733995  ISSUED:   28279701  USEFUL:     853193  USELESS:      37092
LLC TOTAL     ACCESS:    2372395  HIT:    1952713  MISS:     419682
LLC LOAD      ACCESS:     317977  HIT:     280583  MISS:      37394
LLC RFO       ACCESS:     294597  HIT:     115848  MISS:     178749
LLC PREFETCH  ACCESS:    1359715  HIT:    1160465  MISS:     199250
LLC WRITEBACK ACCESS:     400106  HIT:     395817  MISS:       4289
LLC PREFETCH  REQUESTED:          0  ISSUED:          0  USEFUL:    5798258  USELESS:    9007754
Major fault: 0 Minor fault: 18018

CPU 7 cumulative IPC: 0.899071 instructions: 100000000 cycles: 111225919
L1D TOTAL     ACCESS:   26010118  HIT:   23159893  MISS:    2850225
L1D LOAD      ACCESS:   21188008  HIT:   18845650  MISS:    2342358
L1D RFO       ACCESS:    4822110  HIT:    4314243  MISS:     507867
L1D PREFETCH  ACCESS:          0  HIT:          0  MISS:          0
L1D WRITEBACK ACCESS:          0  HIT:          0  MISS:          0
L1D PREFETCH  REQUESTED:          0  ISSUED:          0  USEFUL:          0  USELESS:          0
L1I TOTAL     ACCESS:   23921693  HIT:   23917247  MISS:       4446
L1I LOAD      ACCESS:   23921693  HIT:   23917247  MISS:       4446
L1I RFO       ACCESS:          0  HIT:          0  MISS:          0
L1I PREFETCH  ACCESS:          0  HIT:          0  MISS:          0
L1I WRITEBACK ACCESS:          0  HIT:          0  MISS:          0
L1I PREFETCH  REQUESTED:          0  ISSUED:          0  USEFUL:          0  USELESS:          0
L2C TOTAL     ACCESS:    6968687  HIT:    4858501  MISS:    2110186
L2C LOAD      ACCESS:    2346729  HIT:    1225626  MISS:    1121103
L2C RFO       ACCESS:     507867  HIT:     145695  MISS:     362172
L2C PREFETCH  ACCESS:    3033496  HIT:    2407736  MISS:     625760
L2C WRITEBACK ACCESS:    1080595  HIT:    1079444  MISS:       1151
L2C PREFETCH  REQUESTED:   45788514  ISSUED:   42658996  USEFUL:    2536462  USELESS:      32019
LLC TOTAL     ACCESS:    7402746  HIT:    5829174  MISS:    1573572
LLC LOAD      ACCESS:     888951  HIT:     740976  MISS:     147975
LLC RFO       ACCESS:     362170  HIT:      58317  MISS:     303853
LLC PREFETCH  ACCESS:    5323873  HIT:    4203095  MISS:    1120778
LLC WRITEBACK ACCESS:     827752  HIT:     826786  MISS:        966
LLC PREFETCH  REQUESTED:          0  ISSUED:          0  USEFUL:    5798258  USELESS:    9007754
Major fault: 0 Minor fault: 11178

DRAM Statistics
 CHANNEL 0
 RQ ROW_BUFFER_HIT:    3235483  ROW_BUFFER_MISS:    6839761
 DBUS_CONGESTED:   18965266
 WQ ROW_BUFFER_HIT:     330209  ROW_BUFFER_MISS:    3705409  FULL:          0

 CHANNEL 1
 RQ ROW_BUFFER_HIT:    3241836  ROW_BUFFER_MISS:    6873844
 DBUS_CONGESTED:   18965266
 WQ ROW_BUFFER_HIT:     331036  ROW_BUFFER_MISS:    3704430  FULL:          0

 AVG_CONGESTED_CYCLE: 13
