Initialize SIGNATURE TABLE
ST_SET: 1
ST_WAY: 256
ST_TAG_BIT: 16
ST_TAG_MASK: ffff

Initialize PATTERN TABLE
PT_SET: 512
PT_WAY: 4
SIG_DELTA_BIT: 7
C_SIG_BIT: 4
C_DELTA_BIT: 4

Initialize PREFETCH FILTER
FILTER_SET: 1024

*** ChampSim Multicore Out-of-Order Simulator ***

Warmup Instructions: 20000000
Simulation Instructions: 100000000
Number of CPUs: 8
LLC sets: 16384
LLC ways: 16
Off-chip DRAM Size: 8192 MB Channels: 2 Width: 64-bit Data Rate: 1600 MT/s

CPU 0 runs /scratch/user/djimenez/champsim-traces/speccpu2017/xz/605.mcf_s/605.mcf_s-484B.champsimtrace.xz
CPU 1 runs /scratch/user/djimenez/champsim-traces/speccpu2017/xz/605.mcf_s/605.mcf_s-782B.champsimtrace.xz
CPU 2 runs /scratch/user/djimenez/champsim-traces/speccpu2017/xz/623.xalancbmk_s/623.xalancbmk_s-202B.champsimtrace.xz
CPU 3 runs /scratch/user/djimenez/champsim-traces/speccpu2017/xz/649.fotonik3d_s/649.fotonik3d_s-7084B.champsimtrace.xz
CPU 4 runs /scratch/user/djimenez/champsim-traces/speccpu2017/xz/619.lbm_s/619.lbm_s-3766B.champsimtrace.xz
CPU 5 runs /scratch/user/djimenez/champsim-traces/speccpu2017/xz/623.xalancbmk_s/623.xalancbmk_s-325B.champsimtrace.xz
CPU 6 runs /scratch/user/djimenez/champsim-traces/speccpu2017/xz/602.gcc_s/602.gcc_s-2226B.champsimtrace.xz
CPU 7 runs /scratch/user/djimenez/champsim-traces/speccpu2017/xz/619.lbm_s/619.lbm_s-2676B.champsimtrace.xz
Heartbeat CPU 3 instructions: 10000000 cycles: 4198557 heartbeat IPC: 2.38177 cumulative IPC: 2.38177 (Simulation time: 0 hr 3 min 47 sec) 
Heartbeat CPU 4 instructions: 10000000 cycles: 4501994 heartbeat IPC: 2.22124 cumulative IPC: 2.22124 (Simulation time: 0 hr 4 min 5 sec) 
Heartbeat CPU 2 instructions: 10000000 cycles: 4954550 heartbeat IPC: 2.01835 cumulative IPC: 2.01835 (Simulation time: 0 hr 4 min 30 sec) 
Heartbeat CPU 7 instructions: 10000000 cycles: 5144234 heartbeat IPC: 1.94392 cumulative IPC: 1.94392 (Simulation time: 0 hr 4 min 48 sec) 
Heartbeat CPU 5 instructions: 10000000 cycles: 6125719 heartbeat IPC: 1.63246 cumulative IPC: 1.63246 (Simulation time: 0 hr 5 min 49 sec) 
Heartbeat CPU 0 instructions: 10000000 cycles: 7032298 heartbeat IPC: 1.42201 cumulative IPC: 1.42201 (Simulation time: 0 hr 6 min 50 sec) 
Heartbeat CPU 6 instructions: 10000000 cycles: 7252477 heartbeat IPC: 1.37884 cumulative IPC: 1.37884 (Simulation time: 0 hr 7 min 4 sec) 
Heartbeat CPU 1 instructions: 10000001 cycles: 7322541 heartbeat IPC: 1.36565 cumulative IPC: 1.36565 (Simulation time: 0 hr 7 min 9 sec) 
Heartbeat CPU 3 instructions: 20000000 cycles: 8396562 heartbeat IPC: 2.38208 cumulative IPC: 2.38193 (Simulation time: 0 hr 8 min 16 sec) 
Heartbeat CPU 4 instructions: 20000000 cycles: 9085465 heartbeat IPC: 2.18175 cumulative IPC: 2.20132 (Simulation time: 0 hr 8 min 58 sec) 
Heartbeat CPU 2 instructions: 20000000 cycles: 9981522 heartbeat IPC: 1.98927 cumulative IPC: 2.0037 (Simulation time: 0 hr 9 min 46 sec) 
Heartbeat CPU 7 instructions: 20000000 cycles: 10320743 heartbeat IPC: 1.9318 cumulative IPC: 1.93784 (Simulation time: 0 hr 10 min 5 sec) 
Heartbeat CPU 5 instructions: 20000000 cycles: 12337780 heartbeat IPC: 1.60977 cumulative IPC: 1.62104 (Simulation time: 0 hr 12 min 15 sec) 
Heartbeat CPU 3 instructions: 30000000 cycles: 12586456 heartbeat IPC: 2.3867 cumulative IPC: 0.794505 (Simulation time: 0 hr 12 min 32 sec) 
Heartbeat CPU 4 instructions: 30000001 cycles: 13693808 heartbeat IPC: 2.16998 cumulative IPC: 0.730257 (Simulation time: 0 hr 13 min 42 sec) 
Heartbeat CPU 0 instructions: 20000000 cycles: 14140014 heartbeat IPC: 1.40692 cumulative IPC: 1.41443 (Simulation time: 0 hr 14 min 7 sec) 
Heartbeat CPU 1 instructions: 20000000 cycles: 14672292 heartbeat IPC: 1.36059 cumulative IPC: 1.36311 (Simulation time: 0 hr 14 min 38 sec) 
Heartbeat CPU 6 instructions: 20000000 cycles: 14758814 heartbeat IPC: 1.33221 cumulative IPC: 1.35512 (Simulation time: 0 hr 14 min 43 sec) 

Warmup complete CPU 0 instructions: 20887471 cycles: 14758815 (Simulation time: 0 hr 14 min 43 sec) 
Warmup complete CPU 1 instructions: 20124992 cycles: 14758815 (Simulation time: 0 hr 14 min 43 sec) 
Warmup complete CPU 2 instructions: 29317810 cycles: 14758815 (Simulation time: 0 hr 14 min 43 sec) 
Warmup complete CPU 3 instructions: 35187968 cycles: 14758815 (Simulation time: 0 hr 14 min 43 sec) 
Warmup complete CPU 4 instructions: 32348169 cycles: 14758815 (Simulation time: 0 hr 14 min 43 sec) 
Warmup complete CPU 5 instructions: 23771128 cycles: 14758815 (Simulation time: 0 hr 14 min 43 sec) 
Warmup complete CPU 6 instructions: 20000001 cycles: 14758815 (Simulation time: 0 hr 14 min 43 sec) 
Warmup complete CPU 7 instructions: 28608851 cycles: 14758814 (Simulation time: 0 hr 14 min 43 sec) 

Heartbeat CPU 2 instructions: 30000002 cycles: 17853879 heartbeat IPC: 1.27027 cumulative IPC: 0.220413 (Simulation time: 0 hr 15 min 49 sec) 
Heartbeat CPU 7 instructions: 30000001 cycles: 18039177 heartbeat IPC: 1.2956 cumulative IPC: 0.424084 (Simulation time: 0 hr 15 min 52 sec) 
Heartbeat CPU 3 instructions: 40000000 cycles: 20098991 heartbeat IPC: 1.33111 cumulative IPC: 0.9011 (Simulation time: 0 hr 16 min 29 sec) 
Heartbeat CPU 4 instructions: 40000000 cycles: 26924123 heartbeat IPC: 0.75584 cumulative IPC: 0.628988 (Simulation time: 0 hr 18 min 41 sec) 
Heartbeat CPU 5 instructions: 30000001 cycles: 31251806 heartbeat IPC: 0.528708 cumulative IPC: 0.377668 (Simulation time: 0 hr 20 min 0 sec) 
Heartbeat CPU 3 instructions: 50000001 cycles: 32163960 heartbeat IPC: 0.828846 cumulative IPC: 0.851015 (Simulation time: 0 hr 20 min 16 sec) 
Heartbeat CPU 4 instructions: 50000003 cycles: 42851551 heartbeat IPC: 0.627848 cumulative IPC: 0.628342 (Simulation time: 0 hr 24 min 3 sec) 
Heartbeat CPU 3 instructions: 60000000 cycles: 43252139 heartbeat IPC: 0.901861 cumulative IPC: 0.870802 (Simulation time: 0 hr 24 min 11 sec) 
Heartbeat CPU 7 instructions: 40000000 cycles: 43917548 heartbeat IPC: 0.386423 cumulative IPC: 0.39066 (Simulation time: 0 hr 24 min 25 sec) 
Heartbeat CPU 0 instructions: 30000000 cycles: 53719262 heartbeat IPC: 0.252658 cumulative IPC: 0.233892 (Simulation time: 0 hr 27 min 18 sec) 
Heartbeat CPU 3 instructions: 70000001 cycles: 54925113 heartbeat IPC: 0.85668 cumulative IPC: 0.866698 (Simulation time: 0 hr 27 min 39 sec) 
Heartbeat CPU 5 instructions: 40000000 cycles: 56425951 heartbeat IPC: 0.397233 cumulative IPC: 0.389489 (Simulation time: 0 hr 28 min 6 sec) 
Heartbeat CPU 4 instructions: 60000000 cycles: 58734840 heartbeat IPC: 0.629592 cumulative IPC: 0.628793 (Simulation time: 0 hr 28 min 45 sec) 
Heartbeat CPU 3 instructions: 80000000 cycles: 66125130 heartbeat IPC: 0.892856 cumulative IPC: 0.872401 (Simulation time: 0 hr 31 min 2 sec) 
Heartbeat CPU 7 instructions: 50000001 cycles: 68395630 heartbeat IPC: 0.408529 cumulative IPC: 0.398815 (Simulation time: 0 hr 31 min 57 sec) 
Heartbeat CPU 2 instructions: 40000000 cycles: 70252569 heartbeat IPC: 0.190844 cumulative IPC: 0.192494 (Simulation time: 0 hr 32 min 33 sec) 
Heartbeat CPU 5 instructions: 50000001 cycles: 72912594 heartbeat IPC: 0.606552 cumulative IPC: 0.451026 (Simulation time: 0 hr 33 min 33 sec) 
Heartbeat CPU 4 instructions: 70000003 cycles: 74459255 heartbeat IPC: 0.635954 cumulative IPC: 0.630679 (Simulation time: 0 hr 34 min 1 sec) 
Heartbeat CPU 3 instructions: 90000003 cycles: 77226893 heartbeat IPC: 0.900758 cumulative IPC: 0.877441 (Simulation time: 0 hr 34 min 56 sec) 
Heartbeat CPU 3 instructions: 100000000 cycles: 88306941 heartbeat IPC: 0.902523 cumulative IPC: 0.881219 (Simulation time: 0 hr 38 min 37 sec) 
Heartbeat CPU 4 instructions: 80000000 cycles: 89927282 heartbeat IPC: 0.646495 cumulative IPC: 0.633934 (Simulation time: 0 hr 39 min 10 sec) 
Heartbeat CPU 5 instructions: 60000000 cycles: 90890441 heartbeat IPC: 0.55624 cumulative IPC: 0.475872 (Simulation time: 0 hr 39 min 30 sec) 
Heartbeat CPU 7 instructions: 60000000 cycles: 91429303 heartbeat IPC: 0.434147 cumulative IPC: 0.409429 (Simulation time: 0 hr 39 min 40 sec) 
Heartbeat CPU 0 instructions: 40000000 cycles: 94571022 heartbeat IPC: 0.244787 cumulative IPC: 0.239469 (Simulation time: 0 hr 40 min 33 sec) 
Heartbeat CPU 3 instructions: 110000002 cycles: 99281768 heartbeat IPC: 0.911176 cumulative IPC: 0.885109 (Simulation time: 0 hr 41 min 55 sec) 
Heartbeat CPU 4 instructions: 90000000 cycles: 105565831 heartbeat IPC: 0.639446 cumulative IPC: 0.634883 (Simulation time: 0 hr 43 min 43 sec) 
Heartbeat CPU 3 instructions: 120000000 cycles: 110754765 heartbeat IPC: 0.871612 cumulative IPC: 0.883496 (Simulation time: 0 hr 45 min 5 sec) 
Heartbeat CPU 7 instructions: 70000000 cycles: 114062996 heartbeat IPC: 0.441819 cumulative IPC: 0.416812 (Simulation time: 0 hr 45 min 59 sec) 
Heartbeat CPU 2 instructions: 50000002 cycles: 117705330 heartbeat IPC: 0.210736 cumulative IPC: 0.200902 (Simulation time: 0 hr 46 min 56 sec) 
Heartbeat CPU 5 instructions: 70000000 cycles: 119825522 heartbeat IPC: 0.345601 cumulative IPC: 0.439995 (Simulation time: 0 hr 47 min 26 sec) 
Heartbeat CPU 4 instructions: 100000000 cycles: 121901933 heartbeat IPC: 0.612141 cumulative IPC: 0.631416 (Simulation time: 0 hr 48 min 1 sec) 
Heartbeat CPU 3 instructions: 130000001 cycles: 122518861 heartbeat IPC: 0.850044 cumulative IPC: 0.879844 (Simulation time: 0 hr 48 min 11 sec) 
Heartbeat CPU 1 instructions: 30000000 cycles: 125553284 heartbeat IPC: 0.0901868 cumulative IPC: 0.0891291 (Simulation time: 0 hr 49 min 3 sec) 
Finished CPU 3 instructions: 100000000 cycles: 113396176 cumulative IPC: 0.881864 (Simulation time: 0 hr 49 min 48 sec) 
Heartbeat CPU 3 instructions: 140000000 cycles: 133467332 heartbeat IPC: 0.913369 cumulative IPC: 0.882936 (Simulation time: 0 hr 51 min 19 sec) 
Heartbeat CPU 7 instructions: 80000000 cycles: 134932042 heartbeat IPC: 0.479179 cumulative IPC: 0.427642 (Simulation time: 0 hr 51 min 42 sec) 
Heartbeat CPU 4 instructions: 110000001 cycles: 137986953 heartbeat IPC: 0.621697 cumulative IPC: 0.630147 (Simulation time: 0 hr 52 min 36 sec) 
Heartbeat CPU 0 instructions: 50000003 cycles: 139628250 heartbeat IPC: 0.22194 cumulative IPC: 0.233144 (Simulation time: 0 hr 53 min 4 sec) 
Heartbeat CPU 3 instructions: 150000002 cycles: 144564671 heartbeat IPC: 0.901117 cumulative IPC: 0.88449 (Simulation time: 0 hr 54 min 30 sec) 
Heartbeat CPU 5 instructions: 80000000 cycles: 150325828 heartbeat IPC: 0.327866 cumulative IPC: 0.414768 (Simulation time: 0 hr 56 min 5 sec) 
Heartbeat CPU 6 instructions: 30000000 cycles: 154459431 heartbeat IPC: 0.0715816 cumulative IPC: 0.0715816 (Simulation time: 0 hr 57 min 11 sec) 
Heartbeat CPU 4 instructions: 120000000 cycles: 154672449 heartbeat IPC: 0.599323 cumulative IPC: 0.626471 (Simulation time: 0 hr 57 min 16 sec) 
Heartbeat CPU 7 instructions: 90000000 cycles: 155579620 heartbeat IPC: 0.484318 cumulative IPC: 0.435952 (Simulation time: 0 hr 57 min 34 sec) 
Heartbeat CPU 3 instructions: 160000000 cycles: 155876848 heartbeat IPC: 0.884003 cumulative IPC: 0.884451 (Simulation time: 0 hr 57 min 39 sec) 
Heartbeat CPU 3 instructions: 170000001 cycles: 167343773 heartbeat IPC: 0.872073 cumulative IPC: 0.883521 (Simulation time: 1 hr 0 min 55 sec) 
Heartbeat CPU 2 instructions: 60000000 cycles: 167663279 heartbeat IPC: 0.200168 cumulative IPC: 0.200662 (Simulation time: 1 hr 1 min 0 sec) 
Heartbeat CPU 4 instructions: 130000000 cycles: 173891980 heartbeat IPC: 0.520304 cumulative IPC: 0.613649 (Simulation time: 1 hr 2 min 44 sec) 
Heartbeat CPU 7 instructions: 100000000 cycles: 175892721 heartbeat IPC: 0.492293 cumulative IPC: 0.443055 (Simulation time: 1 hr 3 min 15 sec) 
Finished CPU 4 instructions: 100000002 cycles: 163978423 cumulative IPC: 0.609836 (Simulation time: 1 hr 4 min 0 sec) 
Heartbeat CPU 3 instructions: 180000000 cycles: 179167583 heartbeat IPC: 0.845751 cumulative IPC: 0.880805 (Simulation time: 1 hr 4 min 7 sec) 
Heartbeat CPU 5 instructions: 90000002 cycles: 179850676 heartbeat IPC: 0.338698 cumulative IPC: 0.401164 (Simulation time: 1 hr 4 min 18 sec) 
Heartbeat CPU 0 instructions: 60000000 cycles: 181277588 heartbeat IPC: 0.2401 cumulative IPC: 0.234884 (Simulation time: 1 hr 4 min 40 sec) 
Heartbeat CPU 3 instructions: 190000001 cycles: 191275267 heartbeat IPC: 0.825922 cumulative IPC: 0.87704 (Simulation time: 1 hr 7 min 18 sec) 
Heartbeat CPU 4 instructions: 140000000 cycles: 195841500 heartbeat IPC: 0.455591 cumulative IPC: 0.59449 (Simulation time: 1 hr 8 min 30 sec) 
Heartbeat CPU 7 instructions: 110000002 cycles: 196668258 heartbeat IPC: 0.481335 cumulative IPC: 0.447427 (Simulation time: 1 hr 8 min 45 sec) 
Heartbeat CPU 3 instructions: 200000000 cycles: 203051493 heartbeat IPC: 0.849168 cumulative IPC: 0.875297 (Simulation time: 1 hr 10 min 38 sec) 
Heartbeat CPU 5 instructions: 100000000 cycles: 206198599 heartbeat IPC: 0.379536 cumulative IPC: 0.398187 (Simulation time: 1 hr 11 min 39 sec) 
Heartbeat CPU 3 instructions: 210000002 cycles: 214419423 heartbeat IPC: 0.879668 cumulative IPC: 0.875546 (Simulation time: 1 hr 14 min 21 sec) 
Heartbeat CPU 7 instructions: 120000000 cycles: 215820810 heartbeat IPC: 0.522124 cumulative IPC: 0.454542 (Simulation time: 1 hr 14 min 45 sec) 
Heartbeat CPU 4 instructions: 150000001 cycles: 219831502 heartbeat IPC: 0.41684 cumulative IPC: 0.573708 (Simulation time: 1 hr 16 min 3 sec) 
Heartbeat CPU 2 instructions: 70000002 cycles: 221469835 heartbeat IPC: 0.185851 cumulative IPC: 0.196807 (Simulation time: 1 hr 16 min 32 sec) 
Heartbeat CPU 3 instructions: 220000000 cycles: 226111314 heartbeat IPC: 0.855293 cumulative IPC: 0.874426 (Simulation time: 1 hr 18 min 3 sec) 
Heartbeat CPU 5 instructions: 110000000 cycles: 229900189 heartbeat IPC: 0.421913 cumulative IPC: 0.400801 (Simulation time: 1 hr 19 min 13 sec) 
Finished CPU 7 instructions: 100000000 cycles: 217624519 cumulative IPC: 0.459507 (Simulation time: 1 hr 19 min 56 sec) 
Heartbeat CPU 7 instructions: 130000001 cycles: 234957546 heartbeat IPC: 0.522555 cumulative IPC: 0.460453 (Simulation time: 1 hr 20 min 44 sec) 
Heartbeat CPU 1 instructions: 40000000 cycles: 237001619 heartbeat IPC: 0.0897277 cumulative IPC: 0.0894293 (Simulation time: 1 hr 21 min 22 sec) 
Heartbeat CPU 3 instructions: 230000001 cycles: 238407800 heartbeat IPC: 0.813241 cumulative IPC: 0.871062 (Simulation time: 1 hr 21 min 49 sec) 
Heartbeat CPU 0 instructions: 70000002 cycles: 241877697 heartbeat IPC: 0.165016 cumulative IPC: 0.216242 (Simulation time: 1 hr 22 min 55 sec) 
Heartbeat CPU 5 instructions: 120000000 cycles: 245086724 heartbeat IPC: 0.658478 cumulative IPC: 0.417791 (Simulation time: 1 hr 24 min 0 sec) 
Heartbeat CPU 4 instructions: 160000000 cycles: 248805202 heartbeat IPC: 0.345141 cumulative IPC: 0.545413 (Simulation time: 1 hr 25 min 12 sec) 
Heartbeat CPU 3 instructions: 240000000 cycles: 249755416 heartbeat IPC: 0.881242 cumulative IPC: 0.871553 (Simulation time: 1 hr 25 min 31 sec) 
Finished CPU 5 instructions: 100000001 cycles: 237002506 cumulative IPC: 0.421936 (Simulation time: 1 hr 26 min 14 sec) 
Heartbeat CPU 7 instructions: 140000000 cycles: 253551178 heartbeat IPC: 0.537818 cumulative IPC: 0.466477 (Simulation time: 1 hr 26 min 50 sec) 
Heartbeat CPU 3 instructions: 250000000 cycles: 260711773 heartbeat IPC: 0.912712 cumulative IPC: 0.873387 (Simulation time: 1 hr 29 min 12 sec) 
Heartbeat CPU 5 instructions: 130000000 cycles: 266989923 heartbeat IPC: 0.456554 cumulative IPC: 0.421157 (Simulation time: 1 hr 30 min 52 sec) 
Heartbeat CPU 7 instructions: 150000001 cycles: 271554349 heartbeat IPC: 0.555458 cumulative IPC: 0.472715 (Simulation time: 1 hr 32 min 5 sec) 
Heartbeat CPU 3 instructions: 260000000 cycles: 272491289 heartbeat IPC: 0.848931 cumulative IPC: 0.872269 (Simulation time: 1 hr 32 min 20 sec) 
Heartbeat CPU 2 instructions: 80000000 cycles: 275006218 heartbeat IPC: 0.186789 cumulative IPC: 0.194746 (Simulation time: 1 hr 33 min 2 sec) 
Heartbeat CPU 4 instructions: 170000002 cycles: 283031246 heartbeat IPC: 0.292175 cumulative IPC: 0.513105 (Simulation time: 1 hr 35 min 10 sec) 
Heartbeat CPU 3 instructions: 270000000 cycles: 284634622 heartbeat IPC: 0.823497 cumulative IPC: 0.870074 (Simulation time: 1 hr 35 min 35 sec) 
Heartbeat CPU 7 instructions: 160000000 cycles: 289739941 heartbeat IPC: 0.549886 cumulative IPC: 0.477819 (Simulation time: 1 hr 36 min 58 sec) 
Heartbeat CPU 5 instructions: 140000000 cycles: 296216557 heartbeat IPC: 0.342154 cumulative IPC: 0.412953 (Simulation time: 1 hr 38 min 43 sec) 
Heartbeat CPU 3 instructions: 280000000 cycles: 296982065 heartbeat IPC: 0.809884 cumulative IPC: 0.867441 (Simulation time: 1 hr 38 min 56 sec) 
Heartbeat CPU 0 instructions: 80000000 cycles: 299905570 heartbeat IPC: 0.172331 cumulative IPC: 0.207306 (Simulation time: 1 hr 39 min 47 sec) 
Heartbeat CPU 6 instructions: 40000000 cycles: 304242232 heartbeat IPC: 0.0667633 cumulative IPC: 0.0690886 (Simulation time: 1 hr 41 min 3 sec) 
Heartbeat CPU 7 instructions: 170000002 cycles: 307559800 heartbeat IPC: 0.561172 cumulative IPC: 0.482892 (Simulation time: 1 hr 42 min 1 sec) 
Heartbeat CPU 3 instructions: 290000001 cycles: 308694673 heartbeat IPC: 0.853781 cumulative IPC: 0.866897 (Simulation time: 1 hr 42 min 20 sec) 
Heartbeat CPU 4 instructions: 180000000 cycles: 320242338 heartbeat IPC: 0.268737 cumulative IPC: 0.483338 (Simulation time: 1 hr 45 min 27 sec) 
Heartbeat CPU 3 instructions: 300000000 cycles: 320940442 heartbeat IPC: 0.816608 cumulative IPC: 0.864885 (Simulation time: 1 hr 45 min 37 sec) 
Heartbeat CPU 5 instructions: 150000000 cycles: 322447376 heartbeat IPC: 0.381231 cumulative IPC: 0.410249 (Simulation time: 1 hr 46 min 0 sec) 
Heartbeat CPU 7 instructions: 180000000 cycles: 326074239 heartbeat IPC: 0.540119 cumulative IPC: 0.486295 (Simulation time: 1 hr 46 min 56 sec) 
Heartbeat CPU 2 instructions: 90000000 cycles: 332019044 heartbeat IPC: 0.175399 cumulative IPC: 0.191269 (Simulation time: 1 hr 48 min 31 sec) 
Heartbeat CPU 3 instructions: 310000003 cycles: 333818688 heartbeat IPC: 0.776504 cumulative IPC: 0.861318 (Simulation time: 1 hr 49 min 1 sec) 
Heartbeat CPU 5 instructions: 160000000 cycles: 340822680 heartbeat IPC: 0.544209 cumulative IPC: 0.417798 (Simulation time: 1 hr 51 min 29 sec) 
Heartbeat CPU 7 instructions: 190000002 cycles: 343314027 heartbeat IPC: 0.580054 cumulative IPC: 0.491215 (Simulation time: 1 hr 52 min 12 sec) 
Heartbeat CPU 3 instructions: 320000000 cycles: 345130692 heartbeat IPC: 0.884016 cumulative IPC: 0.862095 (Simulation time: 1 hr 52 min 42 sec) 
Heartbeat CPU 0 instructions: 90000000 cycles: 352137283 heartbeat IPC: 0.191455 cumulative IPC: 0.204852 (Simulation time: 1 hr 54 min 35 sec) 
Heartbeat CPU 1 instructions: 50000000 cycles: 356204952 heartbeat IPC: 0.0838903 cumulative IPC: 0.0874955 (Simulation time: 1 hr 55 min 39 sec) 
Heartbeat CPU 3 instructions: 330000001 cycles: 356664222 heartbeat IPC: 0.867037 cumulative IPC: 0.862262 (Simulation time: 1 hr 55 min 46 sec) 
Heartbeat CPU 4 instructions: 190000000 cycles: 358778377 heartbeat IPC: 0.259497 cumulative IPC: 0.458264 (Simulation time: 1 hr 56 min 19 sec) 
Heartbeat CPU 7 instructions: 200000000 cycles: 360358009 heartbeat IPC: 0.586717 cumulative IPC: 0.495925 (Simulation time: 1 hr 56 min 45 sec) 
Heartbeat CPU 5 instructions: 170000000 cycles: 365067396 heartbeat IPC: 0.412461 cumulative IPC: 0.417429 (Simulation time: 1 hr 57 min 55 sec) 
Heartbeat CPU 3 instructions: 340000000 cycles: 368866258 heartbeat IPC: 0.819535 cumulative IPC: 0.86079 (Simulation time: 1 hr 58 min 53 sec) 
Heartbeat CPU 7 instructions: 210000002 cycles: 377811986 heartbeat IPC: 0.572935 cumulative IPC: 0.499627 (Simulation time: 2 hr 1 min 10 sec) 
Heartbeat CPU 3 instructions: 350000003 cycles: 380757889 heartbeat IPC: 0.840928 cumulative IPC: 0.860144 (Simulation time: 2 hr 1 min 59 sec) 
Heartbeat CPU 2 instructions: 100000000 cycles: 387404227 heartbeat IPC: 0.180554 cumulative IPC: 0.189677 (Simulation time: 2 hr 3 min 49 sec) 
Heartbeat CPU 3 instructions: 360000000 cycles: 392228762 heartbeat IPC: 0.871773 cumulative IPC: 0.860498 (Simulation time: 2 hr 5 min 11 sec) 
Heartbeat CPU 5 instructions: 180000000 cycles: 392854254 heartbeat IPC: 0.359882 cumulative IPC: 0.4132 (Simulation time: 2 hr 5 min 22 sec) 
Heartbeat CPU 0 instructions: 100000000 cycles: 394251620 heartbeat IPC: 0.237449 cumulative IPC: 0.208469 (Simulation time: 2 hr 5 min 47 sec) 
Heartbeat CPU 7 instructions: 220000000 cycles: 394273666 heartbeat IPC: 0.607471 cumulative IPC: 0.504305 (Simulation time: 2 hr 5 min 47 sec) 
Heartbeat CPU 4 instructions: 200000000 cycles: 394325762 heartbeat IPC: 0.281315 cumulative IPC: 0.441692 (Simulation time: 2 hr 5 min 48 sec) 
Heartbeat CPU 3 instructions: 370000002 cycles: 404503866 heartbeat IPC: 0.814657 cumulative IPC: 0.859054 (Simulation time: 2 hr 8 min 28 sec) 
Heartbeat CPU 7 instructions: 230000001 cycles: 411808322 heartbeat IPC: 0.570299 cumulative IPC: 0.507219 (Simulation time: 2 hr 10 min 22 sec) 
Heartbeat CPU 5 instructions: 190000001 cycles: 415772408 heartbeat IPC: 0.436335 cumulative IPC: 0.414522 (Simulation time: 2 hr 11 min 27 sec) 
Heartbeat CPU 3 instructions: 380000000 cycles: 416407041 heartbeat IPC: 0.840112 cumulative IPC: 0.858493 (Simulation time: 2 hr 11 min 37 sec) 
Heartbeat CPU 3 instructions: 390000001 cycles: 427979542 heartbeat IPC: 0.864118 cumulative IPC: 0.85865 (Simulation time: 2 hr 14 min 50 sec) 
Heartbeat CPU 7 instructions: 240000000 cycles: 428195338 heartbeat IPC: 0.610239 cumulative IPC: 0.511303 (Simulation time: 2 hr 14 min 54 sec) 
Heartbeat CPU 4 instructions: 210000002 cycles: 428260807 heartbeat IPC: 0.294681 cumulative IPC: 0.429628 (Simulation time: 2 hr 14 min 55 sec) 
Heartbeat CPU 0 instructions: 110000002 cycles: 438898924 heartbeat IPC: 0.223978 cumulative IPC: 0.210102 (Simulation time: 2 hr 17 min 45 sec) 
Heartbeat CPU 3 instructions: 400000000 cycles: 439847052 heartbeat IPC: 0.842637 cumulative IPC: 0.858203 (Simulation time: 2 hr 18 min 1 sec) 
Heartbeat CPU 2 instructions: 110000002 cycles: 442097607 heartbeat IPC: 0.182838 cumulative IPC: 0.188801 (Simulation time: 2 hr 18 min 40 sec) 
Heartbeat CPU 5 instructions: 200000000 cycles: 444542889 heartbeat IPC: 0.347578 cumulative IPC: 0.41004 (Simulation time: 2 hr 19 min 20 sec) 
Heartbeat CPU 7 instructions: 250000002 cycles: 444968926 heartbeat IPC: 0.596175 cumulative IPC: 0.514612 (Simulation time: 2 hr 19 min 27 sec) 
Heartbeat CPU 3 instructions: 410000001 cycles: 451263597 heartbeat IPC: 0.875922 cumulative IPC: 0.858666 (Simulation time: 2 hr 21 min 12 sec) 
Heartbeat CPU 4 instructions: 220000000 cycles: 459154627 heartbeat IPC: 0.323689 cumulative IPC: 0.422263 (Simulation time: 2 hr 23 min 25 sec) 
Heartbeat CPU 6 instructions: 50000003 cycles: 460077500 heartbeat IPC: 0.0641703 cumulative IPC: 0.0673675 (Simulation time: 2 hr 23 min 40 sec) 
Heartbeat CPU 7 instructions: 260000000 cycles: 461566641 heartbeat IPC: 0.602492 cumulative IPC: 0.517876 (Simulation time: 2 hr 24 min 4 sec) 
Heartbeat CPU 3 instructions: 420000000 cycles: 463007983 heartbeat IPC: 0.851471 cumulative IPC: 0.858478 (Simulation time: 2 hr 24 min 30 sec) 
Heartbeat CPU 1 instructions: 60000000 cycles: 463734844 heartbeat IPC: 0.0929974 cumulative IPC: 0.0888132 (Simulation time: 2 hr 24 min 43 sec) 
Heartbeat CPU 5 instructions: 210000003 cycles: 470733404 heartbeat IPC: 0.381818 cumulative IPC: 0.408419 (Simulation time: 2 hr 26 min 46 sec) 
Heartbeat CPU 0 instructions: 120000000 cycles: 472758491 heartbeat IPC: 0.295337 cumulative IPC: 0.216403 (Simulation time: 2 hr 27 min 22 sec) 
Heartbeat CPU 3 instructions: 430000000 cycles: 474425079 heartbeat IPC: 0.875879 cumulative IPC: 0.85891 (Simulation time: 2 hr 27 min 51 sec) 
Finished CPU 0 instructions: 100000001 cycles: 461067119 cumulative IPC: 0.216888 (Simulation time: 2 hr 28 min 15 sec) 
Heartbeat CPU 7 instructions: 270000002 cycles: 477601075 heartbeat IPC: 0.623658 cumulative IPC: 0.521541 (Simulation time: 2 hr 28 min 46 sec) 
Heartbeat CPU 3 instructions: 440000000 cycles: 486049755 heartbeat IPC: 0.860239 cumulative IPC: 0.858943 (Simulation time: 2 hr 31 min 7 sec) 
Heartbeat CPU 4 instructions: 230000003 cycles: 489297326 heartbeat IPC: 0.331755 cumulative IPC: 0.416514 (Simulation time: 2 hr 31 min 58 sec) 
Heartbeat CPU 2 instructions: 120000000 cycles: 493887545 heartbeat IPC: 0.193088 cumulative IPC: 0.189265 (Simulation time: 2 hr 33 min 16 sec) 
Heartbeat CPU 7 instructions: 280000000 cycles: 494002982 heartbeat IPC: 0.609685 cumulative IPC: 0.524558 (Simulation time: 2 hr 33 min 18 sec) 
Heartbeat CPU 5 instructions: 220000000 cycles: 495404571 heartbeat IPC: 0.405331 cumulative IPC: 0.408261 (Simulation time: 2 hr 33 min 42 sec) 
Heartbeat CPU 3 instructions: 450000002 cycles: 497705588 heartbeat IPC: 0.85794 cumulative IPC: 0.858919 (Simulation time: 2 hr 34 min 21 sec) 
Heartbeat CPU 0 instructions: 130000000 cycles: 508121086 heartbeat IPC: 0.282785 cumulative IPC: 0.221161 (Simulation time: 2 hr 37 min 20 sec) 
Heartbeat CPU 3 instructions: 460000000 cycles: 509128054 heartbeat IPC: 0.875468 cumulative IPC: 0.859301 (Simulation time: 2 hr 37 min 38 sec) 
Heartbeat CPU 7 instructions: 290000000 cycles: 509978313 heartbeat IPC: 0.625965 cumulative IPC: 0.527829 (Simulation time: 2 hr 37 min 52 sec) 
Heartbeat CPU 5 instructions: 230000001 cycles: 512967474 heartbeat IPC: 0.569382 cumulative IPC: 0.413941 (Simulation time: 2 hr 38 min 40 sec) 
Heartbeat CPU 4 instructions: 240000000 cycles: 518136166 heartbeat IPC: 0.346754 cumulative IPC: 0.412517 (Simulation time: 2 hr 40 min 4 sec) 
Heartbeat CPU 3 instructions: 470000002 cycles: 521159909 heartbeat IPC: 0.831127 cumulative IPC: 0.858632 (Simulation time: 2 hr 40 min 52 sec) 
Heartbeat CPU 7 instructions: 300000000 cycles: 526748513 heartbeat IPC: 0.596296 cumulative IPC: 0.530071 (Simulation time: 2 hr 42 min 22 sec) 
Heartbeat CPU 5 instructions: 240000000 cycles: 528428343 heartbeat IPC: 0.646794 cumulative IPC: 0.420949 (Simulation time: 2 hr 42 min 52 sec) 
Heartbeat CPU 3 instructions: 480000000 cycles: 532646219 heartbeat IPC: 0.870601 cumulative IPC: 0.858897 (Simulation time: 2 hr 44 min 5 sec) 
Finished CPU 2 instructions: 100000002 cycles: 526423225 cumulative IPC: 0.189961 (Simulation time: 2 hr 46 min 31 sec) 
Heartbeat CPU 7 instructions: 310000002 cycles: 542127935 heartbeat IPC: 0.65022 cumulative IPC: 0.533575 (Simulation time: 2 hr 46 min 46 sec) 
Heartbeat CPU 3 instructions: 490000003 cycles: 543729225 heartbeat IPC: 0.902283 cumulative IPC: 0.859806 (Simulation time: 2 hr 47 min 13 sec) 
Heartbeat CPU 2 instructions: 130000001 cycles: 544763057 heartbeat IPC: 0.196558 cumulative IPC: 0.189965 (Simulation time: 2 hr 47 min 29 sec) 
Heartbeat CPU 4 instructions: 250000001 cycles: 546786747 heartbeat IPC: 0.349033 cumulative IPC: 0.409099 (Simulation time: 2 hr 48 min 0 sec) 
Heartbeat CPU 5 instructions: 250000001 cycles: 549328176 heartbeat IPC: 0.478473 cumulative IPC: 0.423198 (Simulation time: 2 hr 48 min 36 sec) 
Heartbeat CPU 0 instructions: 140000000 cycles: 553196039 heartbeat IPC: 0.221853 cumulative IPC: 0.221219 (Simulation time: 2 hr 49 min 35 sec) 
Heartbeat CPU 3 instructions: 500000000 cycles: 555327141 heartbeat IPC: 0.862224 cumulative IPC: 0.859858 (Simulation time: 2 hr 50 min 10 sec) 
Heartbeat CPU 7 instructions: 320000000 cycles: 558355497 heartbeat IPC: 0.616235 cumulative IPC: 0.536043 (Simulation time: 2 hr 51 min 1 sec) 
Heartbeat CPU 3 instructions: 510000002 cycles: 566592869 heartbeat IPC: 0.887648 cumulative IPC: 0.860425 (Simulation time: 2 hr 53 min 13 sec) 
Heartbeat CPU 1 instructions: 70000001 cycles: 569050240 heartbeat IPC: 0.0949529 cumulative IPC: 0.0899798 (Simulation time: 2 hr 53 min 52 sec) 
Heartbeat CPU 7 instructions: 330000003 cycles: 574245797 heartbeat IPC: 0.629315 cumulative IPC: 0.538692 (Simulation time: 2 hr 55 min 14 sec) 
Heartbeat CPU 4 instructions: 260000000 cycles: 575702682 heartbeat IPC: 0.34583 cumulative IPC: 0.405837 (Simulation time: 2 hr 55 min 36 sec) 
Heartbeat CPU 3 instructions: 520000000 cycles: 578305669 heartbeat IPC: 0.853767 cumulative IPC: 0.860287 (Simulation time: 2 hr 56 min 16 sec) 
Heartbeat CPU 5 instructions: 260000000 cycles: 580000304 heartbeat IPC: 0.326029 cumulative IPC: 0.417926 (Simulation time: 2 hr 56 min 44 sec) 
Heartbeat CPU 0 instructions: 150000000 cycles: 587212792 heartbeat IPC: 0.293973 cumulative IPC: 0.225542 (Simulation time: 2 hr 58 min 44 sec) 
Heartbeat CPU 3 instructions: 530000001 cycles: 589489392 heartbeat IPC: 0.894157 cumulative IPC: 0.860946 (Simulation time: 2 hr 59 min 21 sec) 
Heartbeat CPU 7 instructions: 340000000 cycles: 590211312 heartbeat IPC: 0.62635 cumulative IPC: 0.541124 (Simulation time: 2 hr 59 min 33 sec) 
Heartbeat CPU 2 instructions: 140000000 cycles: 597720730 heartbeat IPC: 0.18883 cumulative IPC: 0.189862 (Simulation time: 3 hr 1 min 36 sec) 
Heartbeat CPU 3 instructions: 540000000 cycles: 600928801 heartbeat IPC: 0.874171 cumulative IPC: 0.861204 (Simulation time: 3 hr 2 min 24 sec) 
Heartbeat CPU 4 instructions: 270000000 cycles: 603560882 heartbeat IPC: 0.358961 cumulative IPC: 0.403619 (Simulation time: 3 hr 3 min 3 sec) 
Heartbeat CPU 7 instructions: 350000000 cycles: 606303409 heartbeat IPC: 0.621423 cumulative IPC: 0.543308 (Simulation time: 3 hr 3 min 46 sec) 
Heartbeat CPU 5 instructions: 270000001 cycles: 606697071 heartbeat IPC: 0.374577 cumulative IPC: 0.415971 (Simulation time: 3 hr 3 min 53 sec) 
Heartbeat CPU 6 instructions: 60000000 cycles: 608591331 heartbeat IPC: 0.0673338 cumulative IPC: 0.0673591 (Simulation time: 3 hr 4 min 22 sec) 
Heartbeat CPU 3 instructions: 550000003 cycles: 612357912 heartbeat IPC: 0.874959 cumulative IPC: 0.861467 (Simulation time: 3 hr 5 min 24 sec) 
Heartbeat CPU 7 instructions: 360000000 cycles: 622130666 heartbeat IPC: 0.631821 cumulative IPC: 0.545615 (Simulation time: 3 hr 8 min 1 sec) 
Heartbeat CPU 3 instructions: 560000000 cycles: 623565299 heartbeat IPC: 0.892268 cumulative IPC: 0.862034 (Simulation time: 3 hr 8 min 24 sec) 
Heartbeat CPU 0 instructions: 160000000 cycles: 627303825 heartbeat IPC: 0.249432 cumulative IPC: 0.227106 (Simulation time: 3 hr 9 min 24 sec) 
Heartbeat CPU 4 instructions: 280000000 cycles: 631186756 heartbeat IPC: 0.361979 cumulative IPC: 0.401753 (Simulation time: 3 hr 10 min 26 sec) 
Heartbeat CPU 5 instructions: 280000000 cycles: 634896456 heartbeat IPC: 0.354618 cumulative IPC: 0.413181 (Simulation time: 3 hr 11 min 22 sec) 
Heartbeat CPU 3 instructions: 570000001 cycles: 635163345 heartbeat IPC: 0.862214 cumulative IPC: 0.862038 (Simulation time: 3 hr 11 min 26 sec) 
Heartbeat CPU 7 instructions: 370000002 cycles: 638380386 heartbeat IPC: 0.615395 cumulative IPC: 0.547433 (Simulation time: 3 hr 12 min 15 sec) 
Heartbeat CPU 3 instructions: 580000000 cycles: 647430797 heartbeat IPC: 0.815165 cumulative IPC: 0.861129 (Simulation time: 3 hr 14 min 35 sec) 
Heartbeat CPU 2 instructions: 150000000 cycles: 651000207 heartbeat IPC: 0.18769 cumulative IPC: 0.18968 (Simulation time: 3 hr 15 min 34 sec) 
Heartbeat CPU 7 instructions: 380000000 cycles: 654642584 heartbeat IPC: 0.614923 cumulative IPC: 0.549148 (Simulation time: 3 hr 16 min 32 sec) 
Heartbeat CPU 5 instructions: 290000000 cycles: 658568887 heartbeat IPC: 0.422432 cumulative IPC: 0.413521 (Simulation time: 3 hr 17 min 36 sec) 
Heartbeat CPU 3 instructions: 590000002 cycles: 658623317 heartbeat IPC: 0.893454 cumulative IPC: 0.861691 (Simulation time: 3 hr 17 min 37 sec) 
Heartbeat CPU 4 instructions: 290000002 cycles: 659904040 heartbeat IPC: 0.348222 cumulative IPC: 0.39937 (Simulation time: 3 hr 17 min 58 sec) 
Heartbeat CPU 3 instructions: 600000000 cycles: 670244681 heartbeat IPC: 0.860484 cumulative IPC: 0.861669 (Simulation time: 3 hr 20 min 41 sec) 
Heartbeat CPU 7 instructions: 390000001 cycles: 670874164 heartbeat IPC: 0.616083 cumulative IPC: 0.550804 (Simulation time: 3 hr 20 min 51 sec) 
Heartbeat CPU 1 instructions: 80000000 cycles: 673987517 heartbeat IPC: 0.095295 cumulative IPC: 0.0908258 (Simulation time: 3 hr 21 min 39 sec) 
Heartbeat CPU 0 instructions: 170000000 cycles: 674617429 heartbeat IPC: 0.211356 cumulative IPC: 0.225976 (Simulation time: 3 hr 21 min 49 sec) 
Heartbeat CPU 3 instructions: 610000003 cycles: 681791065 heartbeat IPC: 0.866072 cumulative IPC: 0.861745 (Simulation time: 3 hr 23 min 47 sec) 
Heartbeat CPU 7 instructions: 400000000 cycles: 686632384 heartbeat IPC: 0.634589 cumulative IPC: 0.552769 (Simulation time: 3 hr 25 min 6 sec) 
Heartbeat CPU 5 instructions: 300000000 cycles: 687105485 heartbeat IPC: 0.350427 cumulative IPC: 0.410843 (Simulation time: 3 hr 25 min 13 sec) 
Heartbeat CPU 4 instructions: 300000000 cycles: 688893450 heartbeat IPC: 0.344953 cumulative IPC: 0.39703 (Simulation time: 3 hr 25 min 42 sec) 
Heartbeat CPU 3 instructions: 620000000 cycles: 693167377 heartbeat IPC: 0.879019 cumulative IPC: 0.862035 (Simulation time: 3 hr 26 min 49 sec) 
Heartbeat CPU 2 instructions: 160000000 cycles: 703131202 heartbeat IPC: 0.191824 cumulative IPC: 0.189842 (Simulation time: 3 hr 29 min 19 sec) 
Heartbeat CPU 7 instructions: 410000003 cycles: 703241314 heartbeat IPC: 0.602086 cumulative IPC: 0.553959 (Simulation time: 3 hr 29 min 21 sec) 
Heartbeat CPU 3 instructions: 630000001 cycles: 705255658 heartbeat IPC: 0.827248 cumulative IPC: 0.861426 (Simulation time: 3 hr 29 min 50 sec) 
Heartbeat CPU 5 instructions: 310000002 cycles: 713192362 heartbeat IPC: 0.383335 cumulative IPC: 0.409815 (Simulation time: 3 hr 31 min 56 sec) 
Heartbeat CPU 3 instructions: 640000000 cycles: 716684366 heartbeat IPC: 0.874989 cumulative IPC: 0.861647 (Simulation time: 3 hr 32 min 54 sec) 
Heartbeat CPU 0 instructions: 180000000 cycles: 716684693 heartbeat IPC: 0.237715 cumulative IPC: 0.22668 (Simulation time: 3 hr 32 min 54 sec) 
Heartbeat CPU 4 instructions: 310000002 cycles: 719038427 heartbeat IPC: 0.33173 cumulative IPC: 0.394235 (Simulation time: 3 hr 33 min 33 sec) 
Heartbeat CPU 7 instructions: 420000000 cycles: 719230344 heartbeat IPC: 0.625429 cumulative IPC: 0.555581 (Simulation time: 3 hr 33 min 36 sec) 
Heartbeat CPU 3 instructions: 650000000 cycles: 728295670 heartbeat IPC: 0.86123 cumulative IPC: 0.86164 (Simulation time: 3 hr 35 min 57 sec) 
Heartbeat CPU 7 instructions: 430000002 cycles: 735814805 heartbeat IPC: 0.602974 cumulative IPC: 0.556671 (Simulation time: 3 hr 37 min 51 sec) 
Heartbeat CPU 5 instructions: 320000000 cycles: 736768103 heartbeat IPC: 0.424165 cumulative IPC: 0.410284 (Simulation time: 3 hr 38 min 6 sec) 
Heartbeat CPU 3 instructions: 660000000 cycles: 740650974 heartbeat IPC: 0.809369 cumulative IPC: 0.86075 (Simulation time: 3 hr 39 min 6 sec) 
Heartbeat CPU 4 instructions: 320000000 cycles: 749500661 heartbeat IPC: 0.328275 cumulative IPC: 0.391501 (Simulation time: 3 hr 41 min 36 sec) 
Heartbeat CPU 7 instructions: 440000000 cycles: 751659081 heartbeat IPC: 0.631143 cumulative IPC: 0.558272 (Simulation time: 3 hr 42 min 11 sec) 
Heartbeat CPU 5 instructions: 330000001 cycles: 751823096 heartbeat IPC: 0.664232 cumulative IPC: 0.415471 (Simulation time: 3 hr 42 min 14 sec) 
Heartbeat CPU 3 instructions: 670000001 cycles: 751912695 heartbeat IPC: 0.887964 cumulative IPC: 0.861166 (Simulation time: 3 hr 42 min 15 sec) 
Heartbeat CPU 2 instructions: 170000000 cycles: 757224389 heartbeat IPC: 0.184866 cumulative IPC: 0.18948 (Simulation time: 3 hr 43 min 44 sec) 
Heartbeat CPU 6 instructions: 70000000 cycles: 758229911 heartbeat IPC: 0.0668277 cumulative IPC: 0.0672521 (Simulation time: 3 hr 44 min 0 sec) 
Heartbeat CPU 0 instructions: 190000000 cycles: 758814448 heartbeat IPC: 0.237362 cumulative IPC: 0.227285 (Simulation time: 3 hr 44 min 9 sec) 
Heartbeat CPU 3 instructions: 680000000 cycles: 763252815 heartbeat IPC: 0.881825 cumulative IPC: 0.861479 (Simulation time: 3 hr 45 min 15 sec) 
Heartbeat CPU 7 instructions: 450000002 cycles: 767962361 heartbeat IPC: 0.613374 cumulative IPC: 0.559465 (Simulation time: 3 hr 46 min 24 sec) 
Heartbeat CPU 5 instructions: 340000000 cycles: 770806272 heartbeat IPC: 0.526782 cumulative IPC: 0.418266 (Simulation time: 3 hr 47 min 6 sec) 
Heartbeat CPU 3 instructions: 690000002 cycles: 775423606 heartbeat IPC: 0.821639 cumulative IPC: 0.860842 (Simulation time: 3 hr 48 min 10 sec) 
Heartbeat CPU 4 instructions: 330000003 cycles: 779813859 heartbeat IPC: 0.329889 cumulative IPC: 0.389059 (Simulation time: 3 hr 49 min 13 sec) 
Heartbeat CPU 7 instructions: 460000000 cycles: 784679745 heartbeat IPC: 0.59818 cumulative IPC: 0.560306 (Simulation time: 3 hr 50 min 23 sec) 
Heartbeat CPU 3 instructions: 700000000 cycles: 787452954 heartbeat IPC: 0.8313 cumulative IPC: 0.860382 (Simulation time: 3 hr 51 min 3 sec) 
Heartbeat CPU 1 instructions: 90000002 cycles: 788001943 heartbeat IPC: 0.0877082 cumulative IPC: 0.0903662 (Simulation time: 3 hr 51 min 11 sec) 
Heartbeat CPU 3 instructions: 710000003 cycles: 798965647 heartbeat IPC: 0.868607 cumulative IPC: 0.860503 (Simulation time: 3 hr 53 min 55 sec) 
Heartbeat CPU 5 instructions: 350000000 cycles: 799987178 heartbeat IPC: 0.34269 cumulative IPC: 0.415457 (Simulation time: 3 hr 54 min 11 sec) 
Heartbeat CPU 7 instructions: 470000001 cycles: 800665790 heartbeat IPC: 0.625546 cumulative IPC: 0.561633 (Simulation time: 3 hr 54 min 22 sec) 
Heartbeat CPU 2 instructions: 180000000 cycles: 807983826 heartbeat IPC: 0.197008 cumulative IPC: 0.189961 (Simulation time: 3 hr 56 min 18 sec) 
Heartbeat CPU 4 instructions: 340000000 cycles: 808958830 heartbeat IPC: 0.343112 cumulative IPC: 0.387373 (Simulation time: 3 hr 56 min 32 sec) 
Heartbeat CPU 3 instructions: 720000000 cycles: 810617333 heartbeat IPC: 0.858245 cumulative IPC: 0.86047 (Simulation time: 3 hr 56 min 56 sec) 
Heartbeat CPU 7 instructions: 480000000 cycles: 817217989 heartbeat IPC: 0.604149 cumulative IPC: 0.56251 (Simulation time: 3 hr 58 min 31 sec) 
Heartbeat CPU 0 instructions: 200000000 cycles: 818874367 heartbeat IPC: 0.1665 cumulative IPC: 0.222745 (Simulation time: 3 hr 58 min 54 sec) 
Heartbeat CPU 3 instructions: 730000003 cycles: 823070963 heartbeat IPC: 0.802979 cumulative IPC: 0.859584 (Simulation time: 3 hr 59 min 54 sec) 
Heartbeat CPU 5 instructions: 360000000 cycles: 828342422 heartbeat IPC: 0.352668 cumulative IPC: 0.413269 (Simulation time: 4 hr 1 min 14 sec) 
Heartbeat CPU 7 instructions: 490000001 cycles: 833659410 heartbeat IPC: 0.60822 cumulative IPC: 0.563428 (Simulation time: 4 hr 2 min 37 sec) 
Heartbeat CPU 3 instructions: 740000000 cycles: 834468337 heartbeat IPC: 0.877395 cumulative IPC: 0.859831 (Simulation time: 4 hr 2 min 49 sec) 
Heartbeat CPU 4 instructions: 350000001 cycles: 838870934 heartbeat IPC: 0.334313 cumulative IPC: 0.385447 (Simulation time: 4 hr 3 min 56 sec) 
Heartbeat CPU 3 instructions: 750000000 cycles: 845620215 heartbeat IPC: 0.89671 cumulative IPC: 0.860326 (Simulation time: 4 hr 5 min 40 sec) 
Heartbeat CPU 5 instructions: 370000001 cycles: 854229547 heartbeat IPC: 0.386292 cumulative IPC: 0.412437 (Simulation time: 4 hr 7 min 38 sec) 
Heartbeat CPU 3 instructions: 760000000 cycles: 858551226 heartbeat IPC: 0.773335 cumulative IPC: 0.858993 (Simulation time: 4 hr 8 min 35 sec) 
Heartbeat CPU 2 instructions: 190000001 cycles: 863217675 heartbeat IPC: 0.181048 cumulative IPC: 0.189381 (Simulation time: 4 hr 9 min 38 sec) 
Heartbeat CPU 7 instructions: 500000000 cycles: 864279171 heartbeat IPC: 0.326586 cumulative IPC: 0.554891 (Simulation time: 4 hr 9 min 53 sec) 
Heartbeat CPU 4 instructions: 360000000 cycles: 870796855 heartbeat IPC: 0.313225 cumulative IPC: 0.382754 (Simulation time: 4 hr 11 min 19 sec) 
Heartbeat CPU 5 instructions: 380000000 cycles: 871204553 heartbeat IPC: 0.589101 cumulative IPC: 0.415939 (Simulation time: 4 hr 11 min 24 sec) 
Heartbeat CPU 3 instructions: 770000002 cycles: 872292277 heartbeat IPC: 0.727747 cumulative IPC: 0.85689 (Simulation time: 4 hr 11 min 39 sec) 
Heartbeat CPU 0 instructions: 210000001 cycles: 883212639 heartbeat IPC: 0.155428 cumulative IPC: 0.217758 (Simulation time: 4 hr 14 min 2 sec) 
Heartbeat CPU 3 instructions: 780000000 cycles: 885434725 heartbeat IPC: 0.760893 cumulative IPC: 0.855441 (Simulation time: 4 hr 14 min 30 sec) 
Heartbeat CPU 5 instructions: 390000001 cycles: 897126678 heartbeat IPC: 0.385771 cumulative IPC: 0.415052 (Simulation time: 4 hr 17 min 19 sec) 
Heartbeat CPU 3 instructions: 790000001 cycles: 897609904 heartbeat IPC: 0.821343 cumulative IPC: 0.854971 (Simulation time: 4 hr 17 min 27 sec) 
Heartbeat CPU 4 instructions: 370000001 cycles: 901624892 heartbeat IPC: 0.32438 cumulative IPC: 0.380725 (Simulation time: 4 hr 18 min 28 sec) 
Heartbeat CPU 7 instructions: 510000001 cycles: 906713596 heartbeat IPC: 0.235658 cumulative IPC: 0.539704 (Simulation time: 4 hr 19 min 40 sec) 
Heartbeat CPU 1 instructions: 100000000 cycles: 908769242 heartbeat IPC: 0.0828039 cumulative IPC: 0.0893446 (Simulation time: 4 hr 20 min 9 sec) 
Heartbeat CPU 3 instructions: 800000000 cycles: 909766837 heartbeat IPC: 0.822576 cumulative IPC: 0.854531 (Simulation time: 4 hr 20 min 23 sec) 
Heartbeat CPU 6 instructions: 80000000 cycles: 919282092 heartbeat IPC: 0.0620917 cumulative IPC: 0.0663333 (Simulation time: 4 hr 22 min 42 sec) 
Heartbeat CPU 3 instructions: 810000002 cycles: 921770428 heartbeat IPC: 0.833084 cumulative IPC: 0.854247 (Simulation time: 4 hr 23 min 22 sec) 
Heartbeat CPU 2 instructions: 200000000 cycles: 922042511 heartbeat IPC: 0.169996 cumulative IPC: 0.188124 (Simulation time: 4 hr 23 min 26 sec) 
Heartbeat CPU 0 instructions: 220000000 cycles: 923113911 heartbeat IPC: 0.250619 cumulative IPC: 0.219201 (Simulation time: 4 hr 23 min 42 sec) 
Heartbeat CPU 7 instructions: 520000000 cycles: 923356015 heartbeat IPC: 0.600874 cumulative IPC: 0.540824 (Simulation time: 4 hr 23 min 45 sec) 
Heartbeat CPU 5 instructions: 400000000 cycles: 926236978 heartbeat IPC: 0.343521 cumulative IPC: 0.412768 (Simulation time: 4 hr 24 min 29 sec) 
Heartbeat CPU 4 instructions: 380000000 cycles: 931458743 heartbeat IPC: 0.33519 cumulative IPC: 0.379243 (Simulation time: 4 hr 25 min 51 sec) 
Heartbeat CPU 3 instructions: 820000000 cycles: 933140599 heartbeat IPC: 0.879494 cumulative IPC: 0.85456 (Simulation time: 4 hr 26 min 17 sec) 
Heartbeat CPU 7 instructions: 530000001 cycles: 939311338 heartbeat IPC: 0.62675 cumulative IPC: 0.542307 (Simulation time: 4 hr 27 min 50 sec) 
Heartbeat CPU 3 instructions: 830000003 cycles: 945037405 heartbeat IPC: 0.840562 cumulative IPC: 0.854381 (Simulation time: 4 hr 29 min 16 sec) 
Heartbeat CPU 5 instructions: 410000001 cycles: 953687932 heartbeat IPC: 0.364286 cumulative IPC: 0.41135 (Simulation time: 4 hr 31 min 31 sec) 
Heartbeat CPU 7 instructions: 540000000 cycles: 955040515 heartbeat IPC: 0.635761 cumulative IPC: 0.54387 (Simulation time: 4 hr 31 min 53 sec) 
Heartbeat CPU 3 instructions: 840000000 cycles: 955839708 heartbeat IPC: 0.925728 cumulative IPC: 0.8552 (Simulation time: 4 hr 32 min 5 sec) 
Heartbeat CPU 4 instructions: 390000000 cycles: 959601427 heartbeat IPC: 0.355332 cumulative IPC: 0.378531 (Simulation time: 4 hr 33 min 4 sec) 
Heartbeat CPU 0 instructions: 230000001 cycles: 962579924 heartbeat IPC: 0.253383 cumulative IPC: 0.220624 (Simulation time: 4 hr 33 min 48 sec) 
Heartbeat CPU 3 instructions: 850000000 cycles: 967271031 heartbeat IPC: 0.874789 cumulative IPC: 0.855435 (Simulation time: 4 hr 34 min 58 sec) 
Heartbeat CPU 7 instructions: 550000003 cycles: 971150662 heartbeat IPC: 0.620727 cumulative IPC: 0.545165 (Simulation time: 4 hr 35 min 53 sec) 
Heartbeat CPU 2 instructions: 210000002 cycles: 971890443 heartbeat IPC: 0.20061 cumulative IPC: 0.188775 (Simulation time: 4 hr 36 min 5 sec) 
Heartbeat CPU 3 instructions: 860000000 cycles: 978695823 heartbeat IPC: 0.875289 cumulative IPC: 0.85567 (Simulation time: 4 hr 37 min 50 sec) 
Heartbeat CPU 5 instructions: 420000000 cycles: 979197322 heartbeat IPC: 0.392012 cumulative IPC: 0.410839 (Simulation time: 4 hr 37 min 58 sec) 
Heartbeat CPU 7 instructions: 560000000 cycles: 986969448 heartbeat IPC: 0.63216 cumulative IPC: 0.54658 (Simulation time: 4 hr 39 min 56 sec) 
Heartbeat CPU 4 instructions: 400000000 cycles: 989519203 heartbeat IPC: 0.334249 cumulative IPC: 0.377171 (Simulation time: 4 hr 40 min 36 sec) 
Heartbeat CPU 3 instructions: 870000001 cycles: 990172094 heartbeat IPC: 0.871363 cumulative IPC: 0.855855 (Simulation time: 4 hr 40 min 47 sec) 
Heartbeat CPU 5 instructions: 430000003 cycles: 1000631141 heartbeat IPC: 0.466553 cumulative IPC: 0.41205 (Simulation time: 4 hr 43 min 28 sec) 
Heartbeat CPU 3 instructions: 880000000 cycles: 1001990664 heartbeat IPC: 0.846126 cumulative IPC: 0.855738 (Simulation time: 4 hr 43 min 50 sec) 
Heartbeat CPU 7 instructions: 570000003 cycles: 1003104749 heartbeat IPC: 0.619759 cumulative IPC: 0.547775 (Simulation time: 4 hr 44 min 8 sec) 
Heartbeat CPU 0 instructions: 240000000 cycles: 1005245275 heartbeat IPC: 0.234382 cumulative IPC: 0.221217 (Simulation time: 4 hr 44 min 45 sec) 
Heartbeat CPU 3 instructions: 890000000 cycles: 1013135803 heartbeat IPC: 0.897252 cumulative IPC: 0.856202 (Simulation time: 4 hr 46 min 57 sec) 
Heartbeat CPU 5 instructions: 440000000 cycles: 1015667041 heartbeat IPC: 0.665075 cumulative IPC: 0.415851 (Simulation time: 4 hr 47 min 37 sec) 
Heartbeat CPU 7 instructions: 580000000 cycles: 1018868625 heartbeat IPC: 0.634362 cumulative IPC: 0.549134 (Simulation time: 4 hr 48 min 27 sec) 
Heartbeat CPU 4 instructions: 410000003 cycles: 1018891458 heartbeat IPC: 0.340457 cumulative IPC: 0.376098 (Simulation time: 4 hr 48 min 28 sec) 
Heartbeat CPU 2 instructions: 220000000 cycles: 1022291868 heartbeat IPC: 0.198407 cumulative IPC: 0.189257 (Simulation time: 4 hr 49 min 22 sec) 
Heartbeat CPU 3 instructions: 900000000 cycles: 1024364704 heartbeat IPC: 0.890559 cumulative IPC: 0.856584 (Simulation time: 4 hr 49 min 54 sec) 
Heartbeat CPU 1 instructions: 110000000 cycles: 1028048302 heartbeat IPC: 0.083837 cumulative IPC: 0.0886963 (Simulation time: 4 hr 50 min 47 sec) 
Heartbeat CPU 5 instructions: 450000000 cycles: 1034844354 heartbeat IPC: 0.52145 cumulative IPC: 0.417836 (Simulation time: 4 hr 52 min 27 sec) 
Heartbeat CPU 7 instructions: 590000000 cycles: 1035061736 heartbeat IPC: 0.617547 cumulative IPC: 0.55022 (Simulation time: 4 hr 52 min 30 sec) 
Heartbeat CPU 3 instructions: 910000002 cycles: 1036269467 heartbeat IPC: 0.84 cumulative IPC: 0.856391 (Simulation time: 4 hr 52 min 47 sec) 
Heartbeat CPU 3 instructions: 920000000 cycles: 1048220015 heartbeat IPC: 0.836782 cumulative IPC: 0.856164 (Simulation time: 4 hr 55 min 35 sec) 
Heartbeat CPU 4 instructions: 420000000 cycles: 1049118945 heartbeat IPC: 0.330825 cumulative IPC: 0.374775 (Simulation time: 4 hr 55 min 49 sec) 
Heartbeat CPU 7 instructions: 600000000 cycles: 1051597767 heartbeat IPC: 0.60474 cumulative IPC: 0.55109 (Simulation time: 4 hr 56 min 28 sec) 
Heartbeat CPU 0 instructions: 250000000 cycles: 1057473977 heartbeat IPC: 0.191466 cumulative IPC: 0.219727 (Simulation time: 4 hr 57 min 58 sec) 
Heartbeat CPU 3 instructions: 930000001 cycles: 1059267148 heartbeat IPC: 0.905212 cumulative IPC: 0.856683 (Simulation time: 4 hr 58 min 26 sec) 
Heartbeat CPU 6 instructions: 90000000 cycles: 1065222020 heartbeat IPC: 0.0685213 cumulative IPC: 0.0666373 (Simulation time: 4 hr 59 min 58 sec) 
Heartbeat CPU 5 instructions: 460000000 cycles: 1065529720 heartbeat IPC: 0.325888 cumulative IPC: 0.415151 (Simulation time: 5 hr 0 min 3 sec) 
Heartbeat CPU 7 instructions: 610000002 cycles: 1067031287 heartbeat IPC: 0.64794 cumulative IPC: 0.55251 (Simulation time: 5 hr 0 min 28 sec) 
Heartbeat CPU 3 instructions: 940000000 cycles: 1070709591 heartbeat IPC: 0.873939 cumulative IPC: 0.85687 (Simulation time: 5 hr 1 min 22 sec) 
Heartbeat CPU 2 instructions: 230000001 cycles: 1074126991 heartbeat IPC: 0.192919 cumulative IPC: 0.189436 (Simulation time: 5 hr 2 min 11 sec) 
Heartbeat CPU 4 instructions: 430000003 cycles: 1078260387 heartbeat IPC: 0.343154 cumulative IPC: 0.373908 (Simulation time: 5 hr 3 min 17 sec) 
Heartbeat CPU 3 instructions: 950000000 cycles: 1081963689 heartbeat IPC: 0.888565 cumulative IPC: 0.857204 (Simulation time: 5 hr 4 min 16 sec) 
Heartbeat CPU 7 instructions: 620000000 cycles: 1083119622 heartbeat IPC: 0.621568 cumulative IPC: 0.55355 (Simulation time: 5 hr 4 min 35 sec) 
Heartbeat CPU 0 instructions: 260000000 cycles: 1089539662 heartbeat IPC: 0.31186 cumulative IPC: 0.222476 (Simulation time: 5 hr 6 min 15 sec) 
Heartbeat CPU 3 instructions: 960000000 cycles: 1093083321 heartbeat IPC: 0.89931 cumulative IPC: 0.857638 (Simulation time: 5 hr 7 min 10 sec) 
Heartbeat CPU 5 instructions: 470000002 cycles: 1093877448 heartbeat IPC: 0.352762 cumulative IPC: 0.413512 (Simulation time: 5 hr 7 min 21 sec) 
Heartbeat CPU 7 instructions: 630000001 cycles: 1099211485 heartbeat IPC: 0.621432 cumulative IPC: 0.554557 (Simulation time: 5 hr 8 min 38 sec) 
Heartbeat CPU 3 instructions: 970000001 cycles: 1104930953 heartbeat IPC: 0.844051 cumulative IPC: 0.85749 (Simulation time: 5 hr 10 min 8 sec) 
Heartbeat CPU 4 instructions: 440000000 cycles: 1107305438 heartbeat IPC: 0.344293 cumulative IPC: 0.373121 (Simulation time: 5 hr 10 min 45 sec) 
Heartbeat CPU 7 instructions: 640000000 cycles: 1115060948 heartbeat IPC: 0.630936 cumulative IPC: 0.555658 (Simulation time: 5 hr 12 min 40 sec) 
Heartbeat CPU 3 instructions: 980000000 cycles: 1116289221 heartbeat IPC: 0.880416 cumulative IPC: 0.857727 (Simulation time: 5 hr 12 min 58 sec) 
Heartbeat CPU 5 instructions: 480000000 cycles: 1117422736 heartbeat IPC: 0.424713 cumulative IPC: 0.413752 (Simulation time: 5 hr 13 min 16 sec) 
Heartbeat CPU 2 instructions: 240000000 cycles: 1122684450 heartbeat IPC: 0.205942 cumulative IPC: 0.190159 (Simulation time: 5 hr 14 min 41 sec) 
Heartbeat CPU 3 instructions: 990000003 cycles: 1127640038 heartbeat IPC: 0.880994 cumulative IPC: 0.857964 (Simulation time: 5 hr 15 min 54 sec) 
Heartbeat CPU 7 instructions: 650000003 cycles: 1131204880 heartbeat IPC: 0.619428 cumulative IPC: 0.55658 (Simulation time: 5 hr 16 min 45 sec) 
Heartbeat CPU 4 instructions: 450000001 cycles: 1136297370 heartbeat IPC: 0.344924 cumulative IPC: 0.372392 (Simulation time: 5 hr 18 min 3 sec) 
Heartbeat CPU 3 instructions: 1000000000 cycles: 1139180421 heartbeat IPC: 0.866522 cumulative IPC: 0.858052 (Simulation time: 5 hr 18 min 46 sec) 
Heartbeat CPU 1 instructions: 120000000 cycles: 1139295906 heartbeat IPC: 0.0898896 cumulative IPC: 0.0888143 (Simulation time: 5 hr 18 min 48 sec) 
Heartbeat CPU 0 instructions: 270000000 cycles: 1139425060 heartbeat IPC: 0.200459 cumulative IPC: 0.221499 (Simulation time: 5 hr 18 min 50 sec) 
Finished CPU 1 instructions: 100000000 cycles: 1125881533 cumulative IPC: 0.0888193 (Simulation time: 5 hr 19 min 8 sec) 
Heartbeat CPU 5 instructions: 490000000 cycles: 1144057939 heartbeat IPC: 0.375443 cumulative IPC: 0.412848 (Simulation time: 5 hr 20 min 2 sec) 
Heartbeat CPU 7 instructions: 660000000 cycles: 1146864619 heartbeat IPC: 0.63858 cumulative IPC: 0.557714 (Simulation time: 5 hr 20 min 46 sec) 
Heartbeat CPU 3 instructions: 1010000002 cycles: 1150562156 heartbeat IPC: 0.878601 cumulative IPC: 0.858258 (Simulation time: 5 hr 21 min 44 sec) 
Heartbeat CPU 3 instructions: 1020000000 cycles: 1162262549 heartbeat IPC: 0.854672 cumulative IPC: 0.858221 (Simulation time: 5 hr 24 min 37 sec) 
Heartbeat CPU 7 instructions: 670000002 cycles: 1163484605 heartbeat IPC: 0.601685 cumulative IPC: 0.55835 (Simulation time: 5 hr 24 min 55 sec) 
Heartbeat CPU 4 instructions: 460000000 cycles: 1165594617 heartbeat IPC: 0.341329 cumulative IPC: 0.371601 (Simulation time: 5 hr 25 min 25 sec) 
Heartbeat CPU 5 instructions: 500000000 cycles: 1172154984 heartbeat IPC: 0.355909 cumulative IPC: 0.411466 (Simulation time: 5 hr 26 min 59 sec) 
Heartbeat CPU 2 instructions: 250000000 cycles: 1173515574 heartbeat IPC: 0.19673 cumulative IPC: 0.190447 (Simulation time: 5 hr 27 min 20 sec) 
Heartbeat CPU 3 instructions: 1030000003 cycles: 1174347003 heartbeat IPC: 0.82751 cumulative IPC: 0.857901 (Simulation time: 5 hr 27 min 33 sec) 
Heartbeat CPU 7 instructions: 680000000 cycles: 1180801865 heartbeat IPC: 0.577458 cumulative IPC: 0.558634 (Simulation time: 5 hr 29 min 13 sec) 
Heartbeat CPU 0 instructions: 280000000 cycles: 1183132114 heartbeat IPC: 0.228796 cumulative IPC: 0.221772 (Simulation time: 5 hr 29 min 49 sec) 
Heartbeat CPU 3 instructions: 1040000000 cycles: 1185636579 heartbeat IPC: 0.885773 cumulative IPC: 0.85817 (Simulation time: 5 hr 30 min 26 sec) 
Heartbeat CPU 4 instructions: 470000002 cycles: 1195125316 heartbeat IPC: 0.338631 cumulative IPC: 0.370776 (Simulation time: 5 hr 32 min 50 sec) 
Heartbeat CPU 5 instructions: 510000002 cycles: 1195416646 heartbeat IPC: 0.429892 cumulative IPC: 0.411829 (Simulation time: 5 hr 32 min 54 sec) 
Heartbeat CPU 3 instructions: 1050000003 cycles: 1197143405 heartbeat IPC: 0.86905 cumulative IPC: 0.858276 (Simulation time: 5 hr 33 min 20 sec) 
Heartbeat CPU 7 instructions: 690000001 cycles: 1199621766 heartbeat IPC: 0.531352 cumulative IPC: 0.558201 (Simulation time: 5 hr 33 min 55 sec) 
Heartbeat CPU 3 instructions: 1060000000 cycles: 1209564521 heartbeat IPC: 0.80508 cumulative IPC: 0.857723 (Simulation time: 5 hr 36 min 13 sec) 
Heartbeat CPU 6 instructions: 100000000 cycles: 1217721648 heartbeat IPC: 0.0655739 cumulative IPC: 0.0665025 (Simulation time: 5 hr 38 min 7 sec) 
Heartbeat CPU 7 instructions: 700000000 cycles: 1221142045 heartbeat IPC: 0.464678 cumulative IPC: 0.556532 (Simulation time: 5 hr 38 min 52 sec) 
Heartbeat CPU 3 instructions: 1070000002 cycles: 1222256272 heartbeat IPC: 0.787914 cumulative IPC: 0.856989 (Simulation time: 5 hr 39 min 7 sec) 
Heartbeat CPU 5 instructions: 520000000 cycles: 1224509414 heartbeat IPC: 0.343728 cumulative IPC: 0.410191 (Simulation time: 5 hr 39 min 40 sec) 
Heartbeat CPU 4 instructions: 480000000 cycles: 1225960269 heartbeat IPC: 0.324307 cumulative IPC: 0.369593 (Simulation time: 5 hr 40 min 2 sec) 
Heartbeat CPU 2 instructions: 260000000 cycles: 1227583086 heartbeat IPC: 0.184954 cumulative IPC: 0.190202 (Simulation time: 5 hr 40 min 26 sec) 
Heartbeat CPU 3 instructions: 1080000000 cycles: 1234039387 heartbeat IPC: 0.848672 cumulative IPC: 0.856909 (Simulation time: 5 hr 42 min 2 sec) 
Heartbeat CPU 0 instructions: 290000000 cycles: 1237129822 heartbeat IPC: 0.185193 cumulative IPC: 0.220156 (Simulation time: 5 hr 42 min 48 sec) 
Heartbeat CPU 7 instructions: 710000002 cycles: 1244696103 heartbeat IPC: 0.424555 cumulative IPC: 0.554005 (Simulation time: 5 hr 44 min 39 sec) 
Heartbeat CPU 3 instructions: 1090000000 cycles: 1246180289 heartbeat IPC: 0.823662 cumulative IPC: 0.856581 (Simulation time: 5 hr 45 min 0 sec) 
Heartbeat CPU 5 instructions: 530000000 cycles: 1250093252 heartbeat IPC: 0.390872 cumulative IPC: 0.409791 (Simulation time: 5 hr 45 min 54 sec) 
Heartbeat CPU 1 instructions: 130000000 cycles: 1251796370 heartbeat IPC: 0.0888885 cumulative IPC: 0.0888211 (Simulation time: 5 hr 46 min 18 sec) 
Heartbeat CPU 4 instructions: 490000001 cycles: 1256461880 heartbeat IPC: 0.327852 cumulative IPC: 0.368568 (Simulation time: 5 hr 47 min 23 sec) 
Heartbeat CPU 3 instructions: 1100000000 cycles: 1258947920 heartbeat IPC: 0.783231 cumulative IPC: 0.855828 (Simulation time: 5 hr 47 min 58 sec) 
Heartbeat CPU 5 instructions: 540000000 cycles: 1270504965 heartbeat IPC: 0.489915 cumulative IPC: 0.411093 (Simulation time: 5 hr 50 min 44 sec) 
Heartbeat CPU 3 instructions: 1110000000 cycles: 1270931476 heartbeat IPC: 0.834477 cumulative IPC: 0.855624 (Simulation time: 5 hr 50 min 50 sec) 
Heartbeat CPU 7 instructions: 720000000 cycles: 1272499677 heartbeat IPC: 0.359666 cumulative IPC: 0.549709 (Simulation time: 5 hr 51 min 13 sec) 
Heartbeat CPU 0 instructions: 300000000 cycles: 1282464065 heartbeat IPC: 0.220584 cumulative IPC: 0.220171 (Simulation time: 5 hr 53 min 32 sec) 
Heartbeat CPU 3 instructions: 1120000000 cycles: 1283643801 heartbeat IPC: 0.786638 cumulative IPC: 0.854933 (Simulation time: 5 hr 53 min 47 sec) 
Heartbeat CPU 2 instructions: 270000001 cycles: 1285144139 heartbeat IPC: 0.173729 cumulative IPC: 0.189456 (Simulation time: 5 hr 54 min 8 sec) 
Heartbeat CPU 4 instructions: 500000000 cycles: 1287134538 heartbeat IPC: 0.326023 cumulative IPC: 0.367542 (Simulation time: 5 hr 54 min 34 sec) 
Heartbeat CPU 3 instructions: 1130000001 cycles: 1296765810 heartbeat IPC: 0.762079 cumulative IPC: 0.853983 (Simulation time: 5 hr 56 min 43 sec) 
Heartbeat CPU 5 instructions: 550000001 cycles: 1299986301 heartbeat IPC: 0.339198 cumulative IPC: 0.409444 (Simulation time: 5 hr 57 min 31 sec) 
Heartbeat CPU 7 instructions: 730000002 cycles: 1307903734 heartbeat IPC: 0.282454 cumulative IPC: 0.542392 (Simulation time: 5 hr 59 min 24 sec) 
Heartbeat CPU 3 instructions: 1140000000 cycles: 1308892979 heartbeat IPC: 0.824595 cumulative IPC: 0.853707 (Simulation time: 5 hr 59 min 38 sec) 
Heartbeat CPU 4 instructions: 510000003 cycles: 1318718093 heartbeat IPC: 0.316621 cumulative IPC: 0.366309 (Simulation time: 6 hr 1 min 54 sec) 
Heartbeat CPU 3 instructions: 1150000001 cycles: 1321562579 heartbeat IPC: 0.789291 cumulative IPC: 0.853083 (Simulation time: 6 hr 2 min 31 sec) 
Heartbeat CPU 5 instructions: 560000000 cycles: 1326523996 heartbeat IPC: 0.376822 cumulative IPC: 0.408784 (Simulation time: 6 hr 3 min 42 sec) 
Heartbeat CPU 0 instructions: 310000003 cycles: 1329339534 heartbeat IPC: 0.213331 cumulative IPC: 0.219928 (Simulation time: 6 hr 4 min 22 sec) 
Heartbeat CPU 3 instructions: 1160000000 cycles: 1333800943 heartbeat IPC: 0.817103 cumulative IPC: 0.852749 (Simulation time: 6 hr 5 min 25 sec) 
Heartbeat CPU 2 instructions: 280000000 cycles: 1343712941 heartbeat IPC: 0.170739 cumulative IPC: 0.188631 (Simulation time: 6 hr 7 min 45 sec) 
Heartbeat CPU 3 instructions: 1170000000 cycles: 1346161415 heartbeat IPC: 0.809031 cumulative IPC: 0.852343 (Simulation time: 6 hr 8 min 18 sec) 
Heartbeat CPU 7 instructions: 740000000 cycles: 1346765975 heartbeat IPC: 0.257319 cumulative IPC: 0.534075 (Simulation time: 6 hr 8 min 26 sec) 
Heartbeat CPU 4 instructions: 520000000 cycles: 1349449864 heartbeat IPC: 0.325396 cumulative IPC: 0.365367 (Simulation time: 6 hr 9 min 3 sec) 
Heartbeat CPU 5 instructions: 570000002 cycles: 1351526524 heartbeat IPC: 0.39996 cumulative IPC: 0.408619 (Simulation time: 6 hr 9 min 30 sec) 
Heartbeat CPU 3 instructions: 1180000000 cycles: 1359595335 heartbeat IPC: 0.744384 cumulative IPC: 0.851265 (Simulation time: 6 hr 11 min 16 sec) 
Heartbeat CPU 1 instructions: 140000000 cycles: 1365308116 heartbeat IPC: 0.0880966 cumulative IPC: 0.0887602 (Simulation time: 6 hr 12 min 32 sec) 
Heartbeat CPU 5 instructions: 580000000 cycles: 1371795074 heartbeat IPC: 0.493375 cumulative IPC: 0.409885 (Simulation time: 6 hr 14 min 3 sec) 
Heartbeat CPU 3 instructions: 1190000001 cycles: 1373094096 heartbeat IPC: 0.740809 cumulative IPC: 0.850167 (Simulation time: 6 hr 14 min 21 sec) 
Heartbeat CPU 4 instructions: 530000000 cycles: 1381562460 heartbeat IPC: 0.311404 cumulative IPC: 0.364099 (Simulation time: 6 hr 16 min 27 sec) 
Heartbeat CPU 3 instructions: 1200000000 cycles: 1385053852 heartbeat IPC: 0.836137 cumulative IPC: 0.850045 (Simulation time: 6 hr 17 min 19 sec) 
Heartbeat CPU 7 instructions: 750000000 cycles: 1386642972 heartbeat IPC: 0.250771 cumulative IPC: 0.52584 (Simulation time: 6 hr 17 min 42 sec) 
Heartbeat CPU 5 instructions: 590000000 cycles: 1386689848 heartbeat IPC: 0.671376 cumulative IPC: 0.412724 (Simulation time: 6 hr 17 min 43 sec) 
Heartbeat CPU 0 instructions: 320000000 cycles: 1387551838 heartbeat IPC: 0.171785 cumulative IPC: 0.217886 (Simulation time: 6 hr 17 min 56 sec) 
Heartbeat CPU 6 instructions: 110000001 cycles: 1387836932 heartbeat IPC: 0.0587837 cumulative IPC: 0.0655462 (Simulation time: 6 hr 18 min 0 sec) 
Heartbeat CPU 3 instructions: 1210000002 cycles: 1397071693 heartbeat IPC: 0.832096 cumulative IPC: 0.849889 (Simulation time: 6 hr 20 min 14 sec) 
Heartbeat CPU 2 instructions: 290000000 cycles: 1401693996 heartbeat IPC: 0.17247 cumulative IPC: 0.187956 (Simulation time: 6 hr 21 min 20 sec) 
Heartbeat CPU 5 instructions: 600000000 cycles: 1404590230 heartbeat IPC: 0.558647 cumulative IPC: 0.414603 (Simulation time: 6 hr 21 min 58 sec) 
Heartbeat CPU 3 instructions: 1220000000 cycles: 1409774440 heartbeat IPC: 0.787231 cumulative IPC: 0.849318 (Simulation time: 6 hr 23 min 8 sec) 
Heartbeat CPU 4 instructions: 540000000 cycles: 1412163165 heartbeat IPC: 0.32679 cumulative IPC: 0.363282 (Simulation time: 6 hr 23 min 43 sec) 
Heartbeat CPU 3 instructions: 1230000000 cycles: 1421899813 heartbeat IPC: 0.824717 cumulative IPC: 0.849106 (Simulation time: 6 hr 25 min 59 sec) 
Heartbeat CPU 7 instructions: 760000000 cycles: 1423944576 heartbeat IPC: 0.268085 cumulative IPC: 0.519017 (Simulation time: 6 hr 26 min 27 sec) 
Heartbeat CPU 0 instructions: 330000000 cycles: 1425951999 heartbeat IPC: 0.260416 cumulative IPC: 0.219043 (Simulation time: 6 hr 26 min 57 sec) 
Heartbeat CPU 5 instructions: 610000001 cycles: 1432603814 heartbeat IPC: 0.35697 cumulative IPC: 0.413465 (Simulation time: 6 hr 28 min 26 sec) 
Heartbeat CPU 3 instructions: 1240000000 cycles: 1434400336 heartbeat IPC: 0.799967 cumulative IPC: 0.848673 (Simulation time: 6 hr 28 min 50 sec) 
Heartbeat CPU 4 instructions: 550000001 cycles: 1443405101 heartbeat IPC: 0.320083 cumulative IPC: 0.362337 (Simulation time: 6 hr 30 min 49 sec) 
Heartbeat CPU 3 instructions: 1250000003 cycles: 1447836608 heartbeat IPC: 0.744254 cumulative IPC: 0.847694 (Simulation time: 6 hr 31 min 48 sec) 
Heartbeat CPU 5 instructions: 620000000 cycles: 1456736629 heartbeat IPC: 0.414373 cumulative IPC: 0.41348 (Simulation time: 6 hr 33 min 53 sec) 
Heartbeat CPU 7 instructions: 770000000 cycles: 1459921517 heartbeat IPC: 0.277956 cumulative IPC: 0.513016 (Simulation time: 6 hr 34 min 35 sec) 
Heartbeat CPU 2 instructions: 300000000 cycles: 1460067056 heartbeat IPC: 0.171312 cumulative IPC: 0.187283 (Simulation time: 6 hr 34 min 37 sec) 
Heartbeat CPU 3 instructions: 1260000000 cycles: 1460262770 heartbeat IPC: 0.804753 cumulative IPC: 0.847325 (Simulation time: 6 hr 34 min 40 sec) 
Heartbeat CPU 3 instructions: 1270000003 cycles: 1472385442 heartbeat IPC: 0.824901 cumulative IPC: 0.847139 (Simulation time: 6 hr 37 min 32 sec) 
Heartbeat CPU 4 instructions: 560000000 cycles: 1474488672 heartbeat IPC: 0.321713 cumulative IPC: 0.361472 (Simulation time: 6 hr 38 min 3 sec) 
Heartbeat CPU 1 instructions: 150000003 cycles: 1479505815 heartbeat IPC: 0.0875675 cumulative IPC: 0.0886672 (Simulation time: 6 hr 39 min 11 sec) 
Heartbeat CPU 3 instructions: 1280000000 cycles: 1485157533 heartbeat IPC: 0.782957 cumulative IPC: 0.846581 (Simulation time: 6 hr 40 min 26 sec) 
Heartbeat CPU 0 instructions: 340000000 cycles: 1485342072 heartbeat IPC: 0.168378 cumulative IPC: 0.216997 (Simulation time: 6 hr 40 min 29 sec) 
Heartbeat CPU 5 instructions: 630000002 cycles: 1486317822 heartbeat IPC: 0.338053 cumulative IPC: 0.411964 (Simulation time: 6 hr 40 min 42 sec) 
Heartbeat CPU 7 instructions: 780000000 cycles: 1493074442 heartbeat IPC: 0.301633 cumulative IPC: 0.508275 (Simulation time: 6 hr 42 min 11 sec) 
Heartbeat CPU 3 instructions: 1290000001 cycles: 1498422218 heartbeat IPC: 0.753882 cumulative IPC: 0.845752 (Simulation time: 6 hr 43 min 22 sec) 
Heartbeat CPU 4 instructions: 570000001 cycles: 1506356940 heartbeat IPC: 0.313792 cumulative IPC: 0.360454 (Simulation time: 6 hr 45 min 13 sec) 
Heartbeat CPU 3 instructions: 1300000000 cycles: 1510345600 heartbeat IPC: 0.838688 cumulative IPC: 0.845696 (Simulation time: 6 hr 46 min 11 sec) 
Heartbeat CPU 5 instructions: 640000000 cycles: 1510364201 heartbeat IPC: 0.415863 cumulative IPC: 0.412026 (Simulation time: 6 hr 46 min 12 sec) 
Heartbeat CPU 2 instructions: 310000003 cycles: 1517387872 heartbeat IPC: 0.174457 cumulative IPC: 0.186794 (Simulation time: 6 hr 47 min 56 sec) 
Heartbeat CPU 3 instructions: 1310000000 cycles: 1522436522 heartbeat IPC: 0.827067 cumulative IPC: 0.845547 (Simulation time: 6 hr 49 min 8 sec) 
Heartbeat CPU 7 instructions: 790000003 cycles: 1524700912 heartbeat IPC: 0.316191 cumulative IPC: 0.504252 (Simulation time: 6 hr 49 min 40 sec) 
Heartbeat CPU 5 instructions: 650000001 cycles: 1534055051 heartbeat IPC: 0.422104 cumulative IPC: 0.412184 (Simulation time: 6 hr 51 min 47 sec) 
Heartbeat CPU 3 instructions: 1320000000 cycles: 1534990592 heartbeat IPC: 0.796554 cumulative IPC: 0.845142 (Simulation time: 6 hr 52 min 1 sec) 
Heartbeat CPU 4 instructions: 580000000 cycles: 1537376853 heartbeat IPC: 0.322374 cumulative IPC: 0.359678 (Simulation time: 6 hr 52 min 35 sec) 
Heartbeat CPU 0 instructions: 350000002 cycles: 1538461007 heartbeat IPC: 0.188257 cumulative IPC: 0.215995 (Simulation time: 6 hr 52 min 51 sec) 
Heartbeat CPU 3 instructions: 1330000002 cycles: 1546838679 heartbeat IPC: 0.844018 cumulative IPC: 0.845133 (Simulation time: 6 hr 54 min 52 sec) 
Heartbeat CPU 6 instructions: 120000000 cycles: 1554343276 heartbeat IPC: 0.0600578 cumulative IPC: 0.0649526 (Simulation time: 6 hr 56 min 38 sec) 
Finished CPU 6 instructions: 100000000 cycles: 1539584469 cumulative IPC: 0.0649526 (Simulation time: 6 hr 56 min 38 sec) 

CPU 0 Branch Prediction Accuracy: 98.5754% MPKI: 1.40797

CPU 1 Branch Prediction Accuracy: 96.6977% MPKI: 9.72354

CPU 2 Branch Prediction Accuracy: 99.9791% MPKI: 0.0525271

CPU 3 Branch Prediction Accuracy: 99.1861% MPKI: 0.0555414

CPU 4 Branch Prediction Accuracy: 97.3215% MPKI: 0.441169

CPU 5 Branch Prediction Accuracy: 99.1967% MPKI: 1.98639

CPU 6 Branch Prediction Accuracy: 99.5576% MPKI: 1.56189

CPU 7 Branch Prediction Accuracy: 98.977% MPKI: 0.131094

ChampSim completed all CPUs

Total Simulation Statistics (not including warmup)

CPU 0 cumulative IPC: 0.216445 instructions: 333235451 cycles: 1539584469
L1D TOTAL     ACCESS:  164563322  HIT:  155417687  MISS:    9145635
L1D LOAD      ACCESS:   72342497  HIT:   64018460  MISS:    8324037
L1D RFO       ACCESS:   92220825  HIT:   91399227  MISS:     821598
L1D PREFETCH  ACCESS:          0  HIT:          0  MISS:          0
L1D WRITEBACK ACCESS:          0  HIT:          0  MISS:          0
L1I TOTAL     ACCESS:  106717169  HIT:  106717169  MISS:          0
L1I LOAD      ACCESS:  106717169  HIT:  106717169  MISS:          0
L1I RFO       ACCESS:          0  HIT:          0  MISS:          0
L1I PREFETCH  ACCESS:          0  HIT:          0  MISS:          0
L1I WRITEBACK ACCESS:          0  HIT:          0  MISS:          0
L2C TOTAL     ACCESS:   12797012  HIT:    3906839  MISS:    8890173
L2C LOAD      ACCESS:    8323942  HIT:     552320  MISS:    7771622
L2C RFO       ACCESS:     821568  HIT:      26492  MISS:     795076
L2C PREFETCH  ACCESS:    1450108  HIT:    1133385  MISS:     316723
L2C WRITEBACK ACCESS:    2201394  HIT:    2194642  MISS:       6752
LLC TOTAL     ACCESS:   17921060  HIT:    7643889  MISS:   10277171
LLC LOAD      ACCESS:    7520637  HIT:    2366621  MISS:    5154016
LLC RFO       ACCESS:     790361  HIT:      46946  MISS:     743415
LLC PREFETCH  ACCESS:    7639106  HIT:    3270631  MISS:    4368475
LLC WRITEBACK ACCESS:    1970956  HIT:    1959691  MISS:      11265

CPU 1 cumulative IPC: 0.0886558 instructions: 136493106 cycles: 1539584469
L1D TOTAL     ACCESS:   31410118  HIT:   10673634  MISS:   20736484
L1D LOAD      ACCESS:   28715573  HIT:    8030455  MISS:   20685118
L1D RFO       ACCESS:    2694545  HIT:    2643179  MISS:      51366
L1D PREFETCH  ACCESS:          0  HIT:          0  MISS:          0
L1D WRITEBACK ACCESS:          0  HIT:          0  MISS:          0
L1I TOTAL     ACCESS:   29875895  HIT:   29875895  MISS:          0
L1I LOAD      ACCESS:   29875895  HIT:   29875895  MISS:          0
L1I RFO       ACCESS:          0  HIT:          0  MISS:          0
L1I PREFETCH  ACCESS:          0  HIT:          0  MISS:          0
L1I WRITEBACK ACCESS:          0  HIT:          0  MISS:          0
L2C TOTAL     ACCESS:   22853132  HIT:    2977320  MISS:   19875812
L2C LOAD      ACCESS:   20685078  HIT:    1704337  MISS:   18980741
L2C RFO       ACCESS:      51366  HIT:       1338  MISS:      50028
L2C PREFETCH  ACCESS:    1685200  HIT:     840195  MISS:     845005
L2C WRITEBACK ACCESS:     431488  HIT:     431450  MISS:         38
LLC TOTAL     ACCESS:   41707966  HIT:   28031379  MISS:   13676587
LLC LOAD      ACCESS:   18159916  HIT:   12080399  MISS:    6079517
LLC RFO       ACCESS:      50025  HIT:      44368  MISS:       5657
LLC PREFETCH  ACCESS:   23083832  HIT:   15492527  MISS:    7591305
LLC WRITEBACK ACCESS:     414193  HIT:     414085  MISS:        108

CPU 2 cumulative IPC: 0.186541 instructions: 287196081 cycles: 1539584469
L1D TOTAL     ACCESS:   60843004  HIT:   53627844  MISS:    7215160
L1D LOAD      ACCESS:   55761226  HIT:   48546066  MISS:    7215160
L1D RFO       ACCESS:    5081778  HIT:    5081778  MISS:          0
L1D PREFETCH  ACCESS:          0  HIT:          0  MISS:          0
L1D WRITEBACK ACCESS:          0  HIT:          0  MISS:          0
L1I TOTAL     ACCESS:  102664046  HIT:  102664046  MISS:          0
L1I LOAD      ACCESS:  102664046  HIT:  102664046  MISS:          0
L1I RFO       ACCESS:          0  HIT:          0  MISS:          0
L1I PREFETCH  ACCESS:          0  HIT:          0  MISS:          0
L1I WRITEBACK ACCESS:          0  HIT:          0  MISS:          0
L2C TOTAL     ACCESS:    8104733  HIT:     861897  MISS:    7242836
L2C LOAD      ACCESS:    7215160  HIT:     638694  MISS:    6576466
L2C RFO       ACCESS:          0  HIT:          0  MISS:          0
L2C PREFETCH  ACCESS:     889373  HIT:     223003  MISS:     666370
L2C WRITEBACK ACCESS:        200  HIT:        200  MISS:          0
LLC TOTAL     ACCESS:   13313826  HIT:    6071794  MISS:    7242032
LLC LOAD      ACCESS:    5308658  HIT:    2365687  MISS:    2942971
LLC RFO       ACCESS:          0  HIT:          0  MISS:          0
LLC PREFETCH  ACCESS:    8004981  HIT:    3705920  MISS:    4299061
LLC WRITEBACK ACCESS:        187  HIT:        187  MISS:          0

CPU 3 cumulative IPC: 0.844917 instructions: 1300820707 cycles: 1539584469
L1D TOTAL     ACCESS:  367395977  HIT:  345501110  MISS:   21894867
L1D LOAD      ACCESS:  303431874  HIT:  281537007  MISS:   21894867
L1D RFO       ACCESS:   63964103  HIT:   63964103  MISS:          0
L1D PREFETCH  ACCESS:          0  HIT:          0  MISS:          0
L1D WRITEBACK ACCESS:          0  HIT:          0  MISS:          0
L1I TOTAL     ACCESS:  280162266  HIT:  280162266  MISS:          0
L1I LOAD      ACCESS:  280162266  HIT:  280162266  MISS:          0
L1I RFO       ACCESS:          0  HIT:          0  MISS:          0
L1I PREFETCH  ACCESS:          0  HIT:          0  MISS:          0
L1I WRITEBACK ACCESS:          0  HIT:          0  MISS:          0
L2C TOTAL     ACCESS:   38976550  HIT:   17318995  MISS:   21657555
L2C LOAD      ACCESS:   21894866  HIT:    9355856  MISS:   12539010
L2C RFO       ACCESS:          0  HIT:          0  MISS:          0
L2C PREFETCH  ACCESS:   10289642  HIT:    1172605  MISS:    9117037
L2C WRITEBACK ACCESS:    6792042  HIT:    6790534  MISS:       1508
LLC TOTAL     ACCESS:   90864014  HIT:   68225631  MISS:   22638383
LLC LOAD      ACCESS:   10516097  HIT:    9599891  MISS:     916206
LLC RFO       ACCESS:          0  HIT:          0  MISS:          0
LLC PREFETCH  ACCESS:   73592376  HIT:   51870898  MISS:   21721478
LLC WRITEBACK ACCESS:    6755541  HIT:    6754842  MISS:        699

CPU 4 cumulative IPC: 0.359395 instructions: 553319071 cycles: 1539584469
L1D TOTAL     ACCESS:  155224441  HIT:  115418032  MISS:   39806409
L1D LOAD      ACCESS:   56676647  HIT:   50641061  MISS:    6035586
L1D RFO       ACCESS:   98547794  HIT:   64776971  MISS:   33770823
L1D PREFETCH  ACCESS:          0  HIT:          0  MISS:          0
L1D WRITEBACK ACCESS:          0  HIT:          0  MISS:          0
L1I TOTAL     ACCESS:  134160060  HIT:  134160060  MISS:          0
L1I LOAD      ACCESS:  134160060  HIT:  134160060  MISS:          0
L1I RFO       ACCESS:          0  HIT:          0  MISS:          0
L1I PREFETCH  ACCESS:          0  HIT:          0  MISS:          0
L1I WRITEBACK ACCESS:          0  HIT:          0  MISS:          0
L2C TOTAL     ACCESS:   74406335  HIT:   44217308  MISS:   30189027
L2C LOAD      ACCESS:    6035585  HIT:     766902  MISS:    5268683
L2C RFO       ACCESS:   33770789  HIT:    9622026  MISS:   24148763
L2C PREFETCH  ACCESS:     829138  HIT:      65712  MISS:     763426
L2C WRITEBACK ACCESS:   33770823  HIT:   33762668  MISS:       8155
LLC TOTAL     ACCESS:   60867507  HIT:   36753559  MISS:   24113948
LLC LOAD      ACCESS:    3976704  HIT:    2555085  MISS:    1421619
LLC RFO       ACCESS:   24134448  HIT:    6050839  MISS:   18083609
LLC PREFETCH  ACCESS:    8599807  HIT:    3992723  MISS:    4607084
LLC WRITEBACK ACCESS:   24156548  HIT:   24154912  MISS:       1636

CPU 5 cumulative IPC: 0.411613 instructions: 633712924 cycles: 1539584469
L1D TOTAL     ACCESS:  165259927  HIT:  139691734  MISS:   25568193
L1D LOAD      ACCESS:  114400053  HIT:   89925136  MISS:   24474917
L1D RFO       ACCESS:   50859874  HIT:   49766598  MISS:    1093276
L1D PREFETCH  ACCESS:          0  HIT:          0  MISS:          0
L1D WRITEBACK ACCESS:          0  HIT:          0  MISS:          0
L1I TOTAL     ACCESS:  272002542  HIT:  270191609  MISS:    1810933
L1I LOAD      ACCESS:  272002542  HIT:  270191609  MISS:    1810933
L1I RFO       ACCESS:          0  HIT:          0  MISS:          0
L1I PREFETCH  ACCESS:          0  HIT:          0  MISS:          0
L1I WRITEBACK ACCESS:          0  HIT:          0  MISS:          0
L2C TOTAL     ACCESS:   50982712  HIT:   47998119  MISS:    2984593
L2C LOAD      ACCESS:   26285757  HIT:   24210371  MISS:    2075386
L2C RFO       ACCESS:    1093254  HIT:     284019  MISS:     809235
L2C PREFETCH  ACCESS:   21742637  HIT:   21642883  MISS:      99754
L2C WRITEBACK ACCESS:    1861064  HIT:    1860846  MISS:        218
LLC TOTAL     ACCESS:   20172600  HIT:   18215566  MISS:    1957034
LLC LOAD      ACCESS:    2034408  HIT:    1750606  MISS:     283802
LLC RFO       ACCESS:     808487  HIT:      62281  MISS:     746206
LLC PREFETCH  ACCESS:   16275215  HIT:   15534896  MISS:     740319
LLC WRITEBACK ACCESS:    1054490  HIT:     867783  MISS:     186707

CPU 6 cumulative IPC: 0.0649526 instructions: 100000000 cycles: 1539584469
L1D TOTAL     ACCESS:   16287753  HIT:    9050622  MISS:    7237131
L1D LOAD      ACCESS:   14804696  HIT:    7570344  MISS:    7234352
L1D RFO       ACCESS:    1483057  HIT:    1480278  MISS:       2779
L1D PREFETCH  ACCESS:          0  HIT:          0  MISS:          0
L1D WRITEBACK ACCESS:          0  HIT:          0  MISS:          0
L1I TOTAL     ACCESS:   36415638  HIT:   36415613  MISS:         25
L1I LOAD      ACCESS:   36415638  HIT:   36415613  MISS:         25
L1I RFO       ACCESS:          0  HIT:          0  MISS:          0
L1I PREFETCH  ACCESS:          0  HIT:          0  MISS:          0
L1I WRITEBACK ACCESS:          0  HIT:          0  MISS:          0
L2C TOTAL     ACCESS:    8604944  HIT:    1603627  MISS:    7001317
L2C LOAD      ACCESS:    7234377  HIT:    1411277  MISS:    5823100
L2C RFO       ACCESS:       2779  HIT:         75  MISS:       2704
L2C PREFETCH  ACCESS:    1342316  HIT:     166803  MISS:    1175513
L2C WRITEBACK ACCESS:      25472  HIT:      25472  MISS:          0
LLC TOTAL     ACCESS:   15653473  HIT:    8536964  MISS:    7116509
LLC LOAD      ACCESS:    3623987  HIT:    2128617  MISS:    1495370
LLC RFO       ACCESS:       2650  HIT:       1532  MISS:       1118
LLC PREFETCH  ACCESS:   12015661  HIT:    6395668  MISS:    5619993
LLC WRITEBACK ACCESS:      11175  HIT:      11147  MISS:         28

CPU 7 cumulative IPC: 0.500883 instructions: 771150932 cycles: 1539584470
L1D TOTAL     ACCESS:  199295985  HIT:  162958264  MISS:   36337721
L1D LOAD      ACCESS:   77188657  HIT:   71681348  MISS:    5507309
L1D RFO       ACCESS:  122107328  HIT:   91276916  MISS:   30830412
L1D PREFETCH  ACCESS:          0  HIT:          0  MISS:          0
L1D WRITEBACK ACCESS:          0  HIT:          0  MISS:          0
L1I TOTAL     ACCESS:  183332752  HIT:  183332749  MISS:          3
L1I LOAD      ACCESS:  183332752  HIT:  183332749  MISS:          3
L1I RFO       ACCESS:          0  HIT:          0  MISS:          0
L1I PREFETCH  ACCESS:          0  HIT:          0  MISS:          0
L1I WRITEBACK ACCESS:          0  HIT:          0  MISS:          0
L2C TOTAL     ACCESS:   68042341  HIT:   40649693  MISS:   27392648
L2C LOAD      ACCESS:    5507312  HIT:     810839  MISS:    4696473
L2C RFO       ACCESS:   30830406  HIT:    8945972  MISS:   21884434
L2C PREFETCH  ACCESS:     874214  HIT:      64701  MISS:     809513
L2C WRITEBACK ACCESS:   30830409  HIT:   30828181  MISS:       2228
LLC TOTAL     ACCESS:   55913468  HIT:   33892171  MISS:   22021297
LLC LOAD      ACCESS:    3540391  HIT:    2545452  MISS:     994939
LLC RFO       ACCESS:   21871273  HIT:    5355765  MISS:   16515508
LLC PREFETCH  ACCESS:    8615610  HIT:    4105415  MISS:    4510195
LLC WRITEBACK ACCESS:   21886194  HIT:   21885539  MISS:        655

Region of Interest Statistics

CPU 0 cumulative IPC: 0.216888 instructions: 100000001 cycles: 461067119
L1D TOTAL     ACCESS:   49432702  HIT:   46709300  MISS:    2723402
L1D LOAD      ACCESS:   21708149  HIT:   19228890  MISS:    2479259
L1D RFO       ACCESS:   27724553  HIT:   27480410  MISS:     244143
L1D PREFETCH  ACCESS:          0  HIT:          0  MISS:          0
L1D WRITEBACK ACCESS:          0  HIT:          0  MISS:          0
L1D PREFETCH  REQUESTED:          0  ISSUED:          0  USEFUL:          0  USELESS:          0
L1I TOTAL     ACCESS:   32031504  HIT:   32031504  MISS:          0
L1I LOAD      ACCESS:   32031504  HIT:   32031504  MISS:          0
L1I RFO       ACCESS:          0  HIT:          0  MISS:          0
L1I PREFETCH  ACCESS:          0  HIT:          0  MISS:          0
L1I WRITEBACK ACCESS:          0  HIT:          0  MISS:          0
L1I PREFETCH  REQUESTED:          0  ISSUED:          0  USEFUL:          0  USELESS:          0
L2C TOTAL     ACCESS:    3814101  HIT:    1157057  MISS:    2657044
L2C LOAD      ACCESS:    2479250  HIT:     154405  MISS:    2324845
L2C RFO       ACCESS:     244135  HIT:       7295  MISS:     236840
L2C PREFETCH  ACCESS:     425796  HIT:     332400  MISS:      93396
L2C WRITEBACK ACCESS:     664920  HIT:     662957  MISS:       1963
L2C PREFETCH  REQUESTED:   14208770  ISSUED:   14208770  USEFUL:     285130  USELESS:      51118
LLC TOTAL     ACCESS:    5355687  HIT:    2275341  MISS:    3080346
LLC LOAD      ACCESS:    2251415  HIT:     711001  MISS:    1540414
LLC RFO       ACCESS:     235598  HIT:      13937  MISS:     221661
LLC PREFETCH  ACCESS:    2266577  HIT:     952013  MISS:    1314564
LLC WRITEBACK ACCESS:     602097  HIT:     598390  MISS:       3707
LLC PREFETCH  REQUESTED:          0  ISSUED:          0  USEFUL:   26023056  USELESS:   31437997
Major fault: 0 Minor fault: 86329

CPU 1 cumulative IPC: 0.0888193 instructions: 100000000 cycles: 1125881533
L1D TOTAL     ACCESS:   23036938  HIT:    7869191  MISS:   15167747
L1D LOAD      ACCESS:   21021573  HIT:    5893352  MISS:   15128221
L1D RFO       ACCESS:    2015365  HIT:    1975839  MISS:      39526
L1D PREFETCH  ACCESS:          0  HIT:          0  MISS:          0
L1D WRITEBACK ACCESS:          0  HIT:          0  MISS:          0
L1D PREFETCH  REQUESTED:          0  ISSUED:          0  USEFUL:          0  USELESS:          0
L1I TOTAL     ACCESS:   21844025  HIT:   21844025  MISS:          0
L1I LOAD      ACCESS:   21844025  HIT:   21844025  MISS:          0
L1I RFO       ACCESS:          0  HIT:          0  MISS:          0
L1I PREFETCH  ACCESS:          0  HIT:          0  MISS:          0
L1I WRITEBACK ACCESS:          0  HIT:          0  MISS:          0
L1I PREFETCH  REQUESTED:          0  ISSUED:          0  USEFUL:          0  USELESS:          0
L2C TOTAL     ACCESS:   16752625  HIT:    2210797  MISS:   14541828
L2C LOAD      ACCESS:   15128192  HIT:    1247301  MISS:   13880891
L2C RFO       ACCESS:      39526  HIT:       1151  MISS:      38375
L2C PREFETCH  ACCESS:    1240275  HIT:     617750  MISS:     622525
L2C WRITEBACK ACCESS:     344632  HIT:     344595  MISS:         37
L2C PREFETCH  REQUESTED:   52544045  ISSUED:   52541163  USEFUL:     673101  USELESS:     338486
LLC TOTAL     ACCESS:   30459601  HIT:   20467782  MISS:    9991819
LLC LOAD      ACCESS:   13292111  HIT:    8876868  MISS:    4415243
LLC RFO       ACCESS:      38373  HIT:      34100  MISS:       4273
LLC PREFETCH  ACCESS:   16798311  HIT:   11226098  MISS:    5572213
LLC WRITEBACK ACCESS:     330806  HIT:     330716  MISS:         90
LLC PREFETCH  REQUESTED:          0  ISSUED:          0  USEFUL:   26023056  USELESS:   31437997
Major fault: 0 Minor fault: 133511

CPU 2 cumulative IPC: 0.189961 instructions: 100000002 cycles: 526423225
L1D TOTAL     ACCESS:   21121504  HIT:   18610516  MISS:    2510988
L1D LOAD      ACCESS:   19350258  HIT:   16839270  MISS:    2510988
L1D RFO       ACCESS:    1771246  HIT:    1771246  MISS:          0
L1D PREFETCH  ACCESS:          0  HIT:          0  MISS:          0
L1D WRITEBACK ACCESS:          0  HIT:          0  MISS:          0
L1D PREFETCH  REQUESTED:          0  ISSUED:          0  USEFUL:          0  USELESS:          0
L1I TOTAL     ACCESS:   35790746  HIT:   35790746  MISS:          0
L1I LOAD      ACCESS:   35790746  HIT:   35790746  MISS:          0
L1I RFO       ACCESS:          0  HIT:          0  MISS:          0
L1I PREFETCH  ACCESS:          0  HIT:          0  MISS:          0
L1I WRITEBACK ACCESS:          0  HIT:          0  MISS:          0
L1I PREFETCH  REQUESTED:          0  ISSUED:          0  USEFUL:          0  USELESS:          0
L2C TOTAL     ACCESS:    2841740  HIT:     328977  MISS:    2512763
L2C LOAD      ACCESS:    2510988  HIT:     233152  MISS:    2277836
L2C RFO       ACCESS:          0  HIT:          0  MISS:          0
L2C PREFETCH  ACCESS:     330682  HIT:      95755  MISS:     234927
L2C WRITEBACK ACCESS:         70  HIT:         70  MISS:          0
L2C PREFETCH  REQUESTED:   28293939  ISSUED:   28293939  USEFUL:     737602  USELESS:      61402
LLC TOTAL     ACCESS:    4642235  HIT:    2100437  MISS:    2541798
LLC LOAD      ACCESS:    1845958  HIT:     824960  MISS:    1020998
LLC RFO       ACCESS:          0  HIT:          0  MISS:          0
LLC PREFETCH  ACCESS:    2796214  HIT:    1275414  MISS:    1520800
LLC WRITEBACK ACCESS:         63  HIT:         63  MISS:          0
LLC PREFETCH  REQUESTED:          0  ISSUED:          0  USEFUL:   26023056  USELESS:   31437997
Major fault: 0 Minor fault: 1524

CPU 3 cumulative IPC: 0.881864 instructions: 100000000 cycles: 113396176
L1D TOTAL     ACCESS:   28271955  HIT:   26588598  MISS:    1683357
L1D LOAD      ACCESS:   23354783  HIT:   21671426  MISS:    1683357
L1D RFO       ACCESS:    4917172  HIT:    4917172  MISS:          0
L1D PREFETCH  ACCESS:          0  HIT:          0  MISS:          0
L1D WRITEBACK ACCESS:          0  HIT:          0  MISS:          0
L1D PREFETCH  REQUESTED:          0  ISSUED:          0  USEFUL:          0  USELESS:          0
L1I TOTAL     ACCESS:   21541917  HIT:   21541917  MISS:          0
L1I LOAD      ACCESS:   21541917  HIT:   21541917  MISS:          0
L1I RFO       ACCESS:          0  HIT:          0  MISS:          0
L1I PREFETCH  ACCESS:          0  HIT:          0  MISS:          0
L1I WRITEBACK ACCESS:          0  HIT:          0  MISS:          0
L1I PREFETCH  REQUESTED:          0  ISSUED:          0  USEFUL:          0  USELESS:          0
L2C TOTAL     ACCESS:    3019881  HIT:    1354846  MISS:    1665035
L2C LOAD      ACCESS:    1683357  HIT:     741523  MISS:     941834
L2C RFO       ACCESS:          0  HIT:          0  MISS:          0
L2C PREFETCH  ACCESS:     814318  HIT:      91252  MISS:     723066
L2C WRITEBACK ACCESS:     522206  HIT:     522071  MISS:        135
L2C PREFETCH  REQUESTED:   92985046  ISSUED:   92693451  USEFUL:    9016544  USELESS:     363668
LLC TOTAL     ACCESS:    7159212  HIT:    5418953  MISS:    1740259
LLC LOAD      ACCESS:     805919  HIT:     738914  MISS:      67005
LLC RFO       ACCESS:          0  HIT:          0  MISS:          0
LLC PREFETCH  ACCESS:    5833966  HIT:    4160767  MISS:    1673199
LLC WRITEBACK ACCESS:     519327  HIT:     519272  MISS:         55
LLC PREFETCH  REQUESTED:          0  ISSUED:          0  USEFUL:   26023056  USELESS:   31437997
Major fault: 0 Minor fault: 287623

CPU 4 cumulative IPC: 0.609836 instructions: 100000002 cycles: 163978423
L1D TOTAL     ACCESS:   25730595  HIT:   21978449  MISS:    3752146
L1D LOAD      ACCESS:   10704833  HIT:   10136316  MISS:     568517
L1D RFO       ACCESS:   15025762  HIT:   11842133  MISS:    3183629
L1D PREFETCH  ACCESS:          0  HIT:          0  MISS:          0
L1D WRITEBACK ACCESS:          0  HIT:          0  MISS:          0
L1D PREFETCH  REQUESTED:          0  ISSUED:          0  USEFUL:          0  USELESS:          0
L1I TOTAL     ACCESS:   23759826  HIT:   23759826  MISS:          0
L1I LOAD      ACCESS:   23759826  HIT:   23759826  MISS:          0
L1I RFO       ACCESS:          0  HIT:          0  MISS:          0
L1I PREFETCH  ACCESS:          0  HIT:          0  MISS:          0
L1I WRITEBACK ACCESS:          0  HIT:          0  MISS:          0
L1I PREFETCH  REQUESTED:          0  ISSUED:          0  USEFUL:          0  USELESS:          0
L2C TOTAL     ACCESS:    7041065  HIT:    4227080  MISS:    2813985
L2C LOAD      ACCESS:     568516  HIT:      98195  MISS:     470321
L2C RFO       ACCESS:    3183630  HIT:     938191  MISS:    2245439
L2C PREFETCH  ACCESS:     105289  HIT:       7094  MISS:      98195
L2C WRITEBACK ACCESS:    3183630  HIT:    3183600  MISS:         30
L2C PREFETCH  REQUESTED:   26479422  ISSUED:   26479422  USEFUL:     802250  USELESS:         19
LLC TOTAL     ACCESS:    5835614  HIT:    3561561  MISS:    2274053
LLC LOAD      ACCESS:     359303  HIT:     291107  MISS:      68196
LLC RFO       ACCESS:    2243923  HIT:     538423  MISS:    1705500
LLC PREFETCH  ACCESS:     986919  HIT:     486592  MISS:     500327
LLC WRITEBACK ACCESS:    2245469  HIT:    2245439  MISS:         30
LLC PREFETCH  REQUESTED:          0  ISSUED:          0  USEFUL:   26023056  USELESS:   31437997
Major fault: 0 Minor fault: 196978

CPU 5 cumulative IPC: 0.421936 instructions: 100000001 cycles: 237002506
L1D TOTAL     ACCESS:   25215804  HIT:   21224363  MISS:    3991441
L1D LOAD      ACCESS:   17547913  HIT:   13726563  MISS:    3821350
L1D RFO       ACCESS:    7667891  HIT:    7497800  MISS:     170091
L1D PREFETCH  ACCESS:          0  HIT:          0  MISS:          0
L1D WRITEBACK ACCESS:          0  HIT:          0  MISS:          0
L1D PREFETCH  REQUESTED:          0  ISSUED:          0  USEFUL:          0  USELESS:          0
L1I TOTAL     ACCESS:   43558276  HIT:   43286726  MISS:     271550
L1I LOAD      ACCESS:   43558276  HIT:   43286726  MISS:     271550
L1I RFO       ACCESS:          0  HIT:          0  MISS:          0
L1I PREFETCH  ACCESS:          0  HIT:          0  MISS:          0
L1I WRITEBACK ACCESS:          0  HIT:          0  MISS:          0
L1I PREFETCH  REQUESTED:          0  ISSUED:          0  USEFUL:          0  USELESS:          0
L2C TOTAL     ACCESS:    8089951  HIT:    7630449  MISS:     459502
L2C LOAD      ACCESS:    4092887  HIT:    3770513  MISS:     322374
L2C RFO       ACCESS:     170090  HIT:      47307  MISS:     122783
L2C PREFETCH  ACCESS:    3536312  HIT:    3522008  MISS:      14304
L2C WRITEBACK ACCESS:     290662  HIT:     290621  MISS:         41
L2C PREFETCH  REQUESTED:   44544655  ISSUED:   44139228  USEFUL:      19405  USELESS:      84521
LLC TOTAL     ACCESS:    2993278  HIT:    2691792  MISS:     301486
LLC LOAD      ACCESS:     315491  HIT:     270798  MISS:      44693
LLC RFO       ACCESS:     122669  HIT:       9851  MISS:     112818
LLC PREFETCH  ACCESS:    2395778  HIT:    2279358  MISS:     116420
LLC WRITEBACK ACCESS:     159340  HIT:     131785  MISS:      27555
LLC PREFETCH  REQUESTED:          0  ISSUED:          0  USEFUL:   26023056  USELESS:   31437997
Major fault: 0 Minor fault: 2888

CPU 6 cumulative IPC: 0.0649526 instructions: 100000000 cycles: 1539584469
L1D TOTAL     ACCESS:   16287753  HIT:    9050622  MISS:    7237131
L1D LOAD      ACCESS:   14804696  HIT:    7570344  MISS:    7234352
L1D RFO       ACCESS:    1483057  HIT:    1480278  MISS:       2779
L1D PREFETCH  ACCESS:          0  HIT:          0  MISS:          0
L1D WRITEBACK ACCESS:          0  HIT:          0  MISS:          0
L1D PREFETCH  REQUESTED:          0  ISSUED:          0  USEFUL:          0  USELESS:          0
L1I TOTAL     ACCESS:   36415638  HIT:   36415613  MISS:         25
L1I LOAD      ACCESS:   36415638  HIT:   36415613  MISS:         25
L1I RFO       ACCESS:          0  HIT:          0  MISS:          0
L1I PREFETCH  ACCESS:          0  HIT:          0  MISS:          0
L1I WRITEBACK ACCESS:          0  HIT:          0  MISS:          0
L1I PREFETCH  REQUESTED:          0  ISSUED:          0  USEFUL:          0  USELESS:          0
L2C TOTAL     ACCESS:    8604944  HIT:    1603627  MISS:    7001317
L2C LOAD      ACCESS:    7234377  HIT:    1411277  MISS:    5823100
L2C RFO       ACCESS:       2779  HIT:         75  MISS:       2704
L2C PREFETCH  ACCESS:    1342316  HIT:     166803  MISS:    1175513
L2C WRITEBACK ACCESS:      25472  HIT:      25472  MISS:          0
L2C PREFETCH  REQUESTED:   35291708  ISSUED:   35291600  USEFUL:    1483904  USELESS:      10720
LLC TOTAL     ACCESS:   15653473  HIT:    8536964  MISS:    7116509
LLC LOAD      ACCESS:    3623987  HIT:    2128617  MISS:    1495370
LLC RFO       ACCESS:       2650  HIT:       1532  MISS:       1118
LLC PREFETCH  ACCESS:   12015661  HIT:    6395668  MISS:    5619993
LLC WRITEBACK ACCESS:      11175  HIT:      11147  MISS:         28
LLC PREFETCH  REQUESTED:          0  ISSUED:          0  USEFUL:   26023056  USELESS:   31437997
Major fault: 0 Minor fault: 48143

CPU 7 cumulative IPC: 0.459507 instructions: 100000000 cycles: 217624519
L1D TOTAL     ACCESS:   26330800  HIT:   20859564  MISS:    5471236
L1D LOAD      ACCESS:    9910249  HIT:    9081108  MISS:     829141
L1D RFO       ACCESS:   16420551  HIT:   11778456  MISS:    4642095
L1D PREFETCH  ACCESS:          0  HIT:          0  MISS:          0
L1D WRITEBACK ACCESS:          0  HIT:          0  MISS:          0
L1D PREFETCH  REQUESTED:          0  ISSUED:          0  USEFUL:          0  USELESS:          0
L1I TOTAL     ACCESS:   23910440  HIT:   23910440  MISS:          0
L1I LOAD      ACCESS:   23910440  HIT:   23910440  MISS:          0
L1I RFO       ACCESS:          0  HIT:          0  MISS:          0
L1I PREFETCH  ACCESS:          0  HIT:          0  MISS:          0
L1I WRITEBACK ACCESS:          0  HIT:          0  MISS:          0
L1I PREFETCH  REQUESTED:          0  ISSUED:          0  USEFUL:          0  USELESS:          0
L2C TOTAL     ACCESS:   10243662  HIT:    6134381  MISS:    4109281
L2C LOAD      ACCESS:     829141  HIT:     120996  MISS:     708145
L2C RFO       ACCESS:    4642092  HIT:    1362205  MISS:    3279887
L2C PREFETCH  ACCESS:     130334  HIT:       9415  MISS:     120919
L2C WRITEBACK ACCESS:    4642095  HIT:    4641765  MISS:        330
L2C PREFETCH  REQUESTED:   24847308  ISSUED:   24847308  USEFUL:     861460  USELESS:          6
LLC TOTAL     ACCESS:    8385944  HIT:    5070262  MISS:    3315682
LLC LOAD      ACCESS:     539824  HIT:     383071  MISS:     156753
LLC RFO       ACCESS:    3277839  HIT:     791258  MISS:    2486581
LLC PREFETCH  ACCESS:    1288238  HIT:     616021  MISS:     672217
LLC WRITEBACK ACCESS:    3280043  HIT:    3279912  MISS:        131
LLC PREFETCH  REQUESTED:          0  ISSUED:          0  USEFUL:   26023056  USELESS:   31437997
Major fault: 0 Minor fault: 188125

DRAM Statistics
 CHANNEL 0
 RQ ROW_BUFFER_HIT:   13186125  ROW_BUFFER_MISS:   41223083
 DBUS_CONGESTED:  136473049
 WQ ROW_BUFFER_HIT:    1507681  ROW_BUFFER_MISS:   20721397  FULL:          0

 CHANNEL 1
 RQ ROW_BUFFER_HIT:   13147646  ROW_BUFFER_MISS:   41284895
 DBUS_CONGESTED:  136473049
 WQ ROW_BUFFER_HIT:    1518515  ROW_BUFFER_MISS:   20707453  FULL:          0

 AVG_CONGESTED_CYCLE: 14
