Initialize SIGNATURE TABLE
ST_SET: 1
ST_WAY: 256
ST_TAG_BIT: 16
ST_TAG_MASK: ffff

Initialize PATTERN TABLE
PT_SET: 512
PT_WAY: 4
SIG_DELTA_BIT: 7
C_SIG_BIT: 4
C_DELTA_BIT: 4

Initialize PREFETCH FILTER
FILTER_SET: 1024

*** ChampSim Multicore Out-of-Order Simulator ***

Warmup Instructions: 20000000
Simulation Instructions: 100000000
Number of CPUs: 8
LLC sets: 16384
LLC ways: 16
Off-chip DRAM Size: 8192 MB Channels: 2 Width: 64-bit Data Rate: 1600 MT/s

CPU 0 runs /scratch/user/djimenez/champsim-traces/speccpu2017/xz/623.xalancbmk_s/623.xalancbmk_s-592B.champsimtrace.xz
CPU 1 runs /scratch/user/djimenez/champsim-traces/speccpu2017/xz/602.gcc_s/602.gcc_s-1850B.champsimtrace.xz
CPU 2 runs /scratch/user/djimenez/champsim-traces/speccpu2017/xz/605.mcf_s/605.mcf_s-994B.champsimtrace.xz
CPU 3 runs /scratch/user/djimenez/champsim-traces/speccpu2017/xz/605.mcf_s/605.mcf_s-1536B.champsimtrace.xz
CPU 4 runs /scratch/user/djimenez/champsim-traces/speccpu2017/xz/603.bwaves_s/603.bwaves_s-2609B.champsimtrace.xz
CPU 5 runs /scratch/user/djimenez/champsim-traces/speccpu2017/xz/654.roms_s/654.roms_s-1390B.champsimtrace.xz
CPU 6 runs /scratch/user/djimenez/champsim-traces/speccpu2017/xz/649.fotonik3d_s/649.fotonik3d_s-10881B.champsimtrace.xz
CPU 7 runs /scratch/user/djimenez/champsim-traces/speccpu2017/xz/619.lbm_s/619.lbm_s-3766B.champsimtrace.xz
Heartbeat CPU 3 instructions: 10000002 cycles: 3657489 heartbeat IPC: 2.73412 cumulative IPC: 2.73412 (Simulation time: 0 hr 3 min 19 sec) 
Heartbeat CPU 7 instructions: 10000000 cycles: 4294063 heartbeat IPC: 2.3288 cumulative IPC: 2.3288 (Simulation time: 0 hr 3 min 53 sec) 
Heartbeat CPU 0 instructions: 10000002 cycles: 5026903 heartbeat IPC: 1.9893 cumulative IPC: 1.9893 (Simulation time: 0 hr 4 min 34 sec) 
Heartbeat CPU 4 instructions: 10000000 cycles: 5295500 heartbeat IPC: 1.8884 cumulative IPC: 1.8884 (Simulation time: 0 hr 4 min 49 sec) 
Heartbeat CPU 2 instructions: 10000000 cycles: 5609466 heartbeat IPC: 1.7827 cumulative IPC: 1.7827 (Simulation time: 0 hr 5 min 6 sec) 
Heartbeat CPU 1 instructions: 10000001 cycles: 5691684 heartbeat IPC: 1.75695 cumulative IPC: 1.75695 (Simulation time: 0 hr 5 min 11 sec) 
Heartbeat CPU 5 instructions: 10000001 cycles: 6747132 heartbeat IPC: 1.48211 cumulative IPC: 1.48211 (Simulation time: 0 hr 6 min 11 sec) 
Heartbeat CPU 3 instructions: 20000000 cycles: 7314236 heartbeat IPC: 2.73467 cumulative IPC: 2.73439 (Simulation time: 0 hr 6 min 44 sec) 
Heartbeat CPU 6 instructions: 10000001 cycles: 8413101 heartbeat IPC: 1.18862 cumulative IPC: 1.18862 (Simulation time: 0 hr 7 min 44 sec) 
Heartbeat CPU 7 instructions: 20000000 cycles: 8619142 heartbeat IPC: 2.3121 cumulative IPC: 2.32042 (Simulation time: 0 hr 7 min 55 sec) 
Heartbeat CPU 0 instructions: 20000000 cycles: 10137780 heartbeat IPC: 1.95661 cumulative IPC: 1.97282 (Simulation time: 0 hr 9 min 16 sec) 
Heartbeat CPU 4 instructions: 20000000 cycles: 10619812 heartbeat IPC: 1.87818 cumulative IPC: 1.88327 (Simulation time: 0 hr 9 min 42 sec) 
Heartbeat CPU 3 instructions: 30000002 cycles: 10983506 heartbeat IPC: 2.72534 cumulative IPC: 0.910456 (Simulation time: 0 hr 10 min 1 sec) 
Heartbeat CPU 2 instructions: 20000000 cycles: 11285859 heartbeat IPC: 1.76168 cumulative IPC: 1.77213 (Simulation time: 0 hr 10 min 18 sec) 
Heartbeat CPU 1 instructions: 20000000 cycles: 11582528 heartbeat IPC: 1.69755 cumulative IPC: 1.72674 (Simulation time: 0 hr 10 min 34 sec) 
Heartbeat CPU 5 instructions: 20000000 cycles: 12012028 heartbeat IPC: 1.89937 cumulative IPC: 1.665 (Simulation time: 0 hr 10 min 56 sec) 
Heartbeat CPU 7 instructions: 30000001 cycles: 12963470 heartbeat IPC: 2.30185 cumulative IPC: 0.771398 (Simulation time: 0 hr 11 min 47 sec) 
Heartbeat CPU 3 instructions: 40000000 cycles: 14648973 heartbeat IPC: 2.72816 cumulative IPC: 1.36528 (Simulation time: 0 hr 13 min 18 sec) 
Heartbeat CPU 4 instructions: 30000000 cycles: 15956988 heartbeat IPC: 1.87365 cumulative IPC: 0.626685 (Simulation time: 0 hr 14 min 34 sec) 
Heartbeat CPU 0 instructions: 30000003 cycles: 16124333 heartbeat IPC: 1.67041 cumulative IPC: 0.620181 (Simulation time: 0 hr 14 min 43 sec) 
Heartbeat CPU 5 instructions: 30000003 cycles: 16635878 heartbeat IPC: 2.1627 cumulative IPC: 0.601111 (Simulation time: 0 hr 15 min 12 sec) 
Heartbeat CPU 6 instructions: 20000000 cycles: 16797800 heartbeat IPC: 1.19265 cumulative IPC: 1.19063 (Simulation time: 0 hr 15 min 22 sec) 

Warmup complete CPU 0 instructions: 30998705 cycles: 16797819 (Simulation time: 0 hr 15 min 22 sec) 
Warmup complete CPU 1 instructions: 28861373 cycles: 16797819 (Simulation time: 0 hr 15 min 22 sec) 
Warmup complete CPU 2 instructions: 29634027 cycles: 16797819 (Simulation time: 0 hr 15 min 22 sec) 
Warmup complete CPU 3 instructions: 45864453 cycles: 16797819 (Simulation time: 0 hr 15 min 22 sec) 
Warmup complete CPU 4 instructions: 31578305 cycles: 16797819 (Simulation time: 0 hr 15 min 22 sec) 
Warmup complete CPU 5 instructions: 30377472 cycles: 16797819 (Simulation time: 0 hr 15 min 22 sec) 
Warmup complete CPU 6 instructions: 20000001 cycles: 16797819 (Simulation time: 0 hr 15 min 22 sec) 
Warmup complete CPU 7 instructions: 38797460 cycles: 16797818 (Simulation time: 0 hr 15 min 22 sec) 

Heartbeat CPU 2 instructions: 30000000 cycles: 18603919 heartbeat IPC: 1.36648 cumulative IPC: 0.202632 (Simulation time: 0 hr 15 min 53 sec) 
Heartbeat CPU 7 instructions: 40000000 cycles: 18725956 heartbeat IPC: 1.73536 cumulative IPC: 0.623679 (Simulation time: 0 hr 15 min 55 sec) 
Heartbeat CPU 1 instructions: 30000003 cycles: 21585224 heartbeat IPC: 0.999731 cumulative IPC: 0.237839 (Simulation time: 0 hr 16 min 51 sec) 
Heartbeat CPU 4 instructions: 40000000 cycles: 25899674 heartbeat IPC: 1.00576 cumulative IPC: 0.925272 (Simulation time: 0 hr 18 min 10 sec) 
Heartbeat CPU 7 instructions: 50000003 cycles: 34334408 heartbeat IPC: 0.640679 cumulative IPC: 0.63881 (Simulation time: 0 hr 20 min 44 sec) 
Heartbeat CPU 3 instructions: 50000003 cycles: 37335253 heartbeat IPC: 0.440795 cumulative IPC: 0.201366 (Simulation time: 0 hr 21 min 36 sec) 
Heartbeat CPU 4 instructions: 50000001 cycles: 37936649 heartbeat IPC: 0.830774 cumulative IPC: 0.871462 (Simulation time: 0 hr 21 min 47 sec) 
Heartbeat CPU 5 instructions: 40000000 cycles: 38542732 heartbeat IPC: 0.456478 cumulative IPC: 0.442519 (Simulation time: 0 hr 21 min 57 sec) 
Heartbeat CPU 0 instructions: 40000000 cycles: 46856011 heartbeat IPC: 0.325397 cumulative IPC: 0.299462 (Simulation time: 0 hr 24 min 32 sec) 
Heartbeat CPU 6 instructions: 30000000 cycles: 48298606 heartbeat IPC: 0.317452 cumulative IPC: 0.317452 (Simulation time: 0 hr 25 min 0 sec) 
Heartbeat CPU 4 instructions: 60000000 cycles: 50229674 heartbeat IPC: 0.813469 cumulative IPC: 0.850138 (Simulation time: 0 hr 25 min 35 sec) 
Heartbeat CPU 7 instructions: 60000000 cycles: 51689034 heartbeat IPC: 0.576215 cumulative IPC: 0.607676 (Simulation time: 0 hr 26 min 1 sec) 
Heartbeat CPU 5 instructions: 50000003 cycles: 59633103 heartbeat IPC: 0.47415 cumulative IPC: 0.458093 (Simulation time: 0 hr 28 min 25 sec) 
Heartbeat CPU 4 instructions: 70000003 cycles: 61288504 heartbeat IPC: 0.904255 cumulative IPC: 0.86359 (Simulation time: 0 hr 28 min 56 sec) 
Heartbeat CPU 2 instructions: 40000000 cycles: 62071674 heartbeat IPC: 0.230056 cumulative IPC: 0.228962 (Simulation time: 0 hr 29 min 10 sec) 
Heartbeat CPU 7 instructions: 70000003 cycles: 66493226 heartbeat IPC: 0.675485 cumulative IPC: 0.627876 (Simulation time: 0 hr 30 min 40 sec) 
Heartbeat CPU 1 instructions: 40000000 cycles: 68030466 heartbeat IPC: 0.215307 cumulative IPC: 0.217413 (Simulation time: 0 hr 31 min 12 sec) 
Heartbeat CPU 5 instructions: 60000000 cycles: 71143278 heartbeat IPC: 0.868796 cumulative IPC: 0.545078 (Simulation time: 0 hr 32 min 16 sec) 
Heartbeat CPU 4 instructions: 80000000 cycles: 71510864 heartbeat IPC: 0.978247 cumulative IPC: 0.885012 (Simulation time: 0 hr 32 min 23 sec) 
Heartbeat CPU 6 instructions: 40000000 cycles: 76288769 heartbeat IPC: 0.357268 cumulative IPC: 0.336186 (Simulation time: 0 hr 33 min 55 sec) 
Heartbeat CPU 0 instructions: 50000002 cycles: 77086752 heartbeat IPC: 0.330789 cumulative IPC: 0.315171 (Simulation time: 0 hr 34 min 10 sec) 
Heartbeat CPU 7 instructions: 80000000 cycles: 80326314 heartbeat IPC: 0.722904 cumulative IPC: 0.648568 (Simulation time: 0 hr 35 min 13 sec) 
Heartbeat CPU 5 instructions: 70000002 cycles: 80999441 heartbeat IPC: 1.01459 cumulative IPC: 0.617158 (Simulation time: 0 hr 35 min 25 sec) 
Heartbeat CPU 4 instructions: 90000002 cycles: 81991648 heartbeat IPC: 0.954127 cumulative IPC: 0.896123 (Simulation time: 0 hr 35 min 44 sec) 
Heartbeat CPU 3 instructions: 60000000 cycles: 87961811 heartbeat IPC: 0.197525 cumulative IPC: 0.198633 (Simulation time: 0 hr 37 min 37 sec) 
Heartbeat CPU 5 instructions: 80000000 cycles: 90967152 heartbeat IPC: 1.00324 cumulative IPC: 0.669044 (Simulation time: 0 hr 38 min 34 sec) 
Heartbeat CPU 4 instructions: 100000000 cycles: 92576901 heartbeat IPC: 0.94471 cumulative IPC: 0.90291 (Simulation time: 0 hr 39 min 4 sec) 
Heartbeat CPU 7 instructions: 90000000 cycles: 94897722 heartbeat IPC: 0.686275 cumulative IPC: 0.655603 (Simulation time: 0 hr 39 min 45 sec) 
Heartbeat CPU 6 instructions: 50000001 cycles: 103049066 heartbeat IPC: 0.373688 cumulative IPC: 0.347821 (Simulation time: 0 hr 42 min 11 sec) 
Heartbeat CPU 4 instructions: 110000002 cycles: 103568785 heartbeat IPC: 0.909762 cumulative IPC: 0.903778 (Simulation time: 0 hr 42 min 20 sec) 
Heartbeat CPU 0 instructions: 60000000 cycles: 105610289 heartbeat IPC: 0.350588 cumulative IPC: 0.326545 (Simulation time: 0 hr 42 min 57 sec) 
Heartbeat CPU 1 instructions: 50000003 cycles: 109437910 heartbeat IPC: 0.241503 cumulative IPC: 0.22818 (Simulation time: 0 hr 44 min 8 sec) 
Heartbeat CPU 5 instructions: 90000003 cycles: 109708906 heartbeat IPC: 0.533568 cumulative IPC: 0.641716 (Simulation time: 0 hr 44 min 12 sec) 
Heartbeat CPU 7 instructions: 100000000 cycles: 109924086 heartbeat IPC: 0.665497 cumulative IPC: 0.6572 (Simulation time: 0 hr 44 min 16 sec) 
Heartbeat CPU 4 instructions: 120000000 cycles: 114552198 heartbeat IPC: 0.910464 cumulative IPC: 0.904529 (Simulation time: 0 hr 45 min 40 sec) 
Heartbeat CPU 7 instructions: 110000001 cycles: 125197037 heartbeat IPC: 0.654752 cumulative IPC: 0.656855 (Simulation time: 0 hr 48 min 44 sec) 
Heartbeat CPU 4 instructions: 130000002 cycles: 125396729 heartbeat IPC: 0.922124 cumulative IPC: 0.906286 (Simulation time: 0 hr 48 min 48 sec) 
Finished CPU 4 instructions: 100000002 cycles: 110374323 cumulative IPC: 0.906008 (Simulation time: 0 hr 49 min 19 sec) 
Heartbeat CPU 5 instructions: 100000000 cycles: 129842498 heartbeat IPC: 0.496682 cumulative IPC: 0.615885 (Simulation time: 0 hr 50 min 7 sec) 
Heartbeat CPU 3 instructions: 70000000 cycles: 132543543 heartbeat IPC: 0.224307 cumulative IPC: 0.208522 (Simulation time: 0 hr 50 min 55 sec) 
Heartbeat CPU 6 instructions: 60000000 cycles: 132839061 heartbeat IPC: 0.335683 cumulative IPC: 0.344705 (Simulation time: 0 hr 51 min 1 sec) 
Heartbeat CPU 0 instructions: 70000001 cycles: 132871284 heartbeat IPC: 0.366825 cumulative IPC: 0.336005 (Simulation time: 0 hr 51 min 1 sec) 
Heartbeat CPU 4 instructions: 140000000 cycles: 136290249 heartbeat IPC: 0.917977 cumulative IPC: 0.907352 (Simulation time: 0 hr 52 min 2 sec) 
Heartbeat CPU 7 instructions: 120000000 cycles: 140666484 heartbeat IPC: 0.646435 cumulative IPC: 0.655554 (Simulation time: 0 hr 53 min 19 sec) 
Heartbeat CPU 4 instructions: 150000002 cycles: 147253403 heartbeat IPC: 0.912146 cumulative IPC: 0.907755 (Simulation time: 0 hr 55 min 13 sec) 
Heartbeat CPU 5 instructions: 110000000 cycles: 149772529 heartbeat IPC: 0.501755 cumulative IPC: 0.598779 (Simulation time: 0 hr 55 min 59 sec) 
Heartbeat CPU 1 instructions: 60000000 cycles: 151679177 heartbeat IPC: 0.236735 cumulative IPC: 0.230859 (Simulation time: 0 hr 56 min 34 sec) 
Heartbeat CPU 0 instructions: 80000000 cycles: 153623128 heartbeat IPC: 0.481885 cumulative IPC: 0.35813 (Simulation time: 0 hr 57 min 11 sec) 
Heartbeat CPU 4 instructions: 160000000 cycles: 158259675 heartbeat IPC: 0.908573 cumulative IPC: 0.907819 (Simulation time: 0 hr 58 min 38 sec) 
Heartbeat CPU 7 instructions: 130000000 cycles: 158898230 heartbeat IPC: 0.548494 cumulative IPC: 0.641818 (Simulation time: 0 hr 58 min 52 sec) 
Heartbeat CPU 6 instructions: 70000000 cycles: 160844087 heartbeat IPC: 0.357079 cumulative IPC: 0.347111 (Simulation time: 0 hr 59 min 30 sec) 
Heartbeat CPU 5 instructions: 120000000 cycles: 163880343 heartbeat IPC: 0.708827 cumulative IPC: 0.609335 (Simulation time: 1 hr 0 min 27 sec) 
Heartbeat CPU 4 instructions: 170000002 cycles: 169390502 heartbeat IPC: 0.898406 cumulative IPC: 0.907132 (Simulation time: 1 hr 2 min 19 sec) 
Heartbeat CPU 0 instructions: 90000000 cycles: 172992923 heartbeat IPC: 0.516268 cumulative IPC: 0.377741 (Simulation time: 1 hr 3 min 28 sec) 
Finished CPU 7 instructions: 100000002 cycles: 159545402 cumulative IPC: 0.626781 (Simulation time: 1 hr 4 min 31 sec) 
Heartbeat CPU 3 instructions: 80000000 cycles: 178965365 heartbeat IPC: 0.215416 cumulative IPC: 0.210496 (Simulation time: 1 hr 5 min 20 sec) 
Heartbeat CPU 7 instructions: 140000000 cycles: 179057156 heartbeat IPC: 0.496058 cumulative IPC: 0.623709 (Simulation time: 1 hr 5 min 22 sec) 
Heartbeat CPU 5 instructions: 130000003 cycles: 180273453 heartbeat IPC: 0.610013 cumulative IPC: 0.609403 (Simulation time: 1 hr 5 min 47 sec) 
Heartbeat CPU 4 instructions: 180000000 cycles: 180795497 heartbeat IPC: 0.876809 cumulative IPC: 0.905023 (Simulation time: 1 hr 5 min 56 sec) 
Finished CPU 5 instructions: 100000000 cycles: 164295187 cumulative IPC: 0.608661 (Simulation time: 1 hr 6 min 1 sec) 
Heartbeat CPU 2 instructions: 50000000 cycles: 183771229 heartbeat IPC: 0.0821696 cumulative IPC: 0.121971 (Simulation time: 1 hr 6 min 51 sec) 
Heartbeat CPU 6 instructions: 80000000 cycles: 191161502 heartbeat IPC: 0.329843 cumulative IPC: 0.344108 (Simulation time: 1 hr 9 min 8 sec) 
Heartbeat CPU 4 instructions: 190000000 cycles: 191685433 heartbeat IPC: 0.918279 cumulative IPC: 0.905849 (Simulation time: 1 hr 9 min 18 sec) 
Heartbeat CPU 0 instructions: 100000000 cycles: 195272233 heartbeat IPC: 0.448847 cumulative IPC: 0.386617 (Simulation time: 1 hr 10 min 27 sec) 
Heartbeat CPU 1 instructions: 70000001 cycles: 195466104 heartbeat IPC: 0.228379 cumulative IPC: 0.230251 (Simulation time: 1 hr 10 min 30 sec) 
Heartbeat CPU 7 instructions: 150000001 cycles: 201308176 heartbeat IPC: 0.449418 cumulative IPC: 0.60269 (Simulation time: 1 hr 12 min 24 sec) 
Heartbeat CPU 4 instructions: 200000000 cycles: 203234182 heartbeat IPC: 0.865895 cumulative IPC: 0.903374 (Simulation time: 1 hr 12 min 59 sec) 
Heartbeat CPU 5 instructions: 140000000 cycles: 205719070 heartbeat IPC: 0.392995 cumulative IPC: 0.580255 (Simulation time: 1 hr 13 min 42 sec) 
Heartbeat CPU 4 instructions: 210000002 cycles: 215112391 heartbeat IPC: 0.841878 cumulative IPC: 0.89969 (Simulation time: 1 hr 16 min 34 sec) 
Heartbeat CPU 6 instructions: 90000000 cycles: 222104046 heartbeat IPC: 0.32318 cumulative IPC: 0.340954 (Simulation time: 1 hr 18 min 26 sec) 
Heartbeat CPU 4 instructions: 220000000 cycles: 226225693 heartbeat IPC: 0.899822 cumulative IPC: 0.899697 (Simulation time: 1 hr 19 min 33 sec) 
Heartbeat CPU 0 instructions: 110000001 cycles: 227183230 heartbeat IPC: 0.313372 cumulative IPC: 0.375507 (Simulation time: 1 hr 19 min 48 sec) 
Heartbeat CPU 7 instructions: 160000000 cycles: 228849382 heartbeat IPC: 0.363092 cumulative IPC: 0.571571 (Simulation time: 1 hr 20 min 16 sec) 
Heartbeat CPU 3 instructions: 90000003 cycles: 229293654 heartbeat IPC: 0.198695 cumulative IPC: 0.207701 (Simulation time: 1 hr 20 min 24 sec) 
Heartbeat CPU 5 instructions: 150000000 cycles: 230818300 heartbeat IPC: 0.398419 cumulative IPC: 0.55893 (Simulation time: 1 hr 20 min 50 sec) 
Heartbeat CPU 4 instructions: 230000001 cycles: 237999390 heartbeat IPC: 0.849351 cumulative IPC: 0.897018 (Simulation time: 1 hr 22 min 48 sec) 
Heartbeat CPU 1 instructions: 80000000 cycles: 243219135 heartbeat IPC: 0.209411 cumulative IPC: 0.225856 (Simulation time: 1 hr 24 min 24 sec) 
Heartbeat CPU 2 instructions: 60000000 cycles: 246363844 heartbeat IPC: 0.159763 cumulative IPC: 0.132276 (Simulation time: 1 hr 25 min 18 sec) 
Heartbeat CPU 5 instructions: 160000000 cycles: 248634818 heartbeat IPC: 0.561277 cumulative IPC: 0.559111 (Simulation time: 1 hr 25 min 59 sec) 
Heartbeat CPU 4 instructions: 240000000 cycles: 249315292 heartbeat IPC: 0.883712 cumulative IPC: 0.89637 (Simulation time: 1 hr 26 min 11 sec) 
Heartbeat CPU 6 instructions: 100000000 cycles: 252323803 heartbeat IPC: 0.330909 cumulative IPC: 0.339665 (Simulation time: 1 hr 26 min 59 sec) 
Heartbeat CPU 0 instructions: 120000000 cycles: 259995951 heartbeat IPC: 0.30476 cumulative IPC: 0.365962 (Simulation time: 1 hr 29 min 5 sec) 
Heartbeat CPU 4 instructions: 250000001 cycles: 261774781 heartbeat IPC: 0.802601 cumulative IPC: 0.891601 (Simulation time: 1 hr 29 min 35 sec) 
Heartbeat CPU 7 instructions: 170000002 cycles: 261959395 heartbeat IPC: 0.302024 cumulative IPC: 0.535168 (Simulation time: 1 hr 29 min 38 sec) 
Heartbeat CPU 5 instructions: 170000003 cycles: 266695181 heartbeat IPC: 0.553699 cumulative IPC: 0.55872 (Simulation time: 1 hr 30 min 58 sec) 
Heartbeat CPU 4 instructions: 260000000 cycles: 273590970 heartbeat IPC: 0.846296 cumulative IPC: 0.889516 (Simulation time: 1 hr 32 min 53 sec) 
Heartbeat CPU 3 instructions: 100000000 cycles: 276665068 heartbeat IPC: 0.211098 cumulative IPC: 0.20832 (Simulation time: 1 hr 33 min 45 sec) 
Heartbeat CPU 6 instructions: 110000002 cycles: 280830326 heartbeat IPC: 0.350797 cumulative IPC: 0.340867 (Simulation time: 1 hr 34 min 55 sec) 
Heartbeat CPU 5 instructions: 180000000 cycles: 284176180 heartbeat IPC: 0.572049 cumulative IPC: 0.559591 (Simulation time: 1 hr 35 min 50 sec) 
Heartbeat CPU 4 instructions: 270000003 cycles: 285269292 heartbeat IPC: 0.856288 cumulative IPC: 0.888071 (Simulation time: 1 hr 36 min 8 sec) 
Heartbeat CPU 0 instructions: 130000002 cycles: 290093267 heartbeat IPC: 0.332256 cumulative IPC: 0.36225 (Simulation time: 1 hr 37 min 29 sec) 
Heartbeat CPU 1 instructions: 90000000 cycles: 292477962 heartbeat IPC: 0.203009 cumulative IPC: 0.221774 (Simulation time: 1 hr 38 min 10 sec) 
Finished CPU 0 instructions: 100000002 cycles: 276185051 cumulative IPC: 0.362076 (Simulation time: 1 hr 38 min 18 sec) 
Heartbeat CPU 4 instructions: 280000000 cycles: 296095669 heartbeat IPC: 0.92367 cumulative IPC: 0.889451 (Simulation time: 1 hr 39 min 8 sec) 
Heartbeat CPU 7 instructions: 180000000 cycles: 296275488 heartbeat IPC: 0.291408 cumulative IPC: 0.505237 (Simulation time: 1 hr 39 min 11 sec) 
Heartbeat CPU 5 instructions: 190000000 cycles: 303093624 heartbeat IPC: 0.528613 cumulative IPC: 0.557544 (Simulation time: 1 hr 41 min 10 sec) 
Heartbeat CPU 4 instructions: 290000003 cycles: 307728128 heartbeat IPC: 0.859664 cumulative IPC: 0.88826 (Simulation time: 1 hr 42 min 27 sec) 
Heartbeat CPU 6 instructions: 120000000 cycles: 310429460 heartbeat IPC: 0.337848 cumulative IPC: 0.340563 (Simulation time: 1 hr 43 min 11 sec) 
Finished CPU 6 instructions: 100000000 cycles: 293631671 cumulative IPC: 0.340563 (Simulation time: 1 hr 43 min 11 sec) 
Heartbeat CPU 2 instructions: 70000002 cycles: 318275593 heartbeat IPC: 0.139059 cumulative IPC: 0.133894 (Simulation time: 1 hr 45 min 24 sec) 
Heartbeat CPU 0 instructions: 140000000 cycles: 318607397 heartbeat IPC: 0.350703 cumulative IPC: 0.361159 (Simulation time: 1 hr 45 min 29 sec) 
Heartbeat CPU 4 instructions: 300000000 cycles: 319344072 heartbeat IPC: 0.860885 cumulative IPC: 0.887209 (Simulation time: 1 hr 45 min 43 sec) 
Heartbeat CPU 3 instructions: 110000002 cycles: 326381257 heartbeat IPC: 0.201142 cumulative IPC: 0.207167 (Simulation time: 1 hr 47 min 47 sec) 
Heartbeat CPU 4 instructions: 310000001 cycles: 330808182 heartbeat IPC: 0.872288 cumulative IPC: 0.886664 (Simulation time: 1 hr 49 min 4 sec) 
Heartbeat CPU 5 instructions: 200000000 cycles: 331509361 heartbeat IPC: 0.351918 cumulative IPC: 0.538978 (Simulation time: 1 hr 49 min 16 sec) 
Heartbeat CPU 7 instructions: 190000000 cycles: 332241250 heartbeat IPC: 0.278042 cumulative IPC: 0.479333 (Simulation time: 1 hr 49 min 31 sec) 
Heartbeat CPU 1 instructions: 100000000 cycles: 339086483 heartbeat IPC: 0.214553 cumulative IPC: 0.22073 (Simulation time: 1 hr 51 min 45 sec) 
Heartbeat CPU 6 instructions: 130000001 cycles: 341003042 heartbeat IPC: 0.32708 cumulative IPC: 0.339291 (Simulation time: 1 hr 52 min 22 sec) 
Heartbeat CPU 4 instructions: 320000000 cycles: 342484649 heartbeat IPC: 0.856423 cumulative IPC: 0.88558 (Simulation time: 1 hr 52 min 51 sec) 
Heartbeat CPU 0 instructions: 150000000 cycles: 342874913 heartbeat IPC: 0.412073 cumulative IPC: 0.364948 (Simulation time: 1 hr 53 min 0 sec) 
Heartbeat CPU 5 instructions: 210000001 cycles: 350936997 heartbeat IPC: 0.514731 cumulative IPC: 0.537568 (Simulation time: 1 hr 55 min 20 sec) 
Heartbeat CPU 4 instructions: 330000002 cycles: 354466044 heartbeat IPC: 0.834628 cumulative IPC: 0.883772 (Simulation time: 1 hr 56 min 21 sec) 
Heartbeat CPU 0 instructions: 160000000 cycles: 362793896 heartbeat IPC: 0.502034 cumulative IPC: 0.37284 (Simulation time: 1 hr 58 min 46 sec) 
Heartbeat CPU 2 instructions: 80000000 cycles: 365345839 heartbeat IPC: 0.212448 cumulative IPC: 0.144502 (Simulation time: 1 hr 59 min 29 sec) 
Heartbeat CPU 7 instructions: 200000000 cycles: 366055248 heartbeat IPC: 0.295736 cumulative IPC: 0.461558 (Simulation time: 1 hr 59 min 41 sec) 
Heartbeat CPU 4 instructions: 340000000 cycles: 366151254 heartbeat IPC: 0.855783 cumulative IPC: 0.882836 (Simulation time: 1 hr 59 min 43 sec) 
Heartbeat CPU 6 instructions: 140000000 cycles: 371149919 heartbeat IPC: 0.331709 cumulative IPC: 0.338646 (Simulation time: 2 hr 1 min 8 sec) 
Heartbeat CPU 3 instructions: 120000000 cycles: 375186984 heartbeat IPC: 0.204894 cumulative IPC: 0.206858 (Simulation time: 2 hr 2 min 12 sec) 
Heartbeat CPU 5 instructions: 220000000 cycles: 375205537 heartbeat IPC: 0.412056 cumulative IPC: 0.529069 (Simulation time: 2 hr 2 min 13 sec) 
Heartbeat CPU 4 instructions: 350000000 cycles: 376812052 heartbeat IPC: 0.938016 cumulative IPC: 0.88447 (Simulation time: 2 hr 2 min 39 sec) 
Heartbeat CPU 0 instructions: 170000000 cycles: 386473588 heartbeat IPC: 0.422303 cumulative IPC: 0.376009 (Simulation time: 2 hr 5 min 2 sec) 
Heartbeat CPU 1 instructions: 110000002 cycles: 387335125 heartbeat IPC: 0.20726 cumulative IPC: 0.218976 (Simulation time: 2 hr 5 min 16 sec) 
Heartbeat CPU 4 instructions: 360000000 cycles: 388612364 heartbeat IPC: 0.847435 cumulative IPC: 0.883294 (Simulation time: 2 hr 5 min 36 sec) 
Heartbeat CPU 7 instructions: 210000002 cycles: 397761018 heartbeat IPC: 0.3154 cumulative IPC: 0.449394 (Simulation time: 2 hr 7 min 49 sec) 
Heartbeat CPU 4 instructions: 370000000 cycles: 400482490 heartbeat IPC: 0.842451 cumulative IPC: 0.882031 (Simulation time: 2 hr 8 min 28 sec) 
Heartbeat CPU 6 instructions: 150000001 cycles: 401971414 heartbeat IPC: 0.324449 cumulative IPC: 0.33751 (Simulation time: 2 hr 8 min 51 sec) 
Heartbeat CPU 5 instructions: 230000001 cycles: 405915891 heartbeat IPC: 0.325623 cumulative IPC: 0.513013 (Simulation time: 2 hr 9 min 58 sec) 
Heartbeat CPU 2 instructions: 90000000 cycles: 410229608 heartbeat IPC: 0.222798 cumulative IPC: 0.153434 (Simulation time: 2 hr 11 min 10 sec) 
Heartbeat CPU 4 instructions: 380000000 cycles: 410984973 heartbeat IPC: 0.952156 cumulative IPC: 0.883899 (Simulation time: 2 hr 11 min 23 sec) 
Heartbeat CPU 0 instructions: 180000000 cycles: 419858563 heartbeat IPC: 0.299536 cumulative IPC: 0.369675 (Simulation time: 2 hr 13 min 49 sec) 
Heartbeat CPU 4 instructions: 390000003 cycles: 422407998 heartbeat IPC: 0.875425 cumulative IPC: 0.88366 (Simulation time: 2 hr 14 min 35 sec) 
Heartbeat CPU 3 instructions: 130000002 cycles: 425649035 heartbeat IPC: 0.198169 cumulative IPC: 0.205785 (Simulation time: 2 hr 15 min 30 sec) 
Heartbeat CPU 7 instructions: 220000000 cycles: 426731114 heartbeat IPC: 0.345183 cumulative IPC: 0.442029 (Simulation time: 2 hr 15 min 48 sec) 
Heartbeat CPU 5 instructions: 240000000 cycles: 427276013 heartbeat IPC: 0.468162 cumulative IPC: 0.510679 (Simulation time: 2 hr 15 min 57 sec) 
Heartbeat CPU 6 instructions: 160000000 cycles: 432439172 heartbeat IPC: 0.328216 cumulative IPC: 0.336829 (Simulation time: 2 hr 17 min 32 sec) 
Heartbeat CPU 4 instructions: 400000000 cycles: 434658269 heartbeat IPC: 0.816308 cumulative IPC: 0.881686 (Simulation time: 2 hr 18 min 10 sec) 
Heartbeat CPU 1 instructions: 120000000 cycles: 435073646 heartbeat IPC: 0.209474 cumulative IPC: 0.217891 (Simulation time: 2 hr 18 min 17 sec) 
Heartbeat CPU 5 instructions: 250000003 cycles: 442918855 heartbeat IPC: 0.63927 cumulative IPC: 0.515399 (Simulation time: 2 hr 20 min 39 sec) 
Heartbeat CPU 4 instructions: 410000000 cycles: 446641982 heartbeat IPC: 0.834466 cumulative IPC: 0.880369 (Simulation time: 2 hr 21 min 44 sec) 
Heartbeat CPU 2 instructions: 100000000 cycles: 450867170 heartbeat IPC: 0.246078 cumulative IPC: 0.162108 (Simulation time: 2 hr 23 min 1 sec) 
Heartbeat CPU 0 instructions: 190000000 cycles: 451237634 heartbeat IPC: 0.318684 cumulative IPC: 0.365992 (Simulation time: 2 hr 23 min 7 sec) 
Heartbeat CPU 7 instructions: 230000003 cycles: 456792724 heartbeat IPC: 0.33265 cumulative IPC: 0.434556 (Simulation time: 2 hr 24 min 37 sec) 
Heartbeat CPU 4 instructions: 420000000 cycles: 458319040 heartbeat IPC: 0.85638 cumulative IPC: 0.879735 (Simulation time: 2 hr 25 min 2 sec) 
Heartbeat CPU 5 instructions: 260000000 cycles: 460013719 heartbeat IPC: 0.584971 cumulative IPC: 0.518083 (Simulation time: 2 hr 25 min 32 sec) 
Heartbeat CPU 6 instructions: 170000000 cycles: 460857320 heartbeat IPC: 0.351888 cumulative IPC: 0.337793 (Simulation time: 2 hr 25 min 47 sec) 
Heartbeat CPU 4 instructions: 430000000 cycles: 469488876 heartbeat IPC: 0.895268 cumulative IPC: 0.880118 (Simulation time: 2 hr 28 min 22 sec) 
Heartbeat CPU 5 instructions: 270000000 cycles: 470632814 heartbeat IPC: 0.9417 cumulative IPC: 0.527995 (Simulation time: 2 hr 28 min 42 sec) 
Heartbeat CPU 3 instructions: 140000000 cycles: 472360508 heartbeat IPC: 0.21408 cumulative IPC: 0.206636 (Simulation time: 2 hr 29 min 12 sec) 
Heartbeat CPU 0 instructions: 200000000 cycles: 476836770 heartbeat IPC: 0.390638 cumulative IPC: 0.367363 (Simulation time: 2 hr 30 min 31 sec) 
Finished CPU 1 instructions: 100000000 cycles: 460756456 cumulative IPC: 0.217034 (Simulation time: 2 hr 30 min 44 sec) 
Heartbeat CPU 4 instructions: 440000000 cycles: 480785196 heartbeat IPC: 0.885244 cumulative IPC: 0.880243 (Simulation time: 2 hr 31 min 40 sec) 
Heartbeat CPU 5 instructions: 280000000 cycles: 481285521 heartbeat IPC: 0.938729 cumulative IPC: 0.537415 (Simulation time: 2 hr 31 min 48 sec) 
Heartbeat CPU 1 instructions: 130000002 cycles: 482972288 heartbeat IPC: 0.208774 cumulative IPC: 0.216954 (Simulation time: 2 hr 32 min 18 sec) 
Heartbeat CPU 7 instructions: 240000000 cycles: 483953317 heartbeat IPC: 0.36818 cumulative IPC: 0.430697 (Simulation time: 2 hr 32 min 35 sec) 
Heartbeat CPU 6 instructions: 180000000 cycles: 488965823 heartbeat IPC: 0.355764 cumulative IPC: 0.338862 (Simulation time: 2 hr 33 min 59 sec) 
Heartbeat CPU 4 instructions: 450000002 cycles: 492419407 heartbeat IPC: 0.859534 cumulative IPC: 0.879737 (Simulation time: 2 hr 34 min 55 sec) 
Heartbeat CPU 5 instructions: 290000000 cycles: 494457419 heartbeat IPC: 0.759192 cumulative IPC: 0.54353 (Simulation time: 2 hr 35 min 27 sec) 
Finished CPU 3 instructions: 100000001 cycles: 480409385 cumulative IPC: 0.208156 (Simulation time: 2 hr 36 min 11 sec) 
Heartbeat CPU 4 instructions: 460000000 cycles: 504086136 heartbeat IPC: 0.857138 cumulative IPC: 0.879196 (Simulation time: 2 hr 38 min 0 sec) 
Heartbeat CPU 7 instructions: 250000001 cycles: 512202579 heartbeat IPC: 0.353992 cumulative IPC: 0.426323 (Simulation time: 2 hr 40 min 6 sec) 
Heartbeat CPU 0 instructions: 210000000 cycles: 512559900 heartbeat IPC: 0.279931 cumulative IPC: 0.361063 (Simulation time: 2 hr 40 min 11 sec) 
Heartbeat CPU 4 instructions: 470000000 cycles: 515857528 heartbeat IPC: 0.849517 cumulative IPC: 0.878495 (Simulation time: 2 hr 41 min 1 sec) 
Heartbeat CPU 3 instructions: 150000000 cycles: 517441115 heartbeat IPC: 0.221825 cumulative IPC: 0.208003 (Simulation time: 2 hr 41 min 25 sec) 
Heartbeat CPU 5 instructions: 300000000 cycles: 518205122 heartbeat IPC: 0.421093 cumulative IPC: 0.537732 (Simulation time: 2 hr 41 min 38 sec) 
Heartbeat CPU 6 instructions: 190000000 cycles: 519750209 heartbeat IPC: 0.32484 cumulative IPC: 0.338004 (Simulation time: 2 hr 42 min 3 sec) 
Heartbeat CPU 4 instructions: 480000000 cycles: 527268489 heartbeat IPC: 0.87635 cumulative IPC: 0.878448 (Simulation time: 2 hr 43 min 58 sec) 
Heartbeat CPU 1 instructions: 140000000 cycles: 530943450 heartbeat IPC: 0.208459 cumulative IPC: 0.216162 (Simulation time: 2 hr 44 min 54 sec) 
Heartbeat CPU 2 instructions: 110000000 cycles: 531901645 heartbeat IPC: 0.123404 cumulative IPC: 0.156019 (Simulation time: 2 hr 45 min 10 sec) 
Heartbeat CPU 5 instructions: 310000002 cycles: 538225580 heartbeat IPC: 0.499489 cumulative IPC: 0.536263 (Simulation time: 2 hr 46 min 51 sec) 
Heartbeat CPU 4 instructions: 490000001 cycles: 538891156 heartbeat IPC: 0.860388 cumulative IPC: 0.878045 (Simulation time: 2 hr 47 min 2 sec) 
Heartbeat CPU 7 instructions: 260000000 cycles: 540047117 heartbeat IPC: 0.359137 cumulative IPC: 0.422748 (Simulation time: 2 hr 47 min 19 sec) 
Heartbeat CPU 0 instructions: 220000000 cycles: 545658601 heartbeat IPC: 0.302127 cumulative IPC: 0.357374 (Simulation time: 2 hr 48 min 49 sec) 
Heartbeat CPU 6 instructions: 200000000 cycles: 549585437 heartbeat IPC: 0.335174 cumulative IPC: 0.337846 (Simulation time: 2 hr 49 min 51 sec) 
Heartbeat CPU 4 instructions: 500000000 cycles: 549943667 heartbeat IPC: 0.904772 cumulative IPC: 0.8786 (Simulation time: 2 hr 49 min 56 sec) 
Heartbeat CPU 5 instructions: 320000000 cycles: 558618472 heartbeat IPC: 0.490367 cumulative IPC: 0.534536 (Simulation time: 2 hr 52 min 20 sec) 
Heartbeat CPU 4 instructions: 510000001 cycles: 561089388 heartbeat IPC: 0.897205 cumulative IPC: 0.878981 (Simulation time: 2 hr 52 min 59 sec) 
Heartbeat CPU 7 instructions: 270000000 cycles: 566298651 heartbeat IPC: 0.38093 cumulative IPC: 0.42075 (Simulation time: 2 hr 54 min 23 sec) 
Heartbeat CPU 3 instructions: 160000000 cycles: 568674762 heartbeat IPC: 0.195184 cumulative IPC: 0.206813 (Simulation time: 2 hr 55 min 0 sec) 
Heartbeat CPU 4 instructions: 520000000 cycles: 572111557 heartbeat IPC: 0.907262 cumulative IPC: 0.879542 (Simulation time: 2 hr 55 min 55 sec) 
Heartbeat CPU 5 instructions: 330000003 cycles: 572724297 heartbeat IPC: 0.708927 cumulative IPC: 0.538961 (Simulation time: 2 hr 56 min 4 sec) 
Heartbeat CPU 1 instructions: 150000000 cycles: 575907702 heartbeat IPC: 0.222399 cumulative IPC: 0.216663 (Simulation time: 2 hr 56 min 52 sec) 
Heartbeat CPU 0 instructions: 230000000 cycles: 576527399 heartbeat IPC: 0.323952 cumulative IPC: 0.355531 (Simulation time: 2 hr 57 min 2 sec) 
Heartbeat CPU 6 instructions: 210000002 cycles: 578228151 heartbeat IPC: 0.349129 cumulative IPC: 0.338421 (Simulation time: 2 hr 57 min 28 sec) 
Heartbeat CPU 4 instructions: 530000002 cycles: 583840854 heartbeat IPC: 0.852566 cumulative IPC: 0.878984 (Simulation time: 2 hr 58 min 54 sec) 
Heartbeat CPU 2 instructions: 120000000 cycles: 588914960 heartbeat IPC: 0.175398 cumulative IPC: 0.15795 (Simulation time: 3 hr 0 min 12 sec) 
Heartbeat CPU 7 instructions: 280000000 cycles: 592843252 heartbeat IPC: 0.376724 cumulative IPC: 0.418721 (Simulation time: 3 hr 1 min 14 sec) 
Heartbeat CPU 4 instructions: 540000000 cycles: 595370801 heartbeat IPC: 0.867307 cumulative IPC: 0.878751 (Simulation time: 3 hr 1 min 51 sec) 
Heartbeat CPU 5 instructions: 340000000 cycles: 595901193 heartbeat IPC: 0.431464 cumulative IPC: 0.534658 (Simulation time: 3 hr 1 min 59 sec) 
Heartbeat CPU 0 instructions: 240000000 cycles: 605722820 heartbeat IPC: 0.342519 cumulative IPC: 0.354886 (Simulation time: 3 hr 4 min 31 sec) 
Heartbeat CPU 4 instructions: 550000000 cycles: 607726250 heartbeat IPC: 0.809359 cumulative IPC: 0.8773 (Simulation time: 3 hr 5 min 5 sec) 
Heartbeat CPU 6 instructions: 220000000 cycles: 608816437 heartbeat IPC: 0.326922 cumulative IPC: 0.337827 (Simulation time: 3 hr 5 min 21 sec) 
Heartbeat CPU 4 instructions: 560000000 cycles: 619724664 heartbeat IPC: 0.833443 cumulative IPC: 0.876428 (Simulation time: 3 hr 8 min 14 sec) 
Heartbeat CPU 7 instructions: 290000002 cycles: 620645490 heartbeat IPC: 0.359683 cumulative IPC: 0.416003 (Simulation time: 3 hr 8 min 27 sec) 
Heartbeat CPU 3 instructions: 170000001 cycles: 620767289 heartbeat IPC: 0.191966 cumulative IPC: 0.205533 (Simulation time: 3 hr 8 min 29 sec) 
Heartbeat CPU 5 instructions: 350000001 cycles: 622408817 heartbeat IPC: 0.37725 cumulative IPC: 0.527769 (Simulation time: 3 hr 8 min 52 sec) 
Heartbeat CPU 1 instructions: 160000000 cycles: 625119740 heartbeat IPC: 0.203202 cumulative IPC: 0.215574 (Simulation time: 3 hr 9 min 30 sec) 
Heartbeat CPU 4 instructions: 570000003 cycles: 631652121 heartbeat IPC: 0.838402 cumulative IPC: 0.87569 (Simulation time: 3 hr 11 min 6 sec) 
Heartbeat CPU 0 instructions: 250000003 cycles: 633623407 heartbeat IPC: 0.358416 cumulative IPC: 0.355046 (Simulation time: 3 hr 11 min 36 sec) 
Heartbeat CPU 6 instructions: 230000002 cycles: 639787178 heartbeat IPC: 0.322885 cumulative IPC: 0.337084 (Simulation time: 3 hr 13 min 11 sec) 
Finished CPU 2 instructions: 100000000 cycles: 625711199 cumulative IPC: 0.159818 (Simulation time: 3 hr 13 min 57 sec) 

CPU 0 Branch Prediction Accuracy: 99.2919% MPKI: 1.71598

CPU 1 Branch Prediction Accuracy: 96.3042% MPKI: 8.14208

CPU 2 Branch Prediction Accuracy: 92.5806% MPKI: 12.5646

CPU 3 Branch Prediction Accuracy: 99.9807% MPKI: 0.0179043

CPU 4 Branch Prediction Accuracy: 99.9708% MPKI: 0.00714444

CPU 5 Branch Prediction Accuracy: 99.7421% MPKI: 0.0899092

CPU 6 Branch Prediction Accuracy: 99.9931% MPKI: 0.000829776

CPU 7 Branch Prediction Accuracy: 97.5626% MPKI: 0.357539

ChampSim completed all CPUs

Total Simulation Statistics (not including warmup)

CPU 0 cumulative IPC: 0.355197 instructions: 222250481 cycles: 625711199
L1D TOTAL     ACCESS:   54017863  HIT:   42646787  MISS:   11371076
L1D LOAD      ACCESS:   38420962  HIT:   27565738  MISS:   10855224
L1D RFO       ACCESS:   15596901  HIT:   15081049  MISS:     515852
L1D PREFETCH  ACCESS:          0  HIT:          0  MISS:          0
L1D WRITEBACK ACCESS:          0  HIT:          0  MISS:          0
L1I TOTAL     ACCESS:   96340241  HIT:   95773724  MISS:     566517
L1I LOAD      ACCESS:   96340241  HIT:   95773724  MISS:     566517
L1I RFO       ACCESS:          0  HIT:          0  MISS:          0
L1I PREFETCH  ACCESS:          0  HIT:          0  MISS:          0
L1I WRITEBACK ACCESS:          0  HIT:          0  MISS:          0
L2C TOTAL     ACCESS:   20417727  HIT:   15845084  MISS:    4572643
L2C LOAD      ACCESS:   11421665  HIT:    7405400  MISS:    4016265
L2C RFO       ACCESS:     515838  HIT:      83502  MISS:     432336
L2C PREFETCH  ACCESS:    7712134  HIT:    7588220  MISS:     123914
L2C WRITEBACK ACCESS:     768090  HIT:     767962  MISS:        128
LLC TOTAL     ACCESS:   12858649  HIT:   11992909  MISS:     865740
LLC LOAD      ACCESS:    3902644  HIT:    3791395  MISS:     111249
LLC RFO       ACCESS:     432061  HIT:      37354  MISS:     394707
LLC PREFETCH  ACCESS:    7985571  HIT:    7652246  MISS:     333325
LLC WRITEBACK ACCESS:     538373  HIT:     511914  MISS:      26459

CPU 1 cumulative IPC: 0.215304 instructions: 134717993 cycles: 625711199
L1D TOTAL     ACCESS:   41115403  HIT:   37456408  MISS:    3658995
L1D LOAD      ACCESS:   28042236  HIT:   24384305  MISS:    3657931
L1D RFO       ACCESS:   13073167  HIT:   13072103  MISS:       1064
L1D PREFETCH  ACCESS:          0  HIT:          0  MISS:          0
L1D WRITEBACK ACCESS:          0  HIT:          0  MISS:          0
L1I TOTAL     ACCESS:   33618991  HIT:   33618991  MISS:          0
L1I LOAD      ACCESS:   33618991  HIT:   33618991  MISS:          0
L1I RFO       ACCESS:          0  HIT:          0  MISS:          0
L1I PREFETCH  ACCESS:          0  HIT:          0  MISS:          0
L1I WRITEBACK ACCESS:          0  HIT:          0  MISS:          0
L2C TOTAL     ACCESS:    5967782  HIT:    3571875  MISS:    2395907
L2C LOAD      ACCESS:    3657931  HIT:    1995182  MISS:    1662749
L2C RFO       ACCESS:       1064  HIT:         24  MISS:       1040
L2C PREFETCH  ACCESS:    2300099  HIT:    1567981  MISS:     732118
L2C WRITEBACK ACCESS:       8688  HIT:       8688  MISS:          0
LLC TOTAL     ACCESS:    6878644  HIT:    4459465  MISS:    2419179
LLC LOAD      ACCESS:     898697  HIT:     716670  MISS:     182027
LLC RFO       ACCESS:       1012  HIT:        689  MISS:        323
LLC PREFETCH  ACCESS:    5975679  HIT:    3738869  MISS:    2236810
LLC WRITEBACK ACCESS:       3256  HIT:       3237  MISS:         19

CPU 2 cumulative IPC: 0.159818 instructions: 100000000 cycles: 625711199
L1D TOTAL     ACCESS:   41092378  HIT:   37326808  MISS:    3765570
L1D LOAD      ACCESS:   30999819  HIT:   27270313  MISS:    3729506
L1D RFO       ACCESS:   10092559  HIT:   10056495  MISS:      36064
L1D PREFETCH  ACCESS:          0  HIT:          0  MISS:          0
L1D WRITEBACK ACCESS:          0  HIT:          0  MISS:          0
L1I TOTAL     ACCESS:   21584596  HIT:   21584596  MISS:          0
L1I LOAD      ACCESS:   21584596  HIT:   21584596  MISS:          0
L1I RFO       ACCESS:          0  HIT:          0  MISS:          0
L1I PREFETCH  ACCESS:          0  HIT:          0  MISS:          0
L1I WRITEBACK ACCESS:          0  HIT:          0  MISS:          0
L2C TOTAL     ACCESS:    4587219  HIT:    1969249  MISS:    2617970
L2C LOAD      ACCESS:    3729501  HIT:    1216790  MISS:    2512711
L2C RFO       ACCESS:      36061  HIT:      29280  MISS:       6781
L2C PREFETCH  ACCESS:     552634  HIT:     454809  MISS:      97825
L2C WRITEBACK ACCESS:     269023  HIT:     268370  MISS:        653
LLC TOTAL     ACCESS:    6435491  HIT:    2271158  MISS:    4164333
LLC LOAD      ACCESS:    2501873  HIT:     698120  MISS:    1803753
LLC RFO       ACCESS:       6781  HIT:       3852  MISS:       2929
LLC PREFETCH  ACCESS:    3754714  HIT:    1401045  MISS:    2353669
LLC WRITEBACK ACCESS:     172123  HIT:     168141  MISS:       3982

CPU 3 cumulative IPC: 0.205118 instructions: 128344571 cycles: 625711199
L1D TOTAL     ACCESS:   25322283  HIT:   18205678  MISS:    7116605
L1D LOAD      ACCESS:   19631099  HIT:   12870292  MISS:    6760807
L1D RFO       ACCESS:    5691184  HIT:    5335386  MISS:     355798
L1D PREFETCH  ACCESS:          0  HIT:          0  MISS:          0
L1D WRITEBACK ACCESS:          0  HIT:          0  MISS:          0
L1I TOTAL     ACCESS:   32540497  HIT:   32540497  MISS:          0
L1I LOAD      ACCESS:   32540497  HIT:   32540497  MISS:          0
L1I RFO       ACCESS:          0  HIT:          0  MISS:          0
L1I PREFETCH  ACCESS:          0  HIT:          0  MISS:          0
L1I WRITEBACK ACCESS:          0  HIT:          0  MISS:          0
L2C TOTAL     ACCESS:   10795163  HIT:    5990035  MISS:    4805128
L2C LOAD      ACCESS:    6760807  HIT:    2367681  MISS:    4393126
L2C RFO       ACCESS:     355798  HIT:      56785  MISS:     299013
L2C PREFETCH  ACCESS:     832961  HIT:     719972  MISS:     112989
L2C WRITEBACK ACCESS:    2845597  HIT:    2845597  MISS:          0
LLC TOTAL     ACCESS:   13498316  HIT:   10013474  MISS:    3484842
LLC LOAD      ACCESS:    4392990  HIT:    3688711  MISS:     704279
LLC RFO       ACCESS:     298707  HIT:     298703  MISS:          4
LLC PREFETCH  ACCESS:    5960572  HIT:    3180582  MISS:    2779990
LLC WRITEBACK ACCESS:    2846047  HIT:    2845478  MISS:        569

CPU 4 cumulative IPC: 0.874938 instructions: 547458199 cycles: 625711199
L1D TOTAL     ACCESS:  207490386  HIT:  196136958  MISS:   11353428
L1D LOAD      ACCESS:  177327265  HIT:  166313964  MISS:   11013301
L1D RFO       ACCESS:   30163121  HIT:   29822994  MISS:     340127
L1D PREFETCH  ACCESS:          0  HIT:          0  MISS:          0
L1D WRITEBACK ACCESS:          0  HIT:          0  MISS:          0
L1I TOTAL     ACCESS:  136350390  HIT:  136350390  MISS:          0
L1I LOAD      ACCESS:  136350390  HIT:  136350390  MISS:          0
L1I RFO       ACCESS:          0  HIT:          0  MISS:          0
L1I PREFETCH  ACCESS:          0  HIT:          0  MISS:          0
L1I WRITEBACK ACCESS:          0  HIT:          0  MISS:          0
L2C TOTAL     ACCESS:   17262064  HIT:    6842797  MISS:   10419267
L2C LOAD      ACCESS:   11010408  HIT:    3876834  MISS:    7133574
L2C RFO       ACCESS:     333387  HIT:      66642  MISS:     266745
L2C PREFETCH  ACCESS:    5547374  HIT:    2529433  MISS:    3017941
L2C WRITEBACK ACCESS:     370895  HIT:     369888  MISS:       1007
LLC TOTAL     ACCESS:   30435988  HIT:   20032177  MISS:   10403811
LLC LOAD      ACCESS:    5236856  HIT:    4724165  MISS:     512691
LLC RFO       ACCESS:     266745  HIT:          0  MISS:     266745
LLC PREFETCH  ACCESS:   24664311  HIT:   15040268  MISS:    9624043
LLC WRITEBACK ACCESS:     268076  HIT:     267744  MISS:        332

CPU 5 cumulative IPC: 0.52523 instructions: 328642282 cycles: 625711199
L1D TOTAL     ACCESS:   86376491  HIT:   75867236  MISS:   10509255
L1D LOAD      ACCESS:   74838434  HIT:   66407826  MISS:    8430608
L1D RFO       ACCESS:   11538057  HIT:    9459410  MISS:    2078647
L1D PREFETCH  ACCESS:          0  HIT:          0  MISS:          0
L1D WRITEBACK ACCESS:          0  HIT:          0  MISS:          0
L1I TOTAL     ACCESS:   79450183  HIT:   79449032  MISS:       1151
L1I LOAD      ACCESS:   79450183  HIT:   79449032  MISS:       1151
L1I RFO       ACCESS:          0  HIT:          0  MISS:          0
L1I PREFETCH  ACCESS:          0  HIT:          0  MISS:          0
L1I WRITEBACK ACCESS:          0  HIT:          0  MISS:          0
L2C TOTAL     ACCESS:   23507860  HIT:   15080515  MISS:    8427345
L2C LOAD      ACCESS:    8431495  HIT:    4497880  MISS:    3933615
L2C RFO       ACCESS:    2078612  HIT:        123  MISS:    2078489
L2C PREFETCH  ACCESS:   10347454  HIT:    7932588  MISS:    2414866
L2C WRITEBACK ACCESS:    2650299  HIT:    2649924  MISS:        375
LLC TOTAL     ACCESS:   25338003  HIT:   16707970  MISS:    8630033
LLC LOAD      ACCESS:    2522216  HIT:    1968855  MISS:     553361
LLC RFO       ACCESS:    2078488  HIT:        100  MISS:    2078388
LLC PREFETCH  ACCESS:   18107653  HIT:   12109520  MISS:    5998133
LLC WRITEBACK ACCESS:    2629646  HIT:    2629495  MISS:        151

CPU 6 cumulative IPC: 0.337057 instructions: 210900260 cycles: 625711199
L1D TOTAL     ACCESS:  118181379  HIT:  114123602  MISS:    4057777
L1D LOAD      ACCESS:  104659913  HIT:  100602136  MISS:    4057777
L1D RFO       ACCESS:   13521466  HIT:   13521466  MISS:          0
L1D PREFETCH  ACCESS:          0  HIT:          0  MISS:          0
L1D WRITEBACK ACCESS:          0  HIT:          0  MISS:          0
L1I TOTAL     ACCESS:   63664875  HIT:   63664875  MISS:          0
L1I LOAD      ACCESS:   63664875  HIT:   63664875  MISS:          0
L1I RFO       ACCESS:          0  HIT:          0  MISS:          0
L1I PREFETCH  ACCESS:          0  HIT:          0  MISS:          0
L1I WRITEBACK ACCESS:          0  HIT:          0  MISS:          0
L2C TOTAL     ACCESS:    7130301  HIT:    3018949  MISS:    4111352
L2C LOAD      ACCESS:    4057777  HIT:     804681  MISS:    3253096
L2C RFO       ACCESS:          0  HIT:          0  MISS:          0
L2C PREFETCH  ACCESS:    1023667  HIT:     165411  MISS:     858256
L2C WRITEBACK ACCESS:    2048857  HIT:    2048857  MISS:          0
LLC TOTAL     ACCESS:   14314177  HIT:    8286637  MISS:    6027540
LLC LOAD      ACCESS:    3222734  HIT:    1606354  MISS:    1616380
LLC RFO       ACCESS:          0  HIT:          0  MISS:          0
LLC PREFETCH  ACCESS:    9042555  HIT:    4631425  MISS:    4411130
LLC WRITEBACK ACCESS:    2048888  HIT:    2048858  MISS:         30

CPU 7 cumulative IPC: 0.413923 instructions: 258996288 cycles: 625711200
L1D TOTAL     ACCESS:   71534869  HIT:   54596643  MISS:   16938226
L1D LOAD      ACCESS:   26774062  HIT:   24205967  MISS:    2568095
L1D RFO       ACCESS:   44760807  HIT:   30390676  MISS:   14370131
L1D PREFETCH  ACCESS:          0  HIT:          0  MISS:          0
L1D WRITEBACK ACCESS:          0  HIT:          0  MISS:          0
L1I TOTAL     ACCESS:   62549064  HIT:   62549064  MISS:          0
L1I LOAD      ACCESS:   62549064  HIT:   62549064  MISS:          0
L1I RFO       ACCESS:          0  HIT:          0  MISS:          0
L1I PREFETCH  ACCESS:          0  HIT:          0  MISS:          0
L1I WRITEBACK ACCESS:          0  HIT:          0  MISS:          0
L2C TOTAL     ACCESS:   31572654  HIT:   18779893  MISS:   12792761
L2C LOAD      ACCESS:    2568095  HIT:     246770  MISS:    2321325
L2C RFO       ACCESS:   14370119  HIT:    4146950  MISS:   10223169
L2C PREFETCH  ACCESS:     264311  HIT:      19086  MISS:     245225
L2C WRITEBACK ACCESS:   14370129  HIT:   14367087  MISS:       3042
LLC TOTAL     ACCESS:   25910466  HIT:   15649296  MISS:   10261170
LLC LOAD      ACCESS:    1895241  HIT:    1197201  MISS:     698040
LLC RFO       ACCESS:   10217016  HIT:    2521888  MISS:    7695128
LLC PREFETCH  ACCESS:    3572270  HIT:    1704911  MISS:    1867359
LLC WRITEBACK ACCESS:   10225939  HIT:   10225296  MISS:        643

Region of Interest Statistics

CPU 0 cumulative IPC: 0.362076 instructions: 100000002 cycles: 276185051
L1D TOTAL     ACCESS:   24099047  HIT:   19148710  MISS:    4950337
L1D LOAD      ACCESS:   17153289  HIT:   12418255  MISS:    4735034
L1D RFO       ACCESS:    6945758  HIT:    6730455  MISS:     215303
L1D PREFETCH  ACCESS:          0  HIT:          0  MISS:          0
L1D WRITEBACK ACCESS:          0  HIT:          0  MISS:          0
L1D PREFETCH  REQUESTED:          0  ISSUED:          0  USEFUL:          0  USELESS:          0
L1I TOTAL     ACCESS:   43454270  HIT:   43199662  MISS:     254608
L1I LOAD      ACCESS:   43454270  HIT:   43199662  MISS:     254608
L1I RFO       ACCESS:          0  HIT:          0  MISS:          0
L1I PREFETCH  ACCESS:          0  HIT:          0  MISS:          0
L1I WRITEBACK ACCESS:          0  HIT:          0  MISS:          0
L1I PREFETCH  REQUESTED:          0  ISSUED:          0  USEFUL:          0  USELESS:          0
L2C TOTAL     ACCESS:    8777155  HIT:    6802261  MISS:    1974894
L2C LOAD      ACCESS:    4989601  HIT:    3249631  MISS:    1739970
L2C RFO       ACCESS:     215296  HIT:      35737  MISS:     179559
L2C PREFETCH  ACCESS:    3244627  HIT:    3189307  MISS:      55320
L2C WRITEBACK ACCESS:     327631  HIT:     327586  MISS:         45
L2C PREFETCH  REQUESTED:   21736591  ISSUED:   21726655  USEFUL:      42467  USELESS:     109831
LLC TOTAL     ACCESS:    5551878  HIT:    5184804  MISS:     367074
LLC LOAD      ACCESS:    1690208  HIT:    1644567  MISS:      45641
LLC RFO       ACCESS:     179437  HIT:      16071  MISS:     163366
LLC PREFETCH  ACCESS:    3456160  HIT:    3310132  MISS:     146028
LLC WRITEBACK ACCESS:     226073  HIT:     214034  MISS:      12039
LLC PREFETCH  REQUESTED:          0  ISSUED:          0  USEFUL:   14403083  USELESS:   18782913
Major fault: 0 Minor fault: 5190

CPU 1 cumulative IPC: 0.217034 instructions: 100000000 cycles: 460756456
L1D TOTAL     ACCESS:   30525362  HIT:   27809386  MISS:    2715976
L1D LOAD      ACCESS:   20821336  HIT:   18106153  MISS:    2715183
L1D RFO       ACCESS:    9704026  HIT:    9703233  MISS:        793
L1D PREFETCH  ACCESS:          0  HIT:          0  MISS:          0
L1D WRITEBACK ACCESS:          0  HIT:          0  MISS:          0
L1D PREFETCH  REQUESTED:          0  ISSUED:          0  USEFUL:          0  USELESS:          0
L1I TOTAL     ACCESS:   24937323  HIT:   24937323  MISS:          0
L1I LOAD      ACCESS:   24937323  HIT:   24937323  MISS:          0
L1I RFO       ACCESS:          0  HIT:          0  MISS:          0
L1I PREFETCH  ACCESS:          0  HIT:          0  MISS:          0
L1I WRITEBACK ACCESS:          0  HIT:          0  MISS:          0
L1I PREFETCH  REQUESTED:          0  ISSUED:          0  USEFUL:          0  USELESS:          0
L2C TOTAL     ACCESS:    4429975  HIT:    2651522  MISS:    1778453
L2C LOAD      ACCESS:    2715183  HIT:    1483800  MISS:    1231383
L2C RFO       ACCESS:        793  HIT:         18  MISS:        775
L2C PREFETCH  ACCESS:    1707551  HIT:    1161256  MISS:     546295
L2C WRITEBACK ACCESS:       6448  HIT:       6448  MISS:          0
L2C PREFETCH  REQUESTED:   15065889  ISSUED:   15065889  USEFUL:    1003249  USELESS:       2302
LLC TOTAL     ACCESS:    5102282  HIT:    3306196  MISS:    1796086
LLC LOAD      ACCESS:     667705  HIT:     531738  MISS:     135967
LLC RFO       ACCESS:        753  HIT:        525  MISS:        228
LLC PREFETCH  ACCESS:    4431386  HIT:    2771509  MISS:    1659877
LLC WRITEBACK ACCESS:       2438  HIT:       2424  MISS:         14
LLC PREFETCH  REQUESTED:          0  ISSUED:          0  USEFUL:   14403083  USELESS:   18782913
Major fault: 0 Minor fault: 49455

CPU 2 cumulative IPC: 0.159818 instructions: 100000000 cycles: 625711199
L1D TOTAL     ACCESS:   41092378  HIT:   37326808  MISS:    3765570
L1D LOAD      ACCESS:   30999819  HIT:   27270313  MISS:    3729506
L1D RFO       ACCESS:   10092559  HIT:   10056495  MISS:      36064
L1D PREFETCH  ACCESS:          0  HIT:          0  MISS:          0
L1D WRITEBACK ACCESS:          0  HIT:          0  MISS:          0
L1D PREFETCH  REQUESTED:          0  ISSUED:          0  USEFUL:          0  USELESS:          0
L1I TOTAL     ACCESS:   21584596  HIT:   21584596  MISS:          0
L1I LOAD      ACCESS:   21584596  HIT:   21584596  MISS:          0
L1I RFO       ACCESS:          0  HIT:          0  MISS:          0
L1I PREFETCH  ACCESS:          0  HIT:          0  MISS:          0
L1I WRITEBACK ACCESS:          0  HIT:          0  MISS:          0
L1I PREFETCH  REQUESTED:          0  ISSUED:          0  USEFUL:          0  USELESS:          0
L2C TOTAL     ACCESS:    4587219  HIT:    1969249  MISS:    2617970
L2C LOAD      ACCESS:    3729501  HIT:    1216790  MISS:    2512711
L2C RFO       ACCESS:      36061  HIT:      29280  MISS:       6781
L2C PREFETCH  ACCESS:     552634  HIT:     454809  MISS:      97825
L2C WRITEBACK ACCESS:     269023  HIT:     268370  MISS:        653
L2C PREFETCH  REQUESTED:    5692067  ISSUED:    5691624  USEFUL:      62203  USELESS:      62075
LLC TOTAL     ACCESS:    6435491  HIT:    2271158  MISS:    4164333
LLC LOAD      ACCESS:    2501873  HIT:     698120  MISS:    1803753
LLC RFO       ACCESS:       6781  HIT:       3852  MISS:       2929
LLC PREFETCH  ACCESS:    3754714  HIT:    1401045  MISS:    2353669
LLC WRITEBACK ACCESS:     172123  HIT:     168141  MISS:       3982
LLC PREFETCH  REQUESTED:          0  ISSUED:          0  USEFUL:   14403083  USELESS:   18782913
Major fault: 0 Minor fault: 119428

CPU 3 cumulative IPC: 0.208156 instructions: 100000001 cycles: 480409385
L1D TOTAL     ACCESS:   19722932  HIT:   14177825  MISS:    5545107
L1D LOAD      ACCESS:   15288594  HIT:   10020728  MISS:    5267866
L1D RFO       ACCESS:    4434338  HIT:    4157097  MISS:     277241
L1D PREFETCH  ACCESS:          0  HIT:          0  MISS:          0
L1D WRITEBACK ACCESS:          0  HIT:          0  MISS:          0
L1D PREFETCH  REQUESTED:          0  ISSUED:          0  USEFUL:          0  USELESS:          0
L1I TOTAL     ACCESS:   25356065  HIT:   25356065  MISS:          0
L1I LOAD      ACCESS:   25356065  HIT:   25356065  MISS:          0
L1I RFO       ACCESS:          0  HIT:          0  MISS:          0
L1I PREFETCH  ACCESS:          0  HIT:          0  MISS:          0
L1I WRITEBACK ACCESS:          0  HIT:          0  MISS:          0
L1I PREFETCH  REQUESTED:          0  ISSUED:          0  USEFUL:          0  USELESS:          0
L2C TOTAL     ACCESS:    8472428  HIT:    4866522  MISS:    3605906
L2C LOAD      ACCESS:    5267866  HIT:    1977995  MISS:    3289871
L2C RFO       ACCESS:     277241  HIT:      47383  MISS:     229858
L2C PREFETCH  ACCESS:     710154  HIT:     623977  MISS:      86177
L2C WRITEBACK ACCESS:    2217167  HIT:    2217167  MISS:          0
L2C PREFETCH  REQUESTED:    9109650  ISSUED:    9107048  USEFUL:      11221  USELESS:     131039
LLC TOTAL     ACCESS:   10419024  HIT:    7717778  MISS:    2701246
LLC LOAD      ACCESS:    3289784  HIT:    2757137  MISS:     532647
LLC RFO       ACCESS:     229629  HIT:     229629  MISS:          0
LLC PREFETCH  ACCESS:    4682092  HIT:    2513934  MISS:    2168158
LLC WRITEBACK ACCESS:    2217519  HIT:    2217078  MISS:        441
LLC PREFETCH  REQUESTED:          0  ISSUED:          0  USEFUL:   14403083  USELESS:   18782913
Major fault: 0 Minor fault: 71187

CPU 4 cumulative IPC: 0.906008 instructions: 100000002 cycles: 110374323
L1D TOTAL     ACCESS:   37905675  HIT:   35832103  MISS:    2073572
L1D LOAD      ACCESS:   32400660  HIT:   30389054  MISS:    2011606
L1D RFO       ACCESS:    5505015  HIT:    5443049  MISS:      61966
L1D PREFETCH  ACCESS:          0  HIT:          0  MISS:          0
L1D WRITEBACK ACCESS:          0  HIT:          0  MISS:          0
L1D PREFETCH  REQUESTED:          0  ISSUED:          0  USEFUL:          0  USELESS:          0
L1I TOTAL     ACCESS:   24891833  HIT:   24891833  MISS:          0
L1I LOAD      ACCESS:   24891833  HIT:   24891833  MISS:          0
L1I RFO       ACCESS:          0  HIT:          0  MISS:          0
L1I PREFETCH  ACCESS:          0  HIT:          0  MISS:          0
L1I WRITEBACK ACCESS:          0  HIT:          0  MISS:          0
L1I PREFETCH  REQUESTED:          0  ISSUED:          0  USEFUL:          0  USELESS:          0
L2C TOTAL     ACCESS:    3165192  HIT:    1261756  MISS:    1903436
L2C LOAD      ACCESS:    2011092  HIT:     720984  MISS:    1290108
L2C RFO       ACCESS:      60738  HIT:      12014  MISS:      48724
L2C PREFETCH  ACCESS:    1025805  HIT:     461390  MISS:     564415
L2C WRITEBACK ACCESS:      67557  HIT:      67368  MISS:        189
L2C PREFETCH  REQUESTED:   52206777  ISSUED:   43794467  USEFUL:    3295262  USELESS:         33
LLC TOTAL     ACCESS:    5673135  HIT:    3772768  MISS:    1900367
LLC LOAD      ACCESS:     968253  HIT:     879151  MISS:      89102
LLC RFO       ACCESS:      48724  HIT:          0  MISS:      48724
LLC PREFETCH  ACCESS:    4607175  HIT:    2844691  MISS:    1762484
LLC WRITEBACK ACCESS:      48983  HIT:      48926  MISS:         57
LLC PREFETCH  REQUESTED:          0  ISSUED:          0  USEFUL:   14403083  USELESS:   18782913
Major fault: 0 Minor fault: 163393

CPU 5 cumulative IPC: 0.608661 instructions: 100000000 cycles: 164295187
L1D TOTAL     ACCESS:   20498308  HIT:   17461471  MISS:    3036837
L1D LOAD      ACCESS:   18156203  HIT:   15883273  MISS:    2272930
L1D RFO       ACCESS:    2342105  HIT:    1578198  MISS:     763907
L1D PREFETCH  ACCESS:          0  HIT:          0  MISS:          0
L1D WRITEBACK ACCESS:          0  HIT:          0  MISS:          0
L1D PREFETCH  REQUESTED:          0  ISSUED:          0  USEFUL:          0  USELESS:          0
L1I TOTAL     ACCESS:   23443782  HIT:   23443495  MISS:        287
L1I LOAD      ACCESS:   23443782  HIT:   23443495  MISS:        287
L1I RFO       ACCESS:          0  HIT:          0  MISS:          0
L1I PREFETCH  ACCESS:          0  HIT:          0  MISS:          0
L1I WRITEBACK ACCESS:          0  HIT:          0  MISS:          0
L1I PREFETCH  REQUESTED:          0  ISSUED:          0  USEFUL:          0  USELESS:          0
L2C TOTAL     ACCESS:    7351899  HIT:    5013265  MISS:    2338634
L2C LOAD      ACCESS:    2273197  HIT:    1337672  MISS:     935525
L2C RFO       ACCESS:     763907  HIT:          6  MISS:     763901
L2C PREFETCH  ACCESS:    3456945  HIT:    2817810  MISS:     639135
L2C WRITEBACK ACCESS:     857850  HIT:     857777  MISS:         73
L2C PREFETCH  REQUESTED:   40819136  ISSUED:   40759322  USEFUL:    2844297  USELESS:      39847
LLC TOTAL     ACCESS:    7006865  HIT:    4621079  MISS:    2385786
LLC LOAD      ACCESS:     598943  HIT:     485754  MISS:     113189
LLC RFO       ACCESS:     763901  HIT:         58  MISS:     763843
LLC PREFETCH  ACCESS:    4792707  HIT:    3283984  MISS:    1508723
LLC WRITEBACK ACCESS:     851314  HIT:     851283  MISS:         31
LLC PREFETCH  REQUESTED:          0  ISSUED:          0  USEFUL:   14403083  USELESS:   18782913
Major fault: 0 Minor fault: 55264

CPU 6 cumulative IPC: 0.340563 instructions: 100000000 cycles: 293631671
L1D TOTAL     ACCESS:   56036772  HIT:   54112753  MISS:    1924019
L1D LOAD      ACCESS:   49625464  HIT:   47701445  MISS:    1924019
L1D RFO       ACCESS:    6411308  HIT:    6411308  MISS:          0
L1D PREFETCH  ACCESS:          0  HIT:          0  MISS:          0
L1D WRITEBACK ACCESS:          0  HIT:          0  MISS:          0
L1D PREFETCH  REQUESTED:          0  ISSUED:          0  USEFUL:          0  USELESS:          0
L1I TOTAL     ACCESS:   30178320  HIT:   30178320  MISS:          0
L1I LOAD      ACCESS:   30178320  HIT:   30178320  MISS:          0
L1I RFO       ACCESS:          0  HIT:          0  MISS:          0
L1I PREFETCH  ACCESS:          0  HIT:          0  MISS:          0
L1I WRITEBACK ACCESS:          0  HIT:          0  MISS:          0
L1I PREFETCH  REQUESTED:          0  ISSUED:          0  USEFUL:          0  USELESS:          0
L2C TOTAL     ACCESS:    3378133  HIT:    1428968  MISS:    1949165
L2C LOAD      ACCESS:    1924019  HIT:     378825  MISS:    1545194
L2C RFO       ACCESS:          0  HIT:          0  MISS:          0
L2C PREFETCH  ACCESS:     482634  HIT:      78663  MISS:     403971
L2C WRITEBACK ACCESS:     971480  HIT:     971480  MISS:          0
L2C PREFETCH  REQUESTED:   10132584  ISSUED:   10129401  USEFUL:     877287  USELESS:      59233
LLC TOTAL     ACCESS:    6812167  HIT:    3964332  MISS:    2847835
LLC LOAD      ACCESS:    1531196  HIT:     778593  MISS:     752603
LLC RFO       ACCESS:          0  HIT:          0  MISS:          0
LLC PREFETCH  ACCESS:    4309472  HIT:    2214253  MISS:    2095219
LLC WRITEBACK ACCESS:     971499  HIT:     971486  MISS:         13
LLC PREFETCH  REQUESTED:          0  ISSUED:          0  USEFUL:   14403083  USELESS:   18782913
Major fault: 0 Minor fault: 591116

CPU 7 cumulative IPC: 0.626781 instructions: 100000002 cycles: 159545402
L1D TOTAL     ACCESS:   25807380  HIT:   21943116  MISS:    3864264
L1D LOAD      ACCESS:   10690448  HIT:   10104942  MISS:     585506
L1D RFO       ACCESS:   15116932  HIT:   11838174  MISS:    3278758
L1D PREFETCH  ACCESS:          0  HIT:          0  MISS:          0
L1D WRITEBACK ACCESS:          0  HIT:          0  MISS:          0
L1D PREFETCH  REQUESTED:          0  ISSUED:          0  USEFUL:          0  USELESS:          0
L1I TOTAL     ACCESS:   23785502  HIT:   23785502  MISS:          0
L1I LOAD      ACCESS:   23785502  HIT:   23785502  MISS:          0
L1I RFO       ACCESS:          0  HIT:          0  MISS:          0
L1I PREFETCH  ACCESS:          0  HIT:          0  MISS:          0
L1I WRITEBACK ACCESS:          0  HIT:          0  MISS:          0
L1I PREFETCH  REQUESTED:          0  ISSUED:          0  USEFUL:          0  USELESS:          0
L2C TOTAL     ACCESS:    7220172  HIT:    4304120  MISS:    2916052
L2C LOAD      ACCESS:     585506  HIT:      72008  MISS:     513498
L2C RFO       ACCESS:    3278758  HIT:     948252  MISS:    2330506
L2C PREFETCH  ACCESS:      77151  HIT:       5144  MISS:      72007
L2C WRITEBACK ACCESS:    3278757  HIT:    3278716  MISS:         41
L2C PREFETCH  REQUESTED:   10871595  ISSUED:   10871595  USEFUL:     296765  USELESS:          3
LLC TOTAL     ACCESS:    6075128  HIT:    3733120  MISS:    2342008
LLC LOAD      ACCESS:     418909  HIT:     330341  MISS:      88568
LLC RFO       ACCESS:    2329136  HIT:     572681  MISS:    1756455
LLC PREFETCH  ACCESS:     996580  HIT:     499631  MISS:     496949
LLC WRITEBACK ACCESS:    2330503  HIT:    2330467  MISS:         36
LLC PREFETCH  REQUESTED:          0  ISSUED:          0  USEFUL:   14403083  USELESS:   18782913
Major fault: 0 Minor fault: 89841

DRAM Statistics
 CHANNEL 0
 RQ ROW_BUFFER_HIT:    6967900  ROW_BUFFER_MISS:   16123660
 DBUS_CONGESTED:   54577055
 WQ ROW_BUFFER_HIT:     667066  ROW_BUFFER_MISS:    7388066  FULL:          0

 CHANNEL 1
 RQ ROW_BUFFER_HIT:    6949734  ROW_BUFFER_MISS:   16183137
 DBUS_CONGESTED:   54577055
 WQ ROW_BUFFER_HIT:     668638  ROW_BUFFER_MISS:    7386336  FULL:          0

 AVG_CONGESTED_CYCLE: 14
