Initialize SIGNATURE TABLE
ST_SET: 1
ST_WAY: 256
ST_TAG_BIT: 16
ST_TAG_MASK: ffff

Initialize PATTERN TABLE
PT_SET: 512
PT_WAY: 4
SIG_DELTA_BIT: 7
C_SIG_BIT: 4
C_DELTA_BIT: 4

Initialize PREFETCH FILTER
FILTER_SET: 1024

*** ChampSim Multicore Out-of-Order Simulator ***

Warmup Instructions: 20000000
Simulation Instructions: 100000000
Number of CPUs: 8
LLC sets: 16384
LLC ways: 16
Off-chip DRAM Size: 8192 MB Channels: 2 Width: 64-bit Data Rate: 1600 MT/s

CPU 0 runs /scratch/user/djimenez/champsim-traces/speccpu2017/xz/603.bwaves_s/603.bwaves_s-891B.champsimtrace.xz
CPU 1 runs /scratch/user/djimenez/champsim-traces/speccpu2017/xz/654.roms_s/654.roms_s-523B.champsimtrace.xz
CPU 2 runs /scratch/user/djimenez/champsim-traces/speccpu2017/xz/605.mcf_s/605.mcf_s-1644B.champsimtrace.xz
CPU 3 runs /scratch/user/djimenez/champsim-traces/speccpu2017/xz/654.roms_s/654.roms_s-1007B.champsimtrace.xz
CPU 4 runs /scratch/user/djimenez/champsim-traces/speccpu2017/xz/619.lbm_s/619.lbm_s-2677B.champsimtrace.xz
CPU 5 runs /scratch/user/djimenez/champsim-traces/speccpu2017/xz/654.roms_s/654.roms_s-294B.champsimtrace.xz
CPU 6 runs /scratch/user/djimenez/champsim-traces/speccpu2017/xz/619.lbm_s/619.lbm_s-3766B.champsimtrace.xz
CPU 7 runs /scratch/user/djimenez/champsim-traces/speccpu2017/xz/605.mcf_s/605.mcf_s-484B.champsimtrace.xz
Heartbeat CPU 0 instructions: 10000003 cycles: 3327369 heartbeat IPC: 3.00538 cumulative IPC: 3.00538 (Simulation time: 0 hr 3 min 10 sec) 
Heartbeat CPU 6 instructions: 10000000 cycles: 4418349 heartbeat IPC: 2.26329 cumulative IPC: 2.26329 (Simulation time: 0 hr 4 min 12 sec) 
Heartbeat CPU 1 instructions: 10000001 cycles: 4648382 heartbeat IPC: 2.15129 cumulative IPC: 2.15129 (Simulation time: 0 hr 4 min 26 sec) 
Heartbeat CPU 5 instructions: 10000003 cycles: 4883214 heartbeat IPC: 2.04783 cumulative IPC: 2.04783 (Simulation time: 0 hr 4 min 40 sec) 
Heartbeat CPU 4 instructions: 10000001 cycles: 5089181 heartbeat IPC: 1.96495 cumulative IPC: 1.96495 (Simulation time: 0 hr 4 min 52 sec) 
Heartbeat CPU 3 instructions: 10000002 cycles: 5110624 heartbeat IPC: 1.95671 cumulative IPC: 1.95671 (Simulation time: 0 hr 4 min 54 sec) 
Heartbeat CPU 0 instructions: 20000000 cycles: 6661592 heartbeat IPC: 2.9992 cumulative IPC: 3.00229 (Simulation time: 0 hr 6 min 27 sec) 
Heartbeat CPU 7 instructions: 10000000 cycles: 7008510 heartbeat IPC: 1.42684 cumulative IPC: 1.42684 (Simulation time: 0 hr 6 min 47 sec) 
Heartbeat CPU 6 instructions: 20000000 cycles: 8902180 heartbeat IPC: 2.23024 cumulative IPC: 2.24664 (Simulation time: 0 hr 8 min 36 sec) 
Heartbeat CPU 1 instructions: 20000000 cycles: 9104218 heartbeat IPC: 2.24425 cumulative IPC: 2.19678 (Simulation time: 0 hr 8 min 47 sec) 
Heartbeat CPU 5 instructions: 20000000 cycles: 9765957 heartbeat IPC: 2.04803 cumulative IPC: 2.04793 (Simulation time: 0 hr 9 min 25 sec) 
Heartbeat CPU 0 instructions: 30000003 cycles: 10172677 heartbeat IPC: 2.84812 cumulative IPC: 0.983026 (Simulation time: 0 hr 9 min 47 sec) 
Heartbeat CPU 3 instructions: 20000000 cycles: 10220727 heartbeat IPC: 1.95691 cumulative IPC: 1.95681 (Simulation time: 0 hr 9 min 50 sec) 
Heartbeat CPU 4 instructions: 20000000 cycles: 10244002 heartbeat IPC: 1.93993 cumulative IPC: 1.95236 (Simulation time: 0 hr 9 min 51 sec) 
Heartbeat CPU 2 instructions: 10000002 cycles: 10565406 heartbeat IPC: 0.946485 cumulative IPC: 0.946485 (Simulation time: 0 hr 10 min 9 sec) 
Heartbeat CPU 6 instructions: 30000001 cycles: 13521590 heartbeat IPC: 2.16478 cumulative IPC: 0.739558 (Simulation time: 0 hr 12 min 57 sec) 
Heartbeat CPU 0 instructions: 40000000 cycles: 13699794 heartbeat IPC: 2.83518 cumulative IPC: 1.45988 (Simulation time: 0 hr 13 min 7 sec) 
Heartbeat CPU 7 instructions: 20000000 cycles: 14162540 heartbeat IPC: 1.39781 cumulative IPC: 1.41218 (Simulation time: 0 hr 13 min 41 sec) 
Heartbeat CPU 5 instructions: 30000002 cycles: 14649402 heartbeat IPC: 2.04774 cumulative IPC: 0.682622 (Simulation time: 0 hr 14 min 37 sec) 
Heartbeat CPU 1 instructions: 30000002 cycles: 14911517 heartbeat IPC: 1.72197 cumulative IPC: 0.670623 (Simulation time: 0 hr 15 min 5 sec) 
Heartbeat CPU 3 instructions: 30000000 cycles: 15330956 heartbeat IPC: 1.95686 cumulative IPC: 0.652275 (Simulation time: 0 hr 15 min 29 sec) 
Heartbeat CPU 4 instructions: 30000000 cycles: 15438705 heartbeat IPC: 1.92504 cumulative IPC: 0.647723 (Simulation time: 0 hr 15 min 35 sec) 
Heartbeat CPU 0 instructions: 50000001 cycles: 17048066 heartbeat IPC: 2.98662 cumulative IPC: 1.75973 (Simulation time: 0 hr 17 min 9 sec) 
Heartbeat CPU 6 instructions: 40000000 cycles: 17969948 heartbeat IPC: 2.24802 cumulative IPC: 1.11297 (Simulation time: 0 hr 18 min 2 sec) 
Heartbeat CPU 5 instructions: 40000000 cycles: 19531589 heartbeat IPC: 2.04826 cumulative IPC: 1.02398 (Simulation time: 0 hr 19 min 31 sec) 
Heartbeat CPU 1 instructions: 40000000 cycles: 19740461 heartbeat IPC: 2.07085 cumulative IPC: 1.01315 (Simulation time: 0 hr 19 min 43 sec) 
Heartbeat CPU 0 instructions: 60000000 cycles: 20338647 heartbeat IPC: 3.03898 cumulative IPC: 1.9667 (Simulation time: 0 hr 20 min 17 sec) 
Heartbeat CPU 3 instructions: 40000000 cycles: 20441256 heartbeat IPC: 1.95683 cumulative IPC: 0.978413 (Simulation time: 0 hr 20 min 23 sec) 
Heartbeat CPU 4 instructions: 40000000 cycles: 20457629 heartbeat IPC: 1.99246 cumulative IPC: 0.97763 (Simulation time: 0 hr 20 min 24 sec) 
Heartbeat CPU 2 instructions: 20000000 cycles: 21065639 heartbeat IPC: 0.95236 cumulative IPC: 0.949413 (Simulation time: 0 hr 20 min 59 sec) 

Warmup complete CPU 0 instructions: 62187210 cycles: 21065642 (Simulation time: 0 hr 20 min 59 sec) 
Warmup complete CPU 1 instructions: 42591497 cycles: 21065642 (Simulation time: 0 hr 20 min 59 sec) 
Warmup complete CPU 2 instructions: 20000001 cycles: 21065642 (Simulation time: 0 hr 20 min 59 sec) 
Warmup complete CPU 3 instructions: 41221935 cycles: 21065641 (Simulation time: 0 hr 20 min 59 sec) 
Warmup complete CPU 4 instructions: 41172292 cycles: 21065641 (Simulation time: 0 hr 20 min 59 sec) 
Warmup complete CPU 5 instructions: 43141454 cycles: 21065641 (Simulation time: 0 hr 20 min 59 sec) 
Warmup complete CPU 6 instructions: 47114263 cycles: 21065641 (Simulation time: 0 hr 20 min 59 sec) 
Warmup complete CPU 7 instructions: 29913350 cycles: 21065641 (Simulation time: 0 hr 20 min 59 sec) 

Heartbeat CPU 7 instructions: 30000000 cycles: 21277058 heartbeat IPC: 1.40558 cumulative IPC: 0.409854 (Simulation time: 0 hr 21 min 3 sec) 
Heartbeat CPU 6 instructions: 50000003 cycles: 26029739 heartbeat IPC: 1.24073 cumulative IPC: 0.581322 (Simulation time: 0 hr 22 min 41 sec) 
Heartbeat CPU 5 instructions: 50000001 cycles: 32223576 heartbeat IPC: 0.787899 cumulative IPC: 0.614679 (Simulation time: 0 hr 24 min 27 sec) 
Heartbeat CPU 1 instructions: 50000000 cycles: 37183044 heartbeat IPC: 0.57331 cumulative IPC: 0.459659 (Simulation time: 0 hr 25 min 54 sec) 
Heartbeat CPU 3 instructions: 50000003 cycles: 42282481 heartbeat IPC: 0.45785 cumulative IPC: 0.413731 (Simulation time: 0 hr 27 min 19 sec) 
Heartbeat CPU 6 instructions: 60000000 cycles: 45752667 heartbeat IPC: 0.507024 cumulative IPC: 0.521964 (Simulation time: 0 hr 28 min 16 sec) 
Heartbeat CPU 5 instructions: 60000000 cycles: 49974713 heartbeat IPC: 0.563344 cumulative IPC: 0.583158 (Simulation time: 0 hr 29 min 20 sec) 
Heartbeat CPU 4 instructions: 50000002 cycles: 51467842 heartbeat IPC: 0.322474 cumulative IPC: 0.290364 (Simulation time: 0 hr 29 min 42 sec) 
Heartbeat CPU 0 instructions: 70000000 cycles: 51589361 heartbeat IPC: 0.319993 cumulative IPC: 0.255958 (Simulation time: 0 hr 29 min 44 sec) 
Heartbeat CPU 6 instructions: 70000003 cycles: 64790108 heartbeat IPC: 0.525281 cumulative IPC: 0.523408 (Simulation time: 0 hr 33 min 53 sec) 
Heartbeat CPU 7 instructions: 40000000 cycles: 65088747 heartbeat IPC: 0.22825 cumulative IPC: 0.229122 (Simulation time: 0 hr 34 min 0 sec) 
Heartbeat CPU 5 instructions: 70000000 cycles: 66115546 heartbeat IPC: 0.619547 cumulative IPC: 0.596195 (Simulation time: 0 hr 34 min 24 sec) 
Heartbeat CPU 1 instructions: 60000000 cycles: 66323200 heartbeat IPC: 0.343169 cumulative IPC: 0.384654 (Simulation time: 0 hr 34 min 28 sec) 
Heartbeat CPU 3 instructions: 60000000 cycles: 69636784 heartbeat IPC: 0.365573 cumulative IPC: 0.386609 (Simulation time: 0 hr 35 min 46 sec) 
Heartbeat CPU 5 instructions: 80000000 cycles: 81333151 heartbeat IPC: 0.657134 cumulative IPC: 0.611582 (Simulation time: 0 hr 40 min 2 sec) 
Heartbeat CPU 6 instructions: 80000000 cycles: 82233230 heartbeat IPC: 0.573292 cumulative IPC: 0.537633 (Simulation time: 0 hr 40 min 20 sec) 
Heartbeat CPU 0 instructions: 80000000 cycles: 83185105 heartbeat IPC: 0.316498 cumulative IPC: 0.286751 (Simulation time: 0 hr 40 min 37 sec) 
Heartbeat CPU 4 instructions: 60000000 cycles: 83970975 heartbeat IPC: 0.307663 cumulative IPC: 0.299302 (Simulation time: 0 hr 40 min 51 sec) 
Heartbeat CPU 3 instructions: 70000003 cycles: 87407623 heartbeat IPC: 0.56272 cumulative IPC: 0.433784 (Simulation time: 0 hr 41 min 53 sec) 
Heartbeat CPU 1 instructions: 70000002 cycles: 91415378 heartbeat IPC: 0.398531 cumulative IPC: 0.389604 (Simulation time: 0 hr 43 min 4 sec) 
Heartbeat CPU 5 instructions: 90000001 cycles: 97084229 heartbeat IPC: 0.634877 cumulative IPC: 0.616409 (Simulation time: 0 hr 44 min 54 sec) 
Heartbeat CPU 6 instructions: 90000000 cycles: 99974284 heartbeat IPC: 0.563664 cumulative IPC: 0.543486 (Simulation time: 0 hr 45 min 51 sec) 
Heartbeat CPU 2 instructions: 30000003 cycles: 101174292 heartbeat IPC: 0.12483 cumulative IPC: 0.12483 (Simulation time: 0 hr 46 min 14 sec) 
Heartbeat CPU 3 instructions: 80000000 cycles: 105154819 heartbeat IPC: 0.563469 cumulative IPC: 0.461154 (Simulation time: 0 hr 47 min 37 sec) 
Heartbeat CPU 1 instructions: 80000000 cycles: 109837673 heartbeat IPC: 0.54282 cumulative IPC: 0.4214 (Simulation time: 0 hr 49 min 9 sec) 
Heartbeat CPU 5 instructions: 100000000 cycles: 111759684 heartbeat IPC: 0.68141 cumulative IPC: 0.626927 (Simulation time: 0 hr 49 min 47 sec) 
Heartbeat CPU 7 instructions: 50000003 cycles: 112521198 heartbeat IPC: 0.210826 cumulative IPC: 0.219633 (Simulation time: 0 hr 50 min 2 sec) 
Heartbeat CPU 0 instructions: 90000000 cycles: 113634955 heartbeat IPC: 0.328409 cumulative IPC: 0.300454 (Simulation time: 0 hr 50 min 24 sec) 
Heartbeat CPU 4 instructions: 70000001 cycles: 115580113 heartbeat IPC: 0.316364 cumulative IPC: 0.305008 (Simulation time: 0 hr 51 min 1 sec) 
Heartbeat CPU 6 instructions: 100000000 cycles: 117343768 heartbeat IPC: 0.575722 cumulative IPC: 0.549302 (Simulation time: 0 hr 51 min 35 sec) 
Heartbeat CPU 3 instructions: 90000003 cycles: 122930983 heartbeat IPC: 0.562551 cumulative IPC: 0.478849 (Simulation time: 0 hr 53 min 21 sec) 
Heartbeat CPU 5 instructions: 110000002 cycles: 127332117 heartbeat IPC: 0.642161 cumulative IPC: 0.629159 (Simulation time: 0 hr 54 min 44 sec) 
Heartbeat CPU 1 instructions: 90000002 cycles: 127944147 heartbeat IPC: 0.552289 cumulative IPC: 0.443574 (Simulation time: 0 hr 54 min 57 sec) 
Heartbeat CPU 6 instructions: 110000001 cycles: 135327060 heartbeat IPC: 0.556072 cumulative IPC: 0.550367 (Simulation time: 0 hr 57 min 29 sec) 
Heartbeat CPU 3 instructions: 100000000 cycles: 140637649 heartbeat IPC: 0.564759 cumulative IPC: 0.49157 (Simulation time: 0 hr 59 min 12 sec) 
Heartbeat CPU 5 instructions: 120000000 cycles: 141716927 heartbeat IPC: 0.695178 cumulative IPC: 0.63703 (Simulation time: 0 hr 59 min 32 sec) 
Heartbeat CPU 0 instructions: 100000000 cycles: 143216148 heartbeat IPC: 0.338053 cumulative IPC: 0.309559 (Simulation time: 0 hr 59 min 59 sec) 
Heartbeat CPU 1 instructions: 100000000 cycles: 145203005 heartbeat IPC: 0.579413 cumulative IPC: 0.46246 (Simulation time: 1 hr 0 min 35 sec) 
Heartbeat CPU 4 instructions: 80000000 cycles: 147058072 heartbeat IPC: 0.317683 cumulative IPC: 0.308175 (Simulation time: 1 hr 1 min 7 sec) 
Heartbeat CPU 6 instructions: 120000000 cycles: 154060448 heartbeat IPC: 0.533806 cumulative IPC: 0.548034 (Simulation time: 1 hr 3 min 5 sec) 
Heartbeat CPU 7 instructions: 60000000 cycles: 156337898 heartbeat IPC: 0.228223 cumulative IPC: 0.222416 (Simulation time: 1 hr 3 min 44 sec) 
Heartbeat CPU 5 instructions: 130000000 cycles: 157476473 heartbeat IPC: 0.634536 cumulative IPC: 0.636742 (Simulation time: 1 hr 4 min 4 sec) 
Heartbeat CPU 3 instructions: 110000002 cycles: 158406049 heartbeat IPC: 0.562797 cumulative IPC: 0.500785 (Simulation time: 1 hr 4 min 20 sec) 
Heartbeat CPU 5 instructions: 140000000 cycles: 175259564 heartbeat IPC: 0.562332 cumulative IPC: 0.628161 (Simulation time: 1 hr 8 min 52 sec) 
Heartbeat CPU 6 instructions: 130000000 cycles: 177464230 heartbeat IPC: 0.427281 cumulative IPC: 0.529965 (Simulation time: 1 hr 9 min 23 sec) 
Heartbeat CPU 1 instructions: 110000000 cycles: 178594665 heartbeat IPC: 0.299476 cumulative IPC: 0.427912 (Simulation time: 1 hr 9 min 41 sec) 
Heartbeat CPU 3 instructions: 120000000 cycles: 179796485 heartbeat IPC: 0.467499 cumulative IPC: 0.4963 (Simulation time: 1 hr 9 min 59 sec) 
Heartbeat CPU 0 instructions: 110000002 cycles: 180578611 heartbeat IPC: 0.267648 cumulative IPC: 0.299742 (Simulation time: 1 hr 10 min 11 sec) 
Heartbeat CPU 2 instructions: 40000000 cycles: 180984755 heartbeat IPC: 0.125297 cumulative IPC: 0.125063 (Simulation time: 1 hr 10 min 17 sec) 
Finished CPU 5 instructions: 100000003 cycles: 160155354 cumulative IPC: 0.624394 (Simulation time: 1 hr 10 min 20 sec) 
Heartbeat CPU 4 instructions: 90000001 cycles: 181993348 heartbeat IPC: 0.286244 cumulative IPC: 0.303414 (Simulation time: 1 hr 10 min 32 sec) 
Heartbeat CPU 5 instructions: 150000000 cycles: 193793551 heartbeat IPC: 0.539549 cumulative IPC: 0.618652 (Simulation time: 1 hr 13 min 31 sec) 
Heartbeat CPU 6 instructions: 140000000 cycles: 203770577 heartbeat IPC: 0.380136 cumulative IPC: 0.508392 (Simulation time: 1 hr 15 min 55 sec) 
Heartbeat CPU 3 instructions: 130000003 cycles: 210819006 heartbeat IPC: 0.322347 cumulative IPC: 0.46786 (Simulation time: 1 hr 17 min 40 sec) 
Heartbeat CPU 5 instructions: 160000000 cycles: 211332460 heartbeat IPC: 0.570161 cumulative IPC: 0.614182 (Simulation time: 1 hr 17 min 48 sec) 
Heartbeat CPU 4 instructions: 100000000 cycles: 217489823 heartbeat IPC: 0.281718 cumulative IPC: 0.299493 (Simulation time: 1 hr 19 min 30 sec) 
Heartbeat CPU 1 instructions: 120000000 cycles: 218530693 heartbeat IPC: 0.2504 cumulative IPC: 0.392011 (Simulation time: 1 hr 19 min 47 sec) 
Heartbeat CPU 0 instructions: 120000000 cycles: 221198898 heartbeat IPC: 0.246182 cumulative IPC: 0.288871 (Simulation time: 1 hr 20 min 29 sec) 
Finished CPU 6 instructions: 100000001 cycles: 201610192 cumulative IPC: 0.496007 (Simulation time: 1 hr 20 min 54 sec) 
Heartbeat CPU 7 instructions: 70000002 cycles: 224171861 heartbeat IPC: 0.147419 cumulative IPC: 0.197368 (Simulation time: 1 hr 21 min 19 sec) 
Heartbeat CPU 5 instructions: 170000002 cycles: 228031601 heartbeat IPC: 0.598833 cumulative IPC: 0.612944 (Simulation time: 1 hr 22 min 30 sec) 
Heartbeat CPU 3 instructions: 140000000 cycles: 228720992 heartbeat IPC: 0.558597 cumulative IPC: 0.475683 (Simulation time: 1 hr 22 min 42 sec) 
Finished CPU 3 instructions: 100000001 cycles: 209813648 cumulative IPC: 0.476613 (Simulation time: 1 hr 23 min 22 sec) 
Heartbeat CPU 6 instructions: 150000001 cycles: 231432078 heartbeat IPC: 0.361513 cumulative IPC: 0.489079 (Simulation time: 1 hr 23 min 33 sec) 
Heartbeat CPU 1 instructions: 130000003 cycles: 240336982 heartbeat IPC: 0.458583 cumulative IPC: 0.398632 (Simulation time: 1 hr 26 min 17 sec) 
Heartbeat CPU 5 instructions: 180000000 cycles: 243409482 heartbeat IPC: 0.650285 cumulative IPC: 0.615527 (Simulation time: 1 hr 27 min 14 sec) 
Heartbeat CPU 3 instructions: 150000000 cycles: 246471524 heartbeat IPC: 0.563363 cumulative IPC: 0.482588 (Simulation time: 1 hr 28 min 8 sec) 
Heartbeat CPU 4 instructions: 110000000 cycles: 250816476 heartbeat IPC: 0.30006 cumulative IPC: 0.299575 (Simulation time: 1 hr 29 min 25 sec) 
Heartbeat CPU 0 instructions: 130000003 cycles: 252961605 heartbeat IPC: 0.314835 cumulative IPC: 0.292428 (Simulation time: 1 hr 30 min 2 sec) 
Heartbeat CPU 5 instructions: 190000001 cycles: 259006726 heartbeat IPC: 0.641139 cumulative IPC: 0.617206 (Simulation time: 1 hr 31 min 49 sec) 
Heartbeat CPU 6 instructions: 160000000 cycles: 263414014 heartbeat IPC: 0.312676 cumulative IPC: 0.465799 (Simulation time: 1 hr 33 min 6 sec) 
Heartbeat CPU 3 instructions: 160000000 cycles: 264322680 heartbeat IPC: 0.560188 cumulative IPC: 0.488282 (Simulation time: 1 hr 33 min 21 sec) 
Heartbeat CPU 2 instructions: 50000001 cycles: 264392453 heartbeat IPC: 0.119893 cumulative IPC: 0.123291 (Simulation time: 1 hr 33 min 22 sec) 
Heartbeat CPU 1 instructions: 140000000 cycles: 266909954 heartbeat IPC: 0.376322 cumulative IPC: 0.39622 (Simulation time: 1 hr 34 min 6 sec) 
Finished CPU 1 instructions: 100000002 cycles: 251437344 cumulative IPC: 0.397713 (Simulation time: 1 hr 35 min 45 sec) 
Heartbeat CPU 5 instructions: 200000000 cycles: 275983279 heartbeat IPC: 0.589048 cumulative IPC: 0.61533 (Simulation time: 1 hr 36 min 46 sec) 
Heartbeat CPU 3 instructions: 170000003 cycles: 282163607 heartbeat IPC: 0.560509 cumulative IPC: 0.493217 (Simulation time: 1 hr 38 min 36 sec) 
Heartbeat CPU 4 instructions: 120000000 cycles: 284030538 heartbeat IPC: 0.301077 cumulative IPC: 0.299765 (Simulation time: 1 hr 39 min 10 sec) 
Heartbeat CPU 7 instructions: 80000000 cycles: 284919883 heartbeat IPC: 0.164614 cumulative IPC: 0.189827 (Simulation time: 1 hr 39 min 26 sec) 
Heartbeat CPU 0 instructions: 140000000 cycles: 287215835 heartbeat IPC: 0.291935 cumulative IPC: 0.292364 (Simulation time: 1 hr 40 min 8 sec) 
Heartbeat CPU 5 instructions: 210000001 cycles: 291900239 heartbeat IPC: 0.628261 cumulative IPC: 0.61609 (Simulation time: 1 hr 41 min 32 sec) 
Heartbeat CPU 1 instructions: 150000002 cycles: 293849706 heartbeat IPC: 0.371199 cumulative IPC: 0.393749 (Simulation time: 1 hr 42 min 7 sec) 
Heartbeat CPU 3 instructions: 180000000 cycles: 300091612 heartbeat IPC: 0.557786 cumulative IPC: 0.497366 (Simulation time: 1 hr 43 min 53 sec) 
Heartbeat CPU 6 instructions: 170000002 cycles: 302006742 heartbeat IPC: 0.259116 cumulative IPC: 0.437407 (Simulation time: 1 hr 44 min 27 sec) 
Heartbeat CPU 5 instructions: 220000000 cycles: 309162905 heartbeat IPC: 0.579285 cumulative IPC: 0.613885 (Simulation time: 1 hr 46 min 37 sec) 
Heartbeat CPU 1 instructions: 160000000 cycles: 316084377 heartbeat IPC: 0.449748 cumulative IPC: 0.39797 (Simulation time: 1 hr 48 min 53 sec) 
Heartbeat CPU 4 instructions: 130000000 cycles: 317973189 heartbeat IPC: 0.294615 cumulative IPC: 0.299176 (Simulation time: 1 hr 49 min 30 sec) 
Heartbeat CPU 3 instructions: 190000003 cycles: 317979757 heartbeat IPC: 0.55903 cumulative IPC: 0.501081 (Simulation time: 1 hr 49 min 30 sec) 
Heartbeat CPU 0 instructions: 150000000 cycles: 326038368 heartbeat IPC: 0.257582 cumulative IPC: 0.287937 (Simulation time: 1 hr 51 min 47 sec) 
Heartbeat CPU 5 instructions: 230000000 cycles: 327638614 heartbeat IPC: 0.541251 cumulative IPC: 0.609508 (Simulation time: 1 hr 52 min 10 sec) 
Heartbeat CPU 1 instructions: 170000003 cycles: 340343314 heartbeat IPC: 0.412219 cumulative IPC: 0.399052 (Simulation time: 1 hr 55 min 35 sec) 
Heartbeat CPU 7 instructions: 90000000 cycles: 341991332 heartbeat IPC: 0.175219 cumulative IPC: 0.187229 (Simulation time: 1 hr 56 min 2 sec) 
Heartbeat CPU 6 instructions: 180000000 cycles: 346151981 heartbeat IPC: 0.226525 cumulative IPC: 0.408771 (Simulation time: 1 hr 57 min 9 sec) 
Heartbeat CPU 5 instructions: 240000000 cycles: 346419775 heartbeat IPC: 0.532448 cumulative IPC: 0.605059 (Simulation time: 1 hr 57 min 13 sec) 
Heartbeat CPU 3 instructions: 200000000 cycles: 346843502 heartbeat IPC: 0.346455 cumulative IPC: 0.487381 (Simulation time: 1 hr 57 min 19 sec) 
Heartbeat CPU 2 instructions: 60000000 cycles: 349749779 heartbeat IPC: 0.117155 cumulative IPC: 0.121697 (Simulation time: 1 hr 58 min 3 sec) 
Heartbeat CPU 4 instructions: 140000000 cycles: 355418469 heartbeat IPC: 0.267056 cumulative IPC: 0.295579 (Simulation time: 1 hr 59 min 23 sec) 
Finished CPU 4 instructions: 100000003 cycles: 338732611 cumulative IPC: 0.295218 (Simulation time: 2 hr 0 min 29 sec) 
Heartbeat CPU 1 instructions: 180000000 cycles: 363005361 heartbeat IPC: 0.441266 cumulative IPC: 0.40185 (Simulation time: 2 hr 1 min 23 sec) 
Heartbeat CPU 5 instructions: 250000003 cycles: 364739938 heartbeat IPC: 0.545847 cumulative IPC: 0.601903 (Simulation time: 2 hr 1 min 51 sec) 
Heartbeat CPU 0 instructions: 160000000 cycles: 369592493 heartbeat IPC: 0.229599 cumulative IPC: 0.280646 (Simulation time: 2 hr 3 min 7 sec) 
Heartbeat CPU 3 instructions: 210000000 cycles: 372208840 heartbeat IPC: 0.394239 cumulative IPC: 0.480653 (Simulation time: 2 hr 3 min 52 sec) 
Finished CPU 0 instructions: 100000000 cycles: 355499233 cumulative IPC: 0.281295 (Simulation time: 2 hr 5 min 7 sec) 
Heartbeat CPU 5 instructions: 260000000 cycles: 380816357 heartbeat IPC: 0.622029 cumulative IPC: 0.602802 (Simulation time: 2 hr 6 min 21 sec) 
Heartbeat CPU 7 instructions: 100000000 cycles: 387316382 heartbeat IPC: 0.220629 cumulative IPC: 0.191362 (Simulation time: 2 hr 8 min 16 sec) 
Heartbeat CPU 4 instructions: 150000000 cycles: 389596937 heartbeat IPC: 0.292582 cumulative IPC: 0.295301 (Simulation time: 2 hr 8 min 55 sec) 
Heartbeat CPU 3 instructions: 220000000 cycles: 390065854 heartbeat IPC: 0.560004 cumulative IPC: 0.484493 (Simulation time: 2 hr 9 min 3 sec) 
Heartbeat CPU 6 instructions: 190000000 cycles: 390149567 heartbeat IPC: 0.227285 cumulative IPC: 0.387136 (Simulation time: 2 hr 9 min 4 sec) 
Heartbeat CPU 1 instructions: 190000002 cycles: 396229226 heartbeat IPC: 0.300989 cumulative IPC: 0.392918 (Simulation time: 2 hr 10 min 46 sec) 
Heartbeat CPU 5 instructions: 270000000 cycles: 398403800 heartbeat IPC: 0.568587 cumulative IPC: 0.601208 (Simulation time: 2 hr 11 min 23 sec) 
Heartbeat CPU 0 instructions: 170000003 cycles: 406763335 heartbeat IPC: 0.269028 cumulative IPC: 0.279527 (Simulation time: 2 hr 13 min 44 sec) 
Heartbeat CPU 3 instructions: 230000003 cycles: 408028567 heartbeat IPC: 0.556709 cumulative IPC: 0.487845 (Simulation time: 2 hr 14 min 8 sec) 
Heartbeat CPU 5 instructions: 280000000 cycles: 414641285 heartbeat IPC: 0.615859 cumulative IPC: 0.601812 (Simulation time: 2 hr 16 min 5 sec) 
Heartbeat CPU 4 instructions: 160000000 cycles: 423054977 heartbeat IPC: 0.298882 cumulative IPC: 0.295599 (Simulation time: 2 hr 18 min 36 sec) 
Heartbeat CPU 3 instructions: 240000000 cycles: 425810474 heartbeat IPC: 0.562369 cumulative IPC: 0.491119 (Simulation time: 2 hr 19 min 25 sec) 
Heartbeat CPU 6 instructions: 200000000 cycles: 430331838 heartbeat IPC: 0.248866 cumulative IPC: 0.373561 (Simulation time: 2 hr 20 min 39 sec) 
Heartbeat CPU 1 instructions: 200000000 cycles: 430982933 heartbeat IPC: 0.287739 cumulative IPC: 0.384001 (Simulation time: 2 hr 20 min 49 sec) 
Heartbeat CPU 5 instructions: 290000002 cycles: 431092386 heartbeat IPC: 0.607862 cumulative IPC: 0.602055 (Simulation time: 2 hr 20 min 51 sec) 
Heartbeat CPU 2 instructions: 70000000 cycles: 432946597 heartbeat IPC: 0.120197 cumulative IPC: 0.121394 (Simulation time: 2 hr 21 min 24 sec) 
Heartbeat CPU 7 instructions: 110000002 cycles: 435915205 heartbeat IPC: 0.205766 cumulative IPC: 0.19305 (Simulation time: 2 hr 22 min 17 sec) 
Heartbeat CPU 0 instructions: 180000000 cycles: 440159809 heartbeat IPC: 0.299433 cumulative IPC: 0.281113 (Simulation time: 2 hr 23 min 36 sec) 
Heartbeat CPU 3 instructions: 250000001 cycles: 443737833 heartbeat IPC: 0.557807 cumulative IPC: 0.493948 (Simulation time: 2 hr 24 min 41 sec) 
Heartbeat CPU 5 instructions: 300000000 cycles: 447174609 heartbeat IPC: 0.621804 cumulative IPC: 0.6028 (Simulation time: 2 hr 25 min 46 sec) 
Heartbeat CPU 1 instructions: 210000000 cycles: 453065140 heartbeat IPC: 0.452853 cumulative IPC: 0.38752 (Simulation time: 2 hr 27 min 38 sec) 
Heartbeat CPU 4 instructions: 170000000 cycles: 456679716 heartbeat IPC: 0.2974 cumulative IPC: 0.295738 (Simulation time: 2 hr 28 min 40 sec) 
Heartbeat CPU 3 instructions: 260000000 cycles: 461582197 heartbeat IPC: 0.560401 cumulative IPC: 0.49664 (Simulation time: 2 hr 30 min 5 sec) 
Heartbeat CPU 5 instructions: 310000002 cycles: 463601046 heartbeat IPC: 0.608775 cumulative IPC: 0.603022 (Simulation time: 2 hr 30 min 41 sec) 
Heartbeat CPU 6 instructions: 210000002 cycles: 467835733 heartbeat IPC: 0.266639 cumulative IPC: 0.364585 (Simulation time: 2 hr 31 min 54 sec) 
Heartbeat CPU 7 instructions: 120000000 cycles: 471237558 heartbeat IPC: 0.283107 cumulative IPC: 0.200116 (Simulation time: 2 hr 32 min 50 sec) 
Heartbeat CPU 0 instructions: 190000001 cycles: 479751570 heartbeat IPC: 0.252578 cumulative IPC: 0.27865 (Simulation time: 2 hr 35 min 3 sec) 
Heartbeat CPU 5 instructions: 320000000 cycles: 481827236 heartbeat IPC: 0.548661 cumulative IPC: 0.600872 (Simulation time: 2 hr 35 min 36 sec) 
Heartbeat CPU 1 instructions: 220000000 cycles: 483342065 heartbeat IPC: 0.330285 cumulative IPC: 0.383771 (Simulation time: 2 hr 36 min 0 sec) 
Heartbeat CPU 3 instructions: 270000002 cycles: 486168729 heartbeat IPC: 0.406727 cumulative IPC: 0.491887 (Simulation time: 2 hr 36 min 41 sec) 
Heartbeat CPU 4 instructions: 180000000 cycles: 491646206 heartbeat IPC: 0.285988 cumulative IPC: 0.295014 (Simulation time: 2 hr 38 min 1 sec) 
Heartbeat CPU 5 instructions: 330000001 cycles: 501466140 heartbeat IPC: 0.509193 cumulative IPC: 0.597124 (Simulation time: 2 hr 40 min 25 sec) 
Heartbeat CPU 6 instructions: 220000000 cycles: 506290121 heartbeat IPC: 0.260048 cumulative IPC: 0.356301 (Simulation time: 2 hr 41 min 35 sec) 
Finished CPU 7 instructions: 100000000 cycles: 489116906 cumulative IPC: 0.20445 (Simulation time: 2 hr 42 min 33 sec) 
Heartbeat CPU 7 instructions: 130000000 cycles: 510513977 heartbeat IPC: 0.254606 cumulative IPC: 0.204489 (Simulation time: 2 hr 42 min 39 sec) 
Heartbeat CPU 1 instructions: 230000003 cycles: 515266269 heartbeat IPC: 0.313242 cumulative IPC: 0.379215 (Simulation time: 2 hr 43 min 56 sec) 
Heartbeat CPU 3 instructions: 280000000 cycles: 516450331 heartbeat IPC: 0.330233 cumulative IPC: 0.482005 (Simulation time: 2 hr 44 min 15 sec) 
Heartbeat CPU 5 instructions: 340000000 cycles: 519083128 heartbeat IPC: 0.567634 cumulative IPC: 0.596081 (Simulation time: 2 hr 44 min 58 sec) 
Heartbeat CPU 2 instructions: 80000000 cycles: 519326886 heartbeat IPC: 0.115767 cumulative IPC: 0.120419 (Simulation time: 2 hr 45 min 2 sec) 
Heartbeat CPU 4 instructions: 190000000 cycles: 526921355 heartbeat IPC: 0.283486 cumulative IPC: 0.29421 (Simulation time: 2 hr 47 min 8 sec) 
Heartbeat CPU 0 instructions: 200000000 cycles: 528467615 heartbeat IPC: 0.205271 cumulative IPC: 0.271605 (Simulation time: 2 hr 47 min 33 sec) 
Heartbeat CPU 3 instructions: 290000000 cycles: 534386090 heartbeat IPC: 0.557545 cumulative IPC: 0.484645 (Simulation time: 2 hr 49 min 18 sec) 
Heartbeat CPU 5 instructions: 350000002 cycles: 535938366 heartbeat IPC: 0.593288 cumulative IPC: 0.595989 (Simulation time: 2 hr 49 min 45 sec) 
Heartbeat CPU 1 instructions: 240000000 cycles: 536979826 heartbeat IPC: 0.460542 cumulative IPC: 0.382638 (Simulation time: 2 hr 50 min 4 sec) 
Heartbeat CPU 6 instructions: 230000003 cycles: 541151758 heartbeat IPC: 0.286848 cumulative IPC: 0.351645 (Simulation time: 2 hr 51 min 19 sec) 
Heartbeat CPU 3 instructions: 300000000 cycles: 552285903 heartbeat IPC: 0.558665 cumulative IPC: 0.487139 (Simulation time: 2 hr 54 min 31 sec) 
Heartbeat CPU 5 instructions: 360000000 cycles: 552708295 heartbeat IPC: 0.596305 cumulative IPC: 0.595999 (Simulation time: 2 hr 54 min 38 sec) 
Heartbeat CPU 1 instructions: 250000000 cycles: 557600058 heartbeat IPC: 0.484961 cumulative IPC: 0.386571 (Simulation time: 2 hr 56 min 2 sec) 
Heartbeat CPU 7 instructions: 140000000 cycles: 558227105 heartbeat IPC: 0.209586 cumulative IPC: 0.204941 (Simulation time: 2 hr 56 min 13 sec) 
Heartbeat CPU 4 instructions: 200000000 cycles: 560255933 heartbeat IPC: 0.299989 cumulative IPC: 0.294567 (Simulation time: 2 hr 56 min 51 sec) 
Heartbeat CPU 0 instructions: 210000000 cycles: 568354700 heartbeat IPC: 0.250708 cumulative IPC: 0.270082 (Simulation time: 2 hr 59 min 18 sec) 
Heartbeat CPU 5 instructions: 370000001 cycles: 568656417 heartbeat IPC: 0.627033 cumulative IPC: 0.596903 (Simulation time: 2 hr 59 min 24 sec) 
Heartbeat CPU 3 instructions: 310000000 cycles: 570117186 heartbeat IPC: 0.560812 cumulative IPC: 0.489532 (Simulation time: 2 hr 59 min 50 sec) 
Heartbeat CPU 6 instructions: 240000000 cycles: 573847687 heartbeat IPC: 0.305848 cumulative IPC: 0.348936 (Simulation time: 3 hr 0 min 54 sec) 
Heartbeat CPU 1 instructions: 260000000 cycles: 575163366 heartbeat IPC: 0.569369 cumulative IPC: 0.392365 (Simulation time: 3 hr 1 min 16 sec) 
Heartbeat CPU 5 instructions: 380000000 cycles: 585405892 heartbeat IPC: 0.597034 cumulative IPC: 0.596907 (Simulation time: 3 hr 4 min 2 sec) 
Heartbeat CPU 3 instructions: 320000000 cycles: 587982208 heartbeat IPC: 0.559753 cumulative IPC: 0.491744 (Simulation time: 3 hr 4 min 48 sec) 
Heartbeat CPU 4 instructions: 210000002 cycles: 592924779 heartbeat IPC: 0.306102 cumulative IPC: 0.295226 (Simulation time: 3 hr 6 min 13 sec) 
Heartbeat CPU 7 instructions: 150000000 cycles: 593907705 heartbeat IPC: 0.280264 cumulative IPC: 0.209633 (Simulation time: 3 hr 6 min 30 sec) 
Heartbeat CPU 5 instructions: 390000001 cycles: 601773492 heartbeat IPC: 0.610963 cumulative IPC: 0.597303 (Simulation time: 3 hr 8 min 53 sec) 
Heartbeat CPU 2 instructions: 90000003 cycles: 601952915 heartbeat IPC: 0.121027 cumulative IPC: 0.120505 (Simulation time: 3 hr 8 min 56 sec) 
Heartbeat CPU 3 instructions: 330000001 cycles: 605876814 heartbeat IPC: 0.558828 cumulative IPC: 0.493797 (Simulation time: 3 hr 10 min 6 sec) 
Heartbeat CPU 6 instructions: 250000001 cycles: 607024432 heartbeat IPC: 0.301416 cumulative IPC: 0.346246 (Simulation time: 3 hr 10 min 25 sec) 
Heartbeat CPU 1 instructions: 270000000 cycles: 608960240 heartbeat IPC: 0.295885 cumulative IPC: 0.386818 (Simulation time: 3 hr 10 min 58 sec) 
Heartbeat CPU 0 instructions: 220000000 cycles: 610188662 heartbeat IPC: 0.23904 cumulative IPC: 0.267877 (Simulation time: 3 hr 11 min 18 sec) 
Heartbeat CPU 5 instructions: 400000000 cycles: 618949706 heartbeat IPC: 0.5822 cumulative IPC: 0.596869 (Simulation time: 3 hr 13 min 55 sec) 
Heartbeat CPU 3 instructions: 340000000 cycles: 625538065 heartbeat IPC: 0.508615 cumulative IPC: 0.494279 (Simulation time: 3 hr 15 min 35 sec) 
Heartbeat CPU 4 instructions: 220000000 cycles: 628053651 heartbeat IPC: 0.284666 cumulative IPC: 0.294615 (Simulation time: 3 hr 16 min 12 sec) 
Heartbeat CPU 7 instructions: 160000000 cycles: 637194078 heartbeat IPC: 0.23102 cumulative IPC: 0.211136 (Simulation time: 3 hr 18 min 23 sec) 
Heartbeat CPU 5 instructions: 410000000 cycles: 637498257 heartbeat IPC: 0.539126 cumulative IPC: 0.595132 (Simulation time: 3 hr 18 min 28 sec) 
Heartbeat CPU 6 instructions: 260000000 cycles: 642087835 heartbeat IPC: 0.285198 cumulative IPC: 0.342799 (Simulation time: 3 hr 19 min 31 sec) 
Heartbeat CPU 1 instructions: 280000000 cycles: 651008652 heartbeat IPC: 0.237821 cumulative IPC: 0.376873 (Simulation time: 3 hr 21 min 29 sec) 
Heartbeat CPU 5 instructions: 420000000 cycles: 657777114 heartbeat IPC: 0.493124 cumulative IPC: 0.591883 (Simulation time: 3 hr 22 min 57 sec) 
Heartbeat CPU 3 instructions: 350000003 cycles: 658757056 heartbeat IPC: 0.301033 cumulative IPC: 0.484212 (Simulation time: 3 hr 23 min 12 sec) 
Heartbeat CPU 0 instructions: 230000000 cycles: 660625214 heartbeat IPC: 0.198269 cumulative IPC: 0.262388 (Simulation time: 3 hr 23 min 40 sec) 
Heartbeat CPU 4 instructions: 230000003 cycles: 665712915 heartbeat IPC: 0.265539 cumulative IPC: 0.292916 (Simulation time: 3 hr 25 min 8 sec) 
Heartbeat CPU 5 instructions: 430000000 cycles: 674193866 heartbeat IPC: 0.609134 cumulative IPC: 0.592316 (Simulation time: 3 hr 27 min 32 sec) 
Heartbeat CPU 6 instructions: 270000000 cycles: 676063657 heartbeat IPC: 0.294327 cumulative IPC: 0.340285 (Simulation time: 3 hr 28 min 4 sec) 
Heartbeat CPU 1 instructions: 290000002 cycles: 676221349 heartbeat IPC: 0.396626 cumulative IPC: 0.377633 (Simulation time: 3 hr 28 min 7 sec) 
Heartbeat CPU 3 instructions: 360000000 cycles: 680867394 heartbeat IPC: 0.452277 cumulative IPC: 0.483142 (Simulation time: 3 hr 29 min 26 sec) 
Heartbeat CPU 7 instructions: 170000000 cycles: 690108681 heartbeat IPC: 0.188984 cumulative IPC: 0.209384 (Simulation time: 3 hr 31 min 47 sec) 
Heartbeat CPU 2 instructions: 100000000 cycles: 690646101 heartbeat IPC: 0.112748 cumulative IPC: 0.119478 (Simulation time: 3 hr 31 min 56 sec) 
Heartbeat CPU 5 instructions: 440000000 cycles: 690857765 heartbeat IPC: 0.6001 cumulative IPC: 0.59251 (Simulation time: 3 hr 32 min 0 sec) 
Heartbeat CPU 0 instructions: 240000000 cycles: 700322298 heartbeat IPC: 0.251908 cumulative IPC: 0.261776 (Simulation time: 3 hr 34 min 39 sec) 
Heartbeat CPU 4 instructions: 240000000 cycles: 701014750 heartbeat IPC: 0.283271 cumulative IPC: 0.292416 (Simulation time: 3 hr 34 min 50 sec) 
Heartbeat CPU 3 instructions: 370000002 cycles: 703057035 heartbeat IPC: 0.450661 cumulative IPC: 0.482085 (Simulation time: 3 hr 35 min 25 sec) 
Heartbeat CPU 1 instructions: 300000000 cycles: 703725631 heartbeat IPC: 0.36358 cumulative IPC: 0.377067 (Simulation time: 3 hr 35 min 36 sec) 
Heartbeat CPU 5 instructions: 450000001 cycles: 707070637 heartbeat IPC: 0.616794 cumulative IPC: 0.593084 (Simulation time: 3 hr 36 min 34 sec) 
Heartbeat CPU 6 instructions: 280000000 cycles: 707971386 heartbeat IPC: 0.313404 cumulative IPC: 0.339036 (Simulation time: 3 hr 36 min 49 sec) 
Heartbeat CPU 5 instructions: 460000000 cycles: 724695146 heartbeat IPC: 0.567392 cumulative IPC: 0.59244 (Simulation time: 3 hr 41 min 6 sec) 
Heartbeat CPU 3 instructions: 380000000 cycles: 725360444 heartbeat IPC: 0.448362 cumulative IPC: 0.481017 (Simulation time: 3 hr 41 min 16 sec) 
Heartbeat CPU 1 instructions: 310000003 cycles: 731189319 heartbeat IPC: 0.364117 cumulative IPC: 0.376566 (Simulation time: 3 hr 42 min 50 sec) 
Heartbeat CPU 7 instructions: 180000000 cycles: 735258534 heartbeat IPC: 0.221485 cumulative IPC: 0.210149 (Simulation time: 3 hr 43 min 59 sec) 
Heartbeat CPU 4 instructions: 250000002 cycles: 736313381 heartbeat IPC: 0.283297 cumulative IPC: 0.291966 (Simulation time: 3 hr 44 min 17 sec) 
Heartbeat CPU 6 instructions: 290000002 cycles: 740575607 heartbeat IPC: 0.306709 cumulative IPC: 0.337571 (Simulation time: 3 hr 45 min 31 sec) 
Heartbeat CPU 5 instructions: 470000001 cycles: 740815052 heartbeat IPC: 0.620351 cumulative IPC: 0.593066 (Simulation time: 3 hr 45 min 35 sec) 
Heartbeat CPU 0 instructions: 250000003 cycles: 741753755 heartbeat IPC: 0.241363 cumulative IPC: 0.260602 (Simulation time: 3 hr 45 min 49 sec) 
Heartbeat CPU 3 instructions: 390000001 cycles: 750312710 heartbeat IPC: 0.400765 cumulative IPC: 0.478271 (Simulation time: 3 hr 47 min 46 sec) 
Heartbeat CPU 1 instructions: 320000000 cycles: 756467030 heartbeat IPC: 0.395605 cumulative IPC: 0.377221 (Simulation time: 3 hr 49 min 11 sec) 
Heartbeat CPU 5 instructions: 480000000 cycles: 761331042 heartbeat IPC: 0.487425 cumulative IPC: 0.590138 (Simulation time: 3 hr 50 min 16 sec) 
Heartbeat CPU 4 instructions: 260000000 cycles: 774683437 heartbeat IPC: 0.26062 cumulative IPC: 0.29037 (Simulation time: 3 hr 53 min 40 sec) 
Heartbeat CPU 3 instructions: 400000000 cycles: 775720068 heartbeat IPC: 0.393587 cumulative IPC: 0.47542 (Simulation time: 3 hr 53 min 58 sec) 
Heartbeat CPU 6 instructions: 300000000 cycles: 777593662 heartbeat IPC: 0.270138 cumulative IPC: 0.334271 (Simulation time: 3 hr 54 min 31 sec) 
Heartbeat CPU 5 instructions: 490000000 cycles: 779000265 heartbeat IPC: 0.565956 cumulative IPC: 0.589574 (Simulation time: 3 hr 54 min 55 sec) 
Heartbeat CPU 1 instructions: 330000002 cycles: 779821192 heartbeat IPC: 0.428189 cumulative IPC: 0.378789 (Simulation time: 3 hr 55 min 10 sec) 
Heartbeat CPU 2 instructions: 110000003 cycles: 780106125 heartbeat IPC: 0.111782 cumulative IPC: 0.118571 (Simulation time: 3 hr 55 min 15 sec) 
Heartbeat CPU 7 instructions: 190000000 cycles: 782441823 heartbeat IPC: 0.211939 cumulative IPC: 0.21026 (Simulation time: 3 hr 55 min 58 sec) 
Heartbeat CPU 0 instructions: 260000000 cycles: 792004132 heartbeat IPC: 0.199003 cumulative IPC: 0.256587 (Simulation time: 3 hr 58 min 26 sec) 
Heartbeat CPU 3 instructions: 410000000 cycles: 792648544 heartbeat IPC: 0.590721 cumulative IPC: 0.47795 (Simulation time: 3 hr 58 min 36 sec) 
Heartbeat CPU 5 instructions: 500000000 cycles: 796010678 heartbeat IPC: 0.587875 cumulative IPC: 0.589537 (Simulation time: 3 hr 59 min 27 sec) 
Heartbeat CPU 1 instructions: 340000000 cycles: 798477264 heartbeat IPC: 0.536018 cumulative IPC: 0.382562 (Simulation time: 4 hr 0 min 3 sec) 
Heartbeat CPU 4 instructions: 270000001 cycles: 809973922 heartbeat IPC: 0.283363 cumulative IPC: 0.290056 (Simulation time: 4 hr 2 min 50 sec) 
Heartbeat CPU 6 instructions: 310000002 cycles: 812861623 heartbeat IPC: 0.283544 cumulative IPC: 0.332012 (Simulation time: 4 hr 3 min 31 sec) 
Heartbeat CPU 5 instructions: 510000003 cycles: 813617484 heartbeat IPC: 0.567962 cumulative IPC: 0.589057 (Simulation time: 4 hr 3 min 42 sec) 
Heartbeat CPU 3 instructions: 420000000 cycles: 815225846 heartbeat IPC: 0.442923 cumulative IPC: 0.476954 (Simulation time: 4 hr 4 min 5 sec) 
Heartbeat CPU 5 instructions: 520000000 cycles: 831333385 heartbeat IPC: 0.564465 cumulative IPC: 0.58852 (Simulation time: 4 hr 8 min 5 sec) 
Heartbeat CPU 1 instructions: 350000001 cycles: 835619262 heartbeat IPC: 0.269237 cumulative IPC: 0.377395 (Simulation time: 4 hr 9 min 15 sec) 
Heartbeat CPU 0 instructions: 270000003 cycles: 838402498 heartbeat IPC: 0.215525 cumulative IPC: 0.254256 (Simulation time: 4 hr 9 min 58 sec) 
Heartbeat CPU 3 instructions: 430000000 cycles: 841369874 heartbeat IPC: 0.382497 cumulative IPC: 0.473944 (Simulation time: 4 hr 10 min 40 sec) 
Heartbeat CPU 4 instructions: 280000000 cycles: 845795887 heartbeat IPC: 0.279158 cumulative IPC: 0.289583 (Simulation time: 4 hr 11 min 43 sec) 
Heartbeat CPU 5 instructions: 530000003 cycles: 849049040 heartbeat IPC: 0.564473 cumulative IPC: 0.588005 (Simulation time: 4 hr 12 min 30 sec) 
Heartbeat CPU 6 instructions: 320000000 cycles: 849157270 heartbeat IPC: 0.275515 cumulative IPC: 0.329536 (Simulation time: 4 hr 12 min 31 sec) 
Heartbeat CPU 7 instructions: 200000000 cycles: 850350341 heartbeat IPC: 0.147257 cumulative IPC: 0.2051 (Simulation time: 4 hr 12 min 48 sec) 
Heartbeat CPU 3 instructions: 440000000 cycles: 863452453 heartbeat IPC: 0.452846 cumulative IPC: 0.473391 (Simulation time: 4 hr 16 min 3 sec) 
Heartbeat CPU 5 instructions: 540000000 cycles: 865734489 heartbeat IPC: 0.599324 cumulative IPC: 0.588229 (Simulation time: 4 hr 16 min 39 sec) 
Heartbeat CPU 2 instructions: 120000000 cycles: 870380173 heartbeat IPC: 0.110774 cumulative IPC: 0.117742 (Simulation time: 4 hr 17 min 50 sec) 
Finished CPU 2 instructions: 100000000 cycles: 849314545 cumulative IPC: 0.117742 (Simulation time: 4 hr 17 min 50 sec) 

CPU 0 Branch Prediction Accuracy: 99.867% MPKI: 0.183694

CPU 1 Branch Prediction Accuracy: 99.8492% MPKI: 0.0899869

CPU 2 Branch Prediction Accuracy: 92.4261% MPKI: 6.09924

CPU 3 Branch Prediction Accuracy: 99.9463% MPKI: 0.0403382

CPU 4 Branch Prediction Accuracy: 97.079% MPKI: 0.485531

CPU 5 Branch Prediction Accuracy: 99.9304% MPKI: 0.0333997

CPU 6 Branch Prediction Accuracy: 97.4659% MPKI: 0.372649

CPU 7 Branch Prediction Accuracy: 98.5855% MPKI: 1.32082

ChampSim completed all CPUs

Total Simulation Statistics (not including warmup)

CPU 0 cumulative IPC: 0.25314 instructions: 214995256 cycles: 849314545
L1D TOTAL     ACCESS:   17326036  HIT:   12918501  MISS:    4407535
L1D LOAD      ACCESS:   14254114  HIT:    9846581  MISS:    4407533
L1D RFO       ACCESS:    3071922  HIT:    3071920  MISS:          2
L1D PREFETCH  ACCESS:          0  HIT:          0  MISS:          0
L1D WRITEBACK ACCESS:          0  HIT:          0  MISS:          0
L1I TOTAL     ACCESS:   45744118  HIT:   45744111  MISS:          7
L1I LOAD      ACCESS:   45744118  HIT:   45744111  MISS:          7
L1I RFO       ACCESS:          0  HIT:          0  MISS:          0
L1I PREFETCH  ACCESS:          0  HIT:          0  MISS:          0
L1I WRITEBACK ACCESS:          0  HIT:          0  MISS:          0
L2C TOTAL     ACCESS:    5212083  HIT:     804488  MISS:    4407595
L2C LOAD      ACCESS:    4407540  HIT:     788443  MISS:    3619097
L2C RFO       ACCESS:          2  HIT:          0  MISS:          2
L2C PREFETCH  ACCESS:     804537  HIT:      16044  MISS:     788493
L2C WRITEBACK ACCESS:          4  HIT:          1  MISS:          3
LLC TOTAL     ACCESS:   10591291  HIT:    6184195  MISS:    4407096
LLC LOAD      ACCESS:    1895374  HIT:    1397615  MISS:     497759
LLC RFO       ACCESS:          2  HIT:          0  MISS:          2
LLC PREFETCH  ACCESS:    8695911  HIT:    4786579  MISS:    3909332
LLC WRITEBACK ACCESS:          4  HIT:          1  MISS:          3

CPU 1 cumulative IPC: 0.3728 instructions: 316624497 cycles: 849314545
L1D TOTAL     ACCESS:   75560167  HIT:   67334613  MISS:    8225554
L1D LOAD      ACCESS:   67639720  HIT:   61214511  MISS:    6425209
L1D RFO       ACCESS:    7920447  HIT:    6120102  MISS:    1800345
L1D PREFETCH  ACCESS:          0  HIT:          0  MISS:          0
L1D WRITEBACK ACCESS:          0  HIT:          0  MISS:          0
L1I TOTAL     ACCESS:   81456909  HIT:   81456877  MISS:         32
L1I LOAD      ACCESS:   81456909  HIT:   81456877  MISS:         32
L1I RFO       ACCESS:          0  HIT:          0  MISS:          0
L1I PREFETCH  ACCESS:          0  HIT:          0  MISS:          0
L1I WRITEBACK ACCESS:          0  HIT:          0  MISS:          0
L2C TOTAL     ACCESS:   17198542  HIT:   10106044  MISS:    7092498
L2C LOAD      ACCESS:    6425240  HIT:    2738352  MISS:    3686888
L2C RFO       ACCESS:    1800345  HIT:         11  MISS:    1800334
L2C PREFETCH  ACCESS:    6624197  HIT:    5019013  MISS:    1605184
L2C WRITEBACK ACCESS:    2348760  HIT:    2348668  MISS:         92
LLC TOTAL     ACCESS:   21401389  HIT:   14001082  MISS:    7400307
LLC LOAD      ACCESS:    2064582  HIT:    1656483  MISS:     408099
LLC RFO       ACCESS:    1800334  HIT:          7  MISS:    1800327
LLC PREFETCH  ACCESS:   15205106  HIT:   10013297  MISS:    5191809
LLC WRITEBACK ACCESS:    2331367  HIT:    2331295  MISS:         72

CPU 2 cumulative IPC: 0.117742 instructions: 100000000 cycles: 849314545
L1D TOTAL     ACCESS:   53189750  HIT:   44166914  MISS:    9022836
L1D LOAD      ACCESS:   33480214  HIT:   28830812  MISS:    4649402
L1D RFO       ACCESS:   19709536  HIT:   15336102  MISS:    4373434
L1D PREFETCH  ACCESS:          0  HIT:          0  MISS:          0
L1D WRITEBACK ACCESS:          0  HIT:          0  MISS:          0
L1I TOTAL     ACCESS:   24168678  HIT:   24168678  MISS:          0
L1I LOAD      ACCESS:   24168678  HIT:   24168678  MISS:          0
L1I RFO       ACCESS:          0  HIT:          0  MISS:          0
L1I PREFETCH  ACCESS:          0  HIT:          0  MISS:          0
L1I WRITEBACK ACCESS:          0  HIT:          0  MISS:          0
L2C TOTAL     ACCESS:   18541119  HIT:    9745262  MISS:    8795857
L2C LOAD      ACCESS:    4649350  HIT:     625198  MISS:    4024152
L2C RFO       ACCESS:    4373434  HIT:         10  MISS:    4373424
L2C PREFETCH  ACCESS:     495499  HIT:     101730  MISS:     393769
L2C WRITEBACK ACCESS:    9022836  HIT:    9018324  MISS:       4512
LLC TOTAL     ACCESS:   22362806  HIT:   14639501  MISS:    7723305
LLC LOAD      ACCESS:    3458765  HIT:    2764126  MISS:     694639
LLC RFO       ACCESS:    4373424  HIT:      18617  MISS:    4354807
LLC PREFETCH  ACCESS:    5783881  HIT:    3110127  MISS:    2673754
LLC WRITEBACK ACCESS:    8746736  HIT:    8746631  MISS:        105

CPU 3 cumulative IPC: 0.472856 instructions: 401603522 cycles: 849314546
L1D TOTAL     ACCESS:  124201803  HIT:  119945981  MISS:    4255822
L1D LOAD      ACCESS:   81139086  HIT:   77997663  MISS:    3141423
L1D RFO       ACCESS:   43062717  HIT:   41948318  MISS:    1114399
L1D PREFETCH  ACCESS:          0  HIT:          0  MISS:          0
L1D WRITEBACK ACCESS:          0  HIT:          0  MISS:          0
L1I TOTAL     ACCESS:  152592161  HIT:  152591774  MISS:        387
L1I LOAD      ACCESS:  152592161  HIT:  152591774  MISS:        387
L1I RFO       ACCESS:          0  HIT:          0  MISS:          0
L1I PREFETCH  ACCESS:          0  HIT:          0  MISS:          0
L1I WRITEBACK ACCESS:          0  HIT:          0  MISS:          0
L2C TOTAL     ACCESS:    7303521  HIT:    4095681  MISS:    3207840
L2C LOAD      ACCESS:    3141743  HIT:    1659895  MISS:    1481848
L2C RFO       ACCESS:    1114299  HIT:      74565  MISS:    1039734
L2C PREFETCH  ACCESS:    1863471  HIT:    1178535  MISS:     684936
L2C WRITEBACK ACCESS:    1184008  HIT:    1182686  MISS:       1322
LLC TOTAL     ACCESS:    9643157  HIT:    6358493  MISS:    3284664
LLC LOAD      ACCESS:     962888  HIT:     716418  MISS:     246470
LLC RFO       ACCESS:    1039733  HIT:      27320  MISS:    1012413
LLC PREFETCH  ACCESS:    6547323  HIT:    4645687  MISS:    1901636
LLC WRITEBACK ACCESS:    1093213  HIT:     969068  MISS:     124145

CPU 4 cumulative IPC: 0.289926 instructions: 246238143 cycles: 849314546
L1D TOTAL     ACCESS:   70259700  HIT:   50775382  MISS:   19484318
L1D LOAD      ACCESS:   24976573  HIT:   22021996  MISS:    2954577
L1D RFO       ACCESS:   45283127  HIT:   28753386  MISS:   16529741
L1D PREFETCH  ACCESS:          0  HIT:          0  MISS:          0
L1D WRITEBACK ACCESS:          0  HIT:          0  MISS:          0
L1I TOTAL     ACCESS:   59848743  HIT:   59848743  MISS:          0
L1I LOAD      ACCESS:   59848743  HIT:   59848743  MISS:          0
L1I RFO       ACCESS:          0  HIT:          0  MISS:          0
L1I PREFETCH  ACCESS:          0  HIT:          0  MISS:          0
L1I WRITEBACK ACCESS:          0  HIT:          0  MISS:          0
L2C TOTAL     ACCESS:   36368619  HIT:   21689304  MISS:   14679315
L2C LOAD      ACCESS:    2954577  HIT:     323431  MISS:    2631146
L2C RFO       ACCESS:   16529727  HIT:    4807770  MISS:   11721957
L2C PREFETCH  ACCESS:     354574  HIT:      32953  MISS:     321621
L2C WRITEBACK ACCESS:   16529741  HIT:   16525150  MISS:       4591
LLC TOTAL     ACCESS:   29738463  HIT:   17935471  MISS:   11802992
LLC LOAD      ACCESS:    1850052  HIT:    1209104  MISS:     640948
LLC RFO       ACCESS:   11715038  HIT:    2864163  MISS:    8850875
LLC PREFETCH  ACCESS:    4447129  HIT:    2136976  MISS:    2310153
LLC WRITEBACK ACCESS:   11726244  HIT:   11725228  MISS:       1016

CPU 5 cumulative IPC: 0.588436 instructions: 499767263 cycles: 849314546
L1D TOTAL     ACCESS:  149888889  HIT:  140535697  MISS:    9353192
L1D LOAD      ACCESS:  133138962  HIT:  123838522  MISS:    9300440
L1D RFO       ACCESS:   16749927  HIT:   16697175  MISS:      52752
L1D PREFETCH  ACCESS:          0  HIT:          0  MISS:          0
L1D WRITEBACK ACCESS:          0  HIT:          0  MISS:          0
L1I TOTAL     ACCESS:  129867241  HIT:  129867241  MISS:          0
L1I LOAD      ACCESS:  129867241  HIT:  129867241  MISS:          0
L1I RFO       ACCESS:          0  HIT:          0  MISS:          0
L1I PREFETCH  ACCESS:          0  HIT:          0  MISS:          0
L1I WRITEBACK ACCESS:          0  HIT:          0  MISS:          0
L2C TOTAL     ACCESS:   27893743  HIT:   21411796  MISS:    6481947
L2C LOAD      ACCESS:    9300263  HIT:    5473117  MISS:    3827146
L2C RFO       ACCESS:      52752  HIT:        793  MISS:      51959
L2C PREFETCH  ACCESS:   16588450  HIT:   13985608  MISS:    2602842
L2C WRITEBACK ACCESS:    1952278  HIT:    1952278  MISS:          0
LLC TOTAL     ACCESS:   26377106  HIT:   20433124  MISS:    5943982
LLC LOAD      ACCESS:    2417121  HIT:    2059948  MISS:     357173
LLC RFO       ACCESS:      51958  HIT:       5214  MISS:      46744
LLC PREFETCH  ACCESS:   23855172  HIT:   18319858  MISS:    5535314
LLC WRITEBACK ACCESS:      52855  HIT:      48104  MISS:       4751

CPU 6 cumulative IPC: 0.328494 instructions: 278994378 cycles: 849314546
L1D TOTAL     ACCESS:   77465616  HIT:   58556182  MISS:   18909434
L1D LOAD      ACCESS:   28719470  HIT:   25852414  MISS:    2867056
L1D RFO       ACCESS:   48746146  HIT:   32703768  MISS:   16042378
L1D PREFETCH  ACCESS:          0  HIT:          0  MISS:          0
L1D WRITEBACK ACCESS:          0  HIT:          0  MISS:          0
L1I TOTAL     ACCESS:   67295361  HIT:   67295361  MISS:          0
L1I LOAD      ACCESS:   67295361  HIT:   67295361  MISS:          0
L1I RFO       ACCESS:          0  HIT:          0  MISS:          0
L1I PREFETCH  ACCESS:          0  HIT:          0  MISS:          0
L1I WRITEBACK ACCESS:          0  HIT:          0  MISS:          0
L2C TOTAL     ACCESS:   35310603  HIT:   21062221  MISS:   14248382
L2C LOAD      ACCESS:    2867056  HIT:     327832  MISS:    2539224
L2C RFO       ACCESS:   16042368  HIT:    4663277  MISS:   11379091
L2C PREFETCH  ACCESS:     358793  HIT:      32507  MISS:     326286
L2C WRITEBACK ACCESS:   16042386  HIT:   16038605  MISS:       3781
LLC TOTAL     ACCESS:   28981738  HIT:   17526414  MISS:   11455324
LLC LOAD      ACCESS:    1781463  HIT:    1198923  MISS:     582540
LLC RFO       ACCESS:   11372282  HIT:    2781862  MISS:    8590420
LLC PREFETCH  ACCESS:    4445300  HIT:    2163652  MISS:    2281648
LLC WRITEBACK ACCESS:   11382693  HIT:   11381977  MISS:        716

CPU 7 cumulative IPC: 0.204743 instructions: 173891302 cycles: 849314546
L1D TOTAL     ACCESS:   86066335  HIT:   81426276  MISS:    4640059
L1D LOAD      ACCESS:   37726719  HIT:   33506585  MISS:    4220134
L1D RFO       ACCESS:   48339616  HIT:   47919691  MISS:     419925
L1D PREFETCH  ACCESS:          0  HIT:          0  MISS:          0
L1D WRITEBACK ACCESS:          0  HIT:          0  MISS:          0
L1I TOTAL     ACCESS:   55804567  HIT:   55804567  MISS:          0
L1I LOAD      ACCESS:   55804567  HIT:   55804567  MISS:          0
L1I RFO       ACCESS:          0  HIT:          0  MISS:          0
L1I PREFETCH  ACCESS:          0  HIT:          0  MISS:          0
L1I WRITEBACK ACCESS:          0  HIT:          0  MISS:          0
L2C TOTAL     ACCESS:    6537776  HIT:    2015993  MISS:    4521783
L2C LOAD      ACCESS:    4220107  HIT:     271278  MISS:    3948829
L2C RFO       ACCESS:     419912  HIT:      17465  MISS:     402447
L2C PREFETCH  ACCESS:     776629  HIT:     609402  MISS:     167227
L2C WRITEBACK ACCESS:    1121128  HIT:    1117848  MISS:       3280
LLC TOTAL     ACCESS:    9580218  HIT:    4488471  MISS:    5091747
LLC LOAD      ACCESS:    3791801  HIT:    1257478  MISS:    2534323
LLC RFO       ACCESS:     400560  HIT:      17102  MISS:     383458
LLC PREFETCH  ACCESS:    4374931  HIT:    2205754  MISS:    2169177
LLC WRITEBACK ACCESS:    1012926  HIT:    1008137  MISS:       4789

Region of Interest Statistics

CPU 0 cumulative IPC: 0.281295 instructions: 100000000 cycles: 355499233
L1D TOTAL     ACCESS:    8377427  HIT:    6818572  MISS:    1558855
L1D LOAD      ACCESS:    5883825  HIT:    4324970  MISS:    1558855
L1D RFO       ACCESS:    2493602  HIT:    2493602  MISS:          0
L1D PREFETCH  ACCESS:          0  HIT:          0  MISS:          0
L1D WRITEBACK ACCESS:          0  HIT:          0  MISS:          0
L1D PREFETCH  REQUESTED:          0  ISSUED:          0  USEFUL:          0  USELESS:          0
L1I TOTAL     ACCESS:   22317752  HIT:   22317752  MISS:          0
L1I LOAD      ACCESS:   22317752  HIT:   22317752  MISS:          0
L1I RFO       ACCESS:          0  HIT:          0  MISS:          0
L1I PREFETCH  ACCESS:          0  HIT:          0  MISS:          0
L1I WRITEBACK ACCESS:          0  HIT:          0  MISS:          0
L1I PREFETCH  REQUESTED:          0  ISSUED:          0  USEFUL:          0  USELESS:          0
L2C TOTAL     ACCESS:    1811955  HIT:     253094  MISS:    1558861
L2C LOAD      ACCESS:    1558855  HIT:     252767  MISS:    1306088
L2C RFO       ACCESS:          0  HIT:          0  MISS:          0
L2C PREFETCH  ACCESS:     253100  HIT:        327  MISS:     252773
L2C WRITEBACK ACCESS:          0  HIT:          0  MISS:          0
L2C PREFETCH  REQUESTED:   31242975  ISSUED:   31242106  USEFUL:    1548764  USELESS:         77
LLC TOTAL     ACCESS:    3577232  HIT:    2018590  MISS:    1558642
LLC LOAD      ACCESS:     572577  HIT:     379334  MISS:     193243
LLC RFO       ACCESS:          0  HIT:          0  MISS:          0
LLC PREFETCH  ACCESS:    3004655  HIT:    1639256  MISS:    1365399
LLC WRITEBACK ACCESS:          0  HIT:          0  MISS:          0
LLC PREFETCH  REQUESTED:          0  ISSUED:          0  USEFUL:   12166360  USELESS:   18205282
Major fault: 0 Minor fault: 67768

CPU 1 cumulative IPC: 0.397713 instructions: 100000002 cycles: 251437344
L1D TOTAL     ACCESS:   24675025  HIT:   22171599  MISS:    2503426
L1D LOAD      ACCESS:   22521544  HIT:   20604236  MISS:    1917308
L1D RFO       ACCESS:    2153481  HIT:    1567363  MISS:     586118
L1D PREFETCH  ACCESS:          0  HIT:          0  MISS:          0
L1D WRITEBACK ACCESS:          0  HIT:          0  MISS:          0
L1D PREFETCH  REQUESTED:          0  ISSUED:          0  USEFUL:          0  USELESS:          0
L1I TOTAL     ACCESS:   26238836  HIT:   26238804  MISS:         32
L1I LOAD      ACCESS:   26238836  HIT:   26238804  MISS:         32
L1I RFO       ACCESS:          0  HIT:          0  MISS:          0
L1I PREFETCH  ACCESS:          0  HIT:          0  MISS:          0
L1I WRITEBACK ACCESS:          0  HIT:          0  MISS:          0
L1I PREFETCH  REQUESTED:          0  ISSUED:          0  USEFUL:          0  USELESS:          0
L2C TOTAL     ACCESS:    5127599  HIT:    2911055  MISS:    2216544
L2C LOAD      ACCESS:    1917340  HIT:     815548  MISS:    1101792
L2C RFO       ACCESS:     586118  HIT:          3  MISS:     586115
L2C PREFETCH  ACCESS:    1900845  HIT:    1372235  MISS:     528610
L2C WRITEBACK ACCESS:     723296  HIT:     723269  MISS:         27
L2C PREFETCH  REQUESTED:   38292668  ISSUED:   38290779  USEFUL:    2012028  USELESS:      42391
LLC TOTAL     ACCESS:    6960489  HIT:    4646547  MISS:    2313942
LLC LOAD      ACCESS:     614131  HIT:     495966  MISS:     118165
LLC RFO       ACCESS:     586115  HIT:          3  MISS:     586112
LLC PREFETCH  ACCESS:    5041125  HIT:    3431480  MISS:    1609645
LLC WRITEBACK ACCESS:     719118  HIT:     719098  MISS:         20
LLC PREFETCH  REQUESTED:          0  ISSUED:          0  USEFUL:   12166360  USELESS:   18205282
Major fault: 0 Minor fault: 47492

CPU 2 cumulative IPC: 0.117742 instructions: 100000000 cycles: 849314545
L1D TOTAL     ACCESS:   53189750  HIT:   44166914  MISS:    9022836
L1D LOAD      ACCESS:   33480214  HIT:   28830812  MISS:    4649402
L1D RFO       ACCESS:   19709536  HIT:   15336102  MISS:    4373434
L1D PREFETCH  ACCESS:          0  HIT:          0  MISS:          0
L1D WRITEBACK ACCESS:          0  HIT:          0  MISS:          0
L1D PREFETCH  REQUESTED:          0  ISSUED:          0  USEFUL:          0  USELESS:          0
L1I TOTAL     ACCESS:   24168678  HIT:   24168678  MISS:          0
L1I LOAD      ACCESS:   24168678  HIT:   24168678  MISS:          0
L1I RFO       ACCESS:          0  HIT:          0  MISS:          0
L1I PREFETCH  ACCESS:          0  HIT:          0  MISS:          0
L1I WRITEBACK ACCESS:          0  HIT:          0  MISS:          0
L1I PREFETCH  REQUESTED:          0  ISSUED:          0  USEFUL:          0  USELESS:          0
L2C TOTAL     ACCESS:   18541119  HIT:    9745262  MISS:    8795857
L2C LOAD      ACCESS:    4649350  HIT:     625198  MISS:    4024152
L2C RFO       ACCESS:    4373434  HIT:         10  MISS:    4373424
L2C PREFETCH  ACCESS:     495499  HIT:     101730  MISS:     393769
L2C WRITEBACK ACCESS:    9022836  HIT:    9018324  MISS:       4512
L2C PREFETCH  REQUESTED:   16860426  ISSUED:   16860426  USEFUL:     550998  USELESS:      55424
LLC TOTAL     ACCESS:   22362806  HIT:   14639501  MISS:    7723305
LLC LOAD      ACCESS:    3458765  HIT:    2764126  MISS:     694639
LLC RFO       ACCESS:    4373424  HIT:      18617  MISS:    4354807
LLC PREFETCH  ACCESS:    5783881  HIT:    3110127  MISS:    2673754
LLC WRITEBACK ACCESS:    8746736  HIT:    8746631  MISS:        105
LLC PREFETCH  REQUESTED:          0  ISSUED:          0  USEFUL:   12166360  USELESS:   18205282
Major fault: 0 Minor fault: 257383

CPU 3 cumulative IPC: 0.476613 instructions: 100000001 cycles: 209813648
L1D TOTAL     ACCESS:   28965189  HIT:   28057237  MISS:     907952
L1D LOAD      ACCESS:   18811209  HIT:   18210722  MISS:     600487
L1D RFO       ACCESS:   10153980  HIT:    9846515  MISS:     307465
L1D PREFETCH  ACCESS:          0  HIT:          0  MISS:          0
L1D WRITEBACK ACCESS:          0  HIT:          0  MISS:          0
L1D PREFETCH  REQUESTED:          0  ISSUED:          0  USEFUL:          0  USELESS:          0
L1I TOTAL     ACCESS:   37888000  HIT:   37887937  MISS:         63
L1I LOAD      ACCESS:   37888000  HIT:   37887937  MISS:         63
L1I RFO       ACCESS:          0  HIT:          0  MISS:          0
L1I PREFETCH  ACCESS:          0  HIT:          0  MISS:          0
L1I WRITEBACK ACCESS:          0  HIT:          0  MISS:          0
L1I PREFETCH  REQUESTED:          0  ISSUED:          0  USEFUL:          0  USELESS:          0
L2C TOTAL     ACCESS:    1434701  HIT:     528586  MISS:     906115
L2C LOAD      ACCESS:     600550  HIT:     206506  MISS:     394044
L2C RFO       ACCESS:     307465  HIT:          0  MISS:     307465
L2C PREFETCH  ACCESS:     217169  HIT:      12966  MISS:     204203
L2C WRITEBACK ACCESS:     309517  HIT:     309114  MISS:        403
L2C PREFETCH  REQUESTED:   11795806  ISSUED:   11788174  USEFUL:     692569  USELESS:      13070
LLC TOTAL     ACCESS:    2701853  HIT:    1732124  MISS:     969729
LLC LOAD      ACCESS:     229775  HIT:     185894  MISS:      43881
LLC RFO       ACCESS:     307464  HIT:          2  MISS:     307462
LLC PREFETCH  ACCESS:    1857027  HIT:    1271013  MISS:     586014
LLC WRITEBACK ACCESS:     307587  HIT:     275215  MISS:      32372
LLC PREFETCH  REQUESTED:          0  ISSUED:          0  USEFUL:   12166360  USELESS:   18205282
Major fault: 0 Minor fault: 30887

CPU 4 cumulative IPC: 0.295218 instructions: 100000003 cycles: 338732611
L1D TOTAL     ACCESS:   28500781  HIT:   20611064  MISS:    7889717
L1D LOAD      ACCESS:   10133138  HIT:    8936913  MISS:    1196225
L1D RFO       ACCESS:   18367643  HIT:   11674151  MISS:    6693492
L1D PREFETCH  ACCESS:          0  HIT:          0  MISS:          0
L1D WRITEBACK ACCESS:          0  HIT:          0  MISS:          0
L1D PREFETCH  REQUESTED:          0  ISSUED:          0  USEFUL:          0  USELESS:          0
L1I TOTAL     ACCESS:   24317441  HIT:   24317441  MISS:          0
L1I LOAD      ACCESS:   24317441  HIT:   24317441  MISS:          0
L1I RFO       ACCESS:          0  HIT:          0  MISS:          0
L1I PREFETCH  ACCESS:          0  HIT:          0  MISS:          0
L1I WRITEBACK ACCESS:          0  HIT:          0  MISS:          0
L1I PREFETCH  REQUESTED:          0  ISSUED:          0  USEFUL:          0  USELESS:          0
L2C TOTAL     ACCESS:   14734054  HIT:    8784314  MISS:    5949740
L2C LOAD      ACCESS:    1196225  HIT:     138795  MISS:    1057430
L2C RFO       ACCESS:    6693487  HIT:    1941143  MISS:    4752344
L2C PREFETCH  ACCESS:     150846  HIT:      12552  MISS:     138294
L2C WRITEBACK ACCESS:    6693496  HIT:    6691824  MISS:       1672
L2C PREFETCH  REQUESTED:   17532594  ISSUED:   17532594  USEFUL:     427083  USELESS:        161
LLC TOTAL     ACCESS:   12128601  HIT:    7348684  MISS:    4779917
LLC LOAD      ACCESS:     751490  HIT:     511193  MISS:     240297
LLC RFO       ACCESS:    4749515  HIT:    1165130  MISS:    3584385
LLC PREFETCH  ACCESS:    1873845  HIT:     919017  MISS:     954828
LLC WRITEBACK ACCESS:    4753751  HIT:    4753344  MISS:        407
LLC PREFETCH  REQUESTED:          0  ISSUED:          0  USEFUL:   12166360  USELESS:   18205282
Major fault: 0 Minor fault: 110505

CPU 5 cumulative IPC: 0.624394 instructions: 100000003 cycles: 160155354
L1D TOTAL     ACCESS:   30002872  HIT:   28131327  MISS:    1871545
L1D LOAD      ACCESS:   26651537  HIT:   24790543  MISS:    1860994
L1D RFO       ACCESS:    3351335  HIT:    3340784  MISS:      10551
L1D PREFETCH  ACCESS:          0  HIT:          0  MISS:          0
L1D WRITEBACK ACCESS:          0  HIT:          0  MISS:          0
L1D PREFETCH  REQUESTED:          0  ISSUED:          0  USEFUL:          0  USELESS:          0
L1I TOTAL     ACCESS:   25931832  HIT:   25931832  MISS:          0
L1I LOAD      ACCESS:   25931832  HIT:   25931832  MISS:          0
L1I RFO       ACCESS:          0  HIT:          0  MISS:          0
L1I PREFETCH  ACCESS:          0  HIT:          0  MISS:          0
L1I WRITEBACK ACCESS:          0  HIT:          0  MISS:          0
L1I PREFETCH  REQUESTED:          0  ISSUED:          0  USEFUL:          0  USELESS:          0
L2C TOTAL     ACCESS:    5701008  HIT:    4403707  MISS:    1297301
L2C LOAD      ACCESS:    1860953  HIT:    1127824  MISS:     733129
L2C RFO       ACCESS:      10551  HIT:        158  MISS:      10393
L2C PREFETCH  ACCESS:    3438837  HIT:    2885058  MISS:     553779
L2C WRITEBACK ACCESS:     390667  HIT:     390667  MISS:          0
L2C PREFETCH  REQUESTED:   52252185  ISSUED:   52209098  USEFUL:    2880784  USELESS:      72103
LLC TOTAL     ACCESS:    5629431  HIT:    4436884  MISS:    1192547
LLC LOAD      ACCESS:     474213  HIT:     406261  MISS:      67952
LLC RFO       ACCESS:      10393  HIT:       1079  MISS:       9314
LLC PREFETCH  ACCESS:    5134252  HIT:    4019666  MISS:    1114586
LLC WRITEBACK ACCESS:      10573  HIT:       9878  MISS:        695
LLC PREFETCH  REQUESTED:          0  ISSUED:          0  USEFUL:   12166360  USELESS:   18205282
Major fault: 0 Minor fault: 178471

CPU 6 cumulative IPC: 0.496007 instructions: 100000001 cycles: 201610192
L1D TOTAL     ACCESS:   25907055  HIT:   21862610  MISS:    4044445
L1D LOAD      ACCESS:   10648898  HIT:   10036092  MISS:     612806
L1D RFO       ACCESS:   15258157  HIT:   11826518  MISS:    3431639
L1D PREFETCH  ACCESS:          0  HIT:          0  MISS:          0
L1D WRITEBACK ACCESS:          0  HIT:          0  MISS:          0
L1D PREFETCH  REQUESTED:          0  ISSUED:          0  USEFUL:          0  USELESS:          0
L1I TOTAL     ACCESS:   23734649  HIT:   23734649  MISS:          0
L1I LOAD      ACCESS:   23734649  HIT:   23734649  MISS:          0
L1I RFO       ACCESS:          0  HIT:          0  MISS:          0
L1I PREFETCH  ACCESS:          0  HIT:          0  MISS:          0
L1I WRITEBACK ACCESS:          0  HIT:          0  MISS:          0
L1I PREFETCH  REQUESTED:          0  ISSUED:          0  USEFUL:          0  USELESS:          0
L2C TOTAL     ACCESS:    7574971  HIT:    4530940  MISS:    3044031
L2C LOAD      ACCESS:     612806  HIT:      91475  MISS:     521331
L2C RFO       ACCESS:    3431639  HIT:    1000455  MISS:    2431184
L2C PREFETCH  ACCESS:      98880  HIT:       7405  MISS:      91475
L2C WRITEBACK ACCESS:    3431646  HIT:    3431605  MISS:         41
L2C PREFETCH  REQUESTED:   15865383  ISSUED:   15865383  USEFUL:     396154  USELESS:        137
LLC TOTAL     ACCESS:    6369426  HIT:    3918216  MISS:    2451210
LLC LOAD      ACCESS:     369452  HIT:     299732  MISS:      69720
LLC RFO       ACCESS:    2429724  HIT:     591367  MISS:    1838357
LLC PREFETCH  ACCESS:    1139169  HIT:     596072  MISS:     543097
LLC WRITEBACK ACCESS:    2431081  HIT:    2431045  MISS:         36
LLC PREFETCH  REQUESTED:          0  ISSUED:          0  USEFUL:   12166360  USELESS:   18205282
Major fault: 0 Minor fault: 100556

CPU 7 cumulative IPC: 0.20445 instructions: 100000000 cycles: 489116906
L1D TOTAL     ACCESS:   49578055  HIT:   46982800  MISS:    2595255
L1D LOAD      ACCESS:   21570850  HIT:   19210881  MISS:    2359969
L1D RFO       ACCESS:   28007205  HIT:   27771919  MISS:     235286
L1D PREFETCH  ACCESS:          0  HIT:          0  MISS:          0
L1D WRITEBACK ACCESS:          0  HIT:          0  MISS:          0
L1D PREFETCH  REQUESTED:          0  ISSUED:          0  USEFUL:          0  USELESS:          0
L1I TOTAL     ACCESS:   32098689  HIT:   32098689  MISS:          0
L1I LOAD      ACCESS:   32098689  HIT:   32098689  MISS:          0
L1I RFO       ACCESS:          0  HIT:          0  MISS:          0
L1I PREFETCH  ACCESS:          0  HIT:          0  MISS:          0
L1I WRITEBACK ACCESS:          0  HIT:          0  MISS:          0
L1I PREFETCH  REQUESTED:          0  ISSUED:          0  USEFUL:          0  USELESS:          0
L2C TOTAL     ACCESS:    3712968  HIT:    1183711  MISS:    2529257
L2C LOAD      ACCESS:    2359959  HIT:     151021  MISS:    2208938
L2C RFO       ACCESS:     235278  HIT:      10409  MISS:     224869
L2C PREFETCH  ACCESS:     445138  HIT:     351600  MISS:      93538
L2C WRITEBACK ACCESS:     672593  HIT:     670681  MISS:       1912
L2C PREFETCH  REQUESTED:    9749328  ISSUED:    9749229  USEFUL:     189727  USELESS:      25992
LLC TOTAL     ACCESS:    5435598  HIT:    2581397  MISS:    2854201
LLC LOAD      ACCESS:    2121185  HIT:     720724  MISS:    1400461
LLC RFO       ACCESS:     223755  HIT:      10087  MISS:     213668
LLC PREFETCH  ACCESS:    2479184  HIT:    1241936  MISS:    1237248
LLC WRITEBACK ACCESS:     611474  HIT:     608650  MISS:       2824
LLC PREFETCH  REQUESTED:          0  ISSUED:          0  USEFUL:   12166360  USELESS:   18205282
Major fault: 0 Minor fault: 49026

DRAM Statistics
 CHANNEL 0
 RQ ROW_BUFFER_HIT:    6558309  ROW_BUFFER_MISS:   21921369
 DBUS_CONGESTED:   78513777
 WQ ROW_BUFFER_HIT:    1295358  ROW_BUFFER_MISS:   13249270  FULL:          0

 CHANNEL 1
 RQ ROW_BUFFER_HIT:    6552117  ROW_BUFFER_MISS:   21941745
 DBUS_CONGESTED:   78513777
 WQ ROW_BUFFER_HIT:    1299888  ROW_BUFFER_MISS:   13244280  FULL:          0

 AVG_CONGESTED_CYCLE: 14
