
*** ChampSim Multicore Out-of-Order Simulator ***

Warmup Instructions: 200000000
Simulation Instructions: 1000000000
Number of CPUs: 1
LLC sets: 2048
LLC ways: 16
Off-chip DRAM Size: 4096 MB Channels: 1 Width: 64-bit Data Rate: 1600 MT/s

CPU 0 runs /scratch/user/djimenez/champsim-traces/speccpu2006/xz/450.soplex-92B.champsimtrace.xz
L2C DA-AMPM prefetcher
Heartbeat CPU 0 instructions: 10000000 cycles: 4993100 heartbeat IPC: 2.00276 cumulative IPC: 2.00276 (Simulation time: 0 hr 0 min 13 sec) 
Heartbeat CPU 0 instructions: 20000000 cycles: 10108220 heartbeat IPC: 1.95499 cumulative IPC: 1.97859 (Simulation time: 0 hr 0 min 27 sec) 
Heartbeat CPU 0 instructions: 30000002 cycles: 15145604 heartbeat IPC: 1.98516 cumulative IPC: 1.98077 (Simulation time: 0 hr 0 min 40 sec) 
Heartbeat CPU 0 instructions: 40000000 cycles: 20151242 heartbeat IPC: 1.99775 cumulative IPC: 1.98499 (Simulation time: 0 hr 0 min 52 sec) 
Heartbeat CPU 0 instructions: 50000002 cycles: 25114028 heartbeat IPC: 2.015 cumulative IPC: 1.99092 (Simulation time: 0 hr 1 min 5 sec) 
Heartbeat CPU 0 instructions: 60000000 cycles: 30229165 heartbeat IPC: 1.95498 cumulative IPC: 1.98484 (Simulation time: 0 hr 1 min 19 sec) 
Heartbeat CPU 0 instructions: 70000000 cycles: 36232635 heartbeat IPC: 1.6657 cumulative IPC: 1.93196 (Simulation time: 0 hr 1 min 38 sec) 
Heartbeat CPU 0 instructions: 80000000 cycles: 42419955 heartbeat IPC: 1.61621 cumulative IPC: 1.8859 (Simulation time: 0 hr 1 min 57 sec) 
Heartbeat CPU 0 instructions: 90000000 cycles: 47498618 heartbeat IPC: 1.96902 cumulative IPC: 1.89479 (Simulation time: 0 hr 2 min 10 sec) 
Heartbeat CPU 0 instructions: 100000000 cycles: 52549539 heartbeat IPC: 1.97984 cumulative IPC: 1.90297 (Simulation time: 0 hr 2 min 23 sec) 
Heartbeat CPU 0 instructions: 110000001 cycles: 57578131 heartbeat IPC: 1.98863 cumulative IPC: 1.91045 (Simulation time: 0 hr 2 min 36 sec) 
Heartbeat CPU 0 instructions: 120000000 cycles: 62566769 heartbeat IPC: 2.00455 cumulative IPC: 1.91795 (Simulation time: 0 hr 2 min 49 sec) 
Heartbeat CPU 0 instructions: 130000002 cycles: 67648924 heartbeat IPC: 1.96767 cumulative IPC: 1.92169 (Simulation time: 0 hr 3 min 3 sec) 
Heartbeat CPU 0 instructions: 140000000 cycles: 72768819 heartbeat IPC: 1.95316 cumulative IPC: 1.9239 (Simulation time: 0 hr 3 min 15 sec) 
Heartbeat CPU 0 instructions: 150000001 cycles: 77896204 heartbeat IPC: 1.95031 cumulative IPC: 1.92564 (Simulation time: 0 hr 3 min 28 sec) 
Heartbeat CPU 0 instructions: 160000000 cycles: 82955653 heartbeat IPC: 1.9765 cumulative IPC: 1.92874 (Simulation time: 0 hr 3 min 41 sec) 
Heartbeat CPU 0 instructions: 170000000 cycles: 88168914 heartbeat IPC: 1.91819 cumulative IPC: 1.92812 (Simulation time: 0 hr 3 min 56 sec) 
Heartbeat CPU 0 instructions: 180000000 cycles: 94454703 heartbeat IPC: 1.59089 cumulative IPC: 1.90568 (Simulation time: 0 hr 4 min 16 sec) 
Heartbeat CPU 0 instructions: 190000001 cycles: 99905126 heartbeat IPC: 1.83472 cumulative IPC: 1.9018 (Simulation time: 0 hr 4 min 32 sec) 
Heartbeat CPU 0 instructions: 200000000 cycles: 104946644 heartbeat IPC: 1.98353 cumulative IPC: 1.90573 (Simulation time: 0 hr 4 min 46 sec) 

Warmup complete CPU 0 instructions: 200000003 cycles: 104946645 (Simulation time: 0 hr 4 min 46 sec) 

Heartbeat CPU 0 instructions: 210000001 cycles: 127414748 heartbeat IPC: 0.445075 cumulative IPC: 0.445075 (Simulation time: 0 hr 5 min 12 sec) 
Heartbeat CPU 0 instructions: 220000000 cycles: 150002247 heartbeat IPC: 0.442723 cumulative IPC: 0.443896 (Simulation time: 0 hr 5 min 37 sec) 
Heartbeat CPU 0 instructions: 230000002 cycles: 172207831 heartbeat IPC: 0.450337 cumulative IPC: 0.446022 (Simulation time: 0 hr 6 min 4 sec) 
Heartbeat CPU 0 instructions: 240000000 cycles: 194060537 heartbeat IPC: 0.457609 cumulative IPC: 0.448864 (Simulation time: 0 hr 6 min 30 sec) 
Heartbeat CPU 0 instructions: 250000003 cycles: 218344698 heartbeat IPC: 0.411791 cumulative IPC: 0.440925 (Simulation time: 0 hr 6 min 58 sec) 
Heartbeat CPU 0 instructions: 260000000 cycles: 239744211 heartbeat IPC: 0.4673 cumulative IPC: 0.445112 (Simulation time: 0 hr 7 min 24 sec) 
Heartbeat CPU 0 instructions: 270000001 cycles: 260988364 heartbeat IPC: 0.470718 cumulative IPC: 0.448598 (Simulation time: 0 hr 7 min 49 sec) 
Heartbeat CPU 0 instructions: 280000000 cycles: 290091104 heartbeat IPC: 0.34361 cumulative IPC: 0.432095 (Simulation time: 0 hr 8 min 22 sec) 
Heartbeat CPU 0 instructions: 290000000 cycles: 313658489 heartbeat IPC: 0.424315 cumulative IPC: 0.431217 (Simulation time: 0 hr 8 min 53 sec) 
Heartbeat CPU 0 instructions: 300000000 cycles: 335296733 heartbeat IPC: 0.462145 cumulative IPC: 0.434122 (Simulation time: 0 hr 9 min 19 sec) 
Heartbeat CPU 0 instructions: 310000001 cycles: 357884282 heartbeat IPC: 0.442722 cumulative IPC: 0.43489 (Simulation time: 0 hr 9 min 47 sec) 
Heartbeat CPU 0 instructions: 320000000 cycles: 380576260 heartbeat IPC: 0.440684 cumulative IPC: 0.435367 (Simulation time: 0 hr 10 min 14 sec) 
Heartbeat CPU 0 instructions: 330000003 cycles: 401909550 heartbeat IPC: 0.468751 cumulative IPC: 0.437765 (Simulation time: 0 hr 10 min 41 sec) 
Heartbeat CPU 0 instructions: 340000000 cycles: 423281520 heartbeat IPC: 0.467902 cumulative IPC: 0.439788 (Simulation time: 0 hr 11 min 7 sec) 
Heartbeat CPU 0 instructions: 350000003 cycles: 446480641 heartbeat IPC: 0.431051 cumulative IPC: 0.439195 (Simulation time: 0 hr 11 min 34 sec) 
Heartbeat CPU 0 instructions: 360000000 cycles: 468425508 heartbeat IPC: 0.455687 cumulative IPC: 0.440191 (Simulation time: 0 hr 12 min 1 sec) 
Heartbeat CPU 0 instructions: 370000001 cycles: 490678116 heartbeat IPC: 0.449386 cumulative IPC: 0.440721 (Simulation time: 0 hr 12 min 28 sec) 
Heartbeat CPU 0 instructions: 380000000 cycles: 512836355 heartbeat IPC: 0.451299 cumulative IPC: 0.441296 (Simulation time: 0 hr 12 min 55 sec) 
Heartbeat CPU 0 instructions: 390000000 cycles: 542795281 heartbeat IPC: 0.33379 cumulative IPC: 0.43394 (Simulation time: 0 hr 13 min 29 sec) 
Heartbeat CPU 0 instructions: 400000000 cycles: 566395198 heartbeat IPC: 0.42373 cumulative IPC: 0.433418 (Simulation time: 0 hr 14 min 0 sec) 
Heartbeat CPU 0 instructions: 410000000 cycles: 588192085 heartbeat IPC: 0.458781 cumulative IPC: 0.434562 (Simulation time: 0 hr 14 min 27 sec) 
Heartbeat CPU 0 instructions: 420000000 cycles: 611698781 heartbeat IPC: 0.425411 cumulative IPC: 0.434137 (Simulation time: 0 hr 14 min 56 sec) 
Heartbeat CPU 0 instructions: 430000003 cycles: 633469034 heartbeat IPC: 0.459343 cumulative IPC: 0.435176 (Simulation time: 0 hr 15 min 22 sec) 
Heartbeat CPU 0 instructions: 440000000 cycles: 654147829 heartbeat IPC: 0.483587 cumulative IPC: 0.436998 (Simulation time: 0 hr 15 min 48 sec) 
Heartbeat CPU 0 instructions: 450000000 cycles: 675323691 heartbeat IPC: 0.472236 cumulative IPC: 0.438307 (Simulation time: 0 hr 16 min 14 sec) 
Heartbeat CPU 0 instructions: 460000000 cycles: 697416157 heartbeat IPC: 0.452643 cumulative IPC: 0.438841 (Simulation time: 0 hr 16 min 41 sec) 
Heartbeat CPU 0 instructions: 470000000 cycles: 719232063 heartbeat IPC: 0.458381 cumulative IPC: 0.439535 (Simulation time: 0 hr 17 min 7 sec) 
Heartbeat CPU 0 instructions: 480000000 cycles: 739978712 heartbeat IPC: 0.482006 cumulative IPC: 0.440923 (Simulation time: 0 hr 17 min 33 sec) 
Heartbeat CPU 0 instructions: 490000001 cycles: 760765047 heartbeat IPC: 0.481085 cumulative IPC: 0.442196 (Simulation time: 0 hr 17 min 58 sec) 
Heartbeat CPU 0 instructions: 500000000 cycles: 788705540 heartbeat IPC: 0.357903 cumulative IPC: 0.438751 (Simulation time: 0 hr 18 min 30 sec) 
Heartbeat CPU 0 instructions: 510000002 cycles: 813297363 heartbeat IPC: 0.406639 cumulative IPC: 0.437636 (Simulation time: 0 hr 19 min 2 sec) 
Heartbeat CPU 0 instructions: 520000000 cycles: 834845817 heartbeat IPC: 0.46407 cumulative IPC: 0.438417 (Simulation time: 0 hr 19 min 29 sec) 
Heartbeat CPU 0 instructions: 530000003 cycles: 857790591 heartbeat IPC: 0.435829 cumulative IPC: 0.438338 (Simulation time: 0 hr 19 min 56 sec) 
Heartbeat CPU 0 instructions: 540000000 cycles: 879019955 heartbeat IPC: 0.471046 cumulative IPC: 0.439235 (Simulation time: 0 hr 20 min 22 sec) 
Heartbeat CPU 0 instructions: 550000001 cycles: 900249986 heartbeat IPC: 0.471031 cumulative IPC: 0.440084 (Simulation time: 0 hr 20 min 48 sec) 
Heartbeat CPU 0 instructions: 560000000 cycles: 921475292 heartbeat IPC: 0.471136 cumulative IPC: 0.440891 (Simulation time: 0 hr 21 min 14 sec) 
Heartbeat CPU 0 instructions: 570000001 cycles: 942678573 heartbeat IPC: 0.471625 cumulative IPC: 0.441669 (Simulation time: 0 hr 21 min 40 sec) 
Heartbeat CPU 0 instructions: 580000000 cycles: 963917607 heartbeat IPC: 0.470831 cumulative IPC: 0.44239 (Simulation time: 0 hr 22 min 5 sec) 
Heartbeat CPU 0 instructions: 590000000 cycles: 985875315 heartbeat IPC: 0.455421 cumulative IPC: 0.442715 (Simulation time: 0 hr 22 min 33 sec) 
Heartbeat CPU 0 instructions: 600000000 cycles: 1008768620 heartbeat IPC: 0.436809 cumulative IPC: 0.442565 (Simulation time: 0 hr 23 min 0 sec) 
Heartbeat CPU 0 instructions: 610000001 cycles: 1029997644 heartbeat IPC: 0.471053 cumulative IPC: 0.443219 (Simulation time: 0 hr 23 min 25 sec) 
Heartbeat CPU 0 instructions: 620000000 cycles: 1062149893 heartbeat IPC: 0.31102 cumulative IPC: 0.438778 (Simulation time: 0 hr 24 min 1 sec) 
Heartbeat CPU 0 instructions: 630000002 cycles: 1082755876 heartbeat IPC: 0.485296 cumulative IPC: 0.439759 (Simulation time: 0 hr 24 min 31 sec) 
Heartbeat CPU 0 instructions: 640000000 cycles: 1104668853 heartbeat IPC: 0.456351 cumulative IPC: 0.440122 (Simulation time: 0 hr 24 min 57 sec) 
Heartbeat CPU 0 instructions: 650000003 cycles: 1125960369 heartbeat IPC: 0.469671 cumulative IPC: 0.440738 (Simulation time: 0 hr 25 min 23 sec) 
Heartbeat CPU 0 instructions: 660000000 cycles: 1147297543 heartbeat IPC: 0.468665 cumulative IPC: 0.44131 (Simulation time: 0 hr 25 min 49 sec) 
Heartbeat CPU 0 instructions: 670000000 cycles: 1168596727 heartbeat IPC: 0.469502 cumulative IPC: 0.441875 (Simulation time: 0 hr 26 min 15 sec) 
Heartbeat CPU 0 instructions: 680000000 cycles: 1189893536 heartbeat IPC: 0.469554 cumulative IPC: 0.442418 (Simulation time: 0 hr 26 min 40 sec) 
Heartbeat CPU 0 instructions: 690000000 cycles: 1211187904 heartbeat IPC: 0.469608 cumulative IPC: 0.442941 (Simulation time: 0 hr 27 min 6 sec) 
Heartbeat CPU 0 instructions: 700000000 cycles: 1232454168 heartbeat IPC: 0.470228 cumulative IPC: 0.443456 (Simulation time: 0 hr 27 min 32 sec) 
Heartbeat CPU 0 instructions: 710000003 cycles: 1253734758 heartbeat IPC: 0.469912 cumulative IPC: 0.443946 (Simulation time: 0 hr 27 min 58 sec) 
Heartbeat CPU 0 instructions: 720000000 cycles: 1275006078 heartbeat IPC: 0.470116 cumulative IPC: 0.444422 (Simulation time: 0 hr 28 min 24 sec) 
Heartbeat CPU 0 instructions: 730000002 cycles: 1303791133 heartbeat IPC: 0.347403 cumulative IPC: 0.442092 (Simulation time: 0 hr 28 min 56 sec) 
Heartbeat CPU 0 instructions: 740000000 cycles: 1327961773 heartbeat IPC: 0.413725 cumulative IPC: 0.441532 (Simulation time: 0 hr 29 min 28 sec) 
Heartbeat CPU 0 instructions: 750000000 cycles: 1349507851 heartbeat IPC: 0.464122 cumulative IPC: 0.441923 (Simulation time: 0 hr 29 min 54 sec) 
Heartbeat CPU 0 instructions: 760000000 cycles: 1370993431 heartbeat IPC: 0.465428 cumulative IPC: 0.442322 (Simulation time: 0 hr 30 min 20 sec) 
Heartbeat CPU 0 instructions: 770000002 cycles: 1392189158 heartbeat IPC: 0.471793 cumulative IPC: 0.442807 (Simulation time: 0 hr 30 min 46 sec) 
Heartbeat CPU 0 instructions: 780000000 cycles: 1413385308 heartbeat IPC: 0.471784 cumulative IPC: 0.443276 (Simulation time: 0 hr 31 min 12 sec) 
Heartbeat CPU 0 instructions: 790000003 cycles: 1434726198 heartbeat IPC: 0.468584 cumulative IPC: 0.443683 (Simulation time: 0 hr 31 min 38 sec) 
Heartbeat CPU 0 instructions: 800000000 cycles: 1456250986 heartbeat IPC: 0.464581 cumulative IPC: 0.444015 (Simulation time: 0 hr 32 min 4 sec) 
Heartbeat CPU 0 instructions: 810000003 cycles: 1477635650 heartbeat IPC: 0.467625 cumulative IPC: 0.444383 (Simulation time: 0 hr 32 min 30 sec) 
Heartbeat CPU 0 instructions: 820000000 cycles: 1499105519 heartbeat IPC: 0.465769 cumulative IPC: 0.444713 (Simulation time: 0 hr 32 min 56 sec) 
Heartbeat CPU 0 instructions: 830000001 cycles: 1520516720 heartbeat IPC: 0.467045 cumulative IPC: 0.44505 (Simulation time: 0 hr 33 min 22 sec) 
Heartbeat CPU 0 instructions: 840000000 cycles: 1545781082 heartbeat IPC: 0.395814 cumulative IPC: 0.444187 (Simulation time: 0 hr 33 min 49 sec) 
Heartbeat CPU 0 instructions: 850000000 cycles: 1574359649 heartbeat IPC: 0.349913 cumulative IPC: 0.442354 (Simulation time: 0 hr 34 min 24 sec) 
Heartbeat CPU 0 instructions: 860000000 cycles: 1594305032 heartbeat IPC: 0.501369 cumulative IPC: 0.443144 (Simulation time: 0 hr 34 min 53 sec) 
Heartbeat CPU 0 instructions: 870000000 cycles: 1616720714 heartbeat IPC: 0.446116 cumulative IPC: 0.443188 (Simulation time: 0 hr 35 min 20 sec) 
Heartbeat CPU 0 instructions: 880000000 cycles: 1639176673 heartbeat IPC: 0.445316 cumulative IPC: 0.443219 (Simulation time: 0 hr 35 min 47 sec) 
Heartbeat CPU 0 instructions: 890000000 cycles: 1662018884 heartbeat IPC: 0.437786 cumulative IPC: 0.443139 (Simulation time: 0 hr 36 min 15 sec) 
Heartbeat CPU 0 instructions: 900000000 cycles: 1685446203 heartbeat IPC: 0.426852 cumulative IPC: 0.442898 (Simulation time: 0 hr 36 min 42 sec) 
Heartbeat CPU 0 instructions: 910000000 cycles: 1708512409 heartbeat IPC: 0.433535 cumulative IPC: 0.442763 (Simulation time: 0 hr 37 min 10 sec) 
Heartbeat CPU 0 instructions: 920000000 cycles: 1731355854 heartbeat IPC: 0.437762 cumulative IPC: 0.442693 (Simulation time: 0 hr 37 min 38 sec) 
Heartbeat CPU 0 instructions: 930000000 cycles: 1754267390 heartbeat IPC: 0.436461 cumulative IPC: 0.442606 (Simulation time: 0 hr 38 min 5 sec) 
Heartbeat CPU 0 instructions: 940000000 cycles: 1776012846 heartbeat IPC: 0.459866 cumulative IPC: 0.442831 (Simulation time: 0 hr 38 min 32 sec) 
Heartbeat CPU 0 instructions: 950000000 cycles: 1798643564 heartbeat IPC: 0.441877 cumulative IPC: 0.442818 (Simulation time: 0 hr 38 min 59 sec) 
Heartbeat CPU 0 instructions: 960000000 cycles: 1829946842 heartbeat IPC: 0.319455 cumulative IPC: 0.44058 (Simulation time: 0 hr 39 min 34 sec) 
Heartbeat CPU 0 instructions: 970000002 cycles: 1850860890 heartbeat IPC: 0.478148 cumulative IPC: 0.44103 (Simulation time: 0 hr 40 min 4 sec) 
Heartbeat CPU 0 instructions: 980000000 cycles: 1873768384 heartbeat IPC: 0.436538 cumulative IPC: 0.440972 (Simulation time: 0 hr 40 min 31 sec) 
Heartbeat CPU 0 instructions: 990000001 cycles: 1896758946 heartbeat IPC: 0.434961 cumulative IPC: 0.440894 (Simulation time: 0 hr 40 min 59 sec) 
Heartbeat CPU 0 instructions: 1000000000 cycles: 1919537365 heartbeat IPC: 0.439012 cumulative IPC: 0.440871 (Simulation time: 0 hr 41 min 27 sec) 
Heartbeat CPU 0 instructions: 1010000003 cycles: 1942184192 heartbeat IPC: 0.441563 cumulative IPC: 0.440879 (Simulation time: 0 hr 41 min 55 sec) 
Heartbeat CPU 0 instructions: 1020000000 cycles: 1963021652 heartbeat IPC: 0.479905 cumulative IPC: 0.441317 (Simulation time: 0 hr 42 min 21 sec) 
Heartbeat CPU 0 instructions: 1030000002 cycles: 1984560838 heartbeat IPC: 0.46427 cumulative IPC: 0.44158 (Simulation time: 0 hr 42 min 49 sec) 
Heartbeat CPU 0 instructions: 1040000000 cycles: 2007108137 heartbeat IPC: 0.443512 cumulative IPC: 0.441603 (Simulation time: 0 hr 43 min 17 sec) 
Heartbeat CPU 0 instructions: 1050000003 cycles: 2029325680 heartbeat IPC: 0.450095 cumulative IPC: 0.441701 (Simulation time: 0 hr 43 min 45 sec) 
Heartbeat CPU 0 instructions: 1060000000 cycles: 2051471536 heartbeat IPC: 0.451552 cumulative IPC: 0.441813 (Simulation time: 0 hr 44 min 12 sec) 
Heartbeat CPU 0 instructions: 1070000001 cycles: 2073544619 heartbeat IPC: 0.453041 cumulative IPC: 0.441939 (Simulation time: 0 hr 44 min 39 sec) 
Heartbeat CPU 0 instructions: 1080000000 cycles: 2104452121 heartbeat IPC: 0.323546 cumulative IPC: 0.440109 (Simulation time: 0 hr 45 min 14 sec) 
Heartbeat CPU 0 instructions: 1090000000 cycles: 2125552804 heartbeat IPC: 0.473918 cumulative IPC: 0.440462 (Simulation time: 0 hr 45 min 43 sec) 
Heartbeat CPU 0 instructions: 1100000000 cycles: 2147892262 heartbeat IPC: 0.447638 cumulative IPC: 0.44054 (Simulation time: 0 hr 46 min 10 sec) 
Heartbeat CPU 0 instructions: 1110000000 cycles: 2170060564 heartbeat IPC: 0.451095 cumulative IPC: 0.440654 (Simulation time: 0 hr 46 min 37 sec) 
Heartbeat CPU 0 instructions: 1120000000 cycles: 2192304543 heartbeat IPC: 0.44956 cumulative IPC: 0.440749 (Simulation time: 0 hr 47 min 4 sec) 
Heartbeat CPU 0 instructions: 1130000000 cycles: 2214691900 heartbeat IPC: 0.446681 cumulative IPC: 0.440812 (Simulation time: 0 hr 47 min 31 sec) 
Heartbeat CPU 0 instructions: 1140000000 cycles: 2237172995 heartbeat IPC: 0.444818 cumulative IPC: 0.440854 (Simulation time: 0 hr 47 min 58 sec) 
Heartbeat CPU 0 instructions: 1150000002 cycles: 2259470229 heartbeat IPC: 0.448486 cumulative IPC: 0.440933 (Simulation time: 0 hr 48 min 25 sec) 
Heartbeat CPU 0 instructions: 1160000000 cycles: 2281756260 heartbeat IPC: 0.448711 cumulative IPC: 0.441012 (Simulation time: 0 hr 48 min 52 sec) 
Heartbeat CPU 0 instructions: 1170000002 cycles: 2304093818 heartbeat IPC: 0.447677 cumulative IPC: 0.44108 (Simulation time: 0 hr 49 min 19 sec) 
Heartbeat CPU 0 instructions: 1180000000 cycles: 2326245426 heartbeat IPC: 0.451434 cumulative IPC: 0.441183 (Simulation time: 0 hr 49 min 46 sec) 
Heartbeat CPU 0 instructions: 1190000002 cycles: 2348466360 heartbeat IPC: 0.450026 cumulative IPC: 0.441271 (Simulation time: 0 hr 50 min 13 sec) 
Heartbeat CPU 0 instructions: 1200000000 cycles: 2380805162 heartbeat IPC: 0.309226 cumulative IPC: 0.439395 (Simulation time: 0 hr 50 min 48 sec) 
Finished CPU 0 instructions: 1000000001 cycles: 2275858540 cumulative IPC: 0.439395 (Simulation time: 0 hr 50 min 48 sec) 

CPU 0 Branch Prediction Accuracy: 93.9343% MPKI: 11.5213

ChampSim completed all CPUs

Region of Interest Statistics

CPU 0 cumulative IPC: 0.439395 instructions: 1000000001 cycles: 2275858540
L1D TOTAL     ACCESS:  213921577  HIT:  175532711  MISS:   38388866
L1D LOAD      ACCESS:  155655804  HIT:  123464082  MISS:   32191722
L1D RFO       ACCESS:   58265773  HIT:   52068629  MISS:    6197144
L1D PREFETCH  ACCESS:          0  HIT:          0  MISS:          0
L1D WRITEBACK ACCESS:          0  HIT:          0  MISS:          0
L1D PREFETCH  REQUESTED:          0  ISSUED:          0  USEFUL:          0  USELESS:          0
L1I TOTAL     ACCESS:  227019393  HIT:  227013367  MISS:       6026
L1I LOAD      ACCESS:  227019393  HIT:  227013367  MISS:       6026
L1I RFO       ACCESS:          0  HIT:          0  MISS:          0
L1I PREFETCH  ACCESS:          0  HIT:          0  MISS:          0
L1I WRITEBACK ACCESS:          0  HIT:          0  MISS:          0
L1I PREFETCH  REQUESTED:          0  ISSUED:          0  USEFUL:          0  USELESS:          0
L2C TOTAL     ACCESS:   73270197  HIT:   33611168  MISS:   39659029
L2C LOAD      ACCESS:   32194944  HIT:   16907321  MISS:   15287623
L2C RFO       ACCESS:    6196844  HIT:     587989  MISS:    5608855
L2C PREFETCH  ACCESS:   18960949  HIT:     211321  MISS:   18749628
L2C WRITEBACK ACCESS:   15917460  HIT:   15904537  MISS:      12923
L2C PREFETCH  REQUESTED:   25167587  ISSUED:   25157112  USEFUL:   14494451  USELESS:    8175256
LLC TOTAL     ACCESS:   52353847  HIT:   23683309  MISS:   28670538
LLC LOAD      ACCESS:   13914190  HIT:    5760382  MISS:    8153808
LLC RFO       ACCESS:    5608792  HIT:    1498182  MISS:    4110610
LLC PREFETCH  ACCESS:   20122824  HIT:    3716992  MISS:   16405832
LLC WRITEBACK ACCESS:   12708041  HIT:   12707753  MISS:        288
LLC PREFETCH  REQUESTED:          0  ISSUED:          0  USEFUL:    1903727  USELESS:   17639094
Major fault: 0 Minor fault: 13848

L2C DA-AMPM prefetcher final stats

DRAM Statistics
 CHANNEL 0
 RQ ROW_BUFFER_HIT:   20488302  ROW_BUFFER_MISS:    8173682
 DBUS_CONGESTED:   23562824
 WQ ROW_BUFFER_HIT:    2513104  ROW_BUFFER_MISS:    6106148  FULL:          0

 AVG_CONGESTED_CYCLE: 13
