
*** ChampSim Multicore Out-of-Order Simulator ***

Warmup Instructions: 200000000
Simulation Instructions: 1000000000
Number of CPUs: 1
LLC sets: 2048
LLC ways: 16
Off-chip DRAM Size: 4096 MB Channels: 1 Width: 64-bit Data Rate: 1600 MT/s

CPU 0 runs /scratch/user/djimenez/champsim-traces/speccpu2006/xz/453.povray-800B.champsimtrace.xz
L2C DA-AMPM prefetcher
Heartbeat CPU 0 instructions: 10000000 cycles: 6645603 heartbeat IPC: 1.50475 cumulative IPC: 1.50475 (Simulation time: 0 hr 0 min 25 sec) 
Heartbeat CPU 0 instructions: 20000000 cycles: 13408496 heartbeat IPC: 1.47866 cumulative IPC: 1.49159 (Simulation time: 0 hr 0 min 49 sec) 
Heartbeat CPU 0 instructions: 30000001 cycles: 20213116 heartbeat IPC: 1.46959 cumulative IPC: 1.48418 (Simulation time: 0 hr 1 min 13 sec) 
Heartbeat CPU 0 instructions: 40000000 cycles: 26952843 heartbeat IPC: 1.48374 cumulative IPC: 1.48407 (Simulation time: 0 hr 1 min 37 sec) 
Heartbeat CPU 0 instructions: 50000000 cycles: 33682593 heartbeat IPC: 1.48594 cumulative IPC: 1.48445 (Simulation time: 0 hr 2 min 1 sec) 
Heartbeat CPU 0 instructions: 60000000 cycles: 40346561 heartbeat IPC: 1.50061 cumulative IPC: 1.48712 (Simulation time: 0 hr 2 min 25 sec) 
Heartbeat CPU 0 instructions: 70000000 cycles: 46799403 heartbeat IPC: 1.5497 cumulative IPC: 1.49575 (Simulation time: 0 hr 2 min 50 sec) 
Heartbeat CPU 0 instructions: 80000000 cycles: 53181796 heartbeat IPC: 1.56681 cumulative IPC: 1.50427 (Simulation time: 0 hr 3 min 14 sec) 
Heartbeat CPU 0 instructions: 90000001 cycles: 59554663 heartbeat IPC: 1.56915 cumulative IPC: 1.51122 (Simulation time: 0 hr 3 min 38 sec) 
Heartbeat CPU 0 instructions: 100000000 cycles: 65922543 heartbeat IPC: 1.57038 cumulative IPC: 1.51693 (Simulation time: 0 hr 4 min 3 sec) 
Heartbeat CPU 0 instructions: 110000001 cycles: 72287774 heartbeat IPC: 1.57104 cumulative IPC: 1.5217 (Simulation time: 0 hr 4 min 30 sec) 
Heartbeat CPU 0 instructions: 120000000 cycles: 78679074 heartbeat IPC: 1.56463 cumulative IPC: 1.52518 (Simulation time: 0 hr 4 min 57 sec) 
Heartbeat CPU 0 instructions: 130000001 cycles: 85136691 heartbeat IPC: 1.54856 cumulative IPC: 1.52696 (Simulation time: 0 hr 5 min 24 sec) 
Heartbeat CPU 0 instructions: 140000000 cycles: 91629014 heartbeat IPC: 1.54028 cumulative IPC: 1.5279 (Simulation time: 0 hr 5 min 49 sec) 
Heartbeat CPU 0 instructions: 150000001 cycles: 98156173 heartbeat IPC: 1.53206 cumulative IPC: 1.52818 (Simulation time: 0 hr 6 min 15 sec) 
Heartbeat CPU 0 instructions: 160000000 cycles: 104727426 heartbeat IPC: 1.52178 cumulative IPC: 1.52778 (Simulation time: 0 hr 6 min 40 sec) 
Heartbeat CPU 0 instructions: 170000000 cycles: 111329532 heartbeat IPC: 1.51467 cumulative IPC: 1.527 (Simulation time: 0 hr 7 min 6 sec) 
Heartbeat CPU 0 instructions: 180000000 cycles: 117944626 heartbeat IPC: 1.51169 cumulative IPC: 1.52614 (Simulation time: 0 hr 7 min 32 sec) 
Heartbeat CPU 0 instructions: 190000002 cycles: 124544886 heartbeat IPC: 1.51509 cumulative IPC: 1.52555 (Simulation time: 0 hr 7 min 57 sec) 
Heartbeat CPU 0 instructions: 200000000 cycles: 131142383 heartbeat IPC: 1.51573 cumulative IPC: 1.52506 (Simulation time: 0 hr 8 min 24 sec) 

Warmup complete CPU 0 instructions: 200000001 cycles: 131142384 (Simulation time: 0 hr 8 min 24 sec) 

Heartbeat CPU 0 instructions: 210000001 cycles: 154843995 heartbeat IPC: 0.421912 cumulative IPC: 0.421912 (Simulation time: 0 hr 9 min 6 sec) 
Heartbeat CPU 0 instructions: 220000000 cycles: 178597245 heartbeat IPC: 0.420995 cumulative IPC: 0.421453 (Simulation time: 0 hr 9 min 49 sec) 
Heartbeat CPU 0 instructions: 230000000 cycles: 202358218 heartbeat IPC: 0.420858 cumulative IPC: 0.421255 (Simulation time: 0 hr 10 min 34 sec) 
Heartbeat CPU 0 instructions: 240000000 cycles: 226077320 heartbeat IPC: 0.421601 cumulative IPC: 0.421341 (Simulation time: 0 hr 11 min 18 sec) 
Heartbeat CPU 0 instructions: 250000000 cycles: 249744406 heartbeat IPC: 0.422528 cumulative IPC: 0.421578 (Simulation time: 0 hr 12 min 0 sec) 
Heartbeat CPU 0 instructions: 260000000 cycles: 273529486 heartbeat IPC: 0.420432 cumulative IPC: 0.421386 (Simulation time: 0 hr 12 min 43 sec) 
Heartbeat CPU 0 instructions: 270000000 cycles: 297375272 heartbeat IPC: 0.419361 cumulative IPC: 0.421096 (Simulation time: 0 hr 13 min 27 sec) 
Heartbeat CPU 0 instructions: 280000000 cycles: 321248910 heartbeat IPC: 0.418872 cumulative IPC: 0.420817 (Simulation time: 0 hr 14 min 12 sec) 
Heartbeat CPU 0 instructions: 290000000 cycles: 345050821 heartbeat IPC: 0.420134 cumulative IPC: 0.420741 (Simulation time: 0 hr 14 min 56 sec) 
Heartbeat CPU 0 instructions: 300000000 cycles: 368795445 heartbeat IPC: 0.421148 cumulative IPC: 0.420781 (Simulation time: 0 hr 15 min 40 sec) 
Heartbeat CPU 0 instructions: 310000000 cycles: 392642249 heartbeat IPC: 0.419343 cumulative IPC: 0.42065 (Simulation time: 0 hr 16 min 24 sec) 
Heartbeat CPU 0 instructions: 320000000 cycles: 412716823 heartbeat IPC: 0.498143 cumulative IPC: 0.426175 (Simulation time: 0 hr 17 min 5 sec) 
Heartbeat CPU 0 instructions: 330000003 cycles: 433656253 heartbeat IPC: 0.477568 cumulative IPC: 0.429732 (Simulation time: 0 hr 17 min 45 sec) 
Heartbeat CPU 0 instructions: 340000000 cycles: 457445421 heartbeat IPC: 0.420359 cumulative IPC: 0.429049 (Simulation time: 0 hr 18 min 28 sec) 
Heartbeat CPU 0 instructions: 350000000 cycles: 481174043 heartbeat IPC: 0.421432 cumulative IPC: 0.428533 (Simulation time: 0 hr 19 min 12 sec) 
Heartbeat CPU 0 instructions: 360000000 cycles: 504923111 heartbeat IPC: 0.421069 cumulative IPC: 0.428058 (Simulation time: 0 hr 19 min 56 sec) 
Heartbeat CPU 0 instructions: 370000001 cycles: 528637253 heartbeat IPC: 0.421689 cumulative IPC: 0.427678 (Simulation time: 0 hr 20 min 40 sec) 
Heartbeat CPU 0 instructions: 380000000 cycles: 552363465 heartbeat IPC: 0.421475 cumulative IPC: 0.427329 (Simulation time: 0 hr 21 min 23 sec) 
Heartbeat CPU 0 instructions: 390000001 cycles: 576140528 heartbeat IPC: 0.420573 cumulative IPC: 0.426968 (Simulation time: 0 hr 22 min 7 sec) 
Heartbeat CPU 0 instructions: 400000000 cycles: 600057494 heartbeat IPC: 0.418113 cumulative IPC: 0.426516 (Simulation time: 0 hr 22 min 51 sec) 
Heartbeat CPU 0 instructions: 410000000 cycles: 623845726 heartbeat IPC: 0.420376 cumulative IPC: 0.42622 (Simulation time: 0 hr 23 min 35 sec) 
Heartbeat CPU 0 instructions: 420000000 cycles: 647684917 heartbeat IPC: 0.419477 cumulative IPC: 0.425909 (Simulation time: 0 hr 24 min 18 sec) 
Heartbeat CPU 0 instructions: 430000000 cycles: 671923582 heartbeat IPC: 0.412564 cumulative IPC: 0.425311 (Simulation time: 0 hr 25 min 1 sec) 
Heartbeat CPU 0 instructions: 440000000 cycles: 696504047 heartbeat IPC: 0.406827 cumulative IPC: 0.424507 (Simulation time: 0 hr 25 min 44 sec) 
Heartbeat CPU 0 instructions: 450000001 cycles: 721379738 heartbeat IPC: 0.401999 cumulative IPC: 0.423558 (Simulation time: 0 hr 26 min 26 sec) 
Heartbeat CPU 0 instructions: 460000000 cycles: 746621879 heartbeat IPC: 0.396163 cumulative IPC: 0.422435 (Simulation time: 0 hr 27 min 9 sec) 
Heartbeat CPU 0 instructions: 470000003 cycles: 771963902 heartbeat IPC: 0.394602 cumulative IPC: 0.421334 (Simulation time: 0 hr 27 min 52 sec) 
Heartbeat CPU 0 instructions: 480000000 cycles: 797355847 heartbeat IPC: 0.393826 cumulative IPC: 0.420286 (Simulation time: 0 hr 28 min 32 sec) 
Heartbeat CPU 0 instructions: 490000000 cycles: 822800360 heartbeat IPC: 0.393012 cumulative IPC: 0.419282 (Simulation time: 0 hr 29 min 13 sec) 
Heartbeat CPU 0 instructions: 500000000 cycles: 848289704 heartbeat IPC: 0.392321 cumulative IPC: 0.418324 (Simulation time: 0 hr 29 min 53 sec) 
Heartbeat CPU 0 instructions: 510000001 cycles: 873903114 heartbeat IPC: 0.390421 cumulative IPC: 0.417362 (Simulation time: 0 hr 30 min 35 sec) 
Heartbeat CPU 0 instructions: 520000000 cycles: 899414770 heartbeat IPC: 0.391978 cumulative IPC: 0.416519 (Simulation time: 0 hr 31 min 17 sec) 
Heartbeat CPU 0 instructions: 530000000 cycles: 924337031 heartbeat IPC: 0.401248 cumulative IPC: 0.416039 (Simulation time: 0 hr 31 min 59 sec) 
Heartbeat CPU 0 instructions: 540000000 cycles: 948962350 heartbeat IPC: 0.406086 cumulative IPC: 0.415739 (Simulation time: 0 hr 32 min 42 sec) 
Heartbeat CPU 0 instructions: 550000000 cycles: 974042156 heartbeat IPC: 0.398727 cumulative IPC: 0.415233 (Simulation time: 0 hr 33 min 26 sec) 
Heartbeat CPU 0 instructions: 560000000 cycles: 999289722 heartbeat IPC: 0.396078 cumulative IPC: 0.414676 (Simulation time: 0 hr 34 min 9 sec) 
Heartbeat CPU 0 instructions: 570000000 cycles: 1024223520 heartbeat IPC: 0.401062 cumulative IPC: 0.414296 (Simulation time: 0 hr 34 min 53 sec) 
Heartbeat CPU 0 instructions: 580000000 cycles: 1048514503 heartbeat IPC: 0.411675 cumulative IPC: 0.414227 (Simulation time: 0 hr 35 min 34 sec) 
Heartbeat CPU 0 instructions: 590000001 cycles: 1072368183 heartbeat IPC: 0.419223 cumulative IPC: 0.414353 (Simulation time: 0 hr 36 min 15 sec) 
Heartbeat CPU 0 instructions: 600000000 cycles: 1096093888 heartbeat IPC: 0.421484 cumulative IPC: 0.414529 (Simulation time: 0 hr 36 min 58 sec) 
Heartbeat CPU 0 instructions: 610000001 cycles: 1119861241 heartbeat IPC: 0.420745 cumulative IPC: 0.414678 (Simulation time: 0 hr 37 min 40 sec) 
Heartbeat CPU 0 instructions: 620000000 cycles: 1143743010 heartbeat IPC: 0.418729 cumulative IPC: 0.414774 (Simulation time: 0 hr 38 min 23 sec) 
Heartbeat CPU 0 instructions: 630000001 cycles: 1167840585 heartbeat IPC: 0.41498 cumulative IPC: 0.414778 (Simulation time: 0 hr 39 min 6 sec) 
Heartbeat CPU 0 instructions: 640000000 cycles: 1192518992 heartbeat IPC: 0.405212 cumulative IPC: 0.414556 (Simulation time: 0 hr 39 min 45 sec) 
Heartbeat CPU 0 instructions: 650000000 cycles: 1217606986 heartbeat IPC: 0.398597 cumulative IPC: 0.414187 (Simulation time: 0 hr 40 min 25 sec) 
Heartbeat CPU 0 instructions: 660000000 cycles: 1243043998 heartbeat IPC: 0.393128 cumulative IPC: 0.413706 (Simulation time: 0 hr 41 min 4 sec) 
Heartbeat CPU 0 instructions: 670000000 cycles: 1268563931 heartbeat IPC: 0.391851 cumulative IPC: 0.413215 (Simulation time: 0 hr 41 min 43 sec) 
Heartbeat CPU 0 instructions: 680000000 cycles: 1293683616 heartbeat IPC: 0.398094 cumulative IPC: 0.412889 (Simulation time: 0 hr 42 min 21 sec) 
Heartbeat CPU 0 instructions: 690000002 cycles: 1318913350 heartbeat IPC: 0.396358 cumulative IPC: 0.412537 (Simulation time: 0 hr 43 min 2 sec) 
Heartbeat CPU 0 instructions: 700000000 cycles: 1343907883 heartbeat IPC: 0.400087 cumulative IPC: 0.412281 (Simulation time: 0 hr 43 min 43 sec) 
Heartbeat CPU 0 instructions: 710000000 cycles: 1368865169 heartbeat IPC: 0.400685 cumulative IPC: 0.412047 (Simulation time: 0 hr 44 min 23 sec) 
Heartbeat CPU 0 instructions: 720000000 cycles: 1393881384 heartbeat IPC: 0.399741 cumulative IPC: 0.411803 (Simulation time: 0 hr 45 min 5 sec) 
Heartbeat CPU 0 instructions: 730000000 cycles: 1418778424 heartbeat IPC: 0.401654 cumulative IPC: 0.411607 (Simulation time: 0 hr 45 min 47 sec) 
Heartbeat CPU 0 instructions: 740000000 cycles: 1443580784 heartbeat IPC: 0.403187 cumulative IPC: 0.411448 (Simulation time: 0 hr 46 min 29 sec) 
Heartbeat CPU 0 instructions: 750000000 cycles: 1468201840 heartbeat IPC: 0.406156 cumulative IPC: 0.41135 (Simulation time: 0 hr 47 min 9 sec) 
Heartbeat CPU 0 instructions: 760000000 cycles: 1492863347 heartbeat IPC: 0.40549 cumulative IPC: 0.411244 (Simulation time: 0 hr 47 min 47 sec) 
Heartbeat CPU 0 instructions: 770000000 cycles: 1517468391 heartbeat IPC: 0.406421 cumulative IPC: 0.411159 (Simulation time: 0 hr 48 min 26 sec) 
Heartbeat CPU 0 instructions: 780000000 cycles: 1542114006 heartbeat IPC: 0.405752 cumulative IPC: 0.411064 (Simulation time: 0 hr 49 min 4 sec) 
Heartbeat CPU 0 instructions: 790000000 cycles: 1566580180 heartbeat IPC: 0.408728 cumulative IPC: 0.411024 (Simulation time: 0 hr 49 min 44 sec) 
Heartbeat CPU 0 instructions: 800000000 cycles: 1591356353 heartbeat IPC: 0.403614 cumulative IPC: 0.410899 (Simulation time: 0 hr 50 min 26 sec) 
Heartbeat CPU 0 instructions: 810000000 cycles: 1616377601 heartbeat IPC: 0.39966 cumulative IPC: 0.410709 (Simulation time: 0 hr 51 min 8 sec) 
Heartbeat CPU 0 instructions: 820000000 cycles: 1641509608 heartbeat IPC: 0.397899 cumulative IPC: 0.410496 (Simulation time: 0 hr 51 min 50 sec) 
Heartbeat CPU 0 instructions: 830000000 cycles: 1666630240 heartbeat IPC: 0.398079 cumulative IPC: 0.410293 (Simulation time: 0 hr 52 min 33 sec) 
Heartbeat CPU 0 instructions: 840000000 cycles: 1691821387 heartbeat IPC: 0.396965 cumulative IPC: 0.410078 (Simulation time: 0 hr 53 min 14 sec) 
Heartbeat CPU 0 instructions: 850000000 cycles: 1716927806 heartbeat IPC: 0.398305 cumulative IPC: 0.409892 (Simulation time: 0 hr 53 min 54 sec) 
Heartbeat CPU 0 instructions: 860000000 cycles: 1742073695 heartbeat IPC: 0.397679 cumulative IPC: 0.409701 (Simulation time: 0 hr 54 min 34 sec) 
Heartbeat CPU 0 instructions: 870000000 cycles: 1767193719 heartbeat IPC: 0.398089 cumulative IPC: 0.409523 (Simulation time: 0 hr 55 min 13 sec) 
Heartbeat CPU 0 instructions: 880000000 cycles: 1792263639 heartbeat IPC: 0.398884 cumulative IPC: 0.409362 (Simulation time: 0 hr 55 min 53 sec) 
Heartbeat CPU 0 instructions: 890000001 cycles: 1817127472 heartbeat IPC: 0.402191 cumulative IPC: 0.409256 (Simulation time: 0 hr 56 min 32 sec) 
Heartbeat CPU 0 instructions: 900000000 cycles: 1841880458 heartbeat IPC: 0.403992 cumulative IPC: 0.40918 (Simulation time: 0 hr 57 min 11 sec) 
Heartbeat CPU 0 instructions: 910000001 cycles: 1866470586 heartbeat IPC: 0.406667 cumulative IPC: 0.409145 (Simulation time: 0 hr 57 min 51 sec) 
Heartbeat CPU 0 instructions: 920000000 cycles: 1890975461 heartbeat IPC: 0.408082 cumulative IPC: 0.40913 (Simulation time: 0 hr 58 min 30 sec) 
Heartbeat CPU 0 instructions: 930000002 cycles: 1915446657 heartbeat IPC: 0.408644 cumulative IPC: 0.409123 (Simulation time: 0 hr 59 min 9 sec) 
Heartbeat CPU 0 instructions: 940000000 cycles: 1939961864 heartbeat IPC: 0.40791 cumulative IPC: 0.409107 (Simulation time: 0 hr 59 min 48 sec) 
Heartbeat CPU 0 instructions: 950000000 cycles: 1964435621 heartbeat IPC: 0.408601 cumulative IPC: 0.4091 (Simulation time: 1 hr 0 min 26 sec) 
Heartbeat CPU 0 instructions: 960000000 cycles: 1988773213 heartbeat IPC: 0.410887 cumulative IPC: 0.409123 (Simulation time: 1 hr 1 min 5 sec) 
Heartbeat CPU 0 instructions: 970000000 cycles: 2012656205 heartbeat IPC: 0.418708 cumulative IPC: 0.409245 (Simulation time: 1 hr 1 min 43 sec) 
Heartbeat CPU 0 instructions: 980000000 cycles: 2035724095 heartbeat IPC: 0.433503 cumulative IPC: 0.409539 (Simulation time: 1 hr 2 min 21 sec) 
Heartbeat CPU 0 instructions: 990000001 cycles: 2058513056 heartbeat IPC: 0.438809 cumulative IPC: 0.409885 (Simulation time: 1 hr 2 min 58 sec) 
Heartbeat CPU 0 instructions: 1000000000 cycles: 2082822225 heartbeat IPC: 0.411367 cumulative IPC: 0.409903 (Simulation time: 1 hr 3 min 35 sec) 
Heartbeat CPU 0 instructions: 1010000000 cycles: 2108554080 heartbeat IPC: 0.388623 cumulative IPC: 0.409626 (Simulation time: 1 hr 4 min 12 sec) 
Heartbeat CPU 0 instructions: 1020000000 cycles: 2134088765 heartbeat IPC: 0.391624 cumulative IPC: 0.409397 (Simulation time: 1 hr 4 min 49 sec) 
Heartbeat CPU 0 instructions: 1030000000 cycles: 2159729006 heartbeat IPC: 0.390012 cumulative IPC: 0.409152 (Simulation time: 1 hr 5 min 25 sec) 
Heartbeat CPU 0 instructions: 1040000000 cycles: 2185042048 heartbeat IPC: 0.395053 cumulative IPC: 0.408978 (Simulation time: 1 hr 6 min 1 sec) 
Heartbeat CPU 0 instructions: 1050000000 cycles: 2210506981 heartbeat IPC: 0.392697 cumulative IPC: 0.408779 (Simulation time: 1 hr 6 min 38 sec) 
Heartbeat CPU 0 instructions: 1060000000 cycles: 2235921196 heartbeat IPC: 0.393481 cumulative IPC: 0.408594 (Simulation time: 1 hr 7 min 14 sec) 
Heartbeat CPU 0 instructions: 1070000000 cycles: 2261045971 heartbeat IPC: 0.398014 cumulative IPC: 0.408469 (Simulation time: 1 hr 7 min 50 sec) 
Heartbeat CPU 0 instructions: 1080000000 cycles: 2285043695 heartbeat IPC: 0.416706 cumulative IPC: 0.408561 (Simulation time: 1 hr 8 min 26 sec) 
Heartbeat CPU 0 instructions: 1090000000 cycles: 2308443486 heartbeat IPC: 0.427354 cumulative IPC: 0.408763 (Simulation time: 1 hr 9 min 3 sec) 
Heartbeat CPU 0 instructions: 1100000000 cycles: 2331794544 heartbeat IPC: 0.428246 cumulative IPC: 0.40897 (Simulation time: 1 hr 9 min 39 sec) 
Heartbeat CPU 0 instructions: 1110000000 cycles: 2355251984 heartbeat IPC: 0.426304 cumulative IPC: 0.409153 (Simulation time: 1 hr 10 min 16 sec) 
Heartbeat CPU 0 instructions: 1120000000 cycles: 2378852323 heartbeat IPC: 0.423723 cumulative IPC: 0.409305 (Simulation time: 1 hr 10 min 52 sec) 
Heartbeat CPU 0 instructions: 1130000001 cycles: 2402936153 heartbeat IPC: 0.415216 cumulative IPC: 0.409368 (Simulation time: 1 hr 11 min 29 sec) 
Heartbeat CPU 0 instructions: 1140000000 cycles: 2427746796 heartbeat IPC: 0.403053 cumulative IPC: 0.4093 (Simulation time: 1 hr 12 min 6 sec) 
Heartbeat CPU 0 instructions: 1150000001 cycles: 2452722028 heartbeat IPC: 0.400397 cumulative IPC: 0.409204 (Simulation time: 1 hr 12 min 43 sec) 
Heartbeat CPU 0 instructions: 1160000000 cycles: 2477464414 heartbeat IPC: 0.404165 cumulative IPC: 0.409151 (Simulation time: 1 hr 13 min 19 sec) 
Heartbeat CPU 0 instructions: 1170000000 cycles: 2502165859 heartbeat IPC: 0.404835 cumulative IPC: 0.409106 (Simulation time: 1 hr 13 min 56 sec) 
Heartbeat CPU 0 instructions: 1180000000 cycles: 2526587032 heartbeat IPC: 0.409481 cumulative IPC: 0.40911 (Simulation time: 1 hr 14 min 32 sec) 
Heartbeat CPU 0 instructions: 1190000000 cycles: 2549857098 heartbeat IPC: 0.429737 cumulative IPC: 0.409308 (Simulation time: 1 hr 15 min 7 sec) 
Heartbeat CPU 0 instructions: 1200000000 cycles: 2572415467 heartbeat IPC: 0.443294 cumulative IPC: 0.409622 (Simulation time: 1 hr 15 min 42 sec) 
Finished CPU 0 instructions: 1000000002 cycles: 2441273091 cumulative IPC: 0.409622 (Simulation time: 1 hr 15 min 42 sec) 

CPU 0 Branch Prediction Accuracy: 96.3086% MPKI: 3.77217

ChampSim completed all CPUs

Region of Interest Statistics

CPU 0 cumulative IPC: 0.409622 instructions: 1000000002 cycles: 2441273091
L1D TOTAL     ACCESS:  381821011  HIT:  366563845  MISS:   15257166
L1D LOAD      ACCESS:  235121472  HIT:  221948760  MISS:   13172712
L1D RFO       ACCESS:  146699539  HIT:  144615085  MISS:    2084454
L1D PREFETCH  ACCESS:          0  HIT:          0  MISS:          0
L1D WRITEBACK ACCESS:          0  HIT:          0  MISS:          0
L1D PREFETCH  REQUESTED:          0  ISSUED:          0  USEFUL:          0  USELESS:          0
L1I TOTAL     ACCESS:  306701177  HIT:  303273563  MISS:    3427614
L1I LOAD      ACCESS:  306701177  HIT:  303273563  MISS:    3427614
L1I RFO       ACCESS:          0  HIT:          0  MISS:          0
L1I PREFETCH  ACCESS:          0  HIT:          0  MISS:          0
L1I WRITEBACK ACCESS:          0  HIT:          0  MISS:          0
L1I PREFETCH  REQUESTED:          0  ISSUED:          0  USEFUL:          0  USELESS:          0
L2C TOTAL     ACCESS:   21376681  HIT:   21357805  MISS:      18876
L2C LOAD      ACCESS:   16599861  HIT:   16587826  MISS:      12035
L2C RFO       ACCESS:    2083485  HIT:    2082052  MISS:       1433
L2C PREFETCH  ACCESS:       5794  HIT:        425  MISS:       5369
L2C WRITEBACK ACCESS:    2687541  HIT:    2687502  MISS:         39
L2C PREFETCH  REQUESTED:       8894  ISSUED:       8894  USEFUL:       3867  USELESS:       3854
LLC TOTAL     ACCESS:      21789  HIT:      15034  MISS:       6755
LLC LOAD      ACCESS:      11864  HIT:       9883  MISS:       1981
LLC RFO       ACCESS:       1433  HIT:        827  MISS:        606
LLC PREFETCH  ACCESS:       5540  HIT:       1372  MISS:       4168
LLC WRITEBACK ACCESS:       2952  HIT:       2952  MISS:          0
LLC PREFETCH  REQUESTED:          0  ISSUED:          0  USEFUL:       1863  USELESS:          0
Major fault: 0 Minor fault: 355

L2C DA-AMPM prefetcher final stats

DRAM Statistics
 CHANNEL 0
 RQ ROW_BUFFER_HIT:       5349  ROW_BUFFER_MISS:       1406
 DBUS_CONGESTED:       2416
 WQ ROW_BUFFER_HIT:          0  ROW_BUFFER_MISS:          0  FULL:          0

 AVG_CONGESTED_CYCLE: 12
