
*** ChampSim Multicore Out-of-Order Simulator ***

Warmup Instructions: 200000000
Simulation Instructions: 1000000000
Number of CPUs: 1
LLC sets: 2048
LLC ways: 16
Off-chip DRAM Size: 4096 MB Channels: 1 Width: 64-bit Data Rate: 1600 MT/s

CPU 0 runs /scratch/user/djimenez/champsim-traces/speccpu2006/xz/458.sjeng-1088B.champsimtrace.xz
L2C DA-AMPM prefetcher
Heartbeat CPU 0 instructions: 10000000 cycles: 5578158 heartbeat IPC: 1.79271 cumulative IPC: 1.79271 (Simulation time: 0 hr 0 min 13 sec) 
Heartbeat CPU 0 instructions: 20000000 cycles: 11127847 heartbeat IPC: 1.8019 cumulative IPC: 1.79729 (Simulation time: 0 hr 0 min 26 sec) 
Heartbeat CPU 0 instructions: 30000000 cycles: 16607562 heartbeat IPC: 1.82491 cumulative IPC: 1.80641 (Simulation time: 0 hr 0 min 38 sec) 
Heartbeat CPU 0 instructions: 40000000 cycles: 22101671 heartbeat IPC: 1.82013 cumulative IPC: 1.80982 (Simulation time: 0 hr 0 min 51 sec) 
Heartbeat CPU 0 instructions: 50000000 cycles: 27723325 heartbeat IPC: 1.77884 cumulative IPC: 1.80354 (Simulation time: 0 hr 1 min 4 sec) 
Heartbeat CPU 0 instructions: 60000000 cycles: 33341713 heartbeat IPC: 1.77987 cumulative IPC: 1.79955 (Simulation time: 0 hr 1 min 16 sec) 
Heartbeat CPU 0 instructions: 70000002 cycles: 38871548 heartbeat IPC: 1.80837 cumulative IPC: 1.8008 (Simulation time: 0 hr 1 min 29 sec) 
Heartbeat CPU 0 instructions: 80000000 cycles: 44365975 heartbeat IPC: 1.82003 cumulative IPC: 1.80318 (Simulation time: 0 hr 1 min 42 sec) 
Heartbeat CPU 0 instructions: 90000000 cycles: 49910652 heartbeat IPC: 1.80353 cumulative IPC: 1.80322 (Simulation time: 0 hr 1 min 54 sec) 
Heartbeat CPU 0 instructions: 100000000 cycles: 55398999 heartbeat IPC: 1.82204 cumulative IPC: 1.80509 (Simulation time: 0 hr 2 min 7 sec) 
Heartbeat CPU 0 instructions: 110000001 cycles: 60933546 heartbeat IPC: 1.80683 cumulative IPC: 1.80525 (Simulation time: 0 hr 2 min 20 sec) 
Heartbeat CPU 0 instructions: 120000000 cycles: 66531690 heartbeat IPC: 1.78631 cumulative IPC: 1.80365 (Simulation time: 0 hr 2 min 33 sec) 
Heartbeat CPU 0 instructions: 130000003 cycles: 71999876 heartbeat IPC: 1.82876 cumulative IPC: 1.80556 (Simulation time: 0 hr 2 min 46 sec) 
Heartbeat CPU 0 instructions: 140000000 cycles: 77483572 heartbeat IPC: 1.82359 cumulative IPC: 1.80683 (Simulation time: 0 hr 2 min 58 sec) 
Heartbeat CPU 0 instructions: 150000003 cycles: 82979145 heartbeat IPC: 1.81965 cumulative IPC: 1.80768 (Simulation time: 0 hr 3 min 11 sec) 
Heartbeat CPU 0 instructions: 160000000 cycles: 88480207 heartbeat IPC: 1.81783 cumulative IPC: 1.80831 (Simulation time: 0 hr 3 min 23 sec) 
Heartbeat CPU 0 instructions: 170000001 cycles: 93991540 heartbeat IPC: 1.81444 cumulative IPC: 1.80867 (Simulation time: 0 hr 3 min 36 sec) 
Heartbeat CPU 0 instructions: 180000000 cycles: 99533592 heartbeat IPC: 1.80439 cumulative IPC: 1.80843 (Simulation time: 0 hr 3 min 48 sec) 
Heartbeat CPU 0 instructions: 190000000 cycles: 105078139 heartbeat IPC: 1.80357 cumulative IPC: 1.80818 (Simulation time: 0 hr 4 min 1 sec) 
Heartbeat CPU 0 instructions: 200000000 cycles: 110553063 heartbeat IPC: 1.82651 cumulative IPC: 1.80909 (Simulation time: 0 hr 4 min 13 sec) 

Warmup complete CPU 0 instructions: 200000002 cycles: 110553064 (Simulation time: 0 hr 4 min 13 sec) 

Heartbeat CPU 0 instructions: 210000001 cycles: 127592226 heartbeat IPC: 0.586883 cumulative IPC: 0.586883 (Simulation time: 0 hr 4 min 35 sec) 
Heartbeat CPU 0 instructions: 220000000 cycles: 143060223 heartbeat IPC: 0.646496 cumulative IPC: 0.615249 (Simulation time: 0 hr 4 min 57 sec) 
Heartbeat CPU 0 instructions: 230000000 cycles: 159447381 heartbeat IPC: 0.610234 cumulative IPC: 0.613568 (Simulation time: 0 hr 5 min 19 sec) 
Heartbeat CPU 0 instructions: 240000000 cycles: 176209706 heartbeat IPC: 0.596576 cumulative IPC: 0.60923 (Simulation time: 0 hr 5 min 41 sec) 
Heartbeat CPU 0 instructions: 250000001 cycles: 192546371 heartbeat IPC: 0.61212 cumulative IPC: 0.609806 (Simulation time: 0 hr 6 min 3 sec) 
Heartbeat CPU 0 instructions: 260000000 cycles: 208763770 heartbeat IPC: 0.616622 cumulative IPC: 0.610931 (Simulation time: 0 hr 6 min 26 sec) 
Heartbeat CPU 0 instructions: 270000001 cycles: 224283679 heartbeat IPC: 0.644334 cumulative IPC: 0.615489 (Simulation time: 0 hr 6 min 48 sec) 
Heartbeat CPU 0 instructions: 280000000 cycles: 240489192 heartbeat IPC: 0.617074 cumulative IPC: 0.615687 (Simulation time: 0 hr 7 min 10 sec) 
Heartbeat CPU 0 instructions: 290000000 cycles: 256410994 heartbeat IPC: 0.62807 cumulative IPC: 0.617039 (Simulation time: 0 hr 7 min 32 sec) 
Heartbeat CPU 0 instructions: 300000000 cycles: 272856019 heartbeat IPC: 0.608087 cumulative IPC: 0.616132 (Simulation time: 0 hr 7 min 54 sec) 
Heartbeat CPU 0 instructions: 310000001 cycles: 289227636 heartbeat IPC: 0.610813 cumulative IPC: 0.615644 (Simulation time: 0 hr 8 min 15 sec) 
Heartbeat CPU 0 instructions: 320000000 cycles: 305697683 heartbeat IPC: 0.607163 cumulative IPC: 0.614929 (Simulation time: 0 hr 8 min 37 sec) 
Heartbeat CPU 0 instructions: 330000003 cycles: 322434913 heartbeat IPC: 0.597471 cumulative IPC: 0.613549 (Simulation time: 0 hr 8 min 58 sec) 
Heartbeat CPU 0 instructions: 340000000 cycles: 338457789 heartbeat IPC: 0.624107 cumulative IPC: 0.614292 (Simulation time: 0 hr 9 min 20 sec) 
Heartbeat CPU 0 instructions: 350000000 cycles: 354898060 heartbeat IPC: 0.608262 cumulative IPC: 0.613886 (Simulation time: 0 hr 9 min 42 sec) 
Heartbeat CPU 0 instructions: 360000000 cycles: 371818449 heartbeat IPC: 0.591003 cumulative IPC: 0.612404 (Simulation time: 0 hr 10 min 4 sec) 
Heartbeat CPU 0 instructions: 370000001 cycles: 387939378 heartbeat IPC: 0.620312 cumulative IPC: 0.612864 (Simulation time: 0 hr 10 min 26 sec) 
Heartbeat CPU 0 instructions: 380000000 cycles: 404443790 heartbeat IPC: 0.605899 cumulative IPC: 0.612473 (Simulation time: 0 hr 10 min 48 sec) 
Heartbeat CPU 0 instructions: 390000001 cycles: 421114516 heartbeat IPC: 0.599854 cumulative IPC: 0.611795 (Simulation time: 0 hr 11 min 10 sec) 
Heartbeat CPU 0 instructions: 400000000 cycles: 437935835 heartbeat IPC: 0.594484 cumulative IPC: 0.610906 (Simulation time: 0 hr 11 min 31 sec) 
Heartbeat CPU 0 instructions: 410000003 cycles: 454132704 heartbeat IPC: 0.617403 cumulative IPC: 0.611212 (Simulation time: 0 hr 11 min 53 sec) 
Heartbeat CPU 0 instructions: 420000000 cycles: 470660417 heartbeat IPC: 0.605044 cumulative IPC: 0.610929 (Simulation time: 0 hr 12 min 15 sec) 
Heartbeat CPU 0 instructions: 430000002 cycles: 487423888 heartbeat IPC: 0.596535 cumulative IPC: 0.610289 (Simulation time: 0 hr 12 min 36 sec) 
Heartbeat CPU 0 instructions: 440000000 cycles: 504240153 heartbeat IPC: 0.594662 cumulative IPC: 0.609621 (Simulation time: 0 hr 12 min 58 sec) 
Heartbeat CPU 0 instructions: 450000000 cycles: 520435462 heartbeat IPC: 0.617463 cumulative IPC: 0.609931 (Simulation time: 0 hr 13 min 20 sec) 
Heartbeat CPU 0 instructions: 460000000 cycles: 536677329 heartbeat IPC: 0.615693 cumulative IPC: 0.610151 (Simulation time: 0 hr 13 min 42 sec) 
Heartbeat CPU 0 instructions: 470000000 cycles: 553094589 heartbeat IPC: 0.609115 cumulative IPC: 0.610112 (Simulation time: 0 hr 14 min 4 sec) 
Heartbeat CPU 0 instructions: 480000000 cycles: 569700716 heartbeat IPC: 0.602187 cumulative IPC: 0.609826 (Simulation time: 0 hr 14 min 26 sec) 
Heartbeat CPU 0 instructions: 490000000 cycles: 586227493 heartbeat IPC: 0.605079 cumulative IPC: 0.609661 (Simulation time: 0 hr 14 min 47 sec) 
Heartbeat CPU 0 instructions: 500000000 cycles: 602945559 heartbeat IPC: 0.598155 cumulative IPC: 0.60927 (Simulation time: 0 hr 15 min 9 sec) 
Heartbeat CPU 0 instructions: 510000003 cycles: 619627106 heartbeat IPC: 0.599465 cumulative IPC: 0.608949 (Simulation time: 0 hr 15 min 30 sec) 
Heartbeat CPU 0 instructions: 520000000 cycles: 636399792 heartbeat IPC: 0.596207 cumulative IPC: 0.608542 (Simulation time: 0 hr 15 min 52 sec) 
Heartbeat CPU 0 instructions: 530000002 cycles: 653059984 heartbeat IPC: 0.600233 cumulative IPC: 0.608287 (Simulation time: 0 hr 16 min 14 sec) 
Heartbeat CPU 0 instructions: 540000000 cycles: 669760164 heartbeat IPC: 0.598796 cumulative IPC: 0.608004 (Simulation time: 0 hr 16 min 36 sec) 
Heartbeat CPU 0 instructions: 550000003 cycles: 686187490 heartbeat IPC: 0.608742 cumulative IPC: 0.608025 (Simulation time: 0 hr 16 min 58 sec) 
Heartbeat CPU 0 instructions: 560000000 cycles: 702874590 heartbeat IPC: 0.599265 cumulative IPC: 0.607778 (Simulation time: 0 hr 17 min 19 sec) 
Heartbeat CPU 0 instructions: 570000001 cycles: 719585617 heartbeat IPC: 0.598407 cumulative IPC: 0.607521 (Simulation time: 0 hr 17 min 41 sec) 
Heartbeat CPU 0 instructions: 580000000 cycles: 735399608 heartbeat IPC: 0.632351 cumulative IPC: 0.608149 (Simulation time: 0 hr 18 min 3 sec) 
Heartbeat CPU 0 instructions: 590000000 cycles: 751282074 heartbeat IPC: 0.629625 cumulative IPC: 0.608682 (Simulation time: 0 hr 18 min 25 sec) 
Heartbeat CPU 0 instructions: 600000000 cycles: 767436166 heartbeat IPC: 0.619038 cumulative IPC: 0.608936 (Simulation time: 0 hr 18 min 47 sec) 
Heartbeat CPU 0 instructions: 610000000 cycles: 783545014 heartbeat IPC: 0.620777 cumulative IPC: 0.60922 (Simulation time: 0 hr 19 min 9 sec) 
Heartbeat CPU 0 instructions: 620000000 cycles: 800010887 heartbeat IPC: 0.607317 cumulative IPC: 0.609174 (Simulation time: 0 hr 19 min 31 sec) 
Heartbeat CPU 0 instructions: 630000001 cycles: 816640482 heartbeat IPC: 0.601338 cumulative IPC: 0.60899 (Simulation time: 0 hr 19 min 52 sec) 
Heartbeat CPU 0 instructions: 640000000 cycles: 833357365 heartbeat IPC: 0.598198 cumulative IPC: 0.60874 (Simulation time: 0 hr 20 min 14 sec) 
Heartbeat CPU 0 instructions: 650000001 cycles: 849369549 heartbeat IPC: 0.624524 cumulative IPC: 0.609082 (Simulation time: 0 hr 20 min 36 sec) 
Heartbeat CPU 0 instructions: 660000000 cycles: 865862074 heartbeat IPC: 0.606335 cumulative IPC: 0.609022 (Simulation time: 0 hr 20 min 58 sec) 
Heartbeat CPU 0 instructions: 670000001 cycles: 882629294 heartbeat IPC: 0.596402 cumulative IPC: 0.608748 (Simulation time: 0 hr 21 min 19 sec) 
Heartbeat CPU 0 instructions: 680000000 cycles: 899024112 heartbeat IPC: 0.609949 cumulative IPC: 0.608773 (Simulation time: 0 hr 21 min 41 sec) 
Heartbeat CPU 0 instructions: 690000001 cycles: 915071097 heartbeat IPC: 0.62317 cumulative IPC: 0.60906 (Simulation time: 0 hr 22 min 4 sec) 
Heartbeat CPU 0 instructions: 700000000 cycles: 931718573 heartbeat IPC: 0.600692 cumulative IPC: 0.608891 (Simulation time: 0 hr 22 min 25 sec) 
Heartbeat CPU 0 instructions: 710000002 cycles: 948491318 heartbeat IPC: 0.596205 cumulative IPC: 0.608637 (Simulation time: 0 hr 22 min 47 sec) 
Heartbeat CPU 0 instructions: 720000000 cycles: 965199782 heartbeat IPC: 0.598499 cumulative IPC: 0.608439 (Simulation time: 0 hr 23 min 9 sec) 
Heartbeat CPU 0 instructions: 730000000 cycles: 981843903 heartbeat IPC: 0.600813 cumulative IPC: 0.608293 (Simulation time: 0 hr 23 min 32 sec) 
Heartbeat CPU 0 instructions: 740000000 cycles: 998491220 heartbeat IPC: 0.600697 cumulative IPC: 0.60815 (Simulation time: 0 hr 23 min 54 sec) 
Heartbeat CPU 0 instructions: 750000000 cycles: 1015029946 heartbeat IPC: 0.604641 cumulative IPC: 0.608086 (Simulation time: 0 hr 24 min 16 sec) 
Heartbeat CPU 0 instructions: 760000000 cycles: 1031690870 heartbeat IPC: 0.600207 cumulative IPC: 0.607944 (Simulation time: 0 hr 24 min 37 sec) 
Heartbeat CPU 0 instructions: 770000000 cycles: 1048342842 heartbeat IPC: 0.600529 cumulative IPC: 0.607812 (Simulation time: 0 hr 24 min 59 sec) 
Heartbeat CPU 0 instructions: 780000000 cycles: 1065234637 heartbeat IPC: 0.592003 cumulative IPC: 0.607532 (Simulation time: 0 hr 25 min 21 sec) 
Heartbeat CPU 0 instructions: 790000002 cycles: 1081802104 heartbeat IPC: 0.603593 cumulative IPC: 0.607465 (Simulation time: 0 hr 25 min 42 sec) 
Heartbeat CPU 0 instructions: 800000000 cycles: 1098305903 heartbeat IPC: 0.605921 cumulative IPC: 0.607439 (Simulation time: 0 hr 26 min 4 sec) 
Heartbeat CPU 0 instructions: 810000000 cycles: 1114825575 heartbeat IPC: 0.605339 cumulative IPC: 0.607405 (Simulation time: 0 hr 26 min 26 sec) 
Heartbeat CPU 0 instructions: 820000000 cycles: 1131425574 heartbeat IPC: 0.60241 cumulative IPC: 0.607324 (Simulation time: 0 hr 26 min 48 sec) 
Heartbeat CPU 0 instructions: 830000000 cycles: 1148153970 heartbeat IPC: 0.597786 cumulative IPC: 0.60717 (Simulation time: 0 hr 27 min 9 sec) 
Heartbeat CPU 0 instructions: 840000000 cycles: 1164692977 heartbeat IPC: 0.604631 cumulative IPC: 0.60713 (Simulation time: 0 hr 27 min 31 sec) 
Heartbeat CPU 0 instructions: 850000003 cycles: 1181101898 heartbeat IPC: 0.609425 cumulative IPC: 0.607165 (Simulation time: 0 hr 27 min 53 sec) 
Heartbeat CPU 0 instructions: 860000000 cycles: 1197649011 heartbeat IPC: 0.604335 cumulative IPC: 0.607122 (Simulation time: 0 hr 28 min 14 sec) 
Heartbeat CPU 0 instructions: 870000000 cycles: 1214090656 heartbeat IPC: 0.608212 cumulative IPC: 0.607138 (Simulation time: 0 hr 28 min 36 sec) 
Heartbeat CPU 0 instructions: 880000000 cycles: 1230578627 heartbeat IPC: 0.606503 cumulative IPC: 0.607129 (Simulation time: 0 hr 28 min 58 sec) 
Heartbeat CPU 0 instructions: 890000000 cycles: 1247223014 heartbeat IPC: 0.600803 cumulative IPC: 0.607036 (Simulation time: 0 hr 29 min 20 sec) 
Heartbeat CPU 0 instructions: 900000000 cycles: 1263989213 heartbeat IPC: 0.596438 cumulative IPC: 0.606882 (Simulation time: 0 hr 29 min 42 sec) 
Heartbeat CPU 0 instructions: 910000001 cycles: 1280458073 heartbeat IPC: 0.607207 cumulative IPC: 0.606887 (Simulation time: 0 hr 30 min 3 sec) 
Heartbeat CPU 0 instructions: 920000000 cycles: 1297079653 heartbeat IPC: 0.601627 cumulative IPC: 0.606813 (Simulation time: 0 hr 30 min 25 sec) 
Heartbeat CPU 0 instructions: 930000002 cycles: 1313918695 heartbeat IPC: 0.593858 cumulative IPC: 0.606632 (Simulation time: 0 hr 30 min 47 sec) 
Heartbeat CPU 0 instructions: 940000000 cycles: 1330665857 heartbeat IPC: 0.597116 cumulative IPC: 0.606501 (Simulation time: 0 hr 31 min 9 sec) 
Heartbeat CPU 0 instructions: 950000001 cycles: 1347533944 heartbeat IPC: 0.592835 cumulative IPC: 0.606315 (Simulation time: 0 hr 31 min 31 sec) 
Heartbeat CPU 0 instructions: 960000000 cycles: 1364310305 heartbeat IPC: 0.596077 cumulative IPC: 0.606178 (Simulation time: 0 hr 31 min 52 sec) 
Heartbeat CPU 0 instructions: 970000000 cycles: 1381305598 heartbeat IPC: 0.588398 cumulative IPC: 0.60594 (Simulation time: 0 hr 32 min 14 sec) 
Heartbeat CPU 0 instructions: 980000000 cycles: 1398517224 heartbeat IPC: 0.581003 cumulative IPC: 0.605607 (Simulation time: 0 hr 32 min 35 sec) 
Heartbeat CPU 0 instructions: 990000001 cycles: 1415706562 heartbeat IPC: 0.581756 cumulative IPC: 0.605293 (Simulation time: 0 hr 32 min 57 sec) 
Heartbeat CPU 0 instructions: 1000000000 cycles: 1432801585 heartbeat IPC: 0.584966 cumulative IPC: 0.60503 (Simulation time: 0 hr 33 min 18 sec) 
Heartbeat CPU 0 instructions: 1010000000 cycles: 1449943769 heartbeat IPC: 0.583356 cumulative IPC: 0.604753 (Simulation time: 0 hr 33 min 40 sec) 
Heartbeat CPU 0 instructions: 1020000000 cycles: 1466839170 heartbeat IPC: 0.591877 cumulative IPC: 0.604592 (Simulation time: 0 hr 34 min 2 sec) 
Heartbeat CPU 0 instructions: 1030000000 cycles: 1483680037 heartbeat IPC: 0.593794 cumulative IPC: 0.60446 (Simulation time: 0 hr 34 min 23 sec) 
Heartbeat CPU 0 instructions: 1040000000 cycles: 1500389637 heartbeat IPC: 0.598458 cumulative IPC: 0.604388 (Simulation time: 0 hr 34 min 45 sec) 
Heartbeat CPU 0 instructions: 1050000000 cycles: 1517507637 heartbeat IPC: 0.58418 cumulative IPC: 0.604142 (Simulation time: 0 hr 35 min 7 sec) 
Heartbeat CPU 0 instructions: 1060000000 cycles: 1534731240 heartbeat IPC: 0.580599 cumulative IPC: 0.603857 (Simulation time: 0 hr 35 min 29 sec) 
Heartbeat CPU 0 instructions: 1070000000 cycles: 1551298670 heartbeat IPC: 0.603594 cumulative IPC: 0.603854 (Simulation time: 0 hr 35 min 51 sec) 
Heartbeat CPU 0 instructions: 1080000000 cycles: 1567788954 heartbeat IPC: 0.606418 cumulative IPC: 0.603883 (Simulation time: 0 hr 36 min 13 sec) 
Heartbeat CPU 0 instructions: 1090000002 cycles: 1584387608 heartbeat IPC: 0.602459 cumulative IPC: 0.603867 (Simulation time: 0 hr 36 min 35 sec) 
Heartbeat CPU 0 instructions: 1100000000 cycles: 1600844172 heartbeat IPC: 0.60766 cumulative IPC: 0.603909 (Simulation time: 0 hr 36 min 56 sec) 
Heartbeat CPU 0 instructions: 1110000000 cycles: 1617336074 heartbeat IPC: 0.606358 cumulative IPC: 0.603936 (Simulation time: 0 hr 37 min 18 sec) 
Heartbeat CPU 0 instructions: 1120000000 cycles: 1634006063 heartbeat IPC: 0.59988 cumulative IPC: 0.603891 (Simulation time: 0 hr 37 min 39 sec) 
Heartbeat CPU 0 instructions: 1130000003 cycles: 1649830421 heartbeat IPC: 0.631937 cumulative IPC: 0.60418 (Simulation time: 0 hr 38 min 2 sec) 
Heartbeat CPU 0 instructions: 1140000000 cycles: 1666732362 heartbeat IPC: 0.591648 cumulative IPC: 0.604043 (Simulation time: 0 hr 38 min 24 sec) 
Heartbeat CPU 0 instructions: 1150000002 cycles: 1683711717 heartbeat IPC: 0.588951 cumulative IPC: 0.603881 (Simulation time: 0 hr 38 min 45 sec) 
Heartbeat CPU 0 instructions: 1160000000 cycles: 1700563784 heartbeat IPC: 0.593399 cumulative IPC: 0.60377 (Simulation time: 0 hr 39 min 7 sec) 
Heartbeat CPU 0 instructions: 1170000001 cycles: 1717642983 heartbeat IPC: 0.585508 cumulative IPC: 0.603575 (Simulation time: 0 hr 39 min 28 sec) 
Heartbeat CPU 0 instructions: 1180000000 cycles: 1734890111 heartbeat IPC: 0.579807 cumulative IPC: 0.603323 (Simulation time: 0 hr 39 min 50 sec) 
Heartbeat CPU 0 instructions: 1190000000 cycles: 1751813164 heartbeat IPC: 0.59091 cumulative IPC: 0.603195 (Simulation time: 0 hr 40 min 12 sec) 
Heartbeat CPU 0 instructions: 1200000000 cycles: 1768386743 heartbeat IPC: 0.60337 cumulative IPC: 0.603197 (Simulation time: 0 hr 40 min 34 sec) 
Finished CPU 0 instructions: 1000000002 cycles: 1657833689 cumulative IPC: 0.603197 (Simulation time: 0 hr 40 min 34 sec) 

CPU 0 Branch Prediction Accuracy: 92.7437% MPKI: 14.6097

ChampSim completed all CPUs

Region of Interest Statistics

CPU 0 cumulative IPC: 0.603197 instructions: 1000000002 cycles: 1657833689
L1D TOTAL     ACCESS:  268528855  HIT:  267430866  MISS:    1097989
L1D LOAD      ACCESS:  189556722  HIT:  188756851  MISS:     799871
L1D RFO       ACCESS:   78972133  HIT:   78674015  MISS:     298118
L1D PREFETCH  ACCESS:          0  HIT:          0  MISS:          0
L1D WRITEBACK ACCESS:          0  HIT:          0  MISS:          0
L1D PREFETCH  REQUESTED:          0  ISSUED:          0  USEFUL:          0  USELESS:          0
L1I TOTAL     ACCESS:  230935957  HIT:  230910731  MISS:      25226
L1I LOAD      ACCESS:  230935957  HIT:  230910731  MISS:      25226
L1I RFO       ACCESS:          0  HIT:          0  MISS:          0
L1I PREFETCH  ACCESS:          0  HIT:          0  MISS:          0
L1I WRITEBACK ACCESS:          0  HIT:          0  MISS:          0
L1I PREFETCH  REQUESTED:          0  ISSUED:          0  USEFUL:          0  USELESS:          0
L2C TOTAL     ACCESS:    1791360  HIT:    1390088  MISS:     401272
L2C LOAD      ACCESS:     825092  HIT:     470180  MISS:     354912
L2C RFO       ACCESS:     298022  HIT:     270989  MISS:      27033
L2C PREFETCH  ACCESS:      32811  HIT:      15317  MISS:      17494
L2C WRITEBACK ACCESS:     635435  HIT:     633602  MISS:       1833
L2C PREFETCH  REQUESTED:      39015  ISSUED:      39015  USEFUL:       2833  USELESS:      17853
LLC TOTAL     ACCESS:     724998  HIT:     380609  MISS:     344389
LLC LOAD      ACCESS:     354846  HIT:      32591  MISS:     322255
LLC RFO       ACCESS:      27032  HIT:       8858  MISS:      18174
LLC PREFETCH  ACCESS:      17560  HIT:      14979  MISS:       2581
LLC WRITEBACK ACCESS:     325560  HIT:     324181  MISS:       1379
LLC PREFETCH  REQUESTED:          0  ISSUED:          0  USEFUL:        466  USELESS:       2828
Major fault: 0 Minor fault: 39009

L2C DA-AMPM prefetcher final stats

DRAM Statistics
 CHANNEL 0
 RQ ROW_BUFFER_HIT:      32154  ROW_BUFFER_MISS:     310844
 DBUS_CONGESTED:     279395
 WQ ROW_BUFFER_HIT:      24974  ROW_BUFFER_MISS:     279791  FULL:          0

 AVG_CONGESTED_CYCLE: 14
