
*** ChampSim Multicore Out-of-Order Simulator ***

Warmup Instructions: 200000000
Simulation Instructions: 1000000000
Number of CPUs: 1
LLC sets: 2048
LLC ways: 16
Off-chip DRAM Size: 4096 MB Channels: 1 Width: 64-bit Data Rate: 1600 MT/s

CPU 0 runs /scratch/user/djimenez/champsim-traces/speccpu2006/xz/465.tonto-1914B.champsimtrace.xz
L2C DA-AMPM prefetcher
Heartbeat CPU 0 instructions: 10000001 cycles: 5000005 heartbeat IPC: 2 cumulative IPC: 2 (Simulation time: 0 hr 0 min 18 sec) 
Heartbeat CPU 0 instructions: 20000000 cycles: 9848828 heartbeat IPC: 2.06236 cumulative IPC: 2.0307 (Simulation time: 0 hr 0 min 37 sec) 
Heartbeat CPU 0 instructions: 30000003 cycles: 15017365 heartbeat IPC: 1.93478 cumulative IPC: 1.99769 (Simulation time: 0 hr 0 min 56 sec) 
Heartbeat CPU 0 instructions: 40000000 cycles: 20237324 heartbeat IPC: 1.91572 cumulative IPC: 1.97655 (Simulation time: 0 hr 1 min 16 sec) 
Heartbeat CPU 0 instructions: 50000003 cycles: 25382013 heartbeat IPC: 1.94375 cumulative IPC: 1.9699 (Simulation time: 0 hr 1 min 35 sec) 
Heartbeat CPU 0 instructions: 60000000 cycles: 30303087 heartbeat IPC: 2.03208 cumulative IPC: 1.98 (Simulation time: 0 hr 1 min 54 sec) 
Heartbeat CPU 0 instructions: 70000000 cycles: 35151239 heartbeat IPC: 2.06264 cumulative IPC: 1.99139 (Simulation time: 0 hr 2 min 12 sec) 
Heartbeat CPU 0 instructions: 80000000 cycles: 40130094 heartbeat IPC: 2.00849 cumulative IPC: 1.99352 (Simulation time: 0 hr 2 min 31 sec) 
Heartbeat CPU 0 instructions: 90000002 cycles: 45353546 heartbeat IPC: 1.91444 cumulative IPC: 1.98441 (Simulation time: 0 hr 2 min 51 sec) 
Heartbeat CPU 0 instructions: 100000000 cycles: 50576490 heartbeat IPC: 1.91463 cumulative IPC: 1.9772 (Simulation time: 0 hr 3 min 11 sec) 
Heartbeat CPU 0 instructions: 110000003 cycles: 55904298 heartbeat IPC: 1.87695 cumulative IPC: 1.96765 (Simulation time: 0 hr 3 min 30 sec) 
Heartbeat CPU 0 instructions: 120000000 cycles: 60762408 heartbeat IPC: 2.05841 cumulative IPC: 1.97491 (Simulation time: 0 hr 3 min 48 sec) 
Heartbeat CPU 0 instructions: 130000000 cycles: 65694798 heartbeat IPC: 2.02741 cumulative IPC: 1.97885 (Simulation time: 0 hr 4 min 7 sec) 
Heartbeat CPU 0 instructions: 140000000 cycles: 70571587 heartbeat IPC: 2.05053 cumulative IPC: 1.9838 (Simulation time: 0 hr 4 min 25 sec) 
Heartbeat CPU 0 instructions: 150000000 cycles: 75363532 heartbeat IPC: 2.08684 cumulative IPC: 1.99035 (Simulation time: 0 hr 4 min 44 sec) 
Heartbeat CPU 0 instructions: 160000000 cycles: 80514225 heartbeat IPC: 1.94149 cumulative IPC: 1.98723 (Simulation time: 0 hr 5 min 4 sec) 
Heartbeat CPU 0 instructions: 170000003 cycles: 85731491 heartbeat IPC: 1.91671 cumulative IPC: 1.98294 (Simulation time: 0 hr 5 min 23 sec) 
Heartbeat CPU 0 instructions: 180000000 cycles: 90953233 heartbeat IPC: 1.91507 cumulative IPC: 1.97904 (Simulation time: 0 hr 5 min 43 sec) 
Heartbeat CPU 0 instructions: 190000001 cycles: 96179620 heartbeat IPC: 1.91337 cumulative IPC: 1.97547 (Simulation time: 0 hr 6 min 3 sec) 
Heartbeat CPU 0 instructions: 200000000 cycles: 101378829 heartbeat IPC: 1.92337 cumulative IPC: 1.9728 (Simulation time: 0 hr 6 min 22 sec) 

Warmup complete CPU 0 instructions: 200000001 cycles: 101378846 (Simulation time: 0 hr 6 min 22 sec) 

Heartbeat CPU 0 instructions: 210000000 cycles: 113416009 heartbeat IPC: 0.830759 cumulative IPC: 0.83076 (Simulation time: 0 hr 6 min 48 sec) 
Heartbeat CPU 0 instructions: 220000000 cycles: 125877131 heartbeat IPC: 0.802496 cumulative IPC: 0.816384 (Simulation time: 0 hr 7 min 14 sec) 
Heartbeat CPU 0 instructions: 230000001 cycles: 139353374 heartbeat IPC: 0.742047 cumulative IPC: 0.790003 (Simulation time: 0 hr 7 min 42 sec) 
Heartbeat CPU 0 instructions: 240000000 cycles: 150908732 heartbeat IPC: 0.865399 cumulative IPC: 0.807593 (Simulation time: 0 hr 8 min 8 sec) 
Heartbeat CPU 0 instructions: 250000001 cycles: 164971916 heartbeat IPC: 0.711077 cumulative IPC: 0.786249 (Simulation time: 0 hr 8 min 36 sec) 
Heartbeat CPU 0 instructions: 260000000 cycles: 175576631 heartbeat IPC: 0.942977 cumulative IPC: 0.808649 (Simulation time: 0 hr 9 min 2 sec) 
Heartbeat CPU 0 instructions: 270000001 cycles: 188964565 heartbeat IPC: 0.746941 cumulative IPC: 0.799217 (Simulation time: 0 hr 9 min 29 sec) 
Heartbeat CPU 0 instructions: 280000000 cycles: 203019018 heartbeat IPC: 0.711518 cumulative IPC: 0.78709 (Simulation time: 0 hr 9 min 57 sec) 
Heartbeat CPU 0 instructions: 290000001 cycles: 213951846 heartbeat IPC: 0.914676 cumulative IPC: 0.799481 (Simulation time: 0 hr 10 min 23 sec) 
Heartbeat CPU 0 instructions: 300000000 cycles: 224393411 heartbeat IPC: 0.957711 cumulative IPC: 0.812912 (Simulation time: 0 hr 10 min 49 sec) 
Heartbeat CPU 0 instructions: 310000000 cycles: 239233859 heartbeat IPC: 0.673834 cumulative IPC: 0.79794 (Simulation time: 0 hr 11 min 18 sec) 
Heartbeat CPU 0 instructions: 320000000 cycles: 253509311 heartbeat IPC: 0.700503 cumulative IPC: 0.788797 (Simulation time: 0 hr 11 min 46 sec) 
Heartbeat CPU 0 instructions: 330000003 cycles: 265894205 heartbeat IPC: 0.807436 cumulative IPC: 0.7902 (Simulation time: 0 hr 12 min 12 sec) 
Heartbeat CPU 0 instructions: 340000000 cycles: 279174585 heartbeat IPC: 0.75299 cumulative IPC: 0.78742 (Simulation time: 0 hr 12 min 40 sec) 
Heartbeat CPU 0 instructions: 350000002 cycles: 290211572 heartbeat IPC: 0.906045 cumulative IPC: 0.794354 (Simulation time: 0 hr 13 min 6 sec) 
Heartbeat CPU 0 instructions: 360000000 cycles: 304799400 heartbeat IPC: 0.685503 cumulative IPC: 0.786548 (Simulation time: 0 hr 13 min 34 sec) 
Heartbeat CPU 0 instructions: 370000002 cycles: 315677530 heartbeat IPC: 0.919276 cumulative IPC: 0.793285 (Simulation time: 0 hr 14 min 0 sec) 
Heartbeat CPU 0 instructions: 380000000 cycles: 328047204 heartbeat IPC: 0.808429 cumulative IPC: 0.794112 (Simulation time: 0 hr 14 min 27 sec) 
Heartbeat CPU 0 instructions: 390000003 cycles: 342810520 heartbeat IPC: 0.677355 cumulative IPC: 0.786972 (Simulation time: 0 hr 14 min 56 sec) 
Heartbeat CPU 0 instructions: 400000000 cycles: 353928800 heartbeat IPC: 0.899419 cumulative IPC: 0.791923 (Simulation time: 0 hr 15 min 22 sec) 
Heartbeat CPU 0 instructions: 410000003 cycles: 364273057 heartbeat IPC: 0.96672 cumulative IPC: 0.7988 (Simulation time: 0 hr 15 min 47 sec) 
Heartbeat CPU 0 instructions: 420000000 cycles: 378454280 heartbeat IPC: 0.705158 cumulative IPC: 0.794008 (Simulation time: 0 hr 16 min 16 sec) 
Heartbeat CPU 0 instructions: 430000003 cycles: 393213813 heartbeat IPC: 0.677528 cumulative IPC: 0.788117 (Simulation time: 0 hr 16 min 44 sec) 
Heartbeat CPU 0 instructions: 440000000 cycles: 404972502 heartbeat IPC: 0.850435 cumulative IPC: 0.79053 (Simulation time: 0 hr 17 min 10 sec) 
Heartbeat CPU 0 instructions: 450000003 cycles: 416268219 heartbeat IPC: 0.885292 cumulative IPC: 0.79393 (Simulation time: 0 hr 17 min 36 sec) 
Heartbeat CPU 0 instructions: 460000000 cycles: 429909660 heartbeat IPC: 0.73306 cumulative IPC: 0.791402 (Simulation time: 0 hr 18 min 3 sec) 
Heartbeat CPU 0 instructions: 470000002 cycles: 440578026 heartbeat IPC: 0.937351 cumulative IPC: 0.795992 (Simulation time: 0 hr 18 min 29 sec) 
Heartbeat CPU 0 instructions: 480000000 cycles: 450407612 heartbeat IPC: 1.01734 cumulative IPC: 0.802226 (Simulation time: 0 hr 18 min 54 sec) 
Heartbeat CPU 0 instructions: 490000000 cycles: 463853972 heartbeat IPC: 0.743696 cumulative IPC: 0.800055 (Simulation time: 0 hr 19 min 22 sec) 
Heartbeat CPU 0 instructions: 500000000 cycles: 476798743 heartbeat IPC: 0.772513 cumulative IPC: 0.799105 (Simulation time: 0 hr 19 min 48 sec) 
Heartbeat CPU 0 instructions: 510000002 cycles: 487355542 heartbeat IPC: 0.947257 cumulative IPC: 0.803157 (Simulation time: 0 hr 20 min 14 sec) 
Heartbeat CPU 0 instructions: 520000000 cycles: 497428896 heartbeat IPC: 0.992718 cumulative IPC: 0.807979 (Simulation time: 0 hr 20 min 39 sec) 
Heartbeat CPU 0 instructions: 530000000 cycles: 507117533 heartbeat IPC: 1.03214 cumulative IPC: 0.813331 (Simulation time: 0 hr 21 min 5 sec) 
Heartbeat CPU 0 instructions: 540000000 cycles: 520937424 heartbeat IPC: 0.723595 cumulative IPC: 0.810376 (Simulation time: 0 hr 21 min 32 sec) 
Heartbeat CPU 0 instructions: 550000001 cycles: 534613452 heartbeat IPC: 0.731207 cumulative IPC: 0.807876 (Simulation time: 0 hr 22 min 0 sec) 
Heartbeat CPU 0 instructions: 560000000 cycles: 546492584 heartbeat IPC: 0.841812 cumulative IPC: 0.808782 (Simulation time: 0 hr 22 min 26 sec) 
Heartbeat CPU 0 instructions: 570000000 cycles: 556863519 heartbeat IPC: 0.964233 cumulative IPC: 0.812321 (Simulation time: 0 hr 22 min 52 sec) 
Heartbeat CPU 0 instructions: 580000000 cycles: 566786362 heartbeat IPC: 1.00778 cumulative IPC: 0.816489 (Simulation time: 0 hr 23 min 17 sec) 
Heartbeat CPU 0 instructions: 590000000 cycles: 576704504 heartbeat IPC: 1.00825 cumulative IPC: 0.82049 (Simulation time: 0 hr 23 min 42 sec) 
Heartbeat CPU 0 instructions: 600000000 cycles: 587152087 heartbeat IPC: 0.957159 cumulative IPC: 0.823429 (Simulation time: 0 hr 24 min 8 sec) 
Heartbeat CPU 0 instructions: 610000000 cycles: 600800766 heartbeat IPC: 0.732672 cumulative IPC: 0.820949 (Simulation time: 0 hr 24 min 35 sec) 
Heartbeat CPU 0 instructions: 620000000 cycles: 614586487 heartbeat IPC: 0.725388 cumulative IPC: 0.818382 (Simulation time: 0 hr 25 min 3 sec) 
Heartbeat CPU 0 instructions: 630000000 cycles: 627667048 heartbeat IPC: 0.764493 cumulative IPC: 0.817043 (Simulation time: 0 hr 25 min 30 sec) 
Heartbeat CPU 0 instructions: 640000000 cycles: 638662263 heartbeat IPC: 0.909487 cumulative IPC: 0.818935 (Simulation time: 0 hr 25 min 56 sec) 
Heartbeat CPU 0 instructions: 650000002 cycles: 649942142 heartbeat IPC: 0.886535 cumulative IPC: 0.820325 (Simulation time: 0 hr 26 min 22 sec) 
Heartbeat CPU 0 instructions: 660000000 cycles: 660934741 heartbeat IPC: 0.909703 cumulative IPC: 0.82208 (Simulation time: 0 hr 26 min 48 sec) 
Heartbeat CPU 0 instructions: 670000002 cycles: 674433853 heartbeat IPC: 0.74079 cumulative IPC: 0.820166 (Simulation time: 0 hr 27 min 15 sec) 
Heartbeat CPU 0 instructions: 680000000 cycles: 684882084 heartbeat IPC: 0.9571 cumulative IPC: 0.822618 (Simulation time: 0 hr 27 min 41 sec) 
Heartbeat CPU 0 instructions: 690000003 cycles: 694934276 heartbeat IPC: 0.994808 cumulative IPC: 0.825534 (Simulation time: 0 hr 28 min 6 sec) 
Heartbeat CPU 0 instructions: 700000000 cycles: 708742472 heartbeat IPC: 0.724207 cumulative IPC: 0.82323 (Simulation time: 0 hr 28 min 34 sec) 
Heartbeat CPU 0 instructions: 710000002 cycles: 721298772 heartbeat IPC: 0.796413 cumulative IPC: 0.822687 (Simulation time: 0 hr 29 min 0 sec) 
Heartbeat CPU 0 instructions: 720000000 cycles: 731539657 heartbeat IPC: 0.976478 cumulative IPC: 0.825186 (Simulation time: 0 hr 29 min 26 sec) 
Heartbeat CPU 0 instructions: 730000003 cycles: 741610790 heartbeat IPC: 0.992937 cumulative IPC: 0.827825 (Simulation time: 0 hr 29 min 51 sec) 
Heartbeat CPU 0 instructions: 740000000 cycles: 751923671 heartbeat IPC: 0.969661 cumulative IPC: 0.830073 (Simulation time: 0 hr 30 min 17 sec) 
Heartbeat CPU 0 instructions: 750000000 cycles: 765569767 heartbeat IPC: 0.73281 cumulative IPC: 0.828075 (Simulation time: 0 hr 30 min 44 sec) 
Heartbeat CPU 0 instructions: 760000000 cycles: 779370206 heartbeat IPC: 0.724615 cumulative IPC: 0.825969 (Simulation time: 0 hr 31 min 12 sec) 
Heartbeat CPU 0 instructions: 770000001 cycles: 790799353 heartbeat IPC: 0.874956 cumulative IPC: 0.826781 (Simulation time: 0 hr 31 min 38 sec) 
Heartbeat CPU 0 instructions: 780000000 cycles: 801072475 heartbeat IPC: 0.973414 cumulative IPC: 0.828934 (Simulation time: 0 hr 32 min 3 sec) 
Heartbeat CPU 0 instructions: 790000003 cycles: 811062039 heartbeat IPC: 1.00104 cumulative IPC: 0.831357 (Simulation time: 0 hr 32 min 29 sec) 
Heartbeat CPU 0 instructions: 800000000 cycles: 820898143 heartbeat IPC: 1.01666 cumulative IPC: 0.83389 (Simulation time: 0 hr 32 min 54 sec) 
Heartbeat CPU 0 instructions: 810000000 cycles: 831812709 heartbeat IPC: 0.916207 cumulative IPC: 0.83512 (Simulation time: 0 hr 33 min 20 sec) 
Heartbeat CPU 0 instructions: 820000000 cycles: 845689000 heartbeat IPC: 0.720654 cumulative IPC: 0.832986 (Simulation time: 0 hr 33 min 48 sec) 
Heartbeat CPU 0 instructions: 830000000 cycles: 859297343 heartbeat IPC: 0.734843 cumulative IPC: 0.831224 (Simulation time: 0 hr 34 min 15 sec) 
Heartbeat CPU 0 instructions: 840000000 cycles: 872035792 heartbeat IPC: 0.785025 cumulative IPC: 0.83046 (Simulation time: 0 hr 34 min 42 sec) 
Heartbeat CPU 0 instructions: 850000002 cycles: 882945297 heartbeat IPC: 0.916632 cumulative IPC: 0.831663 (Simulation time: 0 hr 35 min 8 sec) 
Heartbeat CPU 0 instructions: 860000000 cycles: 894489605 heartbeat IPC: 0.866228 cumulative IPC: 0.832166 (Simulation time: 0 hr 35 min 34 sec) 
Heartbeat CPU 0 instructions: 870000002 cycles: 905478363 heartbeat IPC: 0.910021 cumulative IPC: 0.83323 (Simulation time: 0 hr 36 min 0 sec) 
Heartbeat CPU 0 instructions: 880000000 cycles: 917249142 heartbeat IPC: 0.849561 cumulative IPC: 0.833466 (Simulation time: 0 hr 36 min 26 sec) 
Heartbeat CPU 0 instructions: 890000000 cycles: 929977025 heartbeat IPC: 0.785677 cumulative IPC: 0.832732 (Simulation time: 0 hr 36 min 53 sec) 
Heartbeat CPU 0 instructions: 900000000 cycles: 940442746 heartbeat IPC: 0.9555 cumulative IPC: 0.834263 (Simulation time: 0 hr 37 min 18 sec) 
Heartbeat CPU 0 instructions: 910000000 cycles: 950589910 heartbeat IPC: 0.985497 cumulative IPC: 0.83607 (Simulation time: 0 hr 37 min 44 sec) 
Heartbeat CPU 0 instructions: 920000000 cycles: 960149035 heartbeat IPC: 1.04612 cumulative IPC: 0.838408 (Simulation time: 0 hr 38 min 9 sec) 
Heartbeat CPU 0 instructions: 930000001 cycles: 973527911 heartbeat IPC: 0.747447 cumulative IPC: 0.837013 (Simulation time: 0 hr 38 min 36 sec) 
Heartbeat CPU 0 instructions: 940000000 cycles: 986825369 heartbeat IPC: 0.752023 cumulative IPC: 0.835737 (Simulation time: 0 hr 39 min 3 sec) 
Heartbeat CPU 0 instructions: 950000001 cycles: 998617073 heartbeat IPC: 0.848054 cumulative IPC: 0.835898 (Simulation time: 0 hr 39 min 30 sec) 
Heartbeat CPU 0 instructions: 960000000 cycles: 1009005066 heartbeat IPC: 0.96265 cumulative IPC: 0.837349 (Simulation time: 0 hr 39 min 55 sec) 
Heartbeat CPU 0 instructions: 970000002 cycles: 1018910151 heartbeat IPC: 1.00958 cumulative IPC: 0.839208 (Simulation time: 0 hr 40 min 21 sec) 
Heartbeat CPU 0 instructions: 980000000 cycles: 1028865226 heartbeat IPC: 1.00451 cumulative IPC: 0.840983 (Simulation time: 0 hr 40 min 46 sec) 
Heartbeat CPU 0 instructions: 990000000 cycles: 1038508792 heartbeat IPC: 1.03696 cumulative IPC: 0.842999 (Simulation time: 0 hr 41 min 11 sec) 
Heartbeat CPU 0 instructions: 1000000000 cycles: 1049877625 heartbeat IPC: 0.879598 cumulative IPC: 0.843438 (Simulation time: 0 hr 41 min 38 sec) 
Heartbeat CPU 0 instructions: 1010000000 cycles: 1063356886 heartbeat IPC: 0.74188 cumulative IPC: 0.842015 (Simulation time: 0 hr 42 min 5 sec) 
Heartbeat CPU 0 instructions: 1020000000 cycles: 1076492233 heartbeat IPC: 0.761305 cumulative IPC: 0.840928 (Simulation time: 0 hr 42 min 32 sec) 
Heartbeat CPU 0 instructions: 1030000000 cycles: 1089290974 heartbeat IPC: 0.781327 cumulative IPC: 0.840156 (Simulation time: 0 hr 42 min 59 sec) 
Heartbeat CPU 0 instructions: 1040000000 cycles: 1100419024 heartbeat IPC: 0.89863 cumulative IPC: 0.840807 (Simulation time: 0 hr 43 min 24 sec) 
Heartbeat CPU 0 instructions: 1050000000 cycles: 1110619626 heartbeat IPC: 0.980334 cumulative IPC: 0.842217 (Simulation time: 0 hr 43 min 50 sec) 
Heartbeat CPU 0 instructions: 1060000000 cycles: 1120511414 heartbeat IPC: 1.01094 cumulative IPC: 0.843855 (Simulation time: 0 hr 44 min 15 sec) 
Heartbeat CPU 0 instructions: 1070000001 cycles: 1130342739 heartbeat IPC: 1.01716 cumulative IPC: 0.845511 (Simulation time: 0 hr 44 min 41 sec) 
Heartbeat CPU 0 instructions: 1080000000 cycles: 1140338618 heartbeat IPC: 1.00041 cumulative IPC: 0.847001 (Simulation time: 0 hr 45 min 6 sec) 
Heartbeat CPU 0 instructions: 1090000001 cycles: 1150195757 heartbeat IPC: 1.01449 cumulative IPC: 0.848575 (Simulation time: 0 hr 45 min 32 sec) 
Heartbeat CPU 0 instructions: 1100000000 cycles: 1159882437 heartbeat IPC: 1.03235 cumulative IPC: 0.850257 (Simulation time: 0 hr 45 min 57 sec) 
Heartbeat CPU 0 instructions: 1110000000 cycles: 1173343324 heartbeat IPC: 0.742893 cumulative IPC: 0.848909 (Simulation time: 0 hr 46 min 24 sec) 
Heartbeat CPU 0 instructions: 1120000000 cycles: 1186522262 heartbeat IPC: 0.758786 cumulative IPC: 0.847814 (Simulation time: 0 hr 46 min 51 sec) 
Heartbeat CPU 0 instructions: 1130000000 cycles: 1199994712 heartbeat IPC: 0.742256 cumulative IPC: 0.84652 (Simulation time: 0 hr 47 min 18 sec) 
Heartbeat CPU 0 instructions: 1140000000 cycles: 1212892180 heartbeat IPC: 0.775346 cumulative IPC: 0.845694 (Simulation time: 0 hr 47 min 45 sec) 
Heartbeat CPU 0 instructions: 1150000002 cycles: 1224523567 heartbeat IPC: 0.859743 cumulative IPC: 0.845839 (Simulation time: 0 hr 48 min 11 sec) 
Heartbeat CPU 0 instructions: 1160000000 cycles: 1235324518 heartbeat IPC: 0.925844 cumulative IPC: 0.846601 (Simulation time: 0 hr 48 min 37 sec) 
Heartbeat CPU 0 instructions: 1170000003 cycles: 1245469758 heartbeat IPC: 0.985684 cumulative IPC: 0.847835 (Simulation time: 0 hr 49 min 3 sec) 
Heartbeat CPU 0 instructions: 1180000000 cycles: 1257569508 heartbeat IPC: 0.826463 cumulative IPC: 0.847611 (Simulation time: 0 hr 49 min 30 sec) 
Heartbeat CPU 0 instructions: 1190000003 cycles: 1272337888 heartbeat IPC: 0.677123 cumulative IPC: 0.845461 (Simulation time: 0 hr 49 min 59 sec) 
Heartbeat CPU 0 instructions: 1200000000 cycles: 1284655207 heartbeat IPC: 0.811865 cumulative IPC: 0.845111 (Simulation time: 0 hr 50 min 26 sec) 
Finished CPU 0 instructions: 1000000000 cycles: 1183276369 cumulative IPC: 0.845111 (Simulation time: 0 hr 50 min 26 sec) 

CPU 0 Branch Prediction Accuracy: 97.8786% MPKI: 2.13997

ChampSim completed all CPUs

Region of Interest Statistics

CPU 0 cumulative IPC: 0.845111 instructions: 1000000000 cycles: 1183276369
L1D TOTAL     ACCESS:  298419434  HIT:  291885825  MISS:    6533609
L1D LOAD      ACCESS:  210284438  HIT:  207081099  MISS:    3203339
L1D RFO       ACCESS:   88134996  HIT:   84804726  MISS:    3330270
L1D PREFETCH  ACCESS:          0  HIT:          0  MISS:          0
L1D WRITEBACK ACCESS:          0  HIT:          0  MISS:          0
L1D PREFETCH  REQUESTED:          0  ISSUED:          0  USEFUL:          0  USELESS:          0
L1I TOTAL     ACCESS:  241687868  HIT:  240106408  MISS:    1581460
L1I LOAD      ACCESS:  241687868  HIT:  240106408  MISS:    1581460
L1I RFO       ACCESS:          0  HIT:          0  MISS:          0
L1I PREFETCH  ACCESS:          0  HIT:          0  MISS:          0
L1I WRITEBACK ACCESS:          0  HIT:          0  MISS:          0
L1I PREFETCH  REQUESTED:          0  ISSUED:          0  USEFUL:          0  USELESS:          0
L2C TOTAL     ACCESS:   12012839  HIT:   11068320  MISS:     944519
L2C LOAD      ACCESS:    4784699  HIT:    4370305  MISS:     414394
L2C RFO       ACCESS:    3330080  HIT:    2927472  MISS:     402608
L2C PREFETCH  ACCESS:     171977  HIT:      45456  MISS:     126521
L2C WRITEBACK ACCESS:    3726083  HIT:    3725087  MISS:        996
L2C PREFETCH  REQUESTED:     222954  ISSUED:     222949  USEFUL:      69582  USELESS:      80488
LLC TOTAL     ACCESS:    1418738  HIT:    1410315  MISS:       8423
LLC LOAD      ACCESS:     412313  HIT:     409603  MISS:       2710
LLC RFO       ACCESS:     402607  HIT:     402102  MISS:        505
LLC PREFETCH  ACCESS:     128602  HIT:     123474  MISS:       5128
LLC WRITEBACK ACCESS:     475216  HIT:     475136  MISS:         80
LLC PREFETCH  REQUESTED:          0  ISSUED:          0  USEFUL:       8108  USELESS:       2799
Major fault: 0 Minor fault: 650

L2C DA-AMPM prefetcher final stats

DRAM Statistics
 CHANNEL 0
 RQ ROW_BUFFER_HIT:       5455  ROW_BUFFER_MISS:       2752
 DBUS_CONGESTED:       2313
 WQ ROW_BUFFER_HIT:        253  ROW_BUFFER_MISS:        464  FULL:          0

 AVG_CONGESTED_CYCLE: 13
