
*** ChampSim Multicore Out-of-Order Simulator ***

Warmup Instructions: 20000000
Simulation Instructions: 100000000
Number of CPUs: 8
LLC sets: 16384
LLC ways: 16
Off-chip DRAM Size: 8192 MB Channels: 2 Width: 64-bit Data Rate: 1600 MT/s

CPU 0 runs /scratch/user/djimenez/champsim-traces/speccpu2017/xz/605.mcf_s/605.mcf_s-1536B.champsimtrace.xz
CPU 1 runs /scratch/user/djimenez/champsim-traces/speccpu2017/xz/619.lbm_s/619.lbm_s-3766B.champsimtrace.xz
CPU 2 runs /scratch/user/djimenez/champsim-traces/speccpu2017/xz/602.gcc_s/602.gcc_s-734B.champsimtrace.xz
CPU 3 runs /scratch/user/djimenez/champsim-traces/speccpu2017/xz/605.mcf_s/605.mcf_s-665B.champsimtrace.xz
CPU 4 runs /scratch/user/djimenez/champsim-traces/speccpu2017/xz/654.roms_s/654.roms_s-294B.champsimtrace.xz
CPU 5 runs /scratch/user/djimenez/champsim-traces/speccpu2017/xz/603.bwaves_s/603.bwaves_s-1740B.champsimtrace.xz
CPU 6 runs /scratch/user/djimenez/champsim-traces/speccpu2017/xz/623.xalancbmk_s/623.xalancbmk_s-325B.champsimtrace.xz
CPU 7 runs /scratch/user/djimenez/champsim-traces/speccpu2017/xz/621.wrf_s/621.wrf_s-6673B.champsimtrace.xz
Heartbeat CPU 0 instructions: 10000002 cycles: 3663107 heartbeat IPC: 2.72992 cumulative IPC: 2.72992 (Simulation time: 0 hr 3 min 52 sec) 
Heartbeat CPU 1 instructions: 10000000 cycles: 4266326 heartbeat IPC: 2.34394 cumulative IPC: 2.34394 (Simulation time: 0 hr 4 min 27 sec) 
Heartbeat CPU 4 instructions: 10000003 cycles: 4896743 heartbeat IPC: 2.04217 cumulative IPC: 2.04217 (Simulation time: 0 hr 5 min 8 sec) 
Heartbeat CPU 5 instructions: 10000002 cycles: 5287961 heartbeat IPC: 1.89109 cumulative IPC: 1.89109 (Simulation time: 0 hr 5 min 43 sec) 
Heartbeat CPU 2 instructions: 10000000 cycles: 5332869 heartbeat IPC: 1.87516 cumulative IPC: 1.87516 (Simulation time: 0 hr 5 min 47 sec) 
Heartbeat CPU 7 instructions: 10000001 cycles: 5378432 heartbeat IPC: 1.85928 cumulative IPC: 1.85928 (Simulation time: 0 hr 5 min 50 sec) 
Heartbeat CPU 6 instructions: 10000000 cycles: 6118138 heartbeat IPC: 1.63448 cumulative IPC: 1.63448 (Simulation time: 0 hr 6 min 33 sec) 
Heartbeat CPU 3 instructions: 10000001 cycles: 6534203 heartbeat IPC: 1.53041 cumulative IPC: 1.53041 (Simulation time: 0 hr 7 min 2 sec) 
Heartbeat CPU 0 instructions: 20000000 cycles: 7320209 heartbeat IPC: 2.73441 cumulative IPC: 2.73216 (Simulation time: 0 hr 7 min 49 sec) 
Heartbeat CPU 1 instructions: 20000000 cycles: 8541700 heartbeat IPC: 2.33898 cumulative IPC: 2.34145 (Simulation time: 0 hr 8 min 55 sec) 
Heartbeat CPU 7 instructions: 20000000 cycles: 9457742 heartbeat IPC: 2.45139 cumulative IPC: 2.11467 (Simulation time: 0 hr 9 min 46 sec) 
Heartbeat CPU 4 instructions: 20000000 cycles: 9793024 heartbeat IPC: 2.04237 cumulative IPC: 2.04227 (Simulation time: 0 hr 10 min 4 sec) 
Heartbeat CPU 5 instructions: 20000000 cycles: 10577768 heartbeat IPC: 1.89043 cumulative IPC: 1.89076 (Simulation time: 0 hr 10 min 48 sec) 
Heartbeat CPU 2 instructions: 20000000 cycles: 10686299 heartbeat IPC: 1.86796 cumulative IPC: 1.87156 (Simulation time: 0 hr 10 min 54 sec) 
Heartbeat CPU 0 instructions: 30000002 cycles: 10994146 heartbeat IPC: 2.72188 cumulative IPC: 0.909575 (Simulation time: 0 hr 11 min 11 sec) 
Heartbeat CPU 6 instructions: 20000000 cycles: 12321804 heartbeat IPC: 1.61195 cumulative IPC: 1.62314 (Simulation time: 0 hr 12 min 20 sec) 
Heartbeat CPU 1 instructions: 30000001 cycles: 12808025 heartbeat IPC: 2.34394 cumulative IPC: 0.780761 (Simulation time: 0 hr 12 min 45 sec) 
Heartbeat CPU 3 instructions: 20000000 cycles: 13061212 heartbeat IPC: 1.5321 cumulative IPC: 1.53125 (Simulation time: 0 hr 12 min 59 sec) 

Warmup complete CPU 0 instructions: 35620114 cycles: 13061214 (Simulation time: 0 hr 12 min 59 sec) 
Warmup complete CPU 1 instructions: 30593340 cycles: 13061214 (Simulation time: 0 hr 12 min 59 sec) 
Warmup complete CPU 2 instructions: 24460690 cycles: 13061214 (Simulation time: 0 hr 12 min 59 sec) 
Warmup complete CPU 3 instructions: 20000001 cycles: 13061214 (Simulation time: 0 hr 12 min 59 sec) 
Warmup complete CPU 4 instructions: 26674437 cycles: 13061213 (Simulation time: 0 hr 12 min 59 sec) 
Warmup complete CPU 5 instructions: 24696061 cycles: 13061213 (Simulation time: 0 hr 12 min 59 sec) 
Warmup complete CPU 6 instructions: 21145666 cycles: 13061213 (Simulation time: 0 hr 12 min 59 sec) 
Warmup complete CPU 7 instructions: 29572536 cycles: 13061213 (Simulation time: 0 hr 12 min 59 sec) 

Heartbeat CPU 7 instructions: 30000003 cycles: 14235516 heartbeat IPC: 2.09303 cumulative IPC: 0.364018 (Simulation time: 0 hr 13 min 16 sec) 
Heartbeat CPU 4 instructions: 30000002 cycles: 21436008 heartbeat IPC: 0.858887 cumulative IPC: 0.397092 (Simulation time: 0 hr 15 min 6 sec) 
Heartbeat CPU 5 instructions: 30000003 cycles: 24055390 heartbeat IPC: 0.741971 cumulative IPC: 0.482432 (Simulation time: 0 hr 15 min 46 sec) 
Heartbeat CPU 1 instructions: 40000000 cycles: 29646344 heartbeat IPC: 0.593883 cumulative IPC: 0.567174 (Simulation time: 0 hr 17 min 9 sec) 
Heartbeat CPU 2 instructions: 30000003 cycles: 35481276 heartbeat IPC: 0.403308 cumulative IPC: 0.247069 (Simulation time: 0 hr 18 min 35 sec) 
Heartbeat CPU 6 instructions: 30000001 cycles: 35713897 heartbeat IPC: 0.427495 cumulative IPC: 0.390874 (Simulation time: 0 hr 18 min 39 sec) 
Heartbeat CPU 0 instructions: 40000000 cycles: 41208254 heartbeat IPC: 0.330971 cumulative IPC: 0.155607 (Simulation time: 0 hr 19 min 58 sec) 
Heartbeat CPU 5 instructions: 40000000 cycles: 46017661 heartbeat IPC: 0.455326 cumulative IPC: 0.464369 (Simulation time: 0 hr 21 min 10 sec) 
Heartbeat CPU 7 instructions: 40000000 cycles: 46995092 heartbeat IPC: 0.305254 cumulative IPC: 0.307288 (Simulation time: 0 hr 21 min 26 sec) 
Heartbeat CPU 4 instructions: 40000000 cycles: 47429976 heartbeat IPC: 0.384705 cumulative IPC: 0.387723 (Simulation time: 0 hr 21 min 33 sec) 
Heartbeat CPU 1 instructions: 50000003 cycles: 47995691 heartbeat IPC: 0.544979 cumulative IPC: 0.555516 (Simulation time: 0 hr 21 min 43 sec) 
Heartbeat CPU 3 instructions: 30000001 cycles: 55424880 heartbeat IPC: 0.236051 cumulative IPC: 0.236051 (Simulation time: 0 hr 23 min 39 sec) 
Heartbeat CPU 6 instructions: 40000000 cycles: 59633887 heartbeat IPC: 0.41806 cumulative IPC: 0.404837 (Simulation time: 0 hr 24 min 45 sec) 
Heartbeat CPU 1 instructions: 60000000 cycles: 65694919 heartbeat IPC: 0.564996 cumulative IPC: 0.558704 (Simulation time: 0 hr 26 min 23 sec) 
Heartbeat CPU 5 instructions: 50000003 cycles: 67048452 heartbeat IPC: 0.475493 cumulative IPC: 0.468702 (Simulation time: 0 hr 26 min 46 sec) 
Heartbeat CPU 7 instructions: 50000003 cycles: 71576456 heartbeat IPC: 0.406812 cumulative IPC: 0.349097 (Simulation time: 0 hr 28 min 2 sec) 
Heartbeat CPU 4 instructions: 50000001 cycles: 72731745 heartbeat IPC: 0.395229 cumulative IPC: 0.390906 (Simulation time: 0 hr 28 min 22 sec) 
Heartbeat CPU 6 instructions: 50000001 cycles: 75315539 heartbeat IPC: 0.637688 cumulative IPC: 0.463491 (Simulation time: 0 hr 29 min 5 sec) 
Heartbeat CPU 2 instructions: 40000000 cycles: 79268887 heartbeat IPC: 0.228375 cumulative IPC: 0.234706 (Simulation time: 0 hr 30 min 12 sec) 
Heartbeat CPU 1 instructions: 70000003 cycles: 82817212 heartbeat IPC: 0.584034 cumulative IPC: 0.564921 (Simulation time: 0 hr 31 min 12 sec) 
Heartbeat CPU 5 instructions: 60000000 cycles: 87516056 heartbeat IPC: 0.488577 cumulative IPC: 0.474166 (Simulation time: 0 hr 32 min 29 sec) 
Heartbeat CPU 6 instructions: 60000000 cycles: 92615338 heartbeat IPC: 0.578041 cumulative IPC: 0.488401 (Simulation time: 0 hr 33 min 49 sec) 
Heartbeat CPU 3 instructions: 40000000 cycles: 96937764 heartbeat IPC: 0.240889 cumulative IPC: 0.238446 (Simulation time: 0 hr 34 min 57 sec) 
Heartbeat CPU 4 instructions: 60000000 cycles: 97516735 heartbeat IPC: 0.40347 cumulative IPC: 0.394593 (Simulation time: 0 hr 35 min 7 sec) 
Heartbeat CPU 7 instructions: 60000000 cycles: 98444273 heartbeat IPC: 0.372192 cumulative IPC: 0.356364 (Simulation time: 0 hr 35 min 21 sec) 
Heartbeat CPU 1 instructions: 80000000 cycles: 100045829 heartbeat IPC: 0.580429 cumulative IPC: 0.567993 (Simulation time: 0 hr 35 min 45 sec) 
Heartbeat CPU 0 instructions: 50000003 cycles: 101921612 heartbeat IPC: 0.164708 cumulative IPC: 0.161826 (Simulation time: 0 hr 36 min 15 sec) 
Heartbeat CPU 5 instructions: 70000001 cycles: 107982655 heartbeat IPC: 0.488601 cumulative IPC: 0.477278 (Simulation time: 0 hr 38 min 4 sec) 
Heartbeat CPU 1 instructions: 90000000 cycles: 117365747 heartbeat IPC: 0.57737 cumulative IPC: 0.56955 (Simulation time: 0 hr 41 min 0 sec) 
Heartbeat CPU 6 instructions: 70000000 cycles: 120190419 heartbeat IPC: 0.362646 cumulative IPC: 0.456032 (Simulation time: 0 hr 41 min 42 sec) 
Heartbeat CPU 2 instructions: 50000000 cycles: 121329606 heartbeat IPC: 0.237752 cumulative IPC: 0.235889 (Simulation time: 0 hr 42 min 2 sec) 
Heartbeat CPU 4 instructions: 70000000 cycles: 122470381 heartbeat IPC: 0.400743 cumulative IPC: 0.395996 (Simulation time: 0 hr 42 min 22 sec) 
Heartbeat CPU 5 instructions: 80000000 cycles: 128940964 heartbeat IPC: 0.477138 cumulative IPC: 0.477253 (Simulation time: 0 hr 44 min 15 sec) 
Heartbeat CPU 7 instructions: 70000003 cycles: 129127850 heartbeat IPC: 0.325907 cumulative IPC: 0.348313 (Simulation time: 0 hr 44 min 18 sec) 
Heartbeat CPU 1 instructions: 100000000 cycles: 134978880 heartbeat IPC: 0.567758 cumulative IPC: 0.569291 (Simulation time: 0 hr 45 min 50 sec) 
Heartbeat CPU 3 instructions: 50000003 cycles: 138086744 heartbeat IPC: 0.243019 cumulative IPC: 0.239951 (Simulation time: 0 hr 46 min 39 sec) 
Heartbeat CPU 4 instructions: 80000000 cycles: 147491012 heartbeat IPC: 0.39967 cumulative IPC: 0.39668 (Simulation time: 0 hr 49 min 6 sec) 
Heartbeat CPU 6 instructions: 80000000 cycles: 149408612 heartbeat IPC: 0.342253 cumulative IPC: 0.43165 (Simulation time: 0 hr 49 min 35 sec) 
Heartbeat CPU 5 instructions: 90000000 cycles: 149460239 heartbeat IPC: 0.487347 cumulative IPC: 0.478771 (Simulation time: 0 hr 49 min 36 sec) 
Heartbeat CPU 1 instructions: 110000001 cycles: 152507994 heartbeat IPC: 0.57048 cumulative IPC: 0.569441 (Simulation time: 0 hr 50 min 23 sec) 
Heartbeat CPU 7 instructions: 80000000 cycles: 156236276 heartbeat IPC: 0.368889 cumulative IPC: 0.352208 (Simulation time: 0 hr 51 min 22 sec) 
Heartbeat CPU 0 instructions: 60000000 cycles: 162643581 heartbeat IPC: 0.164685 cumulative IPC: 0.162986 (Simulation time: 0 hr 53 min 3 sec) 
Heartbeat CPU 2 instructions: 60000000 cycles: 163580733 heartbeat IPC: 0.23668 cumulative IPC: 0.236111 (Simulation time: 0 hr 53 min 18 sec) 
Heartbeat CPU 5 instructions: 100000000 cycles: 170450193 heartbeat IPC: 0.476418 cumulative IPC: 0.478458 (Simulation time: 0 hr 55 min 3 sec) 
Heartbeat CPU 1 instructions: 120000000 cycles: 170910386 heartbeat IPC: 0.543408 cumulative IPC: 0.566406 (Simulation time: 0 hr 55 min 10 sec) 
Heartbeat CPU 4 instructions: 90000001 cycles: 172699276 heartbeat IPC: 0.396695 cumulative IPC: 0.396682 (Simulation time: 0 hr 55 min 38 sec) 
Heartbeat CPU 6 instructions: 90000002 cycles: 177646300 heartbeat IPC: 0.354137 cumulative IPC: 0.418351 (Simulation time: 0 hr 56 min 53 sec) 
Heartbeat CPU 3 instructions: 60000000 cycles: 180079235 heartbeat IPC: 0.238138 cumulative IPC: 0.239495 (Simulation time: 0 hr 57 min 31 sec) 
Heartbeat CPU 7 instructions: 90000002 cycles: 184227432 heartbeat IPC: 0.357256 cumulative IPC: 0.353034 (Simulation time: 0 hr 58 min 46 sec) 
Heartbeat CPU 1 instructions: 130000000 cycles: 191147328 heartbeat IPC: 0.494146 cumulative IPC: 0.558194 (Simulation time: 1 hr 0 min 33 sec) 
Heartbeat CPU 5 instructions: 110000000 cycles: 191635723 heartbeat IPC: 0.47202 cumulative IPC: 0.477694 (Simulation time: 1 hr 0 min 40 sec) 
Finished CPU 1 instructions: 100000000 cycles: 179251282 cumulative IPC: 0.557876 (Simulation time: 1 hr 0 min 50 sec) 
Heartbeat CPU 4 instructions: 100000000 cycles: 198464012 heartbeat IPC: 0.388127 cumulative IPC: 0.395493 (Simulation time: 1 hr 2 min 18 sec) 
Heartbeat CPU 6 instructions: 100000000 cycles: 202730116 heartbeat IPC: 0.398663 cumulative IPC: 0.415747 (Simulation time: 1 hr 3 min 19 sec) 
Heartbeat CPU 2 instructions: 70000003 cycles: 207708234 heartbeat IPC: 0.226616 cumulative IPC: 0.233958 (Simulation time: 1 hr 4 min 31 sec) 
Heartbeat CPU 5 instructions: 120000000 cycles: 213364505 heartbeat IPC: 0.460219 cumulative IPC: 0.475798 (Simulation time: 1 hr 5 min 56 sec) 
Heartbeat CPU 1 instructions: 140000000 cycles: 213445315 heartbeat IPC: 0.448471 cumulative IPC: 0.545985 (Simulation time: 1 hr 5 min 57 sec) 
Heartbeat CPU 3 instructions: 70000000 cycles: 222837315 heartbeat IPC: 0.233874 cumulative IPC: 0.238349 (Simulation time: 1 hr 8 min 14 sec) 
Heartbeat CPU 7 instructions: 100000000 cycles: 223217573 heartbeat IPC: 0.256475 cumulative IPC: 0.335119 (Simulation time: 1 hr 8 min 20 sec) 
Finished CPU 5 instructions: 100000002 cycles: 211032654 cumulative IPC: 0.47386 (Simulation time: 1 hr 8 min 33 sec) 
Heartbeat CPU 4 instructions: 110000001 cycles: 225155765 heartbeat IPC: 0.374648 cumulative IPC: 0.39287 (Simulation time: 1 hr 8 min 53 sec) 
Heartbeat CPU 6 instructions: 110000000 cycles: 225168561 heartbeat IPC: 0.445664 cumulative IPC: 0.418912 (Simulation time: 1 hr 8 min 53 sec) 
Heartbeat CPU 0 instructions: 70000000 cycles: 225190744 heartbeat IPC: 0.159879 cumulative IPC: 0.16207 (Simulation time: 1 hr 8 min 53 sec) 
Heartbeat CPU 5 instructions: 130000003 cycles: 235362237 heartbeat IPC: 0.454592 cumulative IPC: 0.4737 (Simulation time: 1 hr 11 min 46 sec) 
Heartbeat CPU 1 instructions: 150000001 cycles: 237897835 heartbeat IPC: 0.408956 cumulative IPC: 0.531082 (Simulation time: 1 hr 12 min 28 sec) 
Heartbeat CPU 7 instructions: 110000001 cycles: 238623454 heartbeat IPC: 0.649103 cumulative IPC: 0.356564 (Simulation time: 1 hr 12 min 40 sec) 
Heartbeat CPU 6 instructions: 120000000 cycles: 239798168 heartbeat IPC: 0.683545 cumulative IPC: 0.435987 (Simulation time: 1 hr 12 min 59 sec) 
Finished CPU 6 instructions: 100000000 cycles: 228606401 cumulative IPC: 0.437433 (Simulation time: 1 hr 13 min 29 sec) 
Heartbeat CPU 4 instructions: 120000000 cycles: 251016967 heartbeat IPC: 0.38668 cumulative IPC: 0.392197 (Simulation time: 1 hr 15 min 56 sec) 
Heartbeat CPU 2 instructions: 80000000 cycles: 251581085 heartbeat IPC: 0.227931 cumulative IPC: 0.23285 (Simulation time: 1 hr 16 min 5 sec) 
Heartbeat CPU 5 instructions: 140000000 cycles: 256892348 heartbeat IPC: 0.464466 cumulative IPC: 0.472884 (Simulation time: 1 hr 17 min 22 sec) 
Heartbeat CPU 7 instructions: 120000000 cycles: 258195921 heartbeat IPC: 0.510922 cumulative IPC: 0.368889 (Simulation time: 1 hr 17 min 41 sec) 
Heartbeat CPU 6 instructions: 130000000 cycles: 260879092 heartbeat IPC: 0.474363 cumulative IPC: 0.439251 (Simulation time: 1 hr 18 min 20 sec) 
Heartbeat CPU 1 instructions: 160000000 cycles: 265482314 heartbeat IPC: 0.362523 cumulative IPC: 0.512662 (Simulation time: 1 hr 19 min 27 sec) 
Heartbeat CPU 3 instructions: 80000000 cycles: 266081586 heartbeat IPC: 0.231245 cumulative IPC: 0.237135 (Simulation time: 1 hr 19 min 36 sec) 
Finished CPU 4 instructions: 100000001 cycles: 255517977 cumulative IPC: 0.391362 (Simulation time: 1 hr 20 min 13 sec) 
Finished CPU 7 instructions: 100000000 cycles: 261182487 cumulative IPC: 0.382874 (Simulation time: 1 hr 21 min 35 sec) 
Heartbeat CPU 7 instructions: 130000001 cycles: 275156896 heartbeat IPC: 0.589589 cumulative IPC: 0.383171 (Simulation time: 1 hr 21 min 48 sec) 
Heartbeat CPU 4 instructions: 130000000 cycles: 277275472 heartbeat IPC: 0.380829 cumulative IPC: 0.391067 (Simulation time: 1 hr 22 min 19 sec) 
Heartbeat CPU 5 instructions: 150000001 cycles: 278742711 heartbeat IPC: 0.457658 cumulative IPC: 0.471632 (Simulation time: 1 hr 22 min 40 sec) 
Heartbeat CPU 0 instructions: 80000000 cycles: 288173770 heartbeat IPC: 0.158773 cumulative IPC: 0.161315 (Simulation time: 1 hr 24 min 54 sec) 
Heartbeat CPU 6 instructions: 140000000 cycles: 288869642 heartbeat IPC: 0.357263 cumulative IPC: 0.430931 (Simulation time: 1 hr 25 min 5 sec) 
Heartbeat CPU 7 instructions: 140000000 cycles: 294812290 heartbeat IPC: 0.508766 cumulative IPC: 0.391933 (Simulation time: 1 hr 26 min 37 sec) 
Heartbeat CPU 2 instructions: 90000003 cycles: 295919670 heartbeat IPC: 0.225537 cumulative IPC: 0.231704 (Simulation time: 1 hr 26 min 54 sec) 
Heartbeat CPU 1 instructions: 170000002 cycles: 297316194 heartbeat IPC: 0.314131 cumulative IPC: 0.490428 (Simulation time: 1 hr 27 min 16 sec) 
Heartbeat CPU 5 instructions: 160000000 cycles: 300893781 heartbeat IPC: 0.451445 cumulative IPC: 0.470079 (Simulation time: 1 hr 28 min 12 sec) 
Heartbeat CPU 4 instructions: 140000000 cycles: 303728670 heartbeat IPC: 0.378026 cumulative IPC: 0.38988 (Simulation time: 1 hr 28 min 54 sec) 
Heartbeat CPU 3 instructions: 90000000 cycles: 310994411 heartbeat IPC: 0.222654 cumulative IPC: 0.234952 (Simulation time: 1 hr 30 min 38 sec) 
Heartbeat CPU 6 instructions: 150000000 cycles: 313973961 heartbeat IPC: 0.398338 cumulative IPC: 0.428212 (Simulation time: 1 hr 31 min 19 sec) 
Heartbeat CPU 7 instructions: 150000000 cycles: 315062363 heartbeat IPC: 0.493825 cumulative IPC: 0.398765 (Simulation time: 1 hr 31 min 35 sec) 
Heartbeat CPU 5 instructions: 170000000 cycles: 323141633 heartbeat IPC: 0.449482 cumulative IPC: 0.468601 (Simulation time: 1 hr 33 min 34 sec) 
Heartbeat CPU 4 instructions: 150000000 cycles: 330244606 heartbeat IPC: 0.377132 cumulative IPC: 0.388815 (Simulation time: 1 hr 35 min 23 sec) 
Heartbeat CPU 1 instructions: 180000000 cycles: 331144615 heartbeat IPC: 0.295609 cumulative IPC: 0.469709 (Simulation time: 1 hr 35 min 37 sec) 
Heartbeat CPU 7 instructions: 160000000 cycles: 331531797 heartbeat IPC: 0.607185 cumulative IPC: 0.409543 (Simulation time: 1 hr 35 min 43 sec) 
Heartbeat CPU 6 instructions: 160000000 cycles: 331539422 heartbeat IPC: 0.569299 cumulative IPC: 0.435993 (Simulation time: 1 hr 35 min 43 sec) 
Heartbeat CPU 5 instructions: 180000000 cycles: 344889432 heartbeat IPC: 0.459817 cumulative IPC: 0.468025 (Simulation time: 1 hr 38 min 54 sec) 
Heartbeat CPU 0 instructions: 90000003 cycles: 352298569 heartbeat IPC: 0.155946 cumulative IPC: 0.1603 (Simulation time: 1 hr 40 min 35 sec) 
Heartbeat CPU 7 instructions: 170000000 cycles: 352479270 heartbeat IPC: 0.477385 cumulative IPC: 0.41373 (Simulation time: 1 hr 40 min 37 sec) 
Heartbeat CPU 3 instructions: 100000000 cycles: 353398137 heartbeat IPC: 0.235828 cumulative IPC: 0.235061 (Simulation time: 1 hr 40 min 51 sec) 
Heartbeat CPU 6 instructions: 170000000 cycles: 354875607 heartbeat IPC: 0.428519 cumulative IPC: 0.435483 (Simulation time: 1 hr 41 min 12 sec) 
Heartbeat CPU 4 instructions: 160000000 cycles: 356809757 heartbeat IPC: 0.376433 cumulative IPC: 0.387858 (Simulation time: 1 hr 41 min 40 sec) 
Heartbeat CPU 1 instructions: 190000000 cycles: 365984304 heartbeat IPC: 0.287029 cumulative IPC: 0.451675 (Simulation time: 1 hr 43 min 54 sec) 
Heartbeat CPU 5 instructions: 190000002 cycles: 367035707 heartbeat IPC: 0.451543 cumulative IPC: 0.466994 (Simulation time: 1 hr 44 min 7 sec) 
Heartbeat CPU 7 instructions: 180000000 cycles: 369673003 heartbeat IPC: 0.581607 cumulative IPC: 0.421824 (Simulation time: 1 hr 44 min 43 sec) 
Heartbeat CPU 6 instructions: 180000000 cycles: 381805857 heartbeat IPC: 0.37133 cumulative IPC: 0.430798 (Simulation time: 1 hr 47 min 29 sec) 
Heartbeat CPU 4 instructions: 170000002 cycles: 383236759 heartbeat IPC: 0.378401 cumulative IPC: 0.387183 (Simulation time: 1 hr 47 min 48 sec) 
Heartbeat CPU 2 instructions: 100000000 cycles: 387144309 heartbeat IPC: 0.109619 cumulative IPC: 0.201932 (Simulation time: 1 hr 48 min 48 sec) 
Heartbeat CPU 5 instructions: 200000000 cycles: 388816818 heartbeat IPC: 0.459113 cumulative IPC: 0.466537 (Simulation time: 1 hr 49 min 15 sec) 
Heartbeat CPU 7 instructions: 190000002 cycles: 391192555 heartbeat IPC: 0.464694 cumulative IPC: 0.424264 (Simulation time: 1 hr 49 min 52 sec) 
Heartbeat CPU 3 instructions: 110000000 cycles: 395525394 heartbeat IPC: 0.237376 cumulative IPC: 0.235316 (Simulation time: 1 hr 50 min 56 sec) 
Heartbeat CPU 1 instructions: 200000000 cycles: 398211539 heartbeat IPC: 0.310297 cumulative IPC: 0.439846 (Simulation time: 1 hr 51 min 36 sec) 
Heartbeat CPU 6 instructions: 190000001 cycles: 403710141 heartbeat IPC: 0.456532 cumulative IPC: 0.432241 (Simulation time: 1 hr 52 min 57 sec) 
Heartbeat CPU 7 instructions: 200000000 cycles: 407152474 heartbeat IPC: 0.626569 cumulative IPC: 0.432457 (Simulation time: 1 hr 53 min 48 sec) 
Heartbeat CPU 4 instructions: 180000000 cycles: 409109353 heartbeat IPC: 0.386509 cumulative IPC: 0.387139 (Simulation time: 1 hr 54 min 17 sec) 
Heartbeat CPU 5 instructions: 210000002 cycles: 410179996 heartbeat IPC: 0.468095 cumulative IPC: 0.466621 (Simulation time: 1 hr 54 min 34 sec) 
Heartbeat CPU 0 instructions: 100000000 cycles: 415488896 heartbeat IPC: 0.158252 cumulative IPC: 0.159979 (Simulation time: 1 hr 55 min 54 sec) 
Heartbeat CPU 7 instructions: 210000003 cycles: 423079521 heartbeat IPC: 0.627863 cumulative IPC: 0.440047 (Simulation time: 1 hr 57 min 51 sec) 
Heartbeat CPU 1 instructions: 210000002 cycles: 428650230 heartbeat IPC: 0.328529 cumulative IPC: 0.431693 (Simulation time: 1 hr 59 min 19 sec) 
Heartbeat CPU 2 instructions: 110000002 cycles: 430241895 heartbeat IPC: 0.232032 cumulative IPC: 0.205041 (Simulation time: 1 hr 59 min 44 sec) 
Heartbeat CPU 6 instructions: 200000000 cycles: 431216556 heartbeat IPC: 0.363552 cumulative IPC: 0.427722 (Simulation time: 1 hr 59 min 59 sec) 
Heartbeat CPU 5 instructions: 220000000 cycles: 431638969 heartbeat IPC: 0.466005 cumulative IPC: 0.466589 (Simulation time: 2 hr 0 min 5 sec) 
Heartbeat CPU 4 instructions: 190000001 cycles: 434852012 heartbeat IPC: 0.38846 cumulative IPC: 0.387219 (Simulation time: 2 hr 0 min 54 sec) 
Heartbeat CPU 3 instructions: 120000000 cycles: 436655209 heartbeat IPC: 0.243133 cumulative IPC: 0.236075 (Simulation time: 2 hr 1 min 21 sec) 
Finished CPU 3 instructions: 100000001 cycles: 423594004 cumulative IPC: 0.236075 (Simulation time: 2 hr 1 min 21 sec) 
Heartbeat CPU 7 instructions: 220000000 cycles: 439209080 heartbeat IPC: 0.61998 cumulative IPC: 0.446858 (Simulation time: 2 hr 2 min 0 sec) 
Heartbeat CPU 5 instructions: 230000002 cycles: 453985060 heartbeat IPC: 0.447506 cumulative IPC: 0.465622 (Simulation time: 2 hr 5 min 34 sec) 
Heartbeat CPU 6 instructions: 210000003 cycles: 456154926 heartbeat IPC: 0.400989 cumulative IPC: 0.426218 (Simulation time: 2 hr 6 min 6 sec) 
Heartbeat CPU 1 instructions: 220000000 cycles: 458182586 heartbeat IPC: 0.338612 cumulative IPC: 0.425517 (Simulation time: 2 hr 6 min 36 sec) 
Heartbeat CPU 4 instructions: 200000000 cycles: 461491703 heartbeat IPC: 0.37538 cumulative IPC: 0.386516 (Simulation time: 2 hr 7 min 24 sec) 
Heartbeat CPU 7 instructions: 230000000 cycles: 467535353 heartbeat IPC: 0.353029 cumulative IPC: 0.44101 (Simulation time: 2 hr 8 min 51 sec) 
Heartbeat CPU 2 instructions: 120000000 cycles: 475096125 heartbeat IPC: 0.222944 cumulative IPC: 0.206779 (Simulation time: 2 hr 10 min 44 sec) 
Heartbeat CPU 5 instructions: 240000000 cycles: 475868610 heartbeat IPC: 0.456964 cumulative IPC: 0.465213 (Simulation time: 2 hr 10 min 54 sec) 
Heartbeat CPU 3 instructions: 130000000 cycles: 478745745 heartbeat IPC: 0.237583 cumulative IPC: 0.236211 (Simulation time: 2 hr 11 min 37 sec) 
Heartbeat CPU 0 instructions: 110000000 cycles: 478833430 heartbeat IPC: 0.157867 cumulative IPC: 0.159692 (Simulation time: 2 hr 11 min 38 sec) 
Heartbeat CPU 6 instructions: 220000000 cycles: 479464153 heartbeat IPC: 0.429015 cumulative IPC: 0.426357 (Simulation time: 2 hr 11 min 47 sec) 
Heartbeat CPU 1 instructions: 230000003 cycles: 487845762 heartbeat IPC: 0.337118 cumulative IPC: 0.419994 (Simulation time: 2 hr 13 min 50 sec) 
Heartbeat CPU 4 instructions: 210000000 cycles: 488684545 heartbeat IPC: 0.367744 cumulative IPC: 0.385443 (Simulation time: 2 hr 14 min 4 sec) 
Heartbeat CPU 7 instructions: 240000000 cycles: 494275019 heartbeat IPC: 0.373976 cumulative IPC: 0.437285 (Simulation time: 2 hr 15 min 32 sec) 
Finished CPU 2 instructions: 100000001 cycles: 482893991 cumulative IPC: 0.207085 (Simulation time: 2 hr 15 min 59 sec) 
Heartbeat CPU 6 instructions: 230000001 cycles: 496148965 heartbeat IPC: 0.599348 cumulative IPC: 0.432332 (Simulation time: 2 hr 16 min 2 sec) 
Heartbeat CPU 5 instructions: 250000003 cycles: 498788308 heartbeat IPC: 0.436306 cumulative IPC: 0.463849 (Simulation time: 2 hr 16 min 43 sec) 
Heartbeat CPU 6 instructions: 240000000 cycles: 511068082 heartbeat IPC: 0.670281 cumulative IPC: 0.43946 (Simulation time: 2 hr 19 min 48 sec) 
Heartbeat CPU 7 instructions: 250000003 cycles: 511620803 heartbeat IPC: 0.576509 cumulative IPC: 0.442129 (Simulation time: 2 hr 19 min 57 sec) 
Heartbeat CPU 4 instructions: 220000000 cycles: 514782349 heartbeat IPC: 0.383174 cumulative IPC: 0.385325 (Simulation time: 2 hr 20 min 43 sec) 
Heartbeat CPU 1 instructions: 240000000 cycles: 515643514 heartbeat IPC: 0.359741 cumulative IPC: 0.416661 (Simulation time: 2 hr 20 min 56 sec) 
Heartbeat CPU 5 instructions: 260000000 cycles: 520018123 heartbeat IPC: 0.471036 cumulative IPC: 0.46415 (Simulation time: 2 hr 22 min 2 sec) 
Heartbeat CPU 2 instructions: 130000000 cycles: 521580634 heartbeat IPC: 0.215125 cumulative IPC: 0.207542 (Simulation time: 2 hr 22 min 26 sec) 
Heartbeat CPU 3 instructions: 140000000 cycles: 521768370 heartbeat IPC: 0.232436 cumulative IPC: 0.235892 (Simulation time: 2 hr 22 min 29 sec) 
Heartbeat CPU 7 instructions: 260000000 cycles: 528116658 heartbeat IPC: 0.606213 cumulative IPC: 0.447384 (Simulation time: 2 hr 24 min 0 sec) 
Heartbeat CPU 6 instructions: 250000001 cycles: 531153913 heartbeat IPC: 0.497863 cumulative IPC: 0.441725 (Simulation time: 2 hr 24 min 44 sec) 
Heartbeat CPU 4 instructions: 230000000 cycles: 540549971 heartbeat IPC: 0.388084 cumulative IPC: 0.38546 (Simulation time: 2 hr 26 min 56 sec) 
Heartbeat CPU 5 instructions: 270000001 cycles: 541263262 heartbeat IPC: 0.470696 cumulative IPC: 0.464413 (Simulation time: 2 hr 27 min 6 sec) 
Heartbeat CPU 0 instructions: 120000000 cycles: 542680831 heartbeat IPC: 0.156623 cumulative IPC: 0.159322 (Simulation time: 2 hr 27 min 26 sec) 
Heartbeat CPU 1 instructions: 250000001 cycles: 542823186 heartbeat IPC: 0.367922 cumulative IPC: 0.414161 (Simulation time: 2 hr 27 min 28 sec) 
Heartbeat CPU 7 instructions: 270000000 cycles: 546369464 heartbeat IPC: 0.547861 cumulative IPC: 0.450823 (Simulation time: 2 hr 28 min 19 sec) 
Heartbeat CPU 6 instructions: 260000000 cycles: 560662400 heartbeat IPC: 0.338886 cumulative IPC: 0.436183 (Simulation time: 2 hr 31 min 48 sec) 
Heartbeat CPU 7 instructions: 280000000 cycles: 562391248 heartbeat IPC: 0.62415 cumulative IPC: 0.455878 (Simulation time: 2 hr 32 min 12 sec) 
Heartbeat CPU 5 instructions: 280000000 cycles: 562624474 heartbeat IPC: 0.468138 cumulative IPC: 0.464558 (Simulation time: 2 hr 32 min 15 sec) 
Heartbeat CPU 3 instructions: 150000000 cycles: 563267843 heartbeat IPC: 0.240967 cumulative IPC: 0.236275 (Simulation time: 2 hr 32 min 24 sec) 
Heartbeat CPU 2 instructions: 140000000 cycles: 565419849 heartbeat IPC: 0.228106 cumulative IPC: 0.209174 (Simulation time: 2 hr 32 min 55 sec) 
Heartbeat CPU 4 instructions: 240000000 cycles: 566437843 heartbeat IPC: 0.386281 cumulative IPC: 0.385498 (Simulation time: 2 hr 33 min 10 sec) 
Heartbeat CPU 1 instructions: 260000000 cycles: 570105513 heartbeat IPC: 0.366538 cumulative IPC: 0.411828 (Simulation time: 2 hr 34 min 2 sec) 
Heartbeat CPU 7 instructions: 290000003 cycles: 579715673 heartbeat IPC: 0.57722 cumulative IPC: 0.459588 (Simulation time: 2 hr 36 min 23 sec) 
Heartbeat CPU 5 instructions: 290000002 cycles: 583924600 heartbeat IPC: 0.469481 cumulative IPC: 0.464742 (Simulation time: 2 hr 37 min 23 sec) 
Heartbeat CPU 6 instructions: 270000001 cycles: 586292046 heartbeat IPC: 0.390173 cumulative IPC: 0.434126 (Simulation time: 2 hr 37 min 57 sec) 
Heartbeat CPU 4 instructions: 250000003 cycles: 592423928 heartbeat IPC: 0.384821 cumulative IPC: 0.385468 (Simulation time: 2 hr 39 min 23 sec) 
Heartbeat CPU 1 instructions: 270000000 cycles: 596921644 heartbeat IPC: 0.37291 cumulative IPC: 0.410041 (Simulation time: 2 hr 40 min 24 sec) 
Heartbeat CPU 7 instructions: 300000000 cycles: 602087585 heartbeat IPC: 0.446989 cumulative IPC: 0.459109 (Simulation time: 2 hr 41 min 35 sec) 
Heartbeat CPU 3 instructions: 160000000 cycles: 604490298 heartbeat IPC: 0.242586 cumulative IPC: 0.236715 (Simulation time: 2 hr 42 min 10 sec) 
Heartbeat CPU 0 instructions: 130000002 cycles: 605251011 heartbeat IPC: 0.159821 cumulative IPC: 0.159374 (Simulation time: 2 hr 42 min 20 sec) 
Heartbeat CPU 5 instructions: 300000000 cycles: 605411673 heartbeat IPC: 0.465396 cumulative IPC: 0.464765 (Simulation time: 2 hr 42 min 22 sec) 
Heartbeat CPU 2 instructions: 150000002 cycles: 609402891 heartbeat IPC: 0.22736 cumulative IPC: 0.210516 (Simulation time: 2 hr 43 min 18 sec) 
Heartbeat CPU 6 instructions: 280000000 cycles: 613576374 heartbeat IPC: 0.366511 cumulative IPC: 0.431054 (Simulation time: 2 hr 44 min 16 sec) 
Heartbeat CPU 4 instructions: 260000000 cycles: 618421657 heartbeat IPC: 0.384649 cumulative IPC: 0.385432 (Simulation time: 2 hr 45 min 23 sec) 
Heartbeat CPU 1 instructions: 280000000 cycles: 623787702 heartbeat IPC: 0.372217 cumulative IPC: 0.408377 (Simulation time: 2 hr 46 min 39 sec) 
Heartbeat CPU 5 instructions: 310000001 cycles: 626962183 heartbeat IPC: 0.464026 cumulative IPC: 0.464739 (Simulation time: 2 hr 47 min 23 sec) 
Heartbeat CPU 7 instructions: 310000000 cycles: 633241827 heartbeat IPC: 0.320984 cumulative IPC: 0.452171 (Simulation time: 2 hr 48 min 45 sec) 
Heartbeat CPU 6 instructions: 290000000 cycles: 636308427 heartbeat IPC: 0.439907 cumulative IPC: 0.431377 (Simulation time: 2 hr 49 min 26 sec) 
Finished CPU 0 instructions: 100000001 cycles: 627401965 cumulative IPC: 0.159387 (Simulation time: 2 hr 50 min 20 sec) 

CPU 0 Branch Prediction Accuracy: 99.9786% MPKI: 0.0206106

CPU 1 Branch Prediction Accuracy: 97.6333% MPKI: 0.352178

CPU 2 Branch Prediction Accuracy: 99.8495% MPKI: 0.313177

CPU 3 Branch Prediction Accuracy: 89.8633% MPKI: 19.5761

CPU 4 Branch Prediction Accuracy: 99.9301% MPKI: 0.0341789

CPU 5 Branch Prediction Accuracy: 99.9706% MPKI: 0.00721036

CPU 6 Branch Prediction Accuracy: 99.1955% MPKI: 1.99849

CPU 7 Branch Prediction Accuracy: 99.273% MPKI: 0.359346

ChampSim completed all CPUs

Total Simulation Statistics (not including warmup)

CPU 0 cumulative IPC: 0.159387 instructions: 100000001 cycles: 627401965
L1D TOTAL     ACCESS:   19672455  HIT:   14211338  MISS:    5461117
L1D LOAD      ACCESS:   15238074  HIT:   10054219  MISS:    5183855
L1D RFO       ACCESS:    4434381  HIT:    4157119  MISS:     277262
L1D PREFETCH  ACCESS:          0  HIT:          0  MISS:          0
L1D WRITEBACK ACCESS:          0  HIT:          0  MISS:          0
L1I TOTAL     ACCESS:   25350742  HIT:   25350742  MISS:          0
L1I LOAD      ACCESS:   25350742  HIT:   25350742  MISS:          0
L1I RFO       ACCESS:          0  HIT:          0  MISS:          0
L1I PREFETCH  ACCESS:          0  HIT:          0  MISS:          0
L1I WRITEBACK ACCESS:          0  HIT:          0  MISS:          0
L2C TOTAL     ACCESS:    7678310  HIT:    4264890  MISS:    3413420
L2C LOAD      ACCESS:    5183855  HIT:    1990411  MISS:    3193444
L2C RFO       ACCESS:     277262  HIT:      57286  MISS:     219976
L2C PREFETCH  ACCESS:          0  HIT:          0  MISS:          0
L2C WRITEBACK ACCESS:    2217193  HIT:    2217193  MISS:          0
LLC TOTAL     ACCESS:    5630469  HIT:    3076972  MISS:    2553497
LLC LOAD      ACCESS:    3193445  HIT:     639960  MISS:    2553485
LLC RFO       ACCESS:     219976  HIT:     219971  MISS:          5
LLC PREFETCH  ACCESS:          0  HIT:          0  MISS:          0
LLC WRITEBACK ACCESS:    2217048  HIT:    2217041  MISS:          7

CPU 1 cumulative IPC: 0.40718 instructions: 255465427 cycles: 627401965
L1D TOTAL     ACCESS:   70293260  HIT:   53943178  MISS:   16350082
L1D LOAD      ACCESS:   26404456  HIT:   23925591  MISS:    2478865
L1D RFO       ACCESS:   43888804  HIT:   30017587  MISS:   13871217
L1D PREFETCH  ACCESS:          0  HIT:          0  MISS:          0
L1D WRITEBACK ACCESS:          0  HIT:          0  MISS:          0
L1I TOTAL     ACCESS:   60776277  HIT:   60776277  MISS:          0
L1I LOAD      ACCESS:   60776277  HIT:   60776277  MISS:          0
L1I RFO       ACCESS:          0  HIT:          0  MISS:          0
L1I PREFETCH  ACCESS:          0  HIT:          0  MISS:          0
L1I WRITEBACK ACCESS:          0  HIT:          0  MISS:          0
L2C TOTAL     ACCESS:   30221294  HIT:   17927693  MISS:   12293601
L2C LOAD      ACCESS:    2478865  HIT:       1390  MISS:    2477475
L2C RFO       ACCESS:   13871206  HIT:    4057851  MISS:    9813355
L2C PREFETCH  ACCESS:          0  HIT:          0  MISS:          0
L2C WRITEBACK ACCESS:   13871223  HIT:   13868452  MISS:       2771
LLC TOTAL     ACCESS:   22101645  HIT:   12197163  MISS:    9904482
LLC LOAD      ACCESS:    2477475  HIT:       1424  MISS:    2476051
LLC RFO       ACCESS:    9808177  HIT:    2380128  MISS:    7428049
LLC PREFETCH  ACCESS:          0  HIT:          0  MISS:          0
LLC WRITEBACK ACCESS:    9815993  HIT:    9815611  MISS:        382

CPU 2 cumulative IPC: 0.211143 instructions: 132471450 cycles: 627401965
L1D TOTAL     ACCESS:   40906505  HIT:   38516322  MISS:    2390183
L1D LOAD      ACCESS:   26373087  HIT:   23986444  MISS:    2386643
L1D RFO       ACCESS:   14533418  HIT:   14529878  MISS:       3540
L1D PREFETCH  ACCESS:          0  HIT:          0  MISS:          0
L1D WRITEBACK ACCESS:          0  HIT:          0  MISS:          0
L1I TOTAL     ACCESS:   51453492  HIT:   51453403  MISS:         89
L1I LOAD      ACCESS:   51453492  HIT:   51453403  MISS:         89
L1I RFO       ACCESS:          0  HIT:          0  MISS:          0
L1I PREFETCH  ACCESS:          0  HIT:          0  MISS:          0
L1I WRITEBACK ACCESS:          0  HIT:          0  MISS:          0
L2C TOTAL     ACCESS:    2418605  HIT:    1199158  MISS:    1219447
L2C LOAD      ACCESS:    2386732  HIT:    1170089  MISS:    1216643
L2C RFO       ACCESS:       3540  HIT:        807  MISS:       2733
L2C PREFETCH  ACCESS:          0  HIT:          0  MISS:          0
L2C WRITEBACK ACCESS:      28333  HIT:      28262  MISS:         71
LLC TOTAL     ACCESS:    1234711  HIT:      21333  MISS:    1213378
LLC LOAD      ACCESS:    1216643  HIT:       8631  MISS:    1208012
LLC RFO       ACCESS:       2733  HIT:         32  MISS:       2701
LLC PREFETCH  ACCESS:          0  HIT:          0  MISS:          0
LLC WRITEBACK ACCESS:      15335  HIT:      12670  MISS:       2665

CPU 3 cumulative IPC: 0.236568 instructions: 148423395 cycles: 627401965
L1D TOTAL     ACCESS:   58013470  HIT:   52208618  MISS:    5804852
L1D LOAD      ACCESS:   41592605  HIT:   36373519  MISS:    5219086
L1D RFO       ACCESS:   16420865  HIT:   15835099  MISS:     585766
L1D PREFETCH  ACCESS:          0  HIT:          0  MISS:          0
L1D WRITEBACK ACCESS:          0  HIT:          0  MISS:          0
L1I TOTAL     ACCESS:   35498455  HIT:   35498453  MISS:          2
L1I LOAD      ACCESS:   35498455  HIT:   35498453  MISS:          2
L1I RFO       ACCESS:          0  HIT:          0  MISS:          0
L1I PREFETCH  ACCESS:          0  HIT:          0  MISS:          0
L1I WRITEBACK ACCESS:          0  HIT:          0  MISS:          0
L2C TOTAL     ACCESS:    6635209  HIT:    2526174  MISS:    4109035
L2C LOAD      ACCESS:    5219049  HIT:    1535538  MISS:    3683511
L2C RFO       ACCESS:     585758  HIT:     160798  MISS:     424960
L2C PREFETCH  ACCESS:          0  HIT:          0  MISS:          0
L2C WRITEBACK ACCESS:     830402  HIT:     829838  MISS:        564
LLC TOTAL     ACCESS:    4672914  HIT:    2908852  MISS:    1764062
LLC LOAD      ACCESS:    3683507  HIT:    1922467  MISS:    1761040
LLC RFO       ACCESS:     424958  HIT:     422227  MISS:       2731
LLC PREFETCH  ACCESS:          0  HIT:          0  MISS:          0
LLC WRITEBACK ACCESS:     564449  HIT:     564158  MISS:        291

CPU 4 cumulative IPC: 0.385372 instructions: 241783263 cycles: 627401966
L1D TOTAL     ACCESS:   71720887  HIT:   67195391  MISS:    4525496
L1D LOAD      ACCESS:   63613802  HIT:   59113835  MISS:    4499967
L1D RFO       ACCESS:    8107085  HIT:    8081556  MISS:      25529
L1D PREFETCH  ACCESS:          0  HIT:          0  MISS:          0
L1D WRITEBACK ACCESS:          0  HIT:          0  MISS:          0
L1I TOTAL     ACCESS:   65465700  HIT:   65465700  MISS:          0
L1I LOAD      ACCESS:   65465700  HIT:   65465700  MISS:          0
L1I RFO       ACCESS:          0  HIT:          0  MISS:          0
L1I PREFETCH  ACCESS:          0  HIT:          0  MISS:          0
L1I WRITEBACK ACCESS:          0  HIT:          0  MISS:          0
L2C TOTAL     ACCESS:    5469930  HIT:    2365722  MISS:    3104208
L2C LOAD      ACCESS:    4499967  HIT:    1421288  MISS:    3078679
L2C RFO       ACCESS:      25529  HIT:          0  MISS:      25529
L2C PREFETCH  ACCESS:          0  HIT:          0  MISS:          0
L2C WRITEBACK ACCESS:     944434  HIT:     944434  MISS:          0
LLC TOTAL     ACCESS:    3129764  HIT:     527545  MISS:    2602219
LLC LOAD      ACCESS:    3078679  HIT:     503640  MISS:    2575039
LLC RFO       ACCESS:      25529  HIT:        192  MISS:      25337
LLC PREFETCH  ACCESS:          0  HIT:          0  MISS:          0
LLC WRITEBACK ACCESS:      25556  HIT:      23713  MISS:       1843

CPU 5 cumulative IPC: 0.464685 instructions: 291544500 cycles: 627401966
L1D TOTAL     ACCESS:  110263659  HIT:  104203733  MISS:    6059926
L1D LOAD      ACCESS:   93986949  HIT:   88117144  MISS:    5869805
L1D RFO       ACCESS:   16276710  HIT:   16086589  MISS:     190121
L1D PREFETCH  ACCESS:          0  HIT:          0  MISS:          0
L1D WRITEBACK ACCESS:          0  HIT:          0  MISS:          0
L1I TOTAL     ACCESS:   74306043  HIT:   74306043  MISS:          0
L1I LOAD      ACCESS:   74306043  HIT:   74306043  MISS:          0
L1I RFO       ACCESS:          0  HIT:          0  MISS:          0
L1I PREFETCH  ACCESS:          0  HIT:          0  MISS:          0
L1I WRITEBACK ACCESS:          0  HIT:          0  MISS:          0
L2C TOTAL     ACCESS:    6261925  HIT:     704227  MISS:    5557698
L2C LOAD      ACCESS:    5868490  HIT:     454199  MISS:    5414291
L2C RFO       ACCESS:     186803  HIT:      44750  MISS:     142053
L2C PREFETCH  ACCESS:          0  HIT:          0  MISS:          0
L2C WRITEBACK ACCESS:     206632  HIT:     205278  MISS:       1354
LLC TOTAL     ACCESS:    5699890  HIT:     159344  MISS:    5540546
LLC LOAD      ACCESS:    5414291  HIT:      16159  MISS:    5398132
LLC RFO       ACCESS:     142053  HIT:          0  MISS:     142053
LLC PREFETCH  ACCESS:          0  HIT:          0  MISS:          0
LLC WRITEBACK ACCESS:     143546  HIT:     143185  MISS:        361

CPU 6 cumulative IPC: 0.43079 instructions: 270278448 cycles: 627401966
L1D TOTAL     ACCESS:   70174530  HIT:   59246594  MISS:   10927936
L1D LOAD      ACCESS:   48647120  HIT:   38186280  MISS:   10460840
L1D RFO       ACCESS:   21527410  HIT:   21060314  MISS:     467096
L1D PREFETCH  ACCESS:          0  HIT:          0  MISS:          0
L1D WRITEBACK ACCESS:          0  HIT:          0  MISS:          0
L1I TOTAL     ACCESS:  116352359  HIT:  115585628  MISS:     766731
L1I LOAD      ACCESS:  116352359  HIT:  115585628  MISS:     766731
L1I RFO       ACCESS:          0  HIT:          0  MISS:          0
L1I PREFETCH  ACCESS:          0  HIT:          0  MISS:          0
L1I WRITEBACK ACCESS:          0  HIT:          0  MISS:          0
L2C TOTAL     ACCESS:   12489663  HIT:   11224195  MISS:    1265468
L2C LOAD      ACCESS:   11227532  HIT:   10312335  MISS:     915197
L2C RFO       ACCESS:     467088  HIT:     116895  MISS:     350193
L2C PREFETCH  ACCESS:          0  HIT:          0  MISS:          0
L2C WRITEBACK ACCESS:     795043  HIT:     794965  MISS:         78
LLC TOTAL     ACCESS:    1716069  HIT:    1191315  MISS:     524754
LLC LOAD      ACCESS:     915190  HIT:     766929  MISS:     148261
LLC RFO       ACCESS:     350193  HIT:      13510  MISS:     336683
LLC PREFETCH  ACCESS:          0  HIT:          0  MISS:          0
LLC WRITEBACK ACCESS:     450686  HIT:     410876  MISS:      39810

CPU 7 cumulative IPC: 0.449981 instructions: 282319038 cycles: 627401966
L1D TOTAL     ACCESS:   68121303  HIT:   62781701  MISS:    5339602
L1D LOAD      ACCESS:   56668806  HIT:   52276553  MISS:    4392253
L1D RFO       ACCESS:   11452497  HIT:   10505148  MISS:     947349
L1D PREFETCH  ACCESS:          0  HIT:          0  MISS:          0
L1D WRITEBACK ACCESS:          0  HIT:          0  MISS:          0
L1I TOTAL     ACCESS:   76141888  HIT:   76132949  MISS:       8939
L1I LOAD      ACCESS:   76141888  HIT:   76132949  MISS:       8939
L1I RFO       ACCESS:          0  HIT:          0  MISS:          0
L1I PREFETCH  ACCESS:          0  HIT:          0  MISS:          0
L1I WRITEBACK ACCESS:          0  HIT:          0  MISS:          0
L2C TOTAL     ACCESS:    7250140  HIT:    3409707  MISS:    3840433
L2C LOAD      ACCESS:    4401087  HIT:    1287854  MISS:    3113233
L2C RFO       ACCESS:     947339  HIT:     224772  MISS:     722567
L2C PREFETCH  ACCESS:          0  HIT:          0  MISS:          0
L2C WRITEBACK ACCESS:    1901714  HIT:    1897081  MISS:       4633
LLC TOTAL     ACCESS:    5366790  HIT:    1991518  MISS:    3375272
LLC LOAD      ACCESS:    3113233  HIT:     390334  MISS:    2722899
LLC RFO       ACCESS:     722567  HIT:      78358  MISS:     644209
LLC PREFETCH  ACCESS:          0  HIT:          0  MISS:          0
LLC WRITEBACK ACCESS:    1530990  HIT:    1522826  MISS:       8164

Region of Interest Statistics

CPU 0 cumulative IPC: 0.159387 instructions: 100000001 cycles: 627401965
L1D TOTAL     ACCESS:   19672455  HIT:   14211338  MISS:    5461117
L1D LOAD      ACCESS:   15238074  HIT:   10054219  MISS:    5183855
L1D RFO       ACCESS:    4434381  HIT:    4157119  MISS:     277262
L1D PREFETCH  ACCESS:          0  HIT:          0  MISS:          0
L1D WRITEBACK ACCESS:          0  HIT:          0  MISS:          0
L1D PREFETCH  REQUESTED:          0  ISSUED:          0  USEFUL:          0  USELESS:          0
L1I TOTAL     ACCESS:   25350742  HIT:   25350742  MISS:          0
L1I LOAD      ACCESS:   25350742  HIT:   25350742  MISS:          0
L1I RFO       ACCESS:          0  HIT:          0  MISS:          0
L1I PREFETCH  ACCESS:          0  HIT:          0  MISS:          0
L1I WRITEBACK ACCESS:          0  HIT:          0  MISS:          0
L1I PREFETCH  REQUESTED:          0  ISSUED:          0  USEFUL:          0  USELESS:          0
L2C TOTAL     ACCESS:    7678310  HIT:    4264890  MISS:    3413420
L2C LOAD      ACCESS:    5183855  HIT:    1990411  MISS:    3193444
L2C RFO       ACCESS:     277262  HIT:      57286  MISS:     219976
L2C PREFETCH  ACCESS:          0  HIT:          0  MISS:          0
L2C WRITEBACK ACCESS:    2217193  HIT:    2217193  MISS:          0
L2C PREFETCH  REQUESTED:          0  ISSUED:          0  USEFUL:          0  USELESS:          0
LLC TOTAL     ACCESS:    5630469  HIT:    3076972  MISS:    2553497
LLC LOAD      ACCESS:    3193445  HIT:     639960  MISS:    2553485
LLC RFO       ACCESS:     219976  HIT:     219971  MISS:          5
LLC PREFETCH  ACCESS:          0  HIT:          0  MISS:          0
LLC WRITEBACK ACCESS:    2217048  HIT:    2217041  MISS:          7
LLC PREFETCH  REQUESTED:          0  ISSUED:          0  USEFUL:          0  USELESS:          0
Major fault: 0 Minor fault: 56129

CPU 1 cumulative IPC: 0.557876 instructions: 100000000 cycles: 179251282
L1D TOTAL     ACCESS:   25680115  HIT:   21943814  MISS:    3736301
L1D LOAD      ACCESS:   10659091  HIT:   10092974  MISS:     566117
L1D RFO       ACCESS:   15021024  HIT:   11850840  MISS:    3170184
L1D PREFETCH  ACCESS:          0  HIT:          0  MISS:          0
L1D WRITEBACK ACCESS:          0  HIT:          0  MISS:          0
L1D PREFETCH  REQUESTED:          0  ISSUED:          0  USEFUL:          0  USELESS:          0
L1I TOTAL     ACCESS:   23471639  HIT:   23471639  MISS:          0
L1I LOAD      ACCESS:   23471639  HIT:   23471639  MISS:          0
L1I RFO       ACCESS:          0  HIT:          0  MISS:          0
L1I PREFETCH  ACCESS:          0  HIT:          0  MISS:          0
L1I WRITEBACK ACCESS:          0  HIT:          0  MISS:          0
L1I PREFETCH  REQUESTED:          0  ISSUED:          0  USEFUL:          0  USELESS:          0
L2C TOTAL     ACCESS:    6906494  HIT:    4100521  MISS:    2805973
L2C LOAD      ACCESS:     566117  HIT:          0  MISS:     566117
L2C RFO       ACCESS:    3170184  HIT:     930364  MISS:    2239820
L2C PREFETCH  ACCESS:          0  HIT:          0  MISS:          0
L2C WRITEBACK ACCESS:    3170193  HIT:    3170157  MISS:         36
L2C PREFETCH  REQUESTED:          0  ISSUED:          0  USEFUL:          0  USELESS:          0
LLC TOTAL     ACCESS:    5044554  HIT:    2780110  MISS:    2264444
LLC LOAD      ACCESS:     566117  HIT:          0  MISS:     566117
LLC RFO       ACCESS:    2238573  HIT:     540282  MISS:    1698291
LLC PREFETCH  ACCESS:          0  HIT:          0  MISS:          0
LLC WRITEBACK ACCESS:    2239864  HIT:    2239828  MISS:         36
LLC PREFETCH  REQUESTED:          0  ISSUED:          0  USEFUL:          0  USELESS:          0
Major fault: 0 Minor fault: 85660

CPU 2 cumulative IPC: 0.207085 instructions: 100000001 cycles: 482893991
L1D TOTAL     ACCESS:   30886226  HIT:   29143644  MISS:    1742582
L1D LOAD      ACCESS:   19913240  HIT:   18173352  MISS:    1739888
L1D RFO       ACCESS:   10972986  HIT:   10970292  MISS:       2694
L1D PREFETCH  ACCESS:          0  HIT:          0  MISS:          0
L1D WRITEBACK ACCESS:          0  HIT:          0  MISS:          0
L1D PREFETCH  REQUESTED:          0  ISSUED:          0  USEFUL:          0  USELESS:          0
L1I TOTAL     ACCESS:   38923375  HIT:   38923286  MISS:         89
L1I LOAD      ACCESS:   38923375  HIT:   38923286  MISS:         89
L1I RFO       ACCESS:          0  HIT:          0  MISS:          0
L1I PREFETCH  ACCESS:          0  HIT:          0  MISS:          0
L1I WRITEBACK ACCESS:          0  HIT:          0  MISS:          0
L1I PREFETCH  REQUESTED:          0  ISSUED:          0  USEFUL:          0  USELESS:          0
L2C TOTAL     ACCESS:    1761421  HIT:     801011  MISS:     960410
L2C LOAD      ACCESS:    1739977  HIT:     782008  MISS:     957969
L2C RFO       ACCESS:       2694  HIT:        320  MISS:       2374
L2C PREFETCH  ACCESS:          0  HIT:          0  MISS:          0
L2C WRITEBACK ACCESS:      18750  HIT:      18683  MISS:         67
L2C PREFETCH  REQUESTED:          0  ISSUED:          0  USEFUL:          0  USELESS:          0
LLC TOTAL     ACCESS:     970790  HIT:      16602  MISS:     954188
LLC LOAD      ACCESS:     957969  HIT:       7931  MISS:     950038
LLC RFO       ACCESS:       2374  HIT:         22  MISS:       2352
LLC PREFETCH  ACCESS:          0  HIT:          0  MISS:          0
LLC WRITEBACK ACCESS:      10447  HIT:       8649  MISS:       1798
LLC PREFETCH  REQUESTED:          0  ISSUED:          0  USEFUL:          0  USELESS:          0
Major fault: 0 Minor fault: 8987

CPU 3 cumulative IPC: 0.236075 instructions: 100000001 cycles: 423594004
L1D TOTAL     ACCESS:   38871631  HIT:   34836674  MISS:    4034957
L1D LOAD      ACCESS:   27903223  HIT:   24261815  MISS:    3641408
L1D RFO       ACCESS:   10968408  HIT:   10574859  MISS:     393549
L1D PREFETCH  ACCESS:          0  HIT:          0  MISS:          0
L1D WRITEBACK ACCESS:          0  HIT:          0  MISS:          0
L1D PREFETCH  REQUESTED:          0  ISSUED:          0  USEFUL:          0  USELESS:          0
L1I TOTAL     ACCESS:   23873125  HIT:   23873125  MISS:          0
L1I LOAD      ACCESS:   23873125  HIT:   23873125  MISS:          0
L1I RFO       ACCESS:          0  HIT:          0  MISS:          0
L1I PREFETCH  ACCESS:          0  HIT:          0  MISS:          0
L1I WRITEBACK ACCESS:          0  HIT:          0  MISS:          0
L1I PREFETCH  REQUESTED:          0  ISSUED:          0  USEFUL:          0  USELESS:          0
L2C TOTAL     ACCESS:    4596089  HIT:    1681933  MISS:    2914156
L2C LOAD      ACCESS:    3641377  HIT:    1017712  MISS:    2623665
L2C RFO       ACCESS:     393543  HIT:     103457  MISS:     290086
L2C PREFETCH  ACCESS:          0  HIT:          0  MISS:          0
L2C WRITEBACK ACCESS:     561169  HIT:     560764  MISS:        405
L2C PREFETCH  REQUESTED:          0  ISSUED:          0  USEFUL:          0  USELESS:          0
LLC TOTAL     ACCESS:    3302105  HIT:    2049659  MISS:    1252446
LLC LOAD      ACCESS:    2623663  HIT:    1373224  MISS:    1250439
LLC RFO       ACCESS:     290085  HIT:     288250  MISS:       1835
LLC PREFETCH  ACCESS:          0  HIT:          0  MISS:          0
LLC WRITEBACK ACCESS:     388357  HIT:     388185  MISS:        172
LLC PREFETCH  REQUESTED:          0  ISSUED:          0  USEFUL:          0  USELESS:          0
Major fault: 0 Minor fault: 22248

CPU 4 cumulative IPC: 0.391362 instructions: 100000001 cycles: 255517977
L1D TOTAL     ACCESS:   29663593  HIT:   27791832  MISS:    1871761
L1D LOAD      ACCESS:   26310484  HIT:   24449274  MISS:    1861210
L1D RFO       ACCESS:    3353109  HIT:    3342558  MISS:      10551
L1D PREFETCH  ACCESS:          0  HIT:          0  MISS:          0
L1D WRITEBACK ACCESS:          0  HIT:          0  MISS:          0
L1D PREFETCH  REQUESTED:          0  ISSUED:          0  USEFUL:          0  USELESS:          0
L1I TOTAL     ACCESS:   27076243  HIT:   27076243  MISS:          0
L1I LOAD      ACCESS:   27076243  HIT:   27076243  MISS:          0
L1I RFO       ACCESS:          0  HIT:          0  MISS:          0
L1I PREFETCH  ACCESS:          0  HIT:          0  MISS:          0
L1I WRITEBACK ACCESS:          0  HIT:          0  MISS:          0
L1I PREFETCH  REQUESTED:          0  ISSUED:          0  USEFUL:          0  USELESS:          0
L2C TOTAL     ACCESS:    2262358  HIT:     978488  MISS:    1283870
L2C LOAD      ACCESS:    1861210  HIT:     587891  MISS:    1273319
L2C RFO       ACCESS:      10551  HIT:          0  MISS:      10551
L2C PREFETCH  ACCESS:          0  HIT:          0  MISS:          0
L2C WRITEBACK ACCESS:     390597  HIT:     390597  MISS:          0
L2C PREFETCH  REQUESTED:          0  ISSUED:          0  USEFUL:          0  USELESS:          0
LLC TOTAL     ACCESS:    1294441  HIT:     219015  MISS:    1075426
LLC LOAD      ACCESS:    1273319  HIT:     208963  MISS:    1064356
LLC RFO       ACCESS:      10551  HIT:         78  MISS:      10473
LLC PREFETCH  ACCESS:          0  HIT:          0  MISS:          0
LLC WRITEBACK ACCESS:      10571  HIT:       9974  MISS:        597
LLC PREFETCH  REQUESTED:          0  ISSUED:          0  USEFUL:          0  USELESS:          0
Major fault: 0 Minor fault: 88301

CPU 5 cumulative IPC: 0.47386 instructions: 100000002 cycles: 211032654
L1D TOTAL     ACCESS:   37821844  HIT:   35743189  MISS:    2078655
L1D LOAD      ACCESS:   32237640  HIT:   30224241  MISS:    2013399
L1D RFO       ACCESS:    5584204  HIT:    5518948  MISS:      65256
L1D PREFETCH  ACCESS:          0  HIT:          0  MISS:          0
L1D WRITEBACK ACCESS:          0  HIT:          0  MISS:          0
L1D PREFETCH  REQUESTED:          0  ISSUED:          0  USEFUL:          0  USELESS:          0
L1I TOTAL     ACCESS:   25490272  HIT:   25490272  MISS:          0
L1I LOAD      ACCESS:   25490272  HIT:   25490272  MISS:          0
L1I RFO       ACCESS:          0  HIT:          0  MISS:          0
L1I PREFETCH  ACCESS:          0  HIT:          0  MISS:          0
L1I WRITEBACK ACCESS:          0  HIT:          0  MISS:          0
L1I PREFETCH  REQUESTED:          0  ISSUED:          0  USEFUL:          0  USELESS:          0
L2C TOTAL     ACCESS:    2148001  HIT:     241286  MISS:    1906715
L2C LOAD      ACCESS:    2012958  HIT:     155451  MISS:    1857507
L2C RFO       ACCESS:      64140  HIT:      15416  MISS:      48724
L2C PREFETCH  ACCESS:          0  HIT:          0  MISS:          0
L2C WRITEBACK ACCESS:      70903  HIT:      70419  MISS:        484
L2C PREFETCH  REQUESTED:          0  ISSUED:          0  USEFUL:          0  USELESS:          0
LLC TOTAL     ACCESS:    1955479  HIT:      55065  MISS:    1900414
LLC LOAD      ACCESS:    1857507  HIT:       5949  MISS:    1851558
LLC RFO       ACCESS:      48724  HIT:          0  MISS:      48724
LLC PREFETCH  ACCESS:          0  HIT:          0  MISS:          0
LLC WRITEBACK ACCESS:      49248  HIT:      49116  MISS:        132
LLC PREFETCH  REQUESTED:          0  ISSUED:          0  USEFUL:          0  USELESS:          0
Major fault: 0 Minor fault: 89369

CPU 6 cumulative IPC: 0.437433 instructions: 100000000 cycles: 228606401
L1D TOTAL     ACCESS:   25657251  HIT:   21680330  MISS:    3976921
L1D LOAD      ACCESS:   17711152  HIT:   13912197  MISS:    3798955
L1D RFO       ACCESS:    7946099  HIT:    7768133  MISS:     177966
L1D PREFETCH  ACCESS:          0  HIT:          0  MISS:          0
L1D WRITEBACK ACCESS:          0  HIT:          0  MISS:          0
L1D PREFETCH  REQUESTED:          0  ISSUED:          0  USEFUL:          0  USELESS:          0
L1I TOTAL     ACCESS:   43473096  HIT:   43188991  MISS:     284105
L1I LOAD      ACCESS:   43473096  HIT:   43188991  MISS:     284105
L1I RFO       ACCESS:          0  HIT:          0  MISS:          0
L1I PREFETCH  ACCESS:          0  HIT:          0  MISS:          0
L1I WRITEBACK ACCESS:          0  HIT:          0  MISS:          0
L1I PREFETCH  REQUESTED:          0  ISSUED:          0  USEFUL:          0  USELESS:          0
L2C TOTAL     ACCESS:    4560443  HIT:    4086142  MISS:     474301
L2C LOAD      ACCESS:    4083043  HIT:    3740118  MISS:     342925
L2C RFO       ACCESS:     177965  HIT:      46622  MISS:     131343
L2C PREFETCH  ACCESS:          0  HIT:          0  MISS:          0
L2C WRITEBACK ACCESS:     299435  HIT:     299402  MISS:         33
L2C PREFETCH  REQUESTED:          0  ISSUED:          0  USEFUL:          0  USELESS:          0
LLC TOTAL     ACCESS:     640764  HIT:     450328  MISS:     190436
LLC LOAD      ACCESS:     342922  HIT:     291756  MISS:      51166
LLC RFO       ACCESS:     131343  HIT:       5281  MISS:     126062
LLC PREFETCH  ACCESS:          0  HIT:          0  MISS:          0
LLC WRITEBACK ACCESS:     166499  HIT:     153291  MISS:      13208
LLC PREFETCH  REQUESTED:          0  ISSUED:          0  USEFUL:          0  USELESS:          0
Major fault: 0 Minor fault: 2664

CPU 7 cumulative IPC: 0.382874 instructions: 100000000 cycles: 261182487
L1D TOTAL     ACCESS:   25528425  HIT:   22711441  MISS:    2816984
L1D LOAD      ACCESS:   20640530  HIT:   18300285  MISS:    2340245
L1D RFO       ACCESS:    4887895  HIT:    4411156  MISS:     476739
L1D PREFETCH  ACCESS:          0  HIT:          0  MISS:          0
L1D WRITEBACK ACCESS:          0  HIT:          0  MISS:          0
L1D PREFETCH  REQUESTED:          0  ISSUED:          0  USEFUL:          0  USELESS:          0
L1I TOTAL     ACCESS:   24486386  HIT:   24481914  MISS:       4472
L1I LOAD      ACCESS:   24486386  HIT:   24481914  MISS:       4472
L1I RFO       ACCESS:          0  HIT:          0  MISS:          0
L1I PREFETCH  ACCESS:          0  HIT:          0  MISS:          0
L1I WRITEBACK ACCESS:          0  HIT:          0  MISS:          0
L1I PREFETCH  REQUESTED:          0  ISSUED:          0  USEFUL:          0  USELESS:          0
L2C TOTAL     ACCESS:    3872396  HIT:    1806064  MISS:    2066332
L2C LOAD      ACCESS:    2344672  HIT:     608767  MISS:    1735905
L2C RFO       ACCESS:     476739  HIT:     147522  MISS:     329217
L2C PREFETCH  ACCESS:          0  HIT:          0  MISS:          0
L2C WRITEBACK ACCESS:    1050985  HIT:    1049775  MISS:       1210
L2C PREFETCH  REQUESTED:          0  ISSUED:          0  USEFUL:          0  USELESS:          0
LLC TOTAL     ACCESS:    2864824  HIT:    1031079  MISS:    1833745
LLC LOAD      ACCESS:    1735905  HIT:     211348  MISS:    1524557
LLC RFO       ACCESS:     329217  HIT:      22712  MISS:     306505
LLC PREFETCH  ACCESS:          0  HIT:          0  MISS:          0
LLC WRITEBACK ACCESS:     799702  HIT:     797019  MISS:       2683
LLC PREFETCH  REQUESTED:          0  ISSUED:          0  USEFUL:          0  USELESS:          0
Major fault: 0 Minor fault: 10640

DRAM Statistics
 CHANNEL 0
 RQ ROW_BUFFER_HIT:    4430438  ROW_BUFFER_MISS:    9282981
 DBUS_CONGESTED:   25153071
 WQ ROW_BUFFER_HIT:     521862  ROW_BUFFER_MISS:    5250860  FULL:          0

 CHANNEL 1
 RQ ROW_BUFFER_HIT:    4403212  ROW_BUFFER_MISS:    9307925
 DBUS_CONGESTED:   25153071
 WQ ROW_BUFFER_HIT:     525647  ROW_BUFFER_MISS:    5246928  FULL:          0

 AVG_CONGESTED_CYCLE: 13
