
*** ChampSim Multicore Out-of-Order Simulator ***

Warmup Instructions: 20000000
Simulation Instructions: 100000000
Number of CPUs: 8
LLC sets: 16384
LLC ways: 16
Off-chip DRAM Size: 8192 MB Channels: 2 Width: 64-bit Data Rate: 1600 MT/s

CPU 0 runs /scratch/user/djimenez/champsim-traces/speccpu2017/xz/603.bwaves_s/603.bwaves_s-2609B.champsimtrace.xz
CPU 1 runs /scratch/user/djimenez/champsim-traces/speccpu2017/xz/619.lbm_s/619.lbm_s-2676B.champsimtrace.xz
CPU 2 runs /scratch/user/djimenez/champsim-traces/speccpu2017/xz/649.fotonik3d_s/649.fotonik3d_s-8225B.champsimtrace.xz
CPU 3 runs /scratch/user/djimenez/champsim-traces/speccpu2017/xz/623.xalancbmk_s/623.xalancbmk_s-325B.champsimtrace.xz
CPU 4 runs /scratch/user/djimenez/champsim-traces/speccpu2017/xz/619.lbm_s/619.lbm_s-3766B.champsimtrace.xz
CPU 5 runs /scratch/user/djimenez/champsim-traces/speccpu2017/xz/602.gcc_s/602.gcc_s-2226B.champsimtrace.xz
CPU 6 runs /scratch/user/djimenez/champsim-traces/speccpu2017/xz/623.xalancbmk_s/623.xalancbmk_s-165B.champsimtrace.xz
CPU 7 runs /scratch/user/djimenez/champsim-traces/speccpu2017/xz/602.gcc_s/602.gcc_s-2375B.champsimtrace.xz
Heartbeat CPU 4 instructions: 10000000 cycles: 4267793 heartbeat IPC: 2.34313 cumulative IPC: 2.34313 (Simulation time: 0 hr 4 min 12 sec) 
Heartbeat CPU 6 instructions: 10000001 cycles: 4307242 heartbeat IPC: 2.32167 cumulative IPC: 2.32167 (Simulation time: 0 hr 4 min 15 sec) 
Heartbeat CPU 2 instructions: 10000001 cycles: 4461843 heartbeat IPC: 2.24123 cumulative IPC: 2.24123 (Simulation time: 0 hr 4 min 23 sec) 
Heartbeat CPU 1 instructions: 10000000 cycles: 4845501 heartbeat IPC: 2.06377 cumulative IPC: 2.06377 (Simulation time: 0 hr 4 min 52 sec) 
Heartbeat CPU 0 instructions: 10000001 cycles: 5288169 heartbeat IPC: 1.89101 cumulative IPC: 1.89101 (Simulation time: 0 hr 5 min 19 sec) 
Heartbeat CPU 5 instructions: 10000000 cycles: 5471105 heartbeat IPC: 1.82778 cumulative IPC: 1.82778 (Simulation time: 0 hr 5 min 31 sec) 
Heartbeat CPU 3 instructions: 10000000 cycles: 6126482 heartbeat IPC: 1.63226 cumulative IPC: 1.63226 (Simulation time: 0 hr 6 min 11 sec) 
Heartbeat CPU 7 instructions: 10000002 cycles: 6831914 heartbeat IPC: 1.46372 cumulative IPC: 1.46372 (Simulation time: 0 hr 6 min 56 sec) 
Heartbeat CPU 4 instructions: 20000000 cycles: 8544019 heartbeat IPC: 2.33851 cumulative IPC: 2.34082 (Simulation time: 0 hr 8 min 45 sec) 
Heartbeat CPU 6 instructions: 20000000 cycles: 8613031 heartbeat IPC: 2.32245 cumulative IPC: 2.32206 (Simulation time: 0 hr 8 min 50 sec) 
Heartbeat CPU 2 instructions: 20000000 cycles: 8922982 heartbeat IPC: 2.24158 cumulative IPC: 2.2414 (Simulation time: 0 hr 9 min 9 sec) 
Heartbeat CPU 1 instructions: 20000000 cycles: 9669670 heartbeat IPC: 2.0729 cumulative IPC: 2.06832 (Simulation time: 0 hr 10 min 2 sec) 
Heartbeat CPU 0 instructions: 20000000 cycles: 10577988 heartbeat IPC: 1.89042 cumulative IPC: 1.89072 (Simulation time: 0 hr 11 min 6 sec) 
Heartbeat CPU 5 instructions: 20000000 cycles: 10953830 heartbeat IPC: 1.82391 cumulative IPC: 1.82585 (Simulation time: 0 hr 11 min 29 sec) 
Heartbeat CPU 3 instructions: 20000000 cycles: 12340454 heartbeat IPC: 1.60928 cumulative IPC: 1.62069 (Simulation time: 0 hr 12 min 53 sec) 
Heartbeat CPU 4 instructions: 30000001 cycles: 12811644 heartbeat IPC: 2.34322 cumulative IPC: 0.78054 (Simulation time: 0 hr 13 min 21 sec) 
Heartbeat CPU 6 instructions: 30000001 cycles: 12907652 heartbeat IPC: 2.32849 cumulative IPC: 0.774734 (Simulation time: 0 hr 13 min 28 sec) 
Heartbeat CPU 2 instructions: 30000003 cycles: 13383438 heartbeat IPC: 2.24192 cumulative IPC: 0.747192 (Simulation time: 0 hr 13 min 55 sec) 
Heartbeat CPU 7 instructions: 20000000 cycles: 13417944 heartbeat IPC: 1.51837 cumulative IPC: 1.49054 (Simulation time: 0 hr 13 min 57 sec) 

Warmup complete CPU 0 instructions: 25374506 cycles: 13417945 (Simulation time: 0 hr 13 min 57 sec) 
Warmup complete CPU 1 instructions: 27747853 cycles: 13417945 (Simulation time: 0 hr 13 min 57 sec) 
Warmup complete CPU 2 instructions: 30077408 cycles: 13417945 (Simulation time: 0 hr 13 min 57 sec) 
Warmup complete CPU 3 instructions: 21670214 cycles: 13417945 (Simulation time: 0 hr 13 min 57 sec) 
Warmup complete CPU 4 instructions: 31399215 cycles: 13417945 (Simulation time: 0 hr 13 min 57 sec) 
Warmup complete CPU 5 instructions: 24501915 cycles: 13417945 (Simulation time: 0 hr 13 min 57 sec) 
Warmup complete CPU 6 instructions: 31191455 cycles: 13417945 (Simulation time: 0 hr 13 min 57 sec) 
Warmup complete CPU 7 instructions: 20000001 cycles: 13417945 (Simulation time: 0 hr 13 min 57 sec) 

Heartbeat CPU 1 instructions: 30000001 cycles: 18802248 heartbeat IPC: 1.09498 cumulative IPC: 0.41828 (Simulation time: 0 hr 15 min 30 sec) 
Heartbeat CPU 0 instructions: 30000000 cycles: 23587181 heartbeat IPC: 0.768687 cumulative IPC: 0.454852 (Simulation time: 0 hr 16 min 53 sec) 
Heartbeat CPU 4 instructions: 40000000 cycles: 29611791 heartbeat IPC: 0.595233 cumulative IPC: 0.531114 (Simulation time: 0 hr 18 min 30 sec) 
Heartbeat CPU 3 instructions: 30000001 cycles: 34806394 heartbeat IPC: 0.445118 cumulative IPC: 0.389453 (Simulation time: 0 hr 19 min 53 sec) 
Heartbeat CPU 1 instructions: 40000000 cycles: 46167322 heartbeat IPC: 0.365429 cumulative IPC: 0.374118 (Simulation time: 0 hr 22 min 48 sec) 
Heartbeat CPU 0 instructions: 40000000 cycles: 46569824 heartbeat IPC: 0.435111 cumulative IPC: 0.441166 (Simulation time: 0 hr 22 min 54 sec) 
Heartbeat CPU 2 instructions: 40000000 cycles: 47765413 heartbeat IPC: 0.29085 cumulative IPC: 0.288889 (Simulation time: 0 hr 23 min 12 sec) 
Heartbeat CPU 7 instructions: 30000001 cycles: 47811308 heartbeat IPC: 0.290754 cumulative IPC: 0.290754 (Simulation time: 0 hr 23 min 13 sec) 
Heartbeat CPU 4 instructions: 50000003 cycles: 49207300 heartbeat IPC: 0.510321 cumulative IPC: 0.51973 (Simulation time: 0 hr 23 min 35 sec) 
Heartbeat CPU 6 instructions: 40000000 cycles: 54949539 heartbeat IPC: 0.237858 cumulative IPC: 0.212093 (Simulation time: 0 hr 25 min 6 sec) 
Heartbeat CPU 3 instructions: 40000000 cycles: 58868457 heartbeat IPC: 0.415592 cumulative IPC: 0.403291 (Simulation time: 0 hr 26 min 7 sec) 
Heartbeat CPU 4 instructions: 60000000 cycles: 68476170 heartbeat IPC: 0.518972 cumulative IPC: 0.519464 (Simulation time: 0 hr 28 min 45 sec) 
Heartbeat CPU 0 instructions: 50000001 cycles: 69446163 heartbeat IPC: 0.437133 cumulative IPC: 0.43952 (Simulation time: 0 hr 29 min 0 sec) 
Heartbeat CPU 1 instructions: 50000001 cycles: 72791834 heartbeat IPC: 0.375594 cumulative IPC: 0.37478 (Simulation time: 0 hr 29 min 55 sec) 
Heartbeat CPU 3 instructions: 50000001 cycles: 74890659 heartbeat IPC: 0.624134 cumulative IPC: 0.460851 (Simulation time: 0 hr 30 min 30 sec) 
Heartbeat CPU 7 instructions: 40000000 cycles: 80643703 heartbeat IPC: 0.304577 cumulative IPC: 0.297505 (Simulation time: 0 hr 32 min 4 sec) 
Heartbeat CPU 2 instructions: 50000000 cycles: 82733841 heartbeat IPC: 0.285972 cumulative IPC: 0.287417 (Simulation time: 0 hr 32 min 39 sec) 
Heartbeat CPU 4 instructions: 70000003 cycles: 87840196 heartbeat IPC: 0.516422 cumulative IPC: 0.518673 (Simulation time: 0 hr 33 min 59 sec) 
Heartbeat CPU 0 instructions: 60000000 cycles: 92209726 heartbeat IPC: 0.439299 cumulative IPC: 0.439456 (Simulation time: 0 hr 35 min 13 sec) 
Heartbeat CPU 3 instructions: 60000000 cycles: 92611903 heartbeat IPC: 0.564294 cumulative IPC: 0.483999 (Simulation time: 0 hr 35 min 20 sec) 
Heartbeat CPU 1 instructions: 60000000 cycles: 98322931 heartbeat IPC: 0.391679 cumulative IPC: 0.379862 (Simulation time: 0 hr 36 min 51 sec) 
Heartbeat CPU 6 instructions: 50000003 cycles: 102495832 heartbeat IPC: 0.210321 cumulative IPC: 0.211147 (Simulation time: 0 hr 37 min 55 sec) 
Heartbeat CPU 7 instructions: 50000000 cycles: 106877034 heartbeat IPC: 0.381194 cumulative IPC: 0.320996 (Simulation time: 0 hr 39 min 2 sec) 
Heartbeat CPU 4 instructions: 80000000 cycles: 107019952 heartbeat IPC: 0.521383 cumulative IPC: 0.519228 (Simulation time: 0 hr 39 min 4 sec) 
Heartbeat CPU 0 instructions: 70000003 cycles: 114996771 heartbeat IPC: 0.438846 cumulative IPC: 0.439319 (Simulation time: 0 hr 41 min 5 sec) 
Heartbeat CPU 2 instructions: 60000000 cycles: 117392320 heartbeat IPC: 0.28853 cumulative IPC: 0.287788 (Simulation time: 0 hr 41 min 43 sec) 
Heartbeat CPU 3 instructions: 70000002 cycles: 120823524 heartbeat IPC: 0.354464 cumulative IPC: 0.449975 (Simulation time: 0 hr 42 min 33 sec) 
Heartbeat CPU 1 instructions: 70000002 cycles: 123128761 heartbeat IPC: 0.403131 cumulative IPC: 0.385123 (Simulation time: 0 hr 43 min 10 sec) 
Heartbeat CPU 4 instructions: 90000000 cycles: 126325156 heartbeat IPC: 0.517995 cumulative IPC: 0.519017 (Simulation time: 0 hr 44 min 2 sec) 
Heartbeat CPU 7 instructions: 60000000 cycles: 130858554 heartbeat IPC: 0.416988 cumulative IPC: 0.340598 (Simulation time: 0 hr 45 min 14 sec) 
Heartbeat CPU 0 instructions: 80000000 cycles: 137671618 heartbeat IPC: 0.441017 cumulative IPC: 0.439629 (Simulation time: 0 hr 46 min 58 sec) 
Heartbeat CPU 5 instructions: 30000000 cycles: 142654829 heartbeat IPC: 0.0759296 cumulative IPC: 0.0425427 (Simulation time: 0 hr 48 min 16 sec) 
Heartbeat CPU 4 instructions: 100000000 cycles: 145481711 heartbeat IPC: 0.522014 cumulative IPC: 0.519452 (Simulation time: 0 hr 49 min 3 sec) 
Heartbeat CPU 1 instructions: 80000000 cycles: 146596181 heartbeat IPC: 0.426123 cumulative IPC: 0.392347 (Simulation time: 0 hr 49 min 19 sec) 
Heartbeat CPU 6 instructions: 60000000 cycles: 149455876 heartbeat IPC: 0.212947 cumulative IPC: 0.211768 (Simulation time: 0 hr 50 min 3 sec) 
Heartbeat CPU 3 instructions: 80000000 cycles: 150528653 heartbeat IPC: 0.336642 cumulative IPC: 0.425421 (Simulation time: 0 hr 50 min 19 sec) 
Heartbeat CPU 2 instructions: 70000002 cycles: 152198100 heartbeat IPC: 0.287309 cumulative IPC: 0.287668 (Simulation time: 0 hr 50 min 44 sec) 
Heartbeat CPU 0 instructions: 90000002 cycles: 160624387 heartbeat IPC: 0.435677 cumulative IPC: 0.439013 (Simulation time: 0 hr 52 min 55 sec) 
Heartbeat CPU 4 instructions: 110000001 cycles: 165513798 heartbeat IPC: 0.499199 cumulative IPC: 0.516785 (Simulation time: 0 hr 54 min 26 sec) 
Heartbeat CPU 7 instructions: 70000000 cycles: 168064139 heartbeat IPC: 0.268777 cumulative IPC: 0.323319 (Simulation time: 0 hr 55 min 7 sec) 
Heartbeat CPU 1 instructions: 90000000 cycles: 170323632 heartbeat IPC: 0.421453 cumulative IPC: 0.396749 (Simulation time: 0 hr 55 min 42 sec) 
Heartbeat CPU 3 instructions: 90000002 cycles: 179079389 heartbeat IPC: 0.350254 cumulative IPC: 0.412466 (Simulation time: 0 hr 58 min 2 sec) 
Heartbeat CPU 0 instructions: 100000000 cycles: 183623478 heartbeat IPC: 0.4348 cumulative IPC: 0.438443 (Simulation time: 0 hr 59 min 16 sec) 
Heartbeat CPU 4 instructions: 120000000 cycles: 185647948 heartbeat IPC: 0.496669 cumulative IPC: 0.514433 (Simulation time: 0 hr 59 min 49 sec) 
Heartbeat CPU 2 instructions: 80000000 cycles: 187348624 heartbeat IPC: 0.284491 cumulative IPC: 0.287026 (Simulation time: 1 hr 0 min 14 sec) 
Heartbeat CPU 7 instructions: 80000000 cycles: 192483308 heartbeat IPC: 0.409514 cumulative IPC: 0.335073 (Simulation time: 1 hr 1 min 34 sec) 
Heartbeat CPU 1 instructions: 100000000 cycles: 193133862 heartbeat IPC: 0.4384 cumulative IPC: 0.402035 (Simulation time: 1 hr 1 min 44 sec) 
Heartbeat CPU 6 instructions: 70000000 cycles: 197180526 heartbeat IPC: 0.209535 cumulative IPC: 0.211189 (Simulation time: 1 hr 2 min 46 sec) 
Heartbeat CPU 3 instructions: 100000000 cycles: 204349509 heartbeat IPC: 0.395724 cumulative IPC: 0.410251 (Simulation time: 1 hr 4 min 45 sec) 
Heartbeat CPU 0 instructions: 110000002 cycles: 206657940 heartbeat IPC: 0.434132 cumulative IPC: 0.43793 (Simulation time: 1 hr 5 min 25 sec) 
Heartbeat CPU 4 instructions: 130000000 cycles: 208070504 heartbeat IPC: 0.445979 cumulative IPC: 0.506548 (Simulation time: 1 hr 5 min 52 sec) 
Finished CPU 4 instructions: 100000003 cycles: 197784258 cumulative IPC: 0.505601 (Simulation time: 1 hr 6 min 47 sec) 
Heartbeat CPU 7 instructions: 90000003 cycles: 213847623 heartbeat IPC: 0.46807 cumulative IPC: 0.34925 (Simulation time: 1 hr 7 min 28 sec) 
Heartbeat CPU 1 instructions: 110000002 cycles: 215887673 heartbeat IPC: 0.439487 cumulative IPC: 0.406244 (Simulation time: 1 hr 8 min 5 sec) 
Heartbeat CPU 2 instructions: 90000000 cycles: 222895136 heartbeat IPC: 0.281322 cumulative IPC: 0.286058 (Simulation time: 1 hr 10 min 2 sec) 
Heartbeat CPU 3 instructions: 110000000 cycles: 226907156 heartbeat IPC: 0.443309 cumulative IPC: 0.413744 (Simulation time: 1 hr 11 min 10 sec) 
Heartbeat CPU 0 instructions: 120000000 cycles: 229732730 heartbeat IPC: 0.433373 cumulative IPC: 0.437443 (Simulation time: 1 hr 11 min 54 sec) 
Heartbeat CPU 4 instructions: 140000000 cycles: 231887260 heartbeat IPC: 0.419872 cumulative IPC: 0.497099 (Simulation time: 1 hr 12 min 27 sec) 
Heartbeat CPU 1 instructions: 120000000 cycles: 238115460 heartbeat IPC: 0.449887 cumulative IPC: 0.410562 (Simulation time: 1 hr 14 min 7 sec) 
Heartbeat CPU 3 instructions: 120000000 cycles: 241860240 heartbeat IPC: 0.668758 cumulative IPC: 0.430436 (Simulation time: 1 hr 15 min 8 sec) 
Finished CPU 0 instructions: 100000002 cycles: 228802690 cumulative IPC: 0.437058 (Simulation time: 1 hr 15 min 14 sec) 
Finished CPU 3 instructions: 100000001 cycles: 231256416 cumulative IPC: 0.43242 (Simulation time: 1 hr 15 min 53 sec) 
Heartbeat CPU 6 instructions: 80000000 cycles: 245305600 heartbeat IPC: 0.207792 cumulative IPC: 0.210484 (Simulation time: 1 hr 16 min 4 sec) 
Heartbeat CPU 7 instructions: 100000000 cycles: 246953270 heartbeat IPC: 0.302063 cumulative IPC: 0.342561 (Simulation time: 1 hr 16 min 31 sec) 
Heartbeat CPU 0 instructions: 130000002 cycles: 252887873 heartbeat IPC: 0.43187 cumulative IPC: 0.436905 (Simulation time: 1 hr 18 min 16 sec) 
Finished CPU 1 instructions: 100000001 cycles: 241487475 cumulative IPC: 0.4141 (Simulation time: 1 hr 18 min 52 sec) 
Heartbeat CPU 4 instructions: 150000001 cycles: 257827792 heartbeat IPC: 0.385497 cumulative IPC: 0.485254 (Simulation time: 1 hr 19 min 40 sec) 
Heartbeat CPU 2 instructions: 100000000 cycles: 258642050 heartbeat IPC: 0.279744 cumulative IPC: 0.285138 (Simulation time: 1 hr 19 min 53 sec) 
Heartbeat CPU 1 instructions: 130000001 cycles: 259768064 heartbeat IPC: 0.461838 cumulative IPC: 0.415068 (Simulation time: 1 hr 20 min 11 sec) 
Heartbeat CPU 3 instructions: 130000000 cycles: 263389356 heartbeat IPC: 0.464487 cumulative IPC: 0.433369 (Simulation time: 1 hr 21 min 8 sec) 
Heartbeat CPU 0 instructions: 140000000 cycles: 276004780 heartbeat IPC: 0.432584 cumulative IPC: 0.436524 (Simulation time: 1 hr 24 min 20 sec) 
Heartbeat CPU 7 instructions: 110000000 cycles: 276820213 heartbeat IPC: 0.334818 cumulative IPC: 0.341683 (Simulation time: 1 hr 24 min 33 sec) 
Heartbeat CPU 1 instructions: 140000000 cycles: 281542885 heartbeat IPC: 0.459246 cumulative IPC: 0.418656 (Simulation time: 1 hr 25 min 41 sec) 
Heartbeat CPU 4 instructions: 160000000 cycles: 287965460 heartbeat IPC: 0.331811 cumulative IPC: 0.46841 (Simulation time: 1 hr 27 min 14 sec) 
Heartbeat CPU 3 instructions: 140000000 cycles: 291613062 heartbeat IPC: 0.354312 cumulative IPC: 0.425348 (Simulation time: 1 hr 28 min 7 sec) 
Heartbeat CPU 6 instructions: 90000000 cycles: 293972655 heartbeat IPC: 0.205478 cumulative IPC: 0.209615 (Simulation time: 1 hr 28 min 42 sec) 
Heartbeat CPU 2 instructions: 110000002 cycles: 294788217 heartbeat IPC: 0.276655 cumulative IPC: 0.284048 (Simulation time: 1 hr 28 min 54 sec) 
Heartbeat CPU 0 instructions: 150000002 cycles: 299736157 heartbeat IPC: 0.421383 cumulative IPC: 0.435269 (Simulation time: 1 hr 30 min 4 sec) 
Heartbeat CPU 1 instructions: 150000001 cycles: 303008550 heartbeat IPC: 0.46586 cumulative IPC: 0.422155 (Simulation time: 1 hr 30 min 52 sec) 
Heartbeat CPU 3 instructions: 150000000 cycles: 316867918 heartbeat IPC: 0.395963 cumulative IPC: 0.422903 (Simulation time: 1 hr 34 min 17 sec) 
Heartbeat CPU 7 instructions: 120000000 cycles: 317501259 heartbeat IPC: 0.245815 cumulative IPC: 0.328857 (Simulation time: 1 hr 34 min 28 sec) 
Finished CPU 7 instructions: 100000001 cycles: 304083322 cumulative IPC: 0.328857 (Simulation time: 1 hr 34 min 28 sec) 
Heartbeat CPU 4 instructions: 170000002 cycles: 322758087 heartbeat IPC: 0.287417 cumulative IPC: 0.448053 (Simulation time: 1 hr 35 min 50 sec) 
Heartbeat CPU 0 instructions: 160000000 cycles: 323660452 heartbeat IPC: 0.417985 cumulative IPC: 0.433936 (Simulation time: 1 hr 36 min 4 sec) 
Heartbeat CPU 1 instructions: 160000000 cycles: 324045382 heartbeat IPC: 0.475357 cumulative IPC: 0.425758 (Simulation time: 1 hr 36 min 12 sec) 
Heartbeat CPU 2 instructions: 120000000 cycles: 331573529 heartbeat IPC: 0.271848 cumulative IPC: 0.282637 (Simulation time: 1 hr 38 min 11 sec) 
Heartbeat CPU 3 instructions: 160000000 cycles: 334708799 heartbeat IPC: 0.56051 cumulative IPC: 0.430544 (Simulation time: 1 hr 39 min 7 sec) 
Heartbeat CPU 6 instructions: 100000000 cycles: 343266239 heartbeat IPC: 0.202866 cumulative IPC: 0.208607 (Simulation time: 1 hr 41 min 17 sec) 
Heartbeat CPU 1 instructions: 170000002 cycles: 344980770 heartbeat IPC: 0.47766 cumulative IPC: 0.429035 (Simulation time: 1 hr 41 min 42 sec) 
Heartbeat CPU 0 instructions: 170000002 cycles: 347426754 heartbeat IPC: 0.420764 cumulative IPC: 0.432999 (Simulation time: 1 hr 42 min 19 sec) 
Heartbeat CPU 7 instructions: 130000003 cycles: 353798624 heartbeat IPC: 0.275502 cumulative IPC: 0.323168 (Simulation time: 1 hr 43 min 50 sec) 
Heartbeat CPU 3 instructions: 170000000 cycles: 358506543 heartbeat IPC: 0.420208 cumulative IPC: 0.429831 (Simulation time: 1 hr 44 min 56 sec) 
Heartbeat CPU 4 instructions: 180000000 cycles: 359445145 heartbeat IPC: 0.272576 cumulative IPC: 0.429448 (Simulation time: 1 hr 45 min 11 sec) 
Heartbeat CPU 1 instructions: 180000000 cycles: 365985084 heartbeat IPC: 0.476093 cumulative IPC: 0.431839 (Simulation time: 1 hr 46 min 46 sec) 
Heartbeat CPU 2 instructions: 130000000 cycles: 368254794 heartbeat IPC: 0.272619 cumulative IPC: 0.281602 (Simulation time: 1 hr 47 min 20 sec) 
Finished CPU 2 instructions: 100000002 cycles: 355121748 cumulative IPC: 0.281594 (Simulation time: 1 hr 47 min 24 sec) 
Heartbeat CPU 0 instructions: 180000000 cycles: 371244402 heartbeat IPC: 0.419857 cumulative IPC: 0.432124 (Simulation time: 1 hr 48 min 1 sec) 
Heartbeat CPU 3 instructions: 180000000 cycles: 385620673 heartbeat IPC: 0.368811 cumulative IPC: 0.425386 (Simulation time: 1 hr 51 min 31 sec) 
Heartbeat CPU 1 instructions: 190000002 cycles: 386597277 heartbeat IPC: 0.48515 cumulative IPC: 0.434783 (Simulation time: 1 hr 51 min 46 sec) 
Heartbeat CPU 7 instructions: 140000000 cycles: 389752837 heartbeat IPC: 0.278131 cumulative IPC: 0.318865 (Simulation time: 1 hr 52 min 34 sec) 
Heartbeat CPU 5 instructions: 40000000 cycles: 391717334 heartbeat IPC: 0.0401506 cumulative IPC: 0.0409678 (Simulation time: 1 hr 53 min 4 sec) 
Heartbeat CPU 6 instructions: 110000001 cycles: 392713234 heartbeat IPC: 0.202237 cumulative IPC: 0.207776 (Simulation time: 1 hr 53 min 19 sec) 
Heartbeat CPU 0 instructions: 190000000 cycles: 394925562 heartbeat IPC: 0.422277 cumulative IPC: 0.431513 (Simulation time: 1 hr 53 min 53 sec) 
Heartbeat CPU 4 instructions: 190000000 cycles: 397226858 heartbeat IPC: 0.264678 cumulative IPC: 0.413229 (Simulation time: 1 hr 54 min 28 sec) 
Heartbeat CPU 2 instructions: 140000000 cycles: 404713735 heartbeat IPC: 0.274281 cumulative IPC: 0.280919 (Simulation time: 1 hr 56 min 14 sec) 
Heartbeat CPU 1 instructions: 200000000 cycles: 406948684 heartbeat IPC: 0.491366 cumulative IPC: 0.43771 (Simulation time: 1 hr 56 min 46 sec) 
Heartbeat CPU 3 instructions: 190000001 cycles: 408086274 heartbeat IPC: 0.445125 cumulative IPC: 0.426509 (Simulation time: 1 hr 57 min 1 sec) 
Heartbeat CPU 7 instructions: 150000000 cycles: 418369405 heartbeat IPC: 0.349448 cumulative IPC: 0.321026 (Simulation time: 1 hr 59 min 27 sec) 
Heartbeat CPU 0 instructions: 200000000 cycles: 418665758 heartbeat IPC: 0.421227 cumulative IPC: 0.43091 (Simulation time: 1 hr 59 min 31 sec) 
Heartbeat CPU 1 instructions: 210000000 cycles: 427229435 heartbeat IPC: 0.493078 cumulative IPC: 0.440423 (Simulation time: 2 hr 1 min 31 sec) 
Heartbeat CPU 4 instructions: 200000000 cycles: 432737710 heartbeat IPC: 0.281604 cumulative IPC: 0.402082 (Simulation time: 2 hr 2 min 52 sec) 
Heartbeat CPU 3 instructions: 200000000 cycles: 435926410 heartbeat IPC: 0.359194 cumulative IPC: 0.422074 (Simulation time: 2 hr 3 min 39 sec) 
Heartbeat CPU 2 instructions: 150000003 cycles: 441161790 heartbeat IPC: 0.274363 cumulative IPC: 0.280361 (Simulation time: 2 hr 4 min 56 sec) 
Heartbeat CPU 6 instructions: 120000000 cycles: 442168739 heartbeat IPC: 0.202202 cumulative IPC: 0.207133 (Simulation time: 2 hr 5 min 11 sec) 
Heartbeat CPU 0 instructions: 210000002 cycles: 442501989 heartbeat IPC: 0.419529 cumulative IPC: 0.430278 (Simulation time: 2 hr 5 min 16 sec) 
Heartbeat CPU 7 instructions: 160000000 cycles: 447084633 heartbeat IPC: 0.348247 cumulative IPC: 0.322829 (Simulation time: 2 hr 6 min 18 sec) 
Heartbeat CPU 1 instructions: 220000000 cycles: 447521132 heartbeat IPC: 0.492812 cumulative IPC: 0.442872 (Simulation time: 2 hr 6 min 24 sec) 
Heartbeat CPU 3 instructions: 210000003 cycles: 461076837 heartbeat IPC: 0.397608 cumulative IPC: 0.420699 (Simulation time: 2 hr 9 min 34 sec) 
Heartbeat CPU 0 instructions: 220000000 cycles: 466238920 heartbeat IPC: 0.421284 cumulative IPC: 0.429807 (Simulation time: 2 hr 10 min 46 sec) 
Heartbeat CPU 4 instructions: 210000002 cycles: 466698754 heartbeat IPC: 0.294455 cumulative IPC: 0.394018 (Simulation time: 2 hr 10 min 53 sec) 
Heartbeat CPU 1 instructions: 230000001 cycles: 467507217 heartbeat IPC: 0.500348 cumulative IPC: 0.445402 (Simulation time: 2 hr 11 min 4 sec) 
Heartbeat CPU 2 instructions: 160000000 cycles: 477379604 heartbeat IPC: 0.276107 cumulative IPC: 0.280029 (Simulation time: 2 hr 13 min 23 sec) 
Heartbeat CPU 7 instructions: 170000000 cycles: 479009712 heartbeat IPC: 0.313233 cumulative IPC: 0.322171 (Simulation time: 2 hr 13 min 47 sec) 
Heartbeat CPU 3 instructions: 220000000 cycles: 484570179 heartbeat IPC: 0.425652 cumulative IPC: 0.420946 (Simulation time: 2 hr 15 min 7 sec) 
Heartbeat CPU 1 instructions: 240000000 cycles: 487524939 heartbeat IPC: 0.499557 cumulative IPC: 0.447688 (Simulation time: 2 hr 15 min 49 sec) 
Heartbeat CPU 0 instructions: 230000001 cycles: 489795859 heartbeat IPC: 0.424503 cumulative IPC: 0.429544 (Simulation time: 2 hr 16 min 22 sec) 
Heartbeat CPU 6 instructions: 130000003 cycles: 491182663 heartbeat IPC: 0.204024 cumulative IPC: 0.206814 (Simulation time: 2 hr 16 min 41 sec) 
Finished CPU 6 instructions: 100000003 cycles: 483548608 cumulative IPC: 0.206804 (Simulation time: 2 hr 18 min 6 sec) 
Heartbeat CPU 4 instructions: 220000000 cycles: 498121806 heartbeat IPC: 0.318238 cumulative IPC: 0.389105 (Simulation time: 2 hr 18 min 23 sec) 
Heartbeat CPU 3 instructions: 230000001 cycles: 501315484 heartbeat IPC: 0.597182 cumulative IPC: 0.426995 (Simulation time: 2 hr 19 min 9 sec) 
Heartbeat CPU 7 instructions: 180000000 cycles: 505408722 heartbeat IPC: 0.378802 cumulative IPC: 0.325209 (Simulation time: 2 hr 20 min 9 sec) 
Heartbeat CPU 1 instructions: 250000000 cycles: 507323001 heartbeat IPC: 0.5051 cumulative IPC: 0.44999 (Simulation time: 2 hr 20 min 37 sec) 
Heartbeat CPU 2 instructions: 170000001 cycles: 513303943 heartbeat IPC: 0.278363 cumulative IPC: 0.279909 (Simulation time: 2 hr 22 min 2 sec) 
Heartbeat CPU 0 instructions: 240000000 cycles: 513380735 heartbeat IPC: 0.424001 cumulative IPC: 0.429283 (Simulation time: 2 hr 22 min 3 sec) 
Heartbeat CPU 3 instructions: 240000000 cycles: 516512802 heartbeat IPC: 0.658011 cumulative IPC: 0.433973 (Simulation time: 2 hr 22 min 47 sec) 
Heartbeat CPU 1 instructions: 260000000 cycles: 527144226 heartbeat IPC: 0.50451 cumulative IPC: 0.452093 (Simulation time: 2 hr 25 min 15 sec) 
Heartbeat CPU 4 instructions: 230000003 cycles: 529096283 heartbeat IPC: 0.322847 cumulative IPC: 0.385125 (Simulation time: 2 hr 25 min 43 sec) 
Heartbeat CPU 0 instructions: 250000001 cycles: 536753962 heartbeat IPC: 0.42784 cumulative IPC: 0.429219 (Simulation time: 2 hr 27 min 26 sec) 
Heartbeat CPU 3 instructions: 250000001 cycles: 537094577 heartbeat IPC: 0.485867 cumulative IPC: 0.436013 (Simulation time: 2 hr 27 min 31 sec) 
Heartbeat CPU 7 instructions: 190000001 cycles: 538764633 heartbeat IPC: 0.299797 cumulative IPC: 0.323596 (Simulation time: 2 hr 27 min 52 sec) 
Heartbeat CPU 6 instructions: 140000000 cycles: 539398914 heartbeat IPC: 0.207399 cumulative IPC: 0.206868 (Simulation time: 2 hr 28 min 1 sec) 
Heartbeat CPU 1 instructions: 270000002 cycles: 546643777 heartbeat IPC: 0.512832 cumulative IPC: 0.454314 (Simulation time: 2 hr 29 min 41 sec) 
Heartbeat CPU 2 instructions: 180000000 cycles: 548827526 heartbeat IPC: 0.281503 cumulative IPC: 0.280015 (Simulation time: 2 hr 30 min 11 sec) 
Heartbeat CPU 4 instructions: 240000000 cycles: 558921219 heartbeat IPC: 0.33529 cumulative IPC: 0.382401 (Simulation time: 2 hr 32 min 29 sec) 
Heartbeat CPU 0 instructions: 260000000 cycles: 560245080 heartbeat IPC: 0.425693 cumulative IPC: 0.429067 (Simulation time: 2 hr 32 min 47 sec) 
Heartbeat CPU 1 instructions: 280000000 cycles: 566277916 heartbeat IPC: 0.509317 cumulative IPC: 0.456268 (Simulation time: 2 hr 34 min 9 sec) 
Heartbeat CPU 3 instructions: 260000000 cycles: 566974453 heartbeat IPC: 0.334673 cumulative IPC: 0.430543 (Simulation time: 2 hr 34 min 19 sec) 
Heartbeat CPU 7 instructions: 200000000 cycles: 571462077 heartbeat IPC: 0.305834 cumulative IPC: 0.322555 (Simulation time: 2 hr 35 min 21 sec) 
Heartbeat CPU 0 instructions: 270000003 cycles: 583644502 heartbeat IPC: 0.427361 cumulative IPC: 0.428997 (Simulation time: 2 hr 38 min 9 sec) 
Heartbeat CPU 2 instructions: 190000003 cycles: 584370696 heartbeat IPC: 0.281348 cumulative IPC: 0.280098 (Simulation time: 2 hr 38 min 18 sec) 
Heartbeat CPU 1 instructions: 290000000 cycles: 585846370 heartbeat IPC: 0.511027 cumulative IPC: 0.45814 (Simulation time: 2 hr 38 min 38 sec) 
Heartbeat CPU 6 instructions: 150000001 cycles: 587303812 heartbeat IPC: 0.208747 cumulative IPC: 0.207025 (Simulation time: 2 hr 38 min 57 sec) 
Heartbeat CPU 4 instructions: 250000001 cycles: 588810617 heartbeat IPC: 0.334567 cumulative IPC: 0.379916 (Simulation time: 2 hr 39 min 17 sec) 
Heartbeat CPU 3 instructions: 270000001 cycles: 593045214 heartbeat IPC: 0.383572 cumulative IPC: 0.42843 (Simulation time: 2 hr 40 min 16 sec) 
Heartbeat CPU 7 instructions: 210000000 cycles: 601601853 heartbeat IPC: 0.331787 cumulative IPC: 0.323028 (Simulation time: 2 hr 42 min 13 sec) 
Heartbeat CPU 1 instructions: 300000000 cycles: 605523684 heartbeat IPC: 0.508199 cumulative IPC: 0.459803 (Simulation time: 2 hr 43 min 7 sec) 
Heartbeat CPU 0 instructions: 280000000 cycles: 607044990 heartbeat IPC: 0.427341 cumulative IPC: 0.428932 (Simulation time: 2 hr 43 min 28 sec) 
Heartbeat CPU 4 instructions: 260000000 cycles: 618697169 heartbeat IPC: 0.334599 cumulative IPC: 0.377678 (Simulation time: 2 hr 46 min 7 sec) 
Heartbeat CPU 2 instructions: 200000000 cycles: 620181817 heartbeat IPC: 0.279243 cumulative IPC: 0.280047 (Simulation time: 2 hr 46 min 28 sec) 
Heartbeat CPU 3 instructions: 280000000 cycles: 620437059 heartbeat IPC: 0.365072 cumulative IPC: 0.425571 (Simulation time: 2 hr 46 min 31 sec) 
Heartbeat CPU 1 instructions: 310000002 cycles: 625136020 heartbeat IPC: 0.509883 cumulative IPC: 0.461409 (Simulation time: 2 hr 47 min 37 sec) 
Heartbeat CPU 0 instructions: 290000003 cycles: 630465599 heartbeat IPC: 0.426975 cumulative IPC: 0.428857 (Simulation time: 2 hr 48 min 52 sec) 
Heartbeat CPU 7 instructions: 220000000 cycles: 632358988 heartbeat IPC: 0.325128 cumulative IPC: 0.323133 (Simulation time: 2 hr 49 min 18 sec) 
Heartbeat CPU 6 instructions: 160000000 cycles: 635406807 heartbeat IPC: 0.207887 cumulative IPC: 0.207091 (Simulation time: 2 hr 49 min 59 sec) 
Heartbeat CPU 3 instructions: 290000000 cycles: 643708835 heartbeat IPC: 0.429705 cumulative IPC: 0.425724 (Simulation time: 2 hr 51 min 50 sec) 
Heartbeat CPU 1 instructions: 320000000 cycles: 644794457 heartbeat IPC: 0.508687 cumulative IPC: 0.462881 (Simulation time: 2 hr 52 min 5 sec) 
Heartbeat CPU 4 instructions: 270000000 cycles: 647823003 heartbeat IPC: 0.343338 cumulative IPC: 0.376102 (Simulation time: 2 hr 52 min 47 sec) 
Heartbeat CPU 5 instructions: 50000003 cycles: 649455657 heartbeat IPC: 0.0387991 cumulative IPC: 0.040089 (Simulation time: 2 hr 53 min 7 sec) 
Heartbeat CPU 0 instructions: 300000000 cycles: 653942203 heartbeat IPC: 0.425956 cumulative IPC: 0.428751 (Simulation time: 2 hr 54 min 7 sec) 
Heartbeat CPU 2 instructions: 210000001 cycles: 655811888 heartbeat IPC: 0.280662 cumulative IPC: 0.280081 (Simulation time: 2 hr 54 min 31 sec) 
Heartbeat CPU 1 instructions: 330000003 cycles: 664481276 heartbeat IPC: 0.507954 cumulative IPC: 0.464244 (Simulation time: 2 hr 56 min 26 sec) 
Heartbeat CPU 7 instructions: 230000003 cycles: 664809640 heartbeat IPC: 0.30816 cumulative IPC: 0.322387 (Simulation time: 2 hr 56 min 31 sec) 
Heartbeat CPU 3 instructions: 300000000 cycles: 671260165 heartbeat IPC: 0.362959 cumulative IPC: 0.423095 (Simulation time: 2 hr 57 min 56 sec) 
Heartbeat CPU 0 instructions: 310000001 cycles: 677462341 heartbeat IPC: 0.425168 cumulative IPC: 0.428624 (Simulation time: 2 hr 59 min 20 sec) 
Heartbeat CPU 4 instructions: 280000000 cycles: 677512395 heartbeat IPC: 0.336821 cumulative IPC: 0.374346 (Simulation time: 2 hr 59 min 21 sec) 
Heartbeat CPU 6 instructions: 170000001 cycles: 683774624 heartbeat IPC: 0.206749 cumulative IPC: 0.207067 (Simulation time: 3 hr 0 min 44 sec) 
Heartbeat CPU 1 instructions: 340000000 cycles: 684272634 heartbeat IPC: 0.505271 cumulative IPC: 0.465454 (Simulation time: 3 hr 0 min 50 sec) 
Heartbeat CPU 2 instructions: 220000000 cycles: 691672859 heartbeat IPC: 0.278855 cumulative IPC: 0.280017 (Simulation time: 3 hr 2 min 31 sec) 
Heartbeat CPU 3 instructions: 310000002 cycles: 696225498 heartbeat IPC: 0.400556 cumulative IPC: 0.422271 (Simulation time: 3 hr 3 min 32 sec) 
Heartbeat CPU 7 instructions: 240000000 cycles: 697819222 heartbeat IPC: 0.302942 cumulative IPC: 0.321449 (Simulation time: 3 hr 3 min 53 sec) 
Heartbeat CPU 0 instructions: 320000000 cycles: 701025309 heartbeat IPC: 0.424395 cumulative IPC: 0.428479 (Simulation time: 3 hr 4 min 36 sec) 
Heartbeat CPU 1 instructions: 350000000 cycles: 703735988 heartbeat IPC: 0.513786 cumulative IPC: 0.466817 (Simulation time: 3 hr 5 min 13 sec) 
Heartbeat CPU 4 instructions: 290000002 cycles: 707144334 heartbeat IPC: 0.337474 cumulative IPC: 0.372771 (Simulation time: 3 hr 5 min 59 sec) 
Heartbeat CPU 3 instructions: 320000000 cycles: 718646964 heartbeat IPC: 0.446001 cumulative IPC: 0.423025 (Simulation time: 3 hr 8 min 35 sec) 
Heartbeat CPU 1 instructions: 360000000 cycles: 723487799 heartbeat IPC: 0.506283 cumulative IPC: 0.467915 (Simulation time: 3 hr 9 min 44 sec) 
Heartbeat CPU 0 instructions: 330000002 cycles: 724615400 heartbeat IPC: 0.423907 cumulative IPC: 0.428328 (Simulation time: 3 hr 10 min 0 sec) 
Heartbeat CPU 2 instructions: 230000003 cycles: 727525192 heartbeat IPC: 0.278922 cumulative IPC: 0.279962 (Simulation time: 3 hr 10 min 42 sec) 
Heartbeat CPU 7 instructions: 250000001 cycles: 728903539 heartbeat IPC: 0.321706 cumulative IPC: 0.32146 (Simulation time: 3 hr 11 min 2 sec) 
Heartbeat CPU 6 instructions: 180000000 cycles: 732030603 heartbeat IPC: 0.207228 cumulative IPC: 0.207078 (Simulation time: 3 hr 11 min 46 sec) 
Heartbeat CPU 3 instructions: 330000000 cycles: 733310610 heartbeat IPC: 0.681959 cumulative IPC: 0.4283 (Simulation time: 3 hr 12 min 5 sec) 
Heartbeat CPU 4 instructions: 300000000 cycles: 737145659 heartbeat IPC: 0.333319 cumulative IPC: 0.371135 (Simulation time: 3 hr 13 min 0 sec) 
Heartbeat CPU 1 instructions: 370000002 cycles: 743011518 heartbeat IPC: 0.512198 cumulative IPC: 0.4691 (Simulation time: 3 hr 14 min 21 sec) 
Heartbeat CPU 0 instructions: 340000000 cycles: 747962272 heartbeat IPC: 0.428323 cumulative IPC: 0.428327 (Simulation time: 3 hr 15 min 28 sec) 
Heartbeat CPU 3 instructions: 340000000 cycles: 751981614 heartbeat IPC: 0.53559 cumulative IPC: 0.431012 (Simulation time: 3 hr 16 min 22 sec) 
Heartbeat CPU 7 instructions: 260000000 cycles: 758735735 heartbeat IPC: 0.335208 cumulative IPC: 0.32201 (Simulation time: 3 hr 17 min 50 sec) 
Heartbeat CPU 1 instructions: 380000000 cycles: 762485070 heartbeat IPC: 0.513517 cumulative IPC: 0.470254 (Simulation time: 3 hr 18 min 41 sec) 
Heartbeat CPU 2 instructions: 240000000 cycles: 763036490 heartbeat IPC: 0.2816 cumulative IPC: 0.280039 (Simulation time: 3 hr 18 min 49 sec) 
Heartbeat CPU 4 instructions: 310000002 cycles: 767831252 heartbeat IPC: 0.325886 cumulative IPC: 0.369295 (Simulation time: 3 hr 19 min 55 sec) 
Heartbeat CPU 0 instructions: 350000000 cycles: 771420926 heartbeat IPC: 0.426282 cumulative IPC: 0.428264 (Simulation time: 3 hr 20 min 41 sec) 
Heartbeat CPU 6 instructions: 190000001 cycles: 780179540 heartbeat IPC: 0.207689 cumulative IPC: 0.207116 (Simulation time: 3 hr 22 min 36 sec) 
Heartbeat CPU 3 instructions: 350000000 cycles: 780573348 heartbeat IPC: 0.349751 cumulative IPC: 0.427983 (Simulation time: 3 hr 22 min 41 sec) 
Heartbeat CPU 1 instructions: 390000001 cycles: 782092045 heartbeat IPC: 0.510023 cumulative IPC: 0.471269 (Simulation time: 3 hr 23 min 1 sec) 
Heartbeat CPU 7 instructions: 270000000 cycles: 793137194 heartbeat IPC: 0.290685 cumulative IPC: 0.320628 (Simulation time: 3 hr 25 min 25 sec) 
Heartbeat CPU 0 instructions: 360000000 cycles: 794974266 heartbeat IPC: 0.424568 cumulative IPC: 0.428153 (Simulation time: 3 hr 25 min 49 sec) 
Heartbeat CPU 4 instructions: 320000000 cycles: 798805823 heartbeat IPC: 0.322845 cumulative IPC: 0.367463 (Simulation time: 3 hr 26 min 39 sec) 
Heartbeat CPU 2 instructions: 250000000 cycles: 798806050 heartbeat IPC: 0.279567 cumulative IPC: 0.280018 (Simulation time: 3 hr 26 min 39 sec) 
Heartbeat CPU 1 instructions: 400000000 cycles: 801612933 heartbeat IPC: 0.512272 cumulative IPC: 0.472284 (Simulation time: 3 hr 27 min 16 sec) 
Heartbeat CPU 3 instructions: 360000000 cycles: 808024524 heartbeat IPC: 0.364283 cumulative IPC: 0.425783 (Simulation time: 3 hr 28 min 41 sec) 
Heartbeat CPU 0 instructions: 370000000 cycles: 818697256 heartbeat IPC: 0.421532 cumulative IPC: 0.427958 (Simulation time: 3 hr 31 min 3 sec) 
Heartbeat CPU 1 instructions: 410000003 cycles: 821486373 heartbeat IPC: 0.503184 cumulative IPC: 0.473044 (Simulation time: 3 hr 31 min 40 sec) 
Heartbeat CPU 7 instructions: 280000000 cycles: 826331868 heartbeat IPC: 0.301253 cumulative IPC: 0.319837 (Simulation time: 3 hr 32 min 45 sec) 
Heartbeat CPU 6 instructions: 200000000 cycles: 828869629 heartbeat IPC: 0.205381 cumulative IPC: 0.207012 (Simulation time: 3 hr 33 min 19 sec) 
Heartbeat CPU 4 instructions: 330000003 cycles: 829738185 heartbeat IPC: 0.323286 cumulative IPC: 0.365789 (Simulation time: 3 hr 33 min 31 sec) 
Heartbeat CPU 3 instructions: 370000001 cycles: 832971547 heartbeat IPC: 0.400849 cumulative IPC: 0.425024 (Simulation time: 3 hr 34 min 15 sec) 
Heartbeat CPU 2 instructions: 260000000 cycles: 834705261 heartbeat IPC: 0.278558 cumulative IPC: 0.279954 (Simulation time: 3 hr 34 min 38 sec) 
Heartbeat CPU 1 instructions: 420000000 cycles: 840972185 heartbeat IPC: 0.513194 cumulative IPC: 0.47399 (Simulation time: 3 hr 36 min 7 sec) 
Heartbeat CPU 0 instructions: 380000000 cycles: 842289889 heartbeat IPC: 0.423861 cumulative IPC: 0.427841 (Simulation time: 3 hr 36 min 26 sec) 
Heartbeat CPU 3 instructions: 380000000 cycles: 849556768 heartbeat IPC: 0.602946 cumulative IPC: 0.428553 (Simulation time: 3 hr 38 min 8 sec) 
Heartbeat CPU 7 instructions: 290000001 cycles: 858720850 heartbeat IPC: 0.308747 cumulative IPC: 0.319412 (Simulation time: 3 hr 40 min 11 sec) 
Heartbeat CPU 4 instructions: 340000000 cycles: 859736927 heartbeat IPC: 0.333347 cumulative IPC: 0.364639 (Simulation time: 3 hr 40 min 24 sec) 
Heartbeat CPU 1 instructions: 430000002 cycles: 860615416 heartbeat IPC: 0.509081 cumulative IPC: 0.474803 (Simulation time: 3 hr 40 min 35 sec) 
Heartbeat CPU 0 instructions: 390000003 cycles: 865691241 heartbeat IPC: 0.427326 cumulative IPC: 0.427827 (Simulation time: 3 hr 41 min 41 sec) 
Heartbeat CPU 2 instructions: 270000002 cycles: 870288816 heartbeat IPC: 0.281029 cumulative IPC: 0.279999 (Simulation time: 3 hr 42 min 42 sec) 
Heartbeat CPU 3 instructions: 390000001 cycles: 875076303 heartbeat IPC: 0.391857 cumulative IPC: 0.427466 (Simulation time: 3 hr 43 min 46 sec) 
Heartbeat CPU 6 instructions: 210000002 cycles: 877200155 heartbeat IPC: 0.206909 cumulative IPC: 0.207007 (Simulation time: 3 hr 44 min 14 sec) 
Heartbeat CPU 1 instructions: 440000000 cycles: 879992686 heartbeat IPC: 0.516068 cumulative IPC: 0.475726 (Simulation time: 3 hr 44 min 51 sec) 
Heartbeat CPU 0 instructions: 400000000 cycles: 889110569 heartbeat IPC: 0.426998 cumulative IPC: 0.427805 (Simulation time: 3 hr 46 min 52 sec) 
Heartbeat CPU 7 instructions: 300000000 cycles: 889667036 heartbeat IPC: 0.323142 cumulative IPC: 0.319544 (Simulation time: 3 hr 46 min 59 sec) 
Heartbeat CPU 4 instructions: 350000001 cycles: 890005202 heartbeat IPC: 0.330379 cumulative IPC: 0.363456 (Simulation time: 3 hr 47 min 3 sec) 
Heartbeat CPU 1 instructions: 450000002 cycles: 899596088 heartbeat IPC: 0.510116 cumulative IPC: 0.476487 (Simulation time: 3 hr 49 min 10 sec) 
Heartbeat CPU 3 instructions: 400000000 cycles: 903204079 heartbeat IPC: 0.35552 cumulative IPC: 0.425192 (Simulation time: 3 hr 49 min 58 sec) 
Heartbeat CPU 2 instructions: 280000000 cycles: 906140483 heartbeat IPC: 0.278927 cumulative IPC: 0.279956 (Simulation time: 3 hr 50 min 37 sec) 
Heartbeat CPU 5 instructions: 60000000 cycles: 907511669 heartbeat IPC: 0.0387513 cumulative IPC: 0.0397029 (Simulation time: 3 hr 50 min 55 sec) 
Heartbeat CPU 0 instructions: 410000000 cycles: 912766180 heartbeat IPC: 0.422733 cumulative IPC: 0.427671 (Simulation time: 3 hr 52 min 7 sec) 
Heartbeat CPU 6 instructions: 220000000 cycles: 915323030 heartbeat IPC: 0.26231 cumulative IPC: 0.209344 (Simulation time: 3 hr 52 min 47 sec) 
Heartbeat CPU 7 instructions: 310000000 cycles: 917906774 heartbeat IPC: 0.354111 cumulative IPC: 0.320623 (Simulation time: 3 hr 53 min 26 sec) 
Heartbeat CPU 1 instructions: 460000000 cycles: 919009200 heartbeat IPC: 0.515116 cumulative IPC: 0.477315 (Simulation time: 3 hr 53 min 43 sec) 
Heartbeat CPU 4 instructions: 360000000 cycles: 920570535 heartbeat IPC: 0.327168 cumulative IPC: 0.362233 (Simulation time: 3 hr 54 min 7 sec) 
Heartbeat CPU 6 instructions: 230000000 cycles: 927529825 heartbeat IPC: 0.819216 cumulative IPC: 0.217488 (Simulation time: 3 hr 55 min 56 sec) 
Heartbeat CPU 3 instructions: 410000001 cycles: 929601019 heartbeat IPC: 0.378832 cumulative IPC: 0.423856 (Simulation time: 3 hr 56 min 28 sec) 
Heartbeat CPU 0 instructions: 420000000 cycles: 935836916 heartbeat IPC: 0.43345 cumulative IPC: 0.427816 (Simulation time: 3 hr 58 min 4 sec) 
Heartbeat CPU 1 instructions: 470000001 cycles: 938470579 heartbeat IPC: 0.513838 cumulative IPC: 0.478083 (Simulation time: 3 hr 58 min 45 sec) 
Heartbeat CPU 6 instructions: 240000000 cycles: 939995243 heartbeat IPC: 0.802219 cumulative IPC: 0.225355 (Simulation time: 3 hr 59 min 9 sec) 
Heartbeat CPU 2 instructions: 290000001 cycles: 941549073 heartbeat IPC: 0.282417 cumulative IPC: 0.280049 (Simulation time: 3 hr 59 min 33 sec) 
Heartbeat CPU 7 instructions: 320000000 cycles: 950482915 heartbeat IPC: 0.306973 cumulative IPC: 0.320149 (Simulation time: 4 hr 1 min 52 sec) 
Heartbeat CPU 4 instructions: 370000001 cycles: 950632824 heartbeat IPC: 0.332643 cumulative IPC: 0.361284 (Simulation time: 4 hr 1 min 54 sec) 
Heartbeat CPU 6 instructions: 250000001 cycles: 952748782 heartbeat IPC: 0.784096 cumulative IPC: 0.232941 (Simulation time: 4 hr 2 min 27 sec) 
Heartbeat CPU 3 instructions: 420000000 cycles: 953936757 heartbeat IPC: 0.410918 cumulative IPC: 0.423521 (Simulation time: 4 hr 2 min 45 sec) 
Heartbeat CPU 1 instructions: 480000000 cycles: 957831149 heartbeat IPC: 0.516514 cumulative IPC: 0.478871 (Simulation time: 4 hr 3 min 44 sec) 
Heartbeat CPU 0 instructions: 430000000 cycles: 959242338 heartbeat IPC: 0.427251 cumulative IPC: 0.427802 (Simulation time: 4 hr 4 min 6 sec) 
Heartbeat CPU 6 instructions: 260000000 cycles: 966051452 heartbeat IPC: 0.751729 cumulative IPC: 0.240185 (Simulation time: 4 hr 5 min 50 sec) 
Heartbeat CPU 3 instructions: 430000003 cycles: 974332860 heartbeat IPC: 0.49029 cumulative IPC: 0.424939 (Simulation time: 4 hr 8 min 2 sec) 
Heartbeat CPU 2 instructions: 300000000 cycles: 977081286 heartbeat IPC: 0.281435 cumulative IPC: 0.2801 (Simulation time: 4 hr 8 min 45 sec) 
Heartbeat CPU 1 instructions: 490000001 cycles: 977481927 heartbeat IPC: 0.508886 cumulative IPC: 0.479483 (Simulation time: 4 hr 8 min 52 sec) 
Heartbeat CPU 6 instructions: 270000002 cycles: 979665519 heartbeat IPC: 0.734535 cumulative IPC: 0.24715 (Simulation time: 4 hr 9 min 26 sec) 
Heartbeat CPU 4 instructions: 380000000 cycles: 980903675 heartbeat IPC: 0.330351 cumulative IPC: 0.360316 (Simulation time: 4 hr 9 min 46 sec) 
Heartbeat CPU 0 instructions: 440000000 cycles: 982561922 heartbeat IPC: 0.428824 cumulative IPC: 0.427827 (Simulation time: 4 hr 10 min 12 sec) 
Heartbeat CPU 7 instructions: 330000002 cycles: 983383279 heartbeat IPC: 0.303948 cumulative IPC: 0.319599 (Simulation time: 4 hr 10 min 25 sec) 
Heartbeat CPU 3 instructions: 440000000 cycles: 989116712 heartbeat IPC: 0.676413 cumulative IPC: 0.428749 (Simulation time: 4 hr 11 min 54 sec) 
Heartbeat CPU 6 instructions: 280000000 cycles: 993573279 heartbeat IPC: 0.719023 cumulative IPC: 0.253846 (Simulation time: 4 hr 13 min 2 sec) 
Heartbeat CPU 0 instructions: 450000002 cycles: 1006528463 heartbeat IPC: 0.417248 cumulative IPC: 0.427571 (Simulation time: 4 hr 16 min 6 sec) 
Heartbeat CPU 6 instructions: 290000000 cycles: 1007592747 heartbeat IPC: 0.713294 cumulative IPC: 0.260325 (Simulation time: 4 hr 16 min 20 sec) 
Heartbeat CPU 3 instructions: 450000000 cycles: 1008160610 heartbeat IPC: 0.525103 cumulative IPC: 0.430594 (Simulation time: 4 hr 16 min 28 sec) 
Heartbeat CPU 1 instructions: 500000000 cycles: 1009025369 heartbeat IPC: 0.317023 cumulative IPC: 0.474336 (Simulation time: 4 hr 16 min 40 sec) 
Heartbeat CPU 4 instructions: 390000000 cycles: 1011639789 heartbeat IPC: 0.32535 cumulative IPC: 0.35924 (Simulation time: 4 hr 17 min 16 sec) 
Heartbeat CPU 2 instructions: 310000000 cycles: 1014165823 heartbeat IPC: 0.269654 cumulative IPC: 0.279713 (Simulation time: 4 hr 17 min 50 sec) 
Heartbeat CPU 7 instructions: 340000000 cycles: 1018279141 heartbeat IPC: 0.286567 cumulative IPC: 0.318452 (Simulation time: 4 hr 18 min 46 sec) 
Heartbeat CPU 6 instructions: 300000000 cycles: 1022125905 heartbeat IPC: 0.688082 cumulative IPC: 0.266488 (Simulation time: 4 hr 19 min 38 sec) 
Heartbeat CPU 0 instructions: 460000000 cycles: 1031347281 heartbeat IPC: 0.40292 cumulative IPC: 0.42697 (Simulation time: 4 hr 21 min 44 sec) 
Heartbeat CPU 6 instructions: 310000003 cycles: 1036936712 heartbeat IPC: 0.675183 cumulative IPC: 0.272402 (Simulation time: 4 hr 23 min 1 sec) 
Heartbeat CPU 3 instructions: 460000000 cycles: 1038337388 heartbeat IPC: 0.331381 cumulative IPC: 0.427672 (Simulation time: 4 hr 23 min 21 sec) 
Heartbeat CPU 4 instructions: 400000000 cycles: 1043854936 heartbeat IPC: 0.310413 cumulative IPC: 0.357713 (Simulation time: 4 hr 24 min 41 sec) 
Heartbeat CPU 1 instructions: 510000001 cycles: 1049909421 heartbeat IPC: 0.244594 cumulative IPC: 0.465274 (Simulation time: 4 hr 26 min 10 sec) 
Heartbeat CPU 7 instructions: 350000000 cycles: 1051630936 heartbeat IPC: 0.299834 cumulative IPC: 0.317854 (Simulation time: 4 hr 26 min 36 sec) 
Heartbeat CPU 2 instructions: 320000000 cycles: 1051663603 heartbeat IPC: 0.266682 cumulative IPC: 0.279243 (Simulation time: 4 hr 26 min 36 sec) 
Heartbeat CPU 6 instructions: 320000000 cycles: 1052140989 heartbeat IPC: 0.657709 cumulative IPC: 0.278042 (Simulation time: 4 hr 26 min 43 sec) 
Heartbeat CPU 0 instructions: 470000000 cycles: 1055081967 heartbeat IPC: 0.421324 cumulative IPC: 0.426842 (Simulation time: 4 hr 27 min 26 sec) 
Heartbeat CPU 3 instructions: 470000002 cycles: 1065952911 heartbeat IPC: 0.362115 cumulative IPC: 0.425952 (Simulation time: 4 hr 30 min 5 sec) 
Heartbeat CPU 6 instructions: 330000000 cycles: 1067505675 heartbeat IPC: 0.650843 cumulative IPC: 0.283476 (Simulation time: 4 hr 30 min 28 sec) 
Heartbeat CPU 1 instructions: 520000000 cycles: 1069420737 heartbeat IPC: 0.512523 cumulative IPC: 0.466147 (Simulation time: 4 hr 30 min 56 sec) 
Heartbeat CPU 4 instructions: 410000003 cycles: 1074424076 heartbeat IPC: 0.327127 cumulative IPC: 0.356832 (Simulation time: 4 hr 32 min 11 sec) 
Heartbeat CPU 0 instructions: 480000000 cycles: 1078347178 heartbeat IPC: 0.429826 cumulative IPC: 0.426907 (Simulation time: 4 hr 33 min 10 sec) 
Heartbeat CPU 6 instructions: 340000000 cycles: 1082806232 heartbeat IPC: 0.653571 cumulative IPC: 0.288771 (Simulation time: 4 hr 34 min 15 sec) 
Heartbeat CPU 7 instructions: 360000000 cycles: 1086926616 heartbeat IPC: 0.283321 cumulative IPC: 0.316718 (Simulation time: 4 hr 35 min 14 sec) 
Heartbeat CPU 2 instructions: 330000002 cycles: 1087030716 heartbeat IPC: 0.282749 cumulative IPC: 0.279358 (Simulation time: 4 hr 35 min 15 sec) 
Heartbeat CPU 1 instructions: 530000001 cycles: 1088672508 heartbeat IPC: 0.519433 cumulative IPC: 0.467101 (Simulation time: 4 hr 35 min 40 sec) 
Heartbeat CPU 3 instructions: 480000000 cycles: 1088904057 heartbeat IPC: 0.435708 cumulative IPC: 0.426161 (Simulation time: 4 hr 35 min 43 sec) 
Heartbeat CPU 6 instructions: 350000000 cycles: 1098200096 heartbeat IPC: 0.64961 cumulative IPC: 0.293892 (Simulation time: 4 hr 37 min 59 sec) 
Heartbeat CPU 0 instructions: 490000001 cycles: 1101568295 heartbeat IPC: 0.430643 cumulative IPC: 0.426986 (Simulation time: 4 hr 38 min 48 sec) 
Heartbeat CPU 4 instructions: 420000000 cycles: 1104581547 heartbeat IPC: 0.331593 cumulative IPC: 0.356134 (Simulation time: 4 hr 39 min 32 sec) 
Heartbeat CPU 1 instructions: 540000000 cycles: 1108006217 heartbeat IPC: 0.517231 cumulative IPC: 0.467986 (Simulation time: 4 hr 40 min 22 sec) 
Heartbeat CPU 6 instructions: 360000000 cycles: 1113670884 heartbeat IPC: 0.646379 cumulative IPC: 0.298848 (Simulation time: 4 hr 41 min 45 sec) 
Heartbeat CPU 3 instructions: 490000000 cycles: 1114871059 heartbeat IPC: 0.385104 cumulative IPC: 0.425193 (Simulation time: 4 hr 42 min 3 sec) 
Heartbeat CPU 7 instructions: 370000000 cycles: 1119152571 heartbeat IPC: 0.310309 cumulative IPC: 0.316532 (Simulation time: 4 hr 43 min 6 sec) 
Heartbeat CPU 2 instructions: 340000000 cycles: 1122365828 heartbeat IPC: 0.283005 cumulative IPC: 0.279474 (Simulation time: 4 hr 43 min 52 sec) 
Heartbeat CPU 0 instructions: 500000000 cycles: 1124908030 heartbeat IPC: 0.428454 cumulative IPC: 0.427017 (Simulation time: 4 hr 44 min 29 sec) 
Heartbeat CPU 1 instructions: 550000003 cycles: 1127310549 heartbeat IPC: 0.518019 cumulative IPC: 0.468853 (Simulation time: 4 hr 45 min 4 sec) 
Heartbeat CPU 6 instructions: 370000001 cycles: 1129132832 heartbeat IPC: 0.646749 cumulative IPC: 0.303669 (Simulation time: 4 hr 45 min 31 sec) 
Heartbeat CPU 4 instructions: 430000003 cycles: 1134862519 heartbeat IPC: 0.33024 cumulative IPC: 0.355435 (Simulation time: 4 hr 47 min 0 sec) 
Heartbeat CPU 3 instructions: 500000000 cycles: 1142342834 heartbeat IPC: 0.36401 cumulative IPC: 0.423704 (Simulation time: 4 hr 48 min 49 sec) 
Heartbeat CPU 6 instructions: 380000000 cycles: 1144618129 heartbeat IPC: 0.645774 cumulative IPC: 0.308353 (Simulation time: 4 hr 49 min 22 sec) 
Heartbeat CPU 7 instructions: 380000000 cycles: 1146189123 heartbeat IPC: 0.36987 cumulative IPC: 0.317805 (Simulation time: 4 hr 49 min 45 sec) 
Heartbeat CPU 1 instructions: 560000000 cycles: 1146716128 heartbeat IPC: 0.515316 cumulative IPC: 0.469649 (Simulation time: 4 hr 49 min 53 sec) 
Heartbeat CPU 0 instructions: 510000001 cycles: 1148322185 heartbeat IPC: 0.427092 cumulative IPC: 0.427019 (Simulation time: 4 hr 50 min 16 sec) 
Heartbeat CPU 2 instructions: 350000000 cycles: 1157744066 heartbeat IPC: 0.28266 cumulative IPC: 0.279573 (Simulation time: 4 hr 52 min 35 sec) 
Heartbeat CPU 6 instructions: 390000001 cycles: 1160107499 heartbeat IPC: 0.645604 cumulative IPC: 0.312908 (Simulation time: 4 hr 53 min 12 sec) 
Heartbeat CPU 4 instructions: 440000000 cycles: 1164877523 heartbeat IPC: 0.333167 cumulative IPC: 0.354855 (Simulation time: 4 hr 54 min 24 sec) 
Heartbeat CPU 3 instructions: 510000002 cycles: 1164947807 heartbeat IPC: 0.442381 cumulative IPC: 0.42407 (Simulation time: 4 hr 54 min 25 sec) 
Heartbeat CPU 1 instructions: 570000003 cycles: 1165953100 heartbeat IPC: 0.519832 cumulative IPC: 0.470486 (Simulation time: 4 hr 54 min 40 sec) 
Heartbeat CPU 5 instructions: 70000000 cycles: 1170482135 heartbeat IPC: 0.0380271 cumulative IPC: 0.039322 (Simulation time: 4 hr 55 min 44 sec) 
Heartbeat CPU 0 instructions: 520000000 cycles: 1171708568 heartbeat IPC: 0.427599 cumulative IPC: 0.427031 (Simulation time: 4 hr 56 min 2 sec) 
Heartbeat CPU 7 instructions: 390000000 cycles: 1172918157 heartbeat IPC: 0.374125 cumulative IPC: 0.319103 (Simulation time: 4 hr 56 min 20 sec) 
Heartbeat CPU 6 instructions: 400000000 cycles: 1175570450 heartbeat IPC: 0.646707 cumulative IPC: 0.31735 (Simulation time: 4 hr 57 min 0 sec) 
Heartbeat CPU 1 instructions: 580000000 cycles: 1185413015 heartbeat IPC: 0.513877 cumulative IPC: 0.471207 (Simulation time: 4 hr 59 min 23 sec) 
Heartbeat CPU 6 instructions: 410000002 cycles: 1191062986 heartbeat IPC: 0.645472 cumulative IPC: 0.321666 (Simulation time: 5 hr 0 min 47 sec) 
Heartbeat CPU 2 instructions: 360000000 cycles: 1193060699 heartbeat IPC: 0.283153 cumulative IPC: 0.27968 (Simulation time: 5 hr 1 min 16 sec) 
Heartbeat CPU 3 instructions: 520000000 cycles: 1193194102 heartbeat IPC: 0.354029 cumulative IPC: 0.422394 (Simulation time: 5 hr 1 min 18 sec) 
Heartbeat CPU 0 instructions: 530000002 cycles: 1195017312 heartbeat IPC: 0.429024 cumulative IPC: 0.42707 (Simulation time: 5 hr 1 min 45 sec) 
Heartbeat CPU 4 instructions: 450000001 cycles: 1195141545 heartbeat IPC: 0.330425 cumulative IPC: 0.354229 (Simulation time: 5 hr 1 min 46 sec) 
Heartbeat CPU 1 instructions: 590000000 cycles: 1204757506 heartbeat IPC: 0.516943 cumulative IPC: 0.47195 (Simulation time: 5 hr 4 min 6 sec) 
Heartbeat CPU 7 instructions: 400000000 cycles: 1206063538 heartbeat IPC: 0.301701 cumulative IPC: 0.318619 (Simulation time: 5 hr 4 min 25 sec) 
Heartbeat CPU 6 instructions: 420000000 cycles: 1206544457 heartbeat IPC: 0.645933 cumulative IPC: 0.325874 (Simulation time: 5 hr 4 min 32 sec) 
Heartbeat CPU 3 instructions: 530000000 cycles: 1217908322 heartbeat IPC: 0.404625 cumulative IPC: 0.422029 (Simulation time: 5 hr 7 min 21 sec) 
Heartbeat CPU 0 instructions: 540000000 cycles: 1218373393 heartbeat IPC: 0.428154 cumulative IPC: 0.427091 (Simulation time: 5 hr 7 min 29 sec) 
Heartbeat CPU 6 instructions: 430000000 cycles: 1221991930 heartbeat IPC: 0.647355 cumulative IPC: 0.329983 (Simulation time: 5 hr 8 min 24 sec) 
Heartbeat CPU 1 instructions: 600000000 cycles: 1224209876 heartbeat IPC: 0.514076 cumulative IPC: 0.472626 (Simulation time: 5 hr 8 min 58 sec) 
Heartbeat CPU 4 instructions: 460000000 cycles: 1224948693 heartbeat IPC: 0.33549 cumulative IPC: 0.353768 (Simulation time: 5 hr 9 min 10 sec) 
Heartbeat CPU 2 instructions: 370000001 cycles: 1228225539 heartbeat IPC: 0.284375 cumulative IPC: 0.279816 (Simulation time: 5 hr 9 min 59 sec) 
Heartbeat CPU 6 instructions: 440000000 cycles: 1237420088 heartbeat IPC: 0.648166 cumulative IPC: 0.333993 (Simulation time: 5 hr 12 min 12 sec) 
Heartbeat CPU 3 instructions: 540000000 cycles: 1237928669 heartbeat IPC: 0.499492 cumulative IPC: 0.423295 (Simulation time: 5 hr 12 min 20 sec) 
Heartbeat CPU 7 instructions: 410000000 cycles: 1237947248 heartbeat IPC: 0.31364 cumulative IPC: 0.31849 (Simulation time: 5 hr 12 min 20 sec) 
Heartbeat CPU 0 instructions: 550000000 cycles: 1241625226 heartbeat IPC: 0.430074 cumulative IPC: 0.427147 (Simulation time: 5 hr 13 min 15 sec) 
Heartbeat CPU 1 instructions: 610000002 cycles: 1243465365 heartbeat IPC: 0.519333 cumulative IPC: 0.473357 (Simulation time: 5 hr 13 min 42 sec) 
Heartbeat CPU 6 instructions: 450000000 cycles: 1252861673 heartbeat IPC: 0.647602 cumulative IPC: 0.3379 (Simulation time: 5 hr 15 min 59 sec) 
Heartbeat CPU 4 instructions: 470000002 cycles: 1255125419 heartbeat IPC: 0.331381 cumulative IPC: 0.353224 (Simulation time: 5 hr 16 min 33 sec) 
Heartbeat CPU 1 instructions: 620000000 cycles: 1262993725 heartbeat IPC: 0.512076 cumulative IPC: 0.473963 (Simulation time: 5 hr 18 min 29 sec) 
Heartbeat CPU 2 instructions: 380000000 cycles: 1263702627 heartbeat IPC: 0.281872 cumulative IPC: 0.279874 (Simulation time: 5 hr 18 min 40 sec) 
Heartbeat CPU 0 instructions: 560000000 cycles: 1265024934 heartbeat IPC: 0.427356 cumulative IPC: 0.427151 (Simulation time: 5 hr 18 min 58 sec) 
Heartbeat CPU 3 instructions: 550000001 cycles: 1266200014 heartbeat IPC: 0.353715 cumulative IPC: 0.421725 (Simulation time: 5 hr 19 min 15 sec) 
Heartbeat CPU 6 instructions: 460000000 cycles: 1268287904 heartbeat IPC: 0.648246 cumulative IPC: 0.341716 (Simulation time: 5 hr 19 min 45 sec) 
Heartbeat CPU 7 instructions: 420000000 cycles: 1268381813 heartbeat IPC: 0.328574 cumulative IPC: 0.318734 (Simulation time: 5 hr 19 min 47 sec) 
Heartbeat CPU 1 instructions: 630000001 cycles: 1282366459 heartbeat IPC: 0.516189 cumulative IPC: 0.474607 (Simulation time: 5 hr 23 min 8 sec) 
Heartbeat CPU 6 instructions: 470000002 cycles: 1283688020 heartbeat IPC: 0.649346 cumulative IPC: 0.345445 (Simulation time: 5 hr 23 min 27 sec) 
Heartbeat CPU 4 instructions: 480000000 cycles: 1285604861 heartbeat IPC: 0.32809 cumulative IPC: 0.352622 (Simulation time: 5 hr 23 min 56 sec) 
Heartbeat CPU 0 instructions: 570000003 cycles: 1288443252 heartbeat IPC: 0.427016 cumulative IPC: 0.427149 (Simulation time: 5 hr 24 min 38 sec) 
Heartbeat CPU 3 instructions: 560000000 cycles: 1291475446 heartbeat IPC: 0.395641 cumulative IPC: 0.421209 (Simulation time: 5 hr 25 min 22 sec) 
Heartbeat CPU 6 instructions: 480000000 cycles: 1299100603 heartbeat IPC: 0.64882 cumulative IPC: 0.349082 (Simulation time: 5 hr 27 min 15 sec) 
Heartbeat CPU 2 instructions: 390000003 cycles: 1299282869 heartbeat IPC: 0.281055 cumulative IPC: 0.279907 (Simulation time: 5 hr 27 min 17 sec) 
Heartbeat CPU 7 instructions: 430000000 cycles: 1301583630 heartbeat IPC: 0.301188 cumulative IPC: 0.318282 (Simulation time: 5 hr 27 min 51 sec) 
Heartbeat CPU 1 instructions: 640000000 cycles: 1301945794 heartbeat IPC: 0.510743 cumulative IPC: 0.475156 (Simulation time: 5 hr 27 min 57 sec) 
Heartbeat CPU 0 instructions: 580000000 cycles: 1311768898 heartbeat IPC: 0.428713 cumulative IPC: 0.427177 (Simulation time: 5 hr 30 min 22 sec) 
Heartbeat CPU 6 instructions: 490000000 cycles: 1314499252 heartbeat IPC: 0.649408 cumulative IPC: 0.352636 (Simulation time: 5 hr 31 min 3 sec) 
Heartbeat CPU 3 instructions: 570000002 cycles: 1315105616 heartbeat IPC: 0.423188 cumulative IPC: 0.421245 (Simulation time: 5 hr 31 min 12 sec) 
Heartbeat CPU 4 instructions: 490000001 cycles: 1315788043 heartbeat IPC: 0.33131 cumulative IPC: 0.352128 (Simulation time: 5 hr 31 min 22 sec) 
Heartbeat CPU 1 instructions: 650000003 cycles: 1321531313 heartbeat IPC: 0.510581 cumulative IPC: 0.475687 (Simulation time: 5 hr 32 min 48 sec) 
Heartbeat CPU 6 instructions: 500000000 cycles: 1329883715 heartbeat IPC: 0.650006 cumulative IPC: 0.356111 (Simulation time: 5 hr 34 min 53 sec) 
Heartbeat CPU 7 instructions: 440000000 cycles: 1330777497 heartbeat IPC: 0.342538 cumulative IPC: 0.31882 (Simulation time: 5 hr 35 min 7 sec) 
Heartbeat CPU 3 instructions: 580000000 cycles: 1334047145 heartbeat IPC: 0.52794 cumulative IPC: 0.422776 (Simulation time: 5 hr 35 min 58 sec) 
Heartbeat CPU 2 instructions: 400000000 cycles: 1334600604 heartbeat IPC: 0.283144 cumulative IPC: 0.279994 (Simulation time: 5 hr 36 min 6 sec) 
Heartbeat CPU 0 instructions: 590000003 cycles: 1334998252 heartbeat IPC: 0.43049 cumulative IPC: 0.427235 (Simulation time: 5 hr 36 min 12 sec) 
Heartbeat CPU 1 instructions: 660000000 cycles: 1340757962 heartbeat IPC: 0.520111 cumulative IPC: 0.47633 (Simulation time: 5 hr 37 min 42 sec) 
Heartbeat CPU 6 instructions: 510000000 cycles: 1345242349 heartbeat IPC: 0.6511 cumulative IPC: 0.359513 (Simulation time: 5 hr 38 min 52 sec) 
Heartbeat CPU 4 instructions: 500000000 cycles: 1345670572 heartbeat IPC: 0.334644 cumulative IPC: 0.351736 (Simulation time: 5 hr 38 min 58 sec) 
Heartbeat CPU 3 instructions: 590000000 cycles: 1348495834 heartbeat IPC: 0.692104 cumulative IPC: 0.42569 (Simulation time: 5 hr 39 min 41 sec) 
Heartbeat CPU 0 instructions: 600000000 cycles: 1358159179 heartbeat IPC: 0.431762 cumulative IPC: 0.427313 (Simulation time: 5 hr 42 min 9 sec) 
Heartbeat CPU 1 instructions: 670000002 cycles: 1360329060 heartbeat IPC: 0.510958 cumulative IPC: 0.476833 (Simulation time: 5 hr 42 min 41 sec) 
Heartbeat CPU 6 instructions: 520000000 cycles: 1360606155 heartbeat IPC: 0.65088 cumulative IPC: 0.362836 (Simulation time: 5 hr 42 min 45 sec) 
Heartbeat CPU 7 instructions: 450000000 cycles: 1361985885 heartbeat IPC: 0.320427 cumulative IPC: 0.318857 (Simulation time: 5 hr 43 min 5 sec) 
Heartbeat CPU 3 instructions: 600000000 cycles: 1365883317 heartbeat IPC: 0.575126 cumulative IPC: 0.427612 (Simulation time: 5 hr 44 min 3 sec) 
Heartbeat CPU 2 instructions: 410000001 cycles: 1369905281 heartbeat IPC: 0.283249 cumulative IPC: 0.280078 (Simulation time: 5 hr 45 min 1 sec) 
Heartbeat CPU 6 instructions: 530000000 cycles: 1375952798 heartbeat IPC: 0.651608 cumulative IPC: 0.366089 (Simulation time: 5 hr 46 min 27 sec) 
Heartbeat CPU 4 instructions: 510000003 cycles: 1375955340 heartbeat IPC: 0.330199 cumulative IPC: 0.351257 (Simulation time: 5 hr 46 min 27 sec) 
Heartbeat CPU 1 instructions: 680000000 cycles: 1380621179 heartbeat IPC: 0.492802 cumulative IPC: 0.47707 (Simulation time: 5 hr 47 min 34 sec) 
Heartbeat CPU 0 instructions: 610000002 cycles: 1381547822 heartbeat IPC: 0.427558 cumulative IPC: 0.427317 (Simulation time: 5 hr 47 min 48 sec) 
Heartbeat CPU 7 instructions: 460000000 cycles: 1389386974 heartbeat IPC: 0.364949 cumulative IPC: 0.319775 (Simulation time: 5 hr 49 min 44 sec) 
Heartbeat CPU 6 instructions: 540000000 cycles: 1391285262 heartbeat IPC: 0.652211 cumulative IPC: 0.369273 (Simulation time: 5 hr 50 min 11 sec) 
Heartbeat CPU 3 instructions: 610000000 cycles: 1393276796 heartbeat IPC: 0.36505 cumulative IPC: 0.42637 (Simulation time: 5 hr 50 min 39 sec) 
Heartbeat CPU 1 instructions: 690000001 cycles: 1402348665 heartbeat IPC: 0.460247 cumulative IPC: 0.476807 (Simulation time: 5 hr 52 min 49 sec) 
Heartbeat CPU 0 instructions: 620000000 cycles: 1404907248 heartbeat IPC: 0.428093 cumulative IPC: 0.42733 (Simulation time: 5 hr 53 min 27 sec) 
Heartbeat CPU 2 instructions: 420000000 cycles: 1405966698 heartbeat IPC: 0.277305 cumulative IPC: 0.280006 (Simulation time: 5 hr 53 min 42 sec) 
Heartbeat CPU 4 instructions: 520000000 cycles: 1406422832 heartbeat IPC: 0.328219 cumulative IPC: 0.350753 (Simulation time: 5 hr 53 min 49 sec) 
Heartbeat CPU 6 instructions: 550000000 cycles: 1406623833 heartbeat IPC: 0.651951 cumulative IPC: 0.372385 (Simulation time: 5 hr 53 min 52 sec) 
Heartbeat CPU 3 instructions: 620000000 cycles: 1416981819 heartbeat IPC: 0.421852 cumulative IPC: 0.426293 (Simulation time: 5 hr 56 min 24 sec) 
Heartbeat CPU 7 instructions: 470000000 cycles: 1420940576 heartbeat IPC: 0.316921 cumulative IPC: 0.319711 (Simulation time: 5 hr 57 min 19 sec) 
Heartbeat CPU 6 instructions: 560000000 cycles: 1421953916 heartbeat IPC: 0.652312 cumulative IPC: 0.375431 (Simulation time: 5 hr 57 min 33 sec) 
Heartbeat CPU 1 instructions: 700000000 cycles: 1425364292 heartbeat IPC: 0.434487 cumulative IPC: 0.476117 (Simulation time: 5 hr 58 min 21 sec) 
Heartbeat CPU 5 instructions: 80000000 cycles: 1426656808 heartbeat IPC: 0.0390359 cumulative IPC: 0.0392701 (Simulation time: 5 hr 58 min 39 sec) 
Heartbeat CPU 0 instructions: 630000000 cycles: 1428368732 heartbeat IPC: 0.42623 cumulative IPC: 0.427312 (Simulation time: 5 hr 59 min 3 sec) 
Heartbeat CPU 6 instructions: 570000001 cycles: 1437283152 heartbeat IPC: 0.652348 cumulative IPC: 0.378413 (Simulation time: 6 hr 1 min 11 sec) 
Heartbeat CPU 4 instructions: 530000000 cycles: 1437692458 heartbeat IPC: 0.319799 cumulative IPC: 0.350074 (Simulation time: 6 hr 1 min 16 sec) 
Heartbeat CPU 2 instructions: 430000003 cycles: 1442415986 heartbeat IPC: 0.274354 cumulative IPC: 0.279862 (Simulation time: 6 hr 2 min 24 sec) 
Heartbeat CPU 3 instructions: 630000002 cycles: 1445720776 heartbeat IPC: 0.34796 cumulative IPC: 0.424721 (Simulation time: 6 hr 3 min 12 sec) 
Heartbeat CPU 1 instructions: 710000002 cycles: 1450926864 heartbeat IPC: 0.391197 cumulative IPC: 0.474607 (Simulation time: 6 hr 4 min 27 sec) 
Heartbeat CPU 0 instructions: 640000000 cycles: 1452128348 heartbeat IPC: 0.420882 cumulative IPC: 0.427206 (Simulation time: 6 hr 4 min 45 sec) 
Heartbeat CPU 6 instructions: 580000000 cycles: 1452594617 heartbeat IPC: 0.653105 cumulative IPC: 0.381335 (Simulation time: 6 hr 4 min 51 sec) 
Heartbeat CPU 7 instructions: 480000000 cycles: 1454244427 heartbeat IPC: 0.300266 cumulative IPC: 0.319261 (Simulation time: 6 hr 5 min 14 sec) 
Heartbeat CPU 6 instructions: 590000002 cycles: 1467910802 heartbeat IPC: 0.652904 cumulative IPC: 0.384195 (Simulation time: 6 hr 8 min 35 sec) 
Heartbeat CPU 4 instructions: 540000000 cycles: 1468808145 heartbeat IPC: 0.321381 cumulative IPC: 0.34946 (Simulation time: 6 hr 8 min 48 sec) 
Heartbeat CPU 3 instructions: 640000000 cycles: 1468850040 heartbeat IPC: 0.432353 cumulative IPC: 0.424843 (Simulation time: 6 hr 8 min 49 sec) 
Heartbeat CPU 0 instructions: 650000002 cycles: 1475738695 heartbeat IPC: 0.423543 cumulative IPC: 0.427147 (Simulation time: 6 hr 10 min 30 sec) 
Heartbeat CPU 2 instructions: 440000000 cycles: 1479188849 heartbeat IPC: 0.27194 cumulative IPC: 0.279663 (Simulation time: 6 hr 11 min 20 sec) 
Heartbeat CPU 1 instructions: 720000000 cycles: 1479514180 heartbeat IPC: 0.349805 cumulative IPC: 0.472174 (Simulation time: 6 hr 11 min 25 sec) 
Heartbeat CPU 6 instructions: 600000000 cycles: 1483212810 heartbeat IPC: 0.653509 cumulative IPC: 0.386999 (Simulation time: 6 hr 12 min 16 sec) 
Heartbeat CPU 7 instructions: 490000000 cycles: 1486569569 heartbeat IPC: 0.309357 cumulative IPC: 0.319044 (Simulation time: 6 hr 13 min 3 sec) 
Heartbeat CPU 3 instructions: 650000001 cycles: 1492060048 heartbeat IPC: 0.430849 cumulative IPC: 0.424937 (Simulation time: 6 hr 14 min 20 sec) 
Heartbeat CPU 6 instructions: 610000000 cycles: 1498512994 heartbeat IPC: 0.653587 cumulative IPC: 0.389745 (Simulation time: 6 hr 15 min 51 sec) 
Heartbeat CPU 0 instructions: 660000000 cycles: 1499344226 heartbeat IPC: 0.423629 cumulative IPC: 0.427091 (Simulation time: 6 hr 16 min 3 sec) 
Heartbeat CPU 4 instructions: 550000001 cycles: 1499888803 heartbeat IPC: 0.321744 cumulative IPC: 0.348881 (Simulation time: 6 hr 16 min 10 sec) 
Heartbeat CPU 1 instructions: 730000002 cycles: 1513800775 heartbeat IPC: 0.291659 cumulative IPC: 0.468049 (Simulation time: 6 hr 19 min 27 sec) 
Heartbeat CPU 6 instructions: 620000000 cycles: 1513804898 heartbeat IPC: 0.653941 cumulative IPC: 0.392438 (Simulation time: 6 hr 19 min 27 sec) 
Heartbeat CPU 2 instructions: 450000001 cycles: 1516468837 heartbeat IPC: 0.26824 cumulative IPC: 0.27938 (Simulation time: 6 hr 20 min 5 sec) 
Heartbeat CPU 3 instructions: 660000000 cycles: 1517236370 heartbeat IPC: 0.397199 cumulative IPC: 0.424473 (Simulation time: 6 hr 20 min 16 sec) 
Heartbeat CPU 7 instructions: 500000000 cycles: 1519719832 heartbeat IPC: 0.301657 cumulative IPC: 0.318661 (Simulation time: 6 hr 20 min 49 sec) 
Heartbeat CPU 0 instructions: 670000003 cycles: 1523206611 heartbeat IPC: 0.41907 cumulative IPC: 0.426964 (Simulation time: 6 hr 21 min 37 sec) 
Heartbeat CPU 6 instructions: 630000002 cycles: 1529094424 heartbeat IPC: 0.654043 cumulative IPC: 0.395077 (Simulation time: 6 hr 22 min 58 sec) 
Heartbeat CPU 4 instructions: 560000000 cycles: 1531296922 heartbeat IPC: 0.318389 cumulative IPC: 0.34825 (Simulation time: 6 hr 23 min 29 sec) 
Heartbeat CPU 6 instructions: 640000000 cycles: 1544406723 heartbeat IPC: 0.65307 cumulative IPC: 0.397657 (Simulation time: 6 hr 26 min 33 sec) 
Heartbeat CPU 0 instructions: 680000000 cycles: 1547337907 heartbeat IPC: 0.4144 cumulative IPC: 0.426766 (Simulation time: 6 hr 27 min 15 sec) 
Heartbeat CPU 3 instructions: 670000000 cycles: 1547444551 heartbeat IPC: 0.331036 cumulative IPC: 0.422633 (Simulation time: 6 hr 27 min 16 sec) 
Heartbeat CPU 7 instructions: 510000000 cycles: 1547698249 heartbeat IPC: 0.357418 cumulative IPC: 0.319368 (Simulation time: 6 hr 27 min 20 sec) 
Heartbeat CPU 1 instructions: 740000000 cycles: 1551688108 heartbeat IPC: 0.26394 cumulative IPC: 0.463021 (Simulation time: 6 hr 28 min 16 sec) 
Heartbeat CPU 2 instructions: 460000000 cycles: 1554198281 heartbeat IPC: 0.265045 cumulative IPC: 0.279029 (Simulation time: 6 hr 28 min 51 sec) 
Heartbeat CPU 6 instructions: 650000000 cycles: 1559712616 heartbeat IPC: 0.653343 cumulative IPC: 0.400188 (Simulation time: 6 hr 30 min 9 sec) 
Heartbeat CPU 4 instructions: 570000000 cycles: 1563498535 heartbeat IPC: 0.310543 cumulative IPC: 0.347466 (Simulation time: 6 hr 31 min 3 sec) 
Heartbeat CPU 0 instructions: 690000002 cycles: 1571482574 heartbeat IPC: 0.41417 cumulative IPC: 0.426571 (Simulation time: 6 hr 32 min 55 sec) 
Heartbeat CPU 3 instructions: 680000000 cycles: 1573542199 heartbeat IPC: 0.383176 cumulative IPC: 0.421973 (Simulation time: 6 hr 33 min 24 sec) 
Heartbeat CPU 6 instructions: 660000000 cycles: 1575012587 heartbeat IPC: 0.653596 cumulative IPC: 0.402671 (Simulation time: 6 hr 33 min 45 sec) 
Heartbeat CPU 7 instructions: 520000000 cycles: 1575731286 heartbeat IPC: 0.356722 cumulative IPC: 0.320038 (Simulation time: 6 hr 33 min 55 sec) 
Heartbeat CPU 6 instructions: 670000000 cycles: 1590337699 heartbeat IPC: 0.652524 cumulative IPC: 0.405099 (Simulation time: 6 hr 37 min 22 sec) 
Heartbeat CPU 1 instructions: 750000000 cycles: 1590402035 heartbeat IPC: 0.258305 cumulative IPC: 0.457996 (Simulation time: 6 hr 37 min 22 sec) 
Heartbeat CPU 2 instructions: 470000000 cycles: 1592421366 heartbeat IPC: 0.261622 cumulative IPC: 0.278608 (Simulation time: 6 hr 37 min 51 sec) 
Heartbeat CPU 0 instructions: 700000000 cycles: 1595494623 heartbeat IPC: 0.416458 cumulative IPC: 0.426418 (Simulation time: 6 hr 38 min 35 sec) 
Heartbeat CPU 4 instructions: 580000000 cycles: 1595670274 heartbeat IPC: 0.310832 cumulative IPC: 0.346721 (Simulation time: 6 hr 38 min 37 sec) 
Heartbeat CPU 3 instructions: 690000003 cycles: 1597781507 heartbeat IPC: 0.412553 cumulative IPC: 0.421829 (Simulation time: 6 hr 39 min 7 sec) 
Heartbeat CPU 6 instructions: 680000000 cycles: 1605838998 heartbeat IPC: 0.645107 cumulative IPC: 0.407435 (Simulation time: 6 hr 41 min 2 sec) 
Heartbeat CPU 7 instructions: 530000001 cycles: 1608033162 heartbeat IPC: 0.30958 cumulative IPC: 0.319826 (Simulation time: 6 hr 41 min 34 sec) 
Heartbeat CPU 3 instructions: 700000000 cycles: 1617573158 heartbeat IPC: 0.505263 cumulative IPC: 0.422858 (Simulation time: 6 hr 43 min 56 sec) 
Heartbeat CPU 0 instructions: 710000002 cycles: 1619539107 heartbeat IPC: 0.415896 cumulative IPC: 0.42626 (Simulation time: 6 hr 44 min 24 sec) 
Heartbeat CPU 6 instructions: 690000000 cycles: 1621292507 heartbeat IPC: 0.647102 cumulative IPC: 0.409739 (Simulation time: 6 hr 44 min 51 sec) 
Heartbeat CPU 4 instructions: 590000001 cycles: 1627164650 heartbeat IPC: 0.317517 cumulative IPC: 0.346151 (Simulation time: 6 hr 46 min 19 sec) 
Heartbeat CPU 1 instructions: 760000000 cycles: 1627189605 heartbeat IPC: 0.271831 cumulative IPC: 0.453752 (Simulation time: 6 hr 46 min 20 sec) 
Heartbeat CPU 2 instructions: 480000000 cycles: 1630185080 heartbeat IPC: 0.264804 cumulative IPC: 0.278285 (Simulation time: 6 hr 47 min 4 sec) 
Heartbeat CPU 3 instructions: 710000002 cycles: 1632364257 heartbeat IPC: 0.676082 cumulative IPC: 0.425171 (Simulation time: 6 hr 47 min 36 sec) 
Heartbeat CPU 6 instructions: 700000000 cycles: 1636751434 heartbeat IPC: 0.646875 cumulative IPC: 0.411997 (Simulation time: 6 hr 48 min 39 sec) 
Heartbeat CPU 7 instructions: 540000000 cycles: 1638848638 heartbeat IPC: 0.324512 cumulative IPC: 0.319915 (Simulation time: 6 hr 49 min 9 sec) 
Heartbeat CPU 0 instructions: 720000000 cycles: 1643566729 heartbeat IPC: 0.416188 cumulative IPC: 0.426112 (Simulation time: 6 hr 50 min 17 sec) 
Heartbeat CPU 3 instructions: 720000000 cycles: 1651332886 heartbeat IPC: 0.527186 cumulative IPC: 0.426353 (Simulation time: 6 hr 52 min 5 sec) 
Heartbeat CPU 6 instructions: 710000000 cycles: 1652190215 heartbeat IPC: 0.64772 cumulative IPC: 0.414218 (Simulation time: 6 hr 52 min 18 sec) 
Heartbeat CPU 4 instructions: 600000000 cycles: 1658097645 heartbeat IPC: 0.323279 cumulative IPC: 0.345721 (Simulation time: 6 hr 53 min 37 sec) 
Heartbeat CPU 1 instructions: 770000000 cycles: 1662105468 heartbeat IPC: 0.286403 cumulative IPC: 0.450208 (Simulation time: 6 hr 54 min 33 sec) 
Heartbeat CPU 0 instructions: 730000002 cycles: 1667267849 heartbeat IPC: 0.421921 cumulative IPC: 0.426052 (Simulation time: 6 hr 55 min 44 sec) 
Heartbeat CPU 6 instructions: 720000000 cycles: 1667635817 heartbeat IPC: 0.647433 cumulative IPC: 0.416395 (Simulation time: 6 hr 55 min 49 sec) 
Heartbeat CPU 2 instructions: 490000002 cycles: 1667642011 heartbeat IPC: 0.266973 cumulative IPC: 0.278029 (Simulation time: 6 hr 55 min 50 sec) 
Heartbeat CPU 7 instructions: 550000000 cycles: 1671340075 heartbeat IPC: 0.307773 cumulative IPC: 0.319677 (Simulation time: 6 hr 56 min 40 sec) 
Heartbeat CPU 3 instructions: 730000000 cycles: 1680687178 heartbeat IPC: 0.340666 cumulative IPC: 0.424844 (Simulation time: 6 hr 58 min 53 sec) 
Heartbeat CPU 6 instructions: 730000001 cycles: 1683080179 heartbeat IPC: 0.647486 cumulative IPC: 0.418533 (Simulation time: 6 hr 59 min 25 sec) 
Heartbeat CPU 4 instructions: 610000001 cycles: 1689545949 heartbeat IPC: 0.317982 cumulative IPC: 0.345201 (Simulation time: 7 hr 0 min 57 sec) 
Heartbeat CPU 0 instructions: 740000000 cycles: 1691100464 heartbeat IPC: 0.419593 cumulative IPC: 0.42596 (Simulation time: 7 hr 1 min 19 sec) 
Heartbeat CPU 7 instructions: 560000000 cycles: 1694878247 heartbeat IPC: 0.424842 cumulative IPC: 0.321149 (Simulation time: 7 hr 2 min 12 sec) 
Heartbeat CPU 1 instructions: 780000000 cycles: 1694978898 heartbeat IPC: 0.304197 cumulative IPC: 0.447353 (Simulation time: 7 hr 2 min 14 sec) 
Heartbeat CPU 5 instructions: 90000000 cycles: 1697278722 heartbeat IPC: 0.0369519 cumulative IPC: 0.0388976 (Simulation time: 7 hr 2 min 46 sec) 
Heartbeat CPU 6 instructions: 740000000 cycles: 1698508155 heartbeat IPC: 0.648173 cumulative IPC: 0.420635 (Simulation time: 7 hr 3 min 3 sec) 
Heartbeat CPU 2 instructions: 500000000 cycles: 1705065628 heartbeat IPC: 0.267211 cumulative IPC: 0.27779 (Simulation time: 7 hr 4 min 38 sec) 
Heartbeat CPU 3 instructions: 740000000 cycles: 1709275502 heartbeat IPC: 0.349793 cumulative IPC: 0.423579 (Simulation time: 7 hr 5 min 36 sec) 
Heartbeat CPU 6 instructions: 750000000 cycles: 1713937509 heartbeat IPC: 0.648115 cumulative IPC: 0.422699 (Simulation time: 7 hr 6 min 42 sec) 
Heartbeat CPU 0 instructions: 750000000 cycles: 1715015962 heartbeat IPC: 0.418139 cumulative IPC: 0.42585 (Simulation time: 7 hr 6 min 57 sec) 
Heartbeat CPU 4 instructions: 620000000 cycles: 1720431986 heartbeat IPC: 0.323771 cumulative IPC: 0.344813 (Simulation time: 7 hr 8 min 15 sec) 
Heartbeat CPU 7 instructions: 570000001 cycles: 1724522059 heartbeat IPC: 0.337339 cumulative IPC: 0.32143 (Simulation time: 7 hr 9 min 14 sec) 
Heartbeat CPU 1 instructions: 790000003 cycles: 1726992053 heartbeat IPC: 0.312372 cumulative IPC: 0.444832 (Simulation time: 7 hr 9 min 50 sec) 
Heartbeat CPU 6 instructions: 760000000 cycles: 1729361390 heartbeat IPC: 0.648345 cumulative IPC: 0.424728 (Simulation time: 7 hr 10 min 22 sec) 
Heartbeat CPU 3 instructions: 750000003 cycles: 1731907479 heartbeat IPC: 0.441853 cumulative IPC: 0.42382 (Simulation time: 7 hr 10 min 56 sec) 
Heartbeat CPU 0 instructions: 760000000 cycles: 1738626664 heartbeat IPC: 0.423537 cumulative IPC: 0.425818 (Simulation time: 7 hr 12 min 29 sec) 
Heartbeat CPU 2 instructions: 510000000 cycles: 1742301421 heartbeat IPC: 0.268559 cumulative IPC: 0.277591 (Simulation time: 7 hr 13 min 21 sec) 
Heartbeat CPU 6 instructions: 770000001 cycles: 1744790986 heartbeat IPC: 0.648105 cumulative IPC: 0.426718 (Simulation time: 7 hr 13 min 56 sec) 
Heartbeat CPU 4 instructions: 630000000 cycles: 1751523793 heartbeat IPC: 0.321628 cumulative IPC: 0.344398 (Simulation time: 7 hr 15 min 30 sec) 
Heartbeat CPU 1 instructions: 800000000 cycles: 1757702853 heartbeat IPC: 0.325618 cumulative IPC: 0.442733 (Simulation time: 7 hr 16 min 56 sec) 
Heartbeat CPU 7 instructions: 580000000 cycles: 1759280254 heartbeat IPC: 0.287702 cumulative IPC: 0.320758 (Simulation time: 7 hr 17 min 19 sec) 
Heartbeat CPU 6 instructions: 780000000 cycles: 1760197900 heartbeat IPC: 0.649059 cumulative IPC: 0.428679 (Simulation time: 7 hr 17 min 32 sec) 
Heartbeat CPU 3 instructions: 760000000 cycles: 1760497019 heartbeat IPC: 0.349778 cumulative IPC: 0.422608 (Simulation time: 7 hr 17 min 36 sec) 
Heartbeat CPU 0 instructions: 770000000 cycles: 1762446076 heartbeat IPC: 0.419826 cumulative IPC: 0.425737 (Simulation time: 7 hr 18 min 4 sec) 
Heartbeat CPU 6 instructions: 790000002 cycles: 1775614437 heartbeat IPC: 0.648654 cumulative IPC: 0.430604 (Simulation time: 7 hr 21 min 12 sec) 
Heartbeat CPU 2 instructions: 520000000 cycles: 1779554750 heartbeat IPC: 0.268432 cumulative IPC: 0.277398 (Simulation time: 7 hr 22 min 8 sec) 
Heartbeat CPU 4 instructions: 640000000 cycles: 1782698357 heartbeat IPC: 0.320774 cumulative IPC: 0.343982 (Simulation time: 7 hr 22 min 53 sec) 
Heartbeat CPU 3 instructions: 770000000 cycles: 1784389140 heartbeat IPC: 0.418548 cumulative IPC: 0.422553 (Simulation time: 7 hr 23 min 18 sec) 
Heartbeat CPU 0 instructions: 780000000 cycles: 1786030466 heartbeat IPC: 0.424009 cumulative IPC: 0.425714 (Simulation time: 7 hr 23 min 42 sec) 
Heartbeat CPU 1 instructions: 810000001 cycles: 1788371053 heartbeat IPC: 0.326071 cumulative IPC: 0.440717 (Simulation time: 7 hr 24 min 17 sec) 
Heartbeat CPU 6 instructions: 800000000 cycles: 1791022729 heartbeat IPC: 0.649001 cumulative IPC: 0.432497 (Simulation time: 7 hr 24 min 56 sec) 
Heartbeat CPU 7 instructions: 590000000 cycles: 1792839385 heartbeat IPC: 0.297982 cumulative IPC: 0.320329 (Simulation time: 7 hr 25 min 22 sec) 
Heartbeat CPU 3 instructions: 780000000 cycles: 1805740605 heartbeat IPC: 0.468352 cumulative IPC: 0.423099 (Simulation time: 7 hr 28 min 23 sec) 
Heartbeat CPU 6 instructions: 810000000 cycles: 1806409858 heartbeat IPC: 0.649894 cumulative IPC: 0.434363 (Simulation time: 7 hr 28 min 33 sec) 
Heartbeat CPU 0 instructions: 790000001 cycles: 1809504880 heartbeat IPC: 0.425996 cumulative IPC: 0.425717 (Simulation time: 7 hr 29 min 16 sec) 
Heartbeat CPU 4 instructions: 650000000 cycles: 1813781225 heartbeat IPC: 0.321721 cumulative IPC: 0.343598 (Simulation time: 7 hr 30 min 16 sec) 
Heartbeat CPU 2 instructions: 530000002 cycles: 1816648736 heartbeat IPC: 0.269586 cumulative IPC: 0.277237 (Simulation time: 7 hr 30 min 57 sec) 
Heartbeat CPU 1 instructions: 820000000 cycles: 1818558175 heartbeat IPC: 0.331267 cumulative IPC: 0.438887 (Simulation time: 7 hr 31 min 24 sec) 
Heartbeat CPU 6 instructions: 820000000 cycles: 1821828634 heartbeat IPC: 0.64856 cumulative IPC: 0.436189 (Simulation time: 7 hr 32 min 10 sec) 
Heartbeat CPU 7 instructions: 600000000 cycles: 1825547371 heartbeat IPC: 0.305736 cumulative IPC: 0.320065 (Simulation time: 7 hr 33 min 2 sec) 
Heartbeat CPU 0 instructions: 800000000 cycles: 1833311714 heartbeat IPC: 0.420047 cumulative IPC: 0.425643 (Simulation time: 7 hr 34 min 51 sec) 
Heartbeat CPU 3 instructions: 790000000 cycles: 1833557362 heartbeat IPC: 0.359496 cumulative IPC: 0.422127 (Simulation time: 7 hr 34 min 55 sec) 
Heartbeat CPU 6 instructions: 830000000 cycles: 1837231794 heartbeat IPC: 0.649217 cumulative IPC: 0.437988 (Simulation time: 7 hr 35 min 46 sec) 
Heartbeat CPU 4 instructions: 660000000 cycles: 1845223015 heartbeat IPC: 0.318048 cumulative IPC: 0.343159 (Simulation time: 7 hr 37 min 40 sec) 
Heartbeat CPU 1 instructions: 830000000 cycles: 1848914291 heartbeat IPC: 0.329423 cumulative IPC: 0.437076 (Simulation time: 7 hr 38 min 32 sec) 
Heartbeat CPU 6 instructions: 840000000 cycles: 1852613819 heartbeat IPC: 0.650109 cumulative IPC: 0.439762 (Simulation time: 7 hr 39 min 24 sec) 
Heartbeat CPU 2 instructions: 540000000 cycles: 1853951590 heartbeat IPC: 0.268076 cumulative IPC: 0.277051 (Simulation time: 7 hr 39 min 43 sec) 
Heartbeat CPU 0 instructions: 810000003 cycles: 1857041237 heartbeat IPC: 0.421416 cumulative IPC: 0.425589 (Simulation time: 7 hr 40 min 27 sec) 
Heartbeat CPU 3 instructions: 800000000 cycles: 1858648853 heartbeat IPC: 0.398541 cumulative IPC: 0.421806 (Simulation time: 7 hr 40 min 50 sec) 
Heartbeat CPU 7 instructions: 610000000 cycles: 1859885671 heartbeat IPC: 0.29122 cumulative IPC: 0.319529 (Simulation time: 7 hr 41 min 7 sec) 
Heartbeat CPU 6 instructions: 850000000 cycles: 1868000858 heartbeat IPC: 0.649898 cumulative IPC: 0.441505 (Simulation time: 7 hr 43 min 3 sec) 
Heartbeat CPU 4 instructions: 670000000 cycles: 1877619022 heartbeat IPC: 0.30868 cumulative IPC: 0.34256 (Simulation time: 7 hr 45 min 27 sec) 
Heartbeat CPU 3 instructions: 810000000 cycles: 1878238817 heartbeat IPC: 0.510465 cumulative IPC: 0.422738 (Simulation time: 7 hr 45 min 36 sec) 
Heartbeat CPU 1 instructions: 840000000 cycles: 1879027527 heartbeat IPC: 0.33208 cumulative IPC: 0.435382 (Simulation time: 7 hr 45 min 48 sec) 
Heartbeat CPU 0 instructions: 820000000 cycles: 1880665238 heartbeat IPC: 0.423298 cumulative IPC: 0.42556 (Simulation time: 7 hr 46 min 12 sec) 
Heartbeat CPU 6 instructions: 860000000 cycles: 1883374163 heartbeat IPC: 0.650478 cumulative IPC: 0.443224 (Simulation time: 7 hr 46 min 53 sec) 
Heartbeat CPU 7 instructions: 620000000 cycles: 1888785222 heartbeat IPC: 0.346026 cumulative IPC: 0.319937 (Simulation time: 7 hr 48 min 12 sec) 
Heartbeat CPU 2 instructions: 550000000 cycles: 1891159872 heartbeat IPC: 0.268757 cumulative IPC: 0.276887 (Simulation time: 7 hr 48 min 46 sec) 
Heartbeat CPU 3 instructions: 820000000 cycles: 1895124104 heartbeat IPC: 0.592232 cumulative IPC: 0.424258 (Simulation time: 7 hr 49 min 44 sec) 
Heartbeat CPU 6 instructions: 870000001 cycles: 1898741837 heartbeat IPC: 0.650717 cumulative IPC: 0.444915 (Simulation time: 7 hr 50 min 36 sec) 
Heartbeat CPU 0 instructions: 830000001 cycles: 1904410039 heartbeat IPC: 0.421145 cumulative IPC: 0.425504 (Simulation time: 7 hr 51 min 54 sec) 
Heartbeat CPU 1 instructions: 850000001 cycles: 1909211909 heartbeat IPC: 0.331297 cumulative IPC: 0.433724 (Simulation time: 7 hr 53 min 1 sec) 
[...]
L2C WRITEBACK ACCESS:   55275371  HIT:   55261620  MISS:      13751
LLC TOTAL     ACCESS:   87796765  HIT:   48329975  MISS:   39466790
LLC LOAD      ACCESS:    9873424  HIT:       7167  MISS:    9866257
LLC RFO       ACCESS:   38944848  HIT:    9346316  MISS:   29598532
LLC PREFETCH  ACCESS:          0  HIT:          0  MISS:          0
LLC WRITEBACK ACCESS:   38978493  HIT:   38976492  MISS:       2001

CPU 5 cumulative IPC: 0.0382753 instructions: 100000000 cycles: 2612650745
L1D TOTAL     ACCESS:   15849062  HIT:    8612374  MISS:    7236688
L1D LOAD      ACCESS:   14367292  HIT:    7133371  MISS:    7233921
L1D RFO       ACCESS:    1481770  HIT:    1479003  MISS:       2767
L1D PREFETCH  ACCESS:          0  HIT:          0  MISS:          0
L1D WRITEBACK ACCESS:          0  HIT:          0  MISS:          0
L1I TOTAL     ACCESS:   36391446  HIT:   36391421  MISS:         25
L1I LOAD      ACCESS:   36391446  HIT:   36391421  MISS:         25
L1I RFO       ACCESS:          0  HIT:          0  MISS:          0
L1I PREFETCH  ACCESS:          0  HIT:          0  MISS:          0
L1I WRITEBACK ACCESS:          0  HIT:          0  MISS:          0
L2C TOTAL     ACCESS:    7262185  HIT:     269918  MISS:    6992267
L2C LOAD      ACCESS:    7233946  HIT:     244444  MISS:    6989502
L2C RFO       ACCESS:       2767  HIT:          2  MISS:       2765
L2C PREFETCH  ACCESS:          0  HIT:          0  MISS:          0
L2C WRITEBACK ACCESS:      25472  HIT:      25472  MISS:          0
LLC TOTAL     ACCESS:    7003459  HIT:      12286  MISS:    6991173
LLC LOAD      ACCESS:    6989502  HIT:       1106  MISS:    6988396
LLC RFO       ACCESS:       2765  HIT:          0  MISS:       2765
LLC PREFETCH  ACCESS:          0  HIT:          0  MISS:          0
LLC WRITEBACK ACCESS:      11192  HIT:      11180  MISS:         12

CPU 6 cumulative IPC: 0.501989 instructions: 1311522616 cycles: 2612650745
L1D TOTAL     ACCESS:  272539286  HIT:  240449093  MISS:   32090193
L1D LOAD      ACCESS:  249107299  HIT:  217051330  MISS:   32055969
L1D RFO       ACCESS:   23431987  HIT:   23397763  MISS:      34224
L1D PREFETCH  ACCESS:          0  HIT:          0  MISS:          0
L1D WRITEBACK ACCESS:          0  HIT:          0  MISS:          0
L1I TOTAL     ACCESS:  458259314  HIT:  458259221  MISS:         93
L1I LOAD      ACCESS:  458259314  HIT:  458259221  MISS:         93
L1I RFO       ACCESS:          0  HIT:          0  MISS:          0
L1I PREFETCH  ACCESS:          0  HIT:          0  MISS:          0
L1I WRITEBACK ACCESS:          0  HIT:          0  MISS:          0
L2C TOTAL     ACCESS:   32140128  HIT:    1723321  MISS:   30416807
L2C LOAD      ACCESS:   32056060  HIT:    1671355  MISS:   30384705
L2C RFO       ACCESS:      34224  HIT:       2129  MISS:      32095
L2C PREFETCH  ACCESS:          0  HIT:          0  MISS:          0
L2C WRITEBACK ACCESS:      49844  HIT:      49837  MISS:          7
LLC TOTAL     ACCESS:   30461500  HIT:   26882906  MISS:    3578594
LLC LOAD      ACCESS:   30384705  HIT:   26831459  MISS:    3553246
LLC RFO       ACCESS:      32095  HIT:      10882  MISS:      21213
LLC PREFETCH  ACCESS:          0  HIT:          0  MISS:          0
LLC WRITEBACK ACCESS:      44700  HIT:      40565  MISS:       4135

CPU 7 cumulative IPC: 0.318471 instructions: 832052409 cycles: 2612650745
L1D TOTAL     ACCESS:  287154755  HIT:  278147937  MISS:    9006818
L1D LOAD      ACCESS:  176737255  HIT:  168692696  MISS:    8044559
L1D RFO       ACCESS:  110417500  HIT:  109455241  MISS:     962259
L1D PREFETCH  ACCESS:          0  HIT:          0  MISS:          0
L1D WRITEBACK ACCESS:          0  HIT:          0  MISS:          0
L1I TOTAL     ACCESS:  220956021  HIT:  216964657  MISS:    3991364
L1I LOAD      ACCESS:  220956021  HIT:  216964657  MISS:    3991364
L1I RFO       ACCESS:          0  HIT:          0  MISS:          0
L1I PREFETCH  ACCESS:          0  HIT:          0  MISS:          0
L1I WRITEBACK ACCESS:          0  HIT:          0  MISS:          0
L2C TOTAL     ACCESS:   15230338  HIT:   11339280  MISS:    3891058
L2C LOAD      ACCESS:   12035809  HIT:    8724169  MISS:    3311640
L2C RFO       ACCESS:     962215  HIT:     397325  MISS:     564890
L2C PREFETCH  ACCESS:          0  HIT:          0  MISS:          0
L2C WRITEBACK ACCESS:    2232314  HIT:    2217786  MISS:      14528
LLC TOTAL     ACCESS:    4972818  HIT:    2753619  MISS:    2219199
LLC LOAD      ACCESS:    3311627  HIT:    1707622  MISS:    1604005
LLC RFO       ACCESS:     564889  HIT:     139809  MISS:     425080
LLC PREFETCH  ACCESS:          0  HIT:          0  MISS:          0
LLC WRITEBACK ACCESS:    1096302  HIT:     906188  MISS:     190114

Region of Interest Statistics

CPU 0 cumulative IPC: 0.437058 instructions: 100000002 cycles: 228802690
L1D TOTAL     ACCESS:   37844832  HIT:   35766562  MISS:    2078270
L1D LOAD      ACCESS:   32268534  HIT:   30255436  MISS:    2013098
L1D RFO       ACCESS:    5576298  HIT:    5511126  MISS:      65172
L1D PREFETCH  ACCESS:          0  HIT:          0  MISS:          0
L1D WRITEBACK ACCESS:          0  HIT:          0  MISS:          0
L1D PREFETCH  REQUESTED:          0  ISSUED:          0  USEFUL:          0  USELESS:          0
L1I TOTAL     ACCESS:   25451234  HIT:   25451234  MISS:          0
L1I LOAD      ACCESS:   25451234  HIT:   25451234  MISS:          0
L1I RFO       ACCESS:          0  HIT:          0  MISS:          0
L1I PREFETCH  ACCESS:          0  HIT:          0  MISS:          0
L1I WRITEBACK ACCESS:          0  HIT:          0  MISS:          0
L1I PREFETCH  REQUESTED:          0  ISSUED:          0  USEFUL:          0  USELESS:          0
L2C TOTAL     ACCESS:    2147466  HIT:     240427  MISS:    1907039
L2C LOAD      ACCESS:    2012673  HIT:     154803  MISS:    1857870
L2C RFO       ACCESS:      63998  HIT:      15274  MISS:      48724
L2C PREFETCH  ACCESS:          0  HIT:          0  MISS:          0
L2C WRITEBACK ACCESS:      70795  HIT:      70350  MISS:        445
L2C PREFETCH  REQUESTED:          0  ISSUED:          0  USEFUL:          0  USELESS:          0
LLC TOTAL     ACCESS:    1955824  HIT:      55414  MISS:    1900410
LLC LOAD      ACCESS:    1857870  HIT:       6306  MISS:    1851564
LLC RFO       ACCESS:      48724  HIT:          0  MISS:      48724
LLC PREFETCH  ACCESS:          0  HIT:          0  MISS:          0
LLC WRITEBACK ACCESS:      49230  HIT:      49108  MISS:        122
LLC PREFETCH  REQUESTED:          0  ISSUED:          0  USEFUL:          0  USELESS:          0
Major fault: 0 Minor fault: 319095

CPU 1 cumulative IPC: 0.4141 instructions: 100000001 cycles: 241487475
L1D TOTAL     ACCESS:   26306361  HIT:   20831509  MISS:    5474852
L1D LOAD      ACCESS:    9870907  HIT:    9041215  MISS:     829692
L1D RFO       ACCESS:   16435454  HIT:   11790294  MISS:    4645160
L1D PREFETCH  ACCESS:          0  HIT:          0  MISS:          0
L1D WRITEBACK ACCESS:          0  HIT:          0  MISS:          0
L1D PREFETCH  REQUESTED:          0  ISSUED:          0  USEFUL:          0  USELESS:          0
L1I TOTAL     ACCESS:   23511478  HIT:   23511478  MISS:          0
L1I LOAD      ACCESS:   23511478  HIT:   23511478  MISS:          0
L1I RFO       ACCESS:          0  HIT:          0  MISS:          0
L1I PREFETCH  ACCESS:          0  HIT:          0  MISS:          0
L1I WRITEBACK ACCESS:          0  HIT:          0  MISS:          0
L1I PREFETCH  REQUESTED:          0  ISSUED:          0  USEFUL:          0  USELESS:          0
L2C TOTAL     ACCESS:   10120008  HIT:    6014222  MISS:    4105786
L2C LOAD      ACCESS:     829692  HIT:         90  MISS:     829602
L2C RFO       ACCESS:    4645159  HIT:    1369277  MISS:    3275882
L2C PREFETCH  ACCESS:          0  HIT:          0  MISS:          0
L2C WRITEBACK ACCESS:    4645157  HIT:    4644855  MISS:        302
L2C PREFETCH  REQUESTED:          0  ISSUED:          0  USEFUL:          0  USELESS:          0
LLC TOTAL     ACCESS:    7379516  HIT:    4061752  MISS:    3317764
LLC LOAD      ACCESS:     829602  HIT:        157  MISS:     829445
LLC RFO       ACCESS:    3273860  HIT:     785642  MISS:    2488218
LLC PREFETCH  ACCESS:          0  HIT:          0  MISS:          0
LLC WRITEBACK ACCESS:    3276054  HIT:    3275953  MISS:        101
LLC PREFETCH  REQUESTED:          0  ISSUED:          0  USEFUL:          0  USELESS:          0
Major fault: 0 Minor fault: 291113

CPU 2 cumulative IPC: 0.281594 instructions: 100000002 cycles: 355121748
L1D TOTAL     ACCESS:   20604734  HIT:   19281359  MISS:    1323375
L1D LOAD      ACCESS:   13587264  HIT:   12265207  MISS:    1322057
L1D RFO       ACCESS:    7017470  HIT:    7016152  MISS:       1318
L1D PREFETCH  ACCESS:          0  HIT:          0  MISS:          0
L1D WRITEBACK ACCESS:          0  HIT:          0  MISS:          0
L1D PREFETCH  REQUESTED:          0  ISSUED:          0  USEFUL:          0  USELESS:          0
L1I TOTAL     ACCESS:   19965021  HIT:   19965021  MISS:          0
L1I LOAD      ACCESS:   19965021  HIT:   19965021  MISS:          0
L1I RFO       ACCESS:          0  HIT:          0  MISS:          0
L1I PREFETCH  ACCESS:          0  HIT:          0  MISS:          0
L1I WRITEBACK ACCESS:          0  HIT:          0  MISS:          0
L1I PREFETCH  REQUESTED:          0  ISSUED:          0  USEFUL:          0  USELESS:          0
L2C TOTAL     ACCESS:    2202098  HIT:     920602  MISS:    1281496
L2C LOAD      ACCESS:    1322057  HIT:      41562  MISS:    1280495
L2C RFO       ACCESS:       1318  HIT:        317  MISS:       1001
L2C PREFETCH  ACCESS:          0  HIT:          0  MISS:          0
L2C WRITEBACK ACCESS:     878723  HIT:     878723  MISS:          0
L2C PREFETCH  REQUESTED:          0  ISSUED:          0  USEFUL:          0  USELESS:          0
LLC TOTAL     ACCESS:    2159412  HIT:    1279448  MISS:     879964
LLC LOAD      ACCESS:    1280495  HIT:     400585  MISS:     879910
LLC RFO       ACCESS:        997  HIT:        994  MISS:          3
LLC PREFETCH  ACCESS:          0  HIT:          0  MISS:          0
LLC WRITEBACK ACCESS:     877920  HIT:     877869  MISS:         51
LLC PREFETCH  REQUESTED:          0  ISSUED:          0  USEFUL:          0  USELESS:          0
Major fault: 0 Minor fault: 102431

CPU 3 cumulative IPC: 0.43242 instructions: 100000001 cycles: 231256416
L1D TOTAL     ACCESS:   25542058  HIT:   21562808  MISS:    3979250
L1D LOAD      ACCESS:   17664844  HIT:   13861974  MISS:    3802870
L1D RFO       ACCESS:    7877214  HIT:    7700834  MISS:     176380
L1D PREFETCH  ACCESS:          0  HIT:          0  MISS:          0
L1D WRITEBACK ACCESS:          0  HIT:          0  MISS:          0
L1D PREFETCH  REQUESTED:          0  ISSUED:          0  USEFUL:          0  USELESS:          0
L1I TOTAL     ACCESS:   43527740  HIT:   43246226  MISS:     281514
L1I LOAD      ACCESS:   43527740  HIT:   43246226  MISS:     281514
L1I RFO       ACCESS:          0  HIT:          0  MISS:          0
L1I PREFETCH  ACCESS:          0  HIT:          0  MISS:          0
L1I WRITEBACK ACCESS:          0  HIT:          0  MISS:          0
L1I PREFETCH  REQUESTED:          0  ISSUED:          0  USEFUL:          0  USELESS:          0
L2C TOTAL     ACCESS:    4558435  HIT:    4016154  MISS:     542281
L2C LOAD      ACCESS:    4084371  HIT:    3675002  MISS:     409369
L2C RFO       ACCESS:     176379  HIT:      43734  MISS:     132645
L2C PREFETCH  ACCESS:          0  HIT:          0  MISS:          0
L2C WRITEBACK ACCESS:     297685  HIT:     297418  MISS:        267
L2C PREFETCH  REQUESTED:          0  ISSUED:          0  USEFUL:          0  USELESS:          0
LLC TOTAL     ACCESS:     712358  HIT:     522633  MISS:     189725
LLC LOAD      ACCESS:     409368  HIT:     357947  MISS:      51421
LLC RFO       ACCESS:     132645  HIT:       8013  MISS:     124632
LLC PREFETCH  ACCESS:          0  HIT:          0  MISS:          0
LLC WRITEBACK ACCESS:     170345  HIT:     156673  MISS:      13672
LLC PREFETCH  REQUESTED:          0  ISSUED:          0  USEFUL:          0  USELESS:          0
Major fault: 0 Minor fault: 7814

CPU 4 cumulative IPC: 0.505601 instructions: 100000003 cycles: 197784258
L1D TOTAL     ACCESS:   25669233  HIT:   21927929  MISS:    3741304
L1D LOAD      ACCESS:   10644450  HIT:   10077578  MISS:     566872
L1D RFO       ACCESS:   15024783  HIT:   11850351  MISS:    3174432
L1D PREFETCH  ACCESS:          0  HIT:          0  MISS:          0
L1D WRITEBACK ACCESS:          0  HIT:          0  MISS:          0
L1D PREFETCH  REQUESTED:          0  ISSUED:          0  USEFUL:          0  USELESS:          0
L1I TOTAL     ACCESS:   23397776  HIT:   23397776  MISS:          0
L1I LOAD      ACCESS:   23397776  HIT:   23397776  MISS:          0
L1I RFO       ACCESS:          0  HIT:          0  MISS:          0
L1I PREFETCH  ACCESS:          0  HIT:          0  MISS:          0
L1I WRITEBACK ACCESS:          0  HIT:          0  MISS:          0
L1I PREFETCH  REQUESTED:          0  ISSUED:          0  USEFUL:          0  USELESS:          0
L2C TOTAL     ACCESS:    6915733  HIT:    4126470  MISS:    2789263
L2C LOAD      ACCESS:     566872  HIT:          0  MISS:     566872
L2C RFO       ACCESS:    3174432  HIT:     952071  MISS:    2222361
L2C PREFETCH  ACCESS:          0  HIT:          0  MISS:          0
L2C WRITEBACK ACCESS:    3174429  HIT:    3174399  MISS:         30
L2C PREFETCH  REQUESTED:          0  ISSUED:          0  USEFUL:          0  USELESS:          0
LLC TOTAL     ACCESS:    5010497  HIT:    2743022  MISS:    2267475
LLC LOAD      ACCESS:     566872  HIT:          0  MISS:     566872
LLC RFO       ACCESS:    2221193  HIT:     520620  MISS:    1700573
LLC PREFETCH  ACCESS:          0  HIT:          0  MISS:          0
LLC WRITEBACK ACCESS:    2222432  HIT:    2222402  MISS:         30
LLC PREFETCH  REQUESTED:          0  ISSUED:          0  USEFUL:          0  USELESS:          0
Major fault: 0 Minor fault: 316766

CPU 5 cumulative IPC: 0.0382753 instructions: 100000000 cycles: 2612650745
L1D TOTAL     ACCESS:   15849062  HIT:    8612374  MISS:    7236688
L1D LOAD      ACCESS:   14367292  HIT:    7133371  MISS:    7233921
L1D RFO       ACCESS:    1481770  HIT:    1479003  MISS:       2767
L1D PREFETCH  ACCESS:          0  HIT:          0  MISS:          0
L1D WRITEBACK ACCESS:          0  HIT:          0  MISS:          0
L1D PREFETCH  REQUESTED:          0  ISSUED:          0  USEFUL:          0  USELESS:          0
L1I TOTAL     ACCESS:   36391446  HIT:   36391421  MISS:         25
L1I LOAD      ACCESS:   36391446  HIT:   36391421  MISS:         25
L1I RFO       ACCESS:          0  HIT:          0  MISS:          0
L1I PREFETCH  ACCESS:          0  HIT:          0  MISS:          0
L1I WRITEBACK ACCESS:          0  HIT:          0  MISS:          0
L1I PREFETCH  REQUESTED:          0  ISSUED:          0  USEFUL:          0  USELESS:          0
L2C TOTAL     ACCESS:    7262185  HIT:     269918  MISS:    6992267
L2C LOAD      ACCESS:    7233946  HIT:     244444  MISS:    6989502
L2C RFO       ACCESS:       2767  HIT:          2  MISS:       2765
L2C PREFETCH  ACCESS:          0  HIT:          0  MISS:          0
L2C WRITEBACK ACCESS:      25472  HIT:      25472  MISS:          0
L2C PREFETCH  REQUESTED:          0  ISSUED:          0  USEFUL:          0  USELESS:          0
LLC TOTAL     ACCESS:    7003459  HIT:      12286  MISS:    6991173
LLC LOAD      ACCESS:    6989502  HIT:       1106  MISS:    6988396
LLC RFO       ACCESS:       2765  HIT:          0  MISS:       2765
LLC PREFETCH  ACCESS:          0  HIT:          0  MISS:          0
LLC WRITEBACK ACCESS:      11192  HIT:      11180  MISS:         12
LLC PREFETCH  REQUESTED:          0  ISSUED:          0  USEFUL:          0  USELESS:          0
Major fault: 0 Minor fault: 48143

CPU 6 cumulative IPC: 0.206804 instructions: 100000003 cycles: 483548608
L1D TOTAL     ACCESS:   18893410  HIT:   16990998  MISS:    1902412
L1D LOAD      ACCESS:   17582059  HIT:   15680218  MISS:    1901841
L1D RFO       ACCESS:    1311351  HIT:    1310780  MISS:        571
L1D PREFETCH  ACCESS:          0  HIT:          0  MISS:          0
L1D WRITEBACK ACCESS:          0  HIT:          0  MISS:          0
L1D PREFETCH  REQUESTED:          0  ISSUED:          0  USEFUL:          0  USELESS:          0
L1I TOTAL     ACCESS:   35127759  HIT:   35127759  MISS:          0
L1I LOAD      ACCESS:   35127759  HIT:   35127759  MISS:          0
L1I RFO       ACCESS:          0  HIT:          0  MISS:          0
L1I PREFETCH  ACCESS:          0  HIT:          0  MISS:          0
L1I WRITEBACK ACCESS:          0  HIT:          0  MISS:          0
L1I PREFETCH  REQUESTED:          0  ISSUED:          0  USEFUL:          0  USELESS:          0
L2C TOTAL     ACCESS:    1903251  HIT:       1279  MISS:    1901972
L2C LOAD      ACCESS:    1901841  HIT:        440  MISS:    1901401
L2C RFO       ACCESS:        571  HIT:          0  MISS:        571
L2C PREFETCH  ACCESS:          0  HIT:          0  MISS:          0
L2C WRITEBACK ACCESS:        839  HIT:        839  MISS:          0
L2C PREFETCH  REQUESTED:          0  ISSUED:          0  USEFUL:          0  USELESS:          0
LLC TOTAL     ACCESS:    1902811  HIT:       6658  MISS:    1896153
LLC LOAD      ACCESS:    1901401  HIT:       5818  MISS:    1895583
LLC RFO       ACCESS:        571  HIT:          1  MISS:        570
LLC PREFETCH  ACCESS:          0  HIT:          0  MISS:          0
LLC WRITEBACK ACCESS:        839  HIT:        839  MISS:          0
LLC PREFETCH  REQUESTED:          0  ISSUED:          0  USEFUL:          0  USELESS:          0
Major fault: 0 Minor fault: 4095

CPU 7 cumulative IPC: 0.328857 instructions: 100000001 cycles: 304083322
L1D TOTAL     ACCESS:   31560795  HIT:   30587372  MISS:     973423
L1D LOAD      ACCESS:   19542409  HIT:   18672562  MISS:     869847
L1D RFO       ACCESS:   12018386  HIT:   11914810  MISS:     103576
L1D PREFETCH  ACCESS:          0  HIT:          0  MISS:          0
L1D WRITEBACK ACCESS:          0  HIT:          0  MISS:          0
L1D PREFETCH  REQUESTED:          0  ISSUED:          0  USEFUL:          0  USELESS:          0
L1I TOTAL     ACCESS:   26912126  HIT:   26541484  MISS:     370642
L1I LOAD      ACCESS:   26912126  HIT:   26541484  MISS:     370642
L1I RFO       ACCESS:          0  HIT:          0  MISS:          0
L1I PREFETCH  ACCESS:          0  HIT:          0  MISS:          0
L1I WRITEBACK ACCESS:          0  HIT:          0  MISS:          0
L1I PREFETCH  REQUESTED:          0  ISSUED:          0  USEFUL:          0  USELESS:          0
L2C TOTAL     ACCESS:    1578792  HIT:    1019517  MISS:     559275
L2C LOAD      ACCESS:    1240481  HIT:     756192  MISS:     484289
L2C RFO       ACCESS:     103571  HIT:      30168  MISS:      73403
L2C PREFETCH  ACCESS:          0  HIT:          0  MISS:          0
L2C WRITEBACK ACCESS:     234740  HIT:     233157  MISS:       1583
L2C PREFETCH  REQUESTED:          0  ISSUED:          0  USEFUL:          0  USELESS:          0
LLC TOTAL     ACCESS:     709062  HIT:     376207  MISS:     332855
LLC LOAD      ACCESS:     484287  HIT:     227282  MISS:     257005
LLC RFO       ACCESS:      73403  HIT:      11845  MISS:      61558
LLC PREFETCH  ACCESS:          0  HIT:          0  MISS:          0
LLC WRITEBACK ACCESS:     151372  HIT:     137080  MISS:      14292
LLC PREFETCH  REQUESTED:          0  ISSUED:          0  USEFUL:          0  USELESS:          0
Major fault: 0 Minor fault: 23465

DRAM Statistics
 CHANNEL 0
 RQ ROW_BUFFER_HIT:   17471464  ROW_BUFFER_MISS:   41000361
 DBUS_CONGESTED:  130036770
 WQ ROW_BUFFER_HIT:    3398866  ROW_BUFFER_MISS:   29432909  FULL:          0

 CHANNEL 1
 RQ ROW_BUFFER_HIT:   17459655  ROW_BUFFER_MISS:   41000851
 DBUS_CONGESTED:  130036770
 WQ ROW_BUFFER_HIT:    3417701  ROW_BUFFER_MISS:   29412822  FULL:          0

 AVG_CONGESTED_CYCLE: 13
