
*** ChampSim Multicore Out-of-Order Simulator ***

Warmup Instructions: 20000000
Simulation Instructions: 100000000
Number of CPUs: 8
LLC sets: 16384
LLC ways: 16
Off-chip DRAM Size: 8192 MB Channels: 2 Width: 64-bit Data Rate: 1600 MT/s

CPU 0 runs /scratch/user/djimenez/champsim-traces/speccpu2017/xz/603.bwaves_s/603.bwaves_s-891B.champsimtrace.xz
CPU 1 runs /scratch/user/djimenez/champsim-traces/speccpu2017/xz/605.mcf_s/605.mcf_s-1536B.champsimtrace.xz
CPU 2 runs /scratch/user/djimenez/champsim-traces/speccpu2017/xz/607.cactuBSSN_s/607.cactuBSSN_s-2421B.champsimtrace.xz
CPU 3 runs /scratch/user/djimenez/champsim-traces/speccpu2017/xz/654.roms_s/654.roms_s-1070B.champsimtrace.xz
CPU 4 runs /scratch/user/djimenez/champsim-traces/speccpu2017/xz/654.roms_s/654.roms_s-1007B.champsimtrace.xz
CPU 5 runs /scratch/user/djimenez/champsim-traces/speccpu2017/xz/605.mcf_s/605.mcf_s-472B.champsimtrace.xz
CPU 6 runs /scratch/user/djimenez/champsim-traces/speccpu2017/xz/605.mcf_s/605.mcf_s-994B.champsimtrace.xz
CPU 7 runs /scratch/user/djimenez/champsim-traces/speccpu2017/xz/649.fotonik3d_s/649.fotonik3d_s-8225B.champsimtrace.xz
Heartbeat CPU 0 instructions: 10000003 cycles: 3243025 heartbeat IPC: 3.08354 cumulative IPC: 3.08354 (Simulation time: 0 hr 2 min 54 sec) 
Heartbeat CPU 1 instructions: 10000002 cycles: 3669208 heartbeat IPC: 2.72538 cumulative IPC: 2.72538 (Simulation time: 0 hr 3 min 16 sec) 
Heartbeat CPU 7 instructions: 10000001 cycles: 4462520 heartbeat IPC: 2.24089 cumulative IPC: 2.24089 (Simulation time: 0 hr 3 min 58 sec) 
Heartbeat CPU 3 instructions: 10000001 cycles: 4923724 heartbeat IPC: 2.03098 cumulative IPC: 2.03098 (Simulation time: 0 hr 4 min 23 sec) 
Heartbeat CPU 4 instructions: 10000002 cycles: 5117235 heartbeat IPC: 1.95418 cumulative IPC: 1.95418 (Simulation time: 0 hr 4 min 33 sec) 
Heartbeat CPU 6 instructions: 10000000 cycles: 5621106 heartbeat IPC: 1.77901 cumulative IPC: 1.77901 (Simulation time: 0 hr 5 min 1 sec) 
Heartbeat CPU 2 instructions: 10000000 cycles: 5801792 heartbeat IPC: 1.72361 cumulative IPC: 1.72361 (Simulation time: 0 hr 5 min 10 sec) 
Heartbeat CPU 0 instructions: 20000000 cycles: 6485133 heartbeat IPC: 3.08441 cumulative IPC: 3.08398 (Simulation time: 0 hr 5 min 47 sec) 
Heartbeat CPU 5 instructions: 10000000 cycles: 6777703 heartbeat IPC: 1.47543 cumulative IPC: 1.47543 (Simulation time: 0 hr 6 min 2 sec) 
Heartbeat CPU 1 instructions: 20000000 cycles: 7330314 heartbeat IPC: 2.73141 cumulative IPC: 2.7284 (Simulation time: 0 hr 6 min 32 sec) 
Heartbeat CPU 7 instructions: 20000000 cycles: 8924207 heartbeat IPC: 2.2413 cumulative IPC: 2.2411 (Simulation time: 0 hr 7 min 57 sec) 
Heartbeat CPU 0 instructions: 30000003 cycles: 9727950 heartbeat IPC: 3.08374 cumulative IPC: 1.02797 (Simulation time: 0 hr 8 min 43 sec) 
Heartbeat CPU 3 instructions: 20000000 cycles: 9989491 heartbeat IPC: 1.97403 cumulative IPC: 2.0021 (Simulation time: 0 hr 8 min 59 sec) 
Heartbeat CPU 4 instructions: 20000000 cycles: 10234003 heartbeat IPC: 1.95436 cumulative IPC: 1.95427 (Simulation time: 0 hr 9 min 12 sec) 
Heartbeat CPU 1 instructions: 30000002 cycles: 11007501 heartbeat IPC: 2.71947 cumulative IPC: 0.908472 (Simulation time: 0 hr 9 min 56 sec) 
Heartbeat CPU 6 instructions: 20000000 cycles: 11307099 heartbeat IPC: 1.75871 cumulative IPC: 1.7688 (Simulation time: 0 hr 10 min 13 sec) 
Heartbeat CPU 2 instructions: 20000000 cycles: 11602775 heartbeat IPC: 1.72385 cumulative IPC: 1.72373 (Simulation time: 0 hr 10 min 30 sec) 
Heartbeat CPU 0 instructions: 40000000 cycles: 12971862 heartbeat IPC: 3.0827 cumulative IPC: 1.5418 (Simulation time: 0 hr 11 min 47 sec) 
Heartbeat CPU 5 instructions: 20000000 cycles: 13217188 heartbeat IPC: 1.55292 cumulative IPC: 1.51318 (Simulation time: 0 hr 12 min 1 sec) 

Warmup complete CPU 0 instructions: 40756195 cycles: 13217190 (Simulation time: 0 hr 12 min 1 sec) 
Warmup complete CPU 1 instructions: 35986183 cycles: 13217190 (Simulation time: 0 hr 12 min 1 sec) 
Warmup complete CPU 2 instructions: 22782233 cycles: 13217190 (Simulation time: 0 hr 12 min 1 sec) 
Warmup complete CPU 3 instructions: 26384167 cycles: 13217190 (Simulation time: 0 hr 12 min 1 sec) 
Warmup complete CPU 4 instructions: 25829774 cycles: 13217190 (Simulation time: 0 hr 12 min 1 sec) 
Warmup complete CPU 5 instructions: 20000003 cycles: 13217190 (Simulation time: 0 hr 12 min 1 sec) 
Warmup complete CPU 6 instructions: 23398386 cycles: 13217189 (Simulation time: 0 hr 12 min 1 sec) 
Warmup complete CPU 7 instructions: 29620161 cycles: 13217189 (Simulation time: 0 hr 12 min 1 sec) 

Heartbeat CPU 7 instructions: 30000002 cycles: 14308133 heartbeat IPC: 1.85738 cumulative IPC: 0.348176 (Simulation time: 0 hr 12 min 21 sec) 
Heartbeat CPU 4 instructions: 30000000 cycles: 21237228 heartbeat IPC: 0.908824 cumulative IPC: 0.519976 (Simulation time: 0 hr 14 min 12 sec) 
Heartbeat CPU 2 instructions: 30000001 cycles: 21274545 heartbeat IPC: 1.03394 cumulative IPC: 0.895799 (Simulation time: 0 hr 14 min 13 sec) 
Heartbeat CPU 3 instructions: 30000000 cycles: 27296184 heartbeat IPC: 0.577811 cumulative IPC: 0.256825 (Simulation time: 0 hr 15 min 49 sec) 
Heartbeat CPU 2 instructions: 40000000 cycles: 32469389 heartbeat IPC: 0.893268 cumulative IPC: 0.894327 (Simulation time: 0 hr 18 min 33 sec) 
Heartbeat CPU 1 instructions: 40000000 cycles: 37493530 heartbeat IPC: 0.377557 cumulative IPC: 0.165339 (Simulation time: 0 hr 21 min 3 sec) 
Heartbeat CPU 4 instructions: 40000000 cycles: 40385196 heartbeat IPC: 0.522249 cumulative IPC: 0.521578 (Simulation time: 0 hr 22 min 25 sec) 
Heartbeat CPU 0 instructions: 50000001 cycles: 41807793 heartbeat IPC: 0.34679 cumulative IPC: 0.323316 (Simulation time: 0 hr 22 min 50 sec) 
Heartbeat CPU 2 instructions: 50000003 cycles: 43415511 heartbeat IPC: 0.913566 cumulative IPC: 0.901301 (Simulation time: 0 hr 23 min 17 sec) 
Heartbeat CPU 7 instructions: 40000000 cycles: 44271486 heartbeat IPC: 0.333741 cumulative IPC: 0.334248 (Simulation time: 0 hr 23 min 31 sec) 
Heartbeat CPU 6 instructions: 30000000 cycles: 44931313 heartbeat IPC: 0.297405 cumulative IPC: 0.20816 (Simulation time: 0 hr 23 min 43 sec) 
Heartbeat CPU 2 instructions: 60000000 cycles: 56157167 heartbeat IPC: 0.784827 cumulative IPC: 0.866739 (Simulation time: 0 hr 26 min 35 sec) 
Heartbeat CPU 5 instructions: 30000002 cycles: 56350320 heartbeat IPC: 0.23184 cumulative IPC: 0.23184 (Simulation time: 0 hr 26 min 37 sec) 
Heartbeat CPU 3 instructions: 40000000 cycles: 58328221 heartbeat IPC: 0.322248 cumulative IPC: 0.301829 (Simulation time: 0 hr 27 min 4 sec) 
Heartbeat CPU 2 instructions: 70000000 cycles: 68463859 heartbeat IPC: 0.812566 cumulative IPC: 0.854672 (Simulation time: 0 hr 29 min 36 sec) 
Heartbeat CPU 0 instructions: 60000000 cycles: 69113364 heartbeat IPC: 0.366226 cumulative IPC: 0.344278 (Simulation time: 0 hr 29 min 45 sec) 
Heartbeat CPU 4 instructions: 50000003 cycles: 71639163 heartbeat IPC: 0.319959 cumulative IPC: 0.413718 (Simulation time: 0 hr 30 min 20 sec) 
Heartbeat CPU 7 instructions: 50000000 cycles: 72587121 heartbeat IPC: 0.353162 cumulative IPC: 0.343269 (Simulation time: 0 hr 30 min 34 sec) 
Heartbeat CPU 6 instructions: 40000000 cycles: 78593098 heartbeat IPC: 0.297073 cumulative IPC: 0.253941 (Simulation time: 0 hr 32 min 6 sec) 
Heartbeat CPU 2 instructions: 80000000 cycles: 80662108 heartbeat IPC: 0.81979 cumulative IPC: 0.848363 (Simulation time: 0 hr 32 min 39 sec) 
Heartbeat CPU 3 instructions: 50000000 cycles: 86733802 heartbeat IPC: 0.352043 cumulative IPC: 0.321231 (Simulation time: 0 hr 34 min 4 sec) 
Heartbeat CPU 2 instructions: 90000000 cycles: 93054477 heartbeat IPC: 0.806948 cumulative IPC: 0.841935 (Simulation time: 0 hr 35 min 35 sec) 
Heartbeat CPU 1 instructions: 50000003 cycles: 95809855 heartbeat IPC: 0.171479 cumulative IPC: 0.169674 (Simulation time: 0 hr 36 min 15 sec) 
Heartbeat CPU 0 instructions: 70000002 cycles: 96264296 heartbeat IPC: 0.368312 cumulative IPC: 0.352135 (Simulation time: 0 hr 36 min 21 sec) 
Heartbeat CPU 7 instructions: 60000000 cycles: 101700148 heartbeat IPC: 0.343489 cumulative IPC: 0.343341 (Simulation time: 0 hr 37 min 37 sec) 
Heartbeat CPU 4 instructions: 60000000 cycles: 101768505 heartbeat IPC: 0.331902 cumulative IPC: 0.385881 (Simulation time: 0 hr 37 min 38 sec) 
Heartbeat CPU 2 instructions: 100000000 cycles: 105548845 heartbeat IPC: 0.800361 cumulative IPC: 0.836309 (Simulation time: 0 hr 38 min 35 sec) 
Heartbeat CPU 5 instructions: 40000000 cycles: 106516083 heartbeat IPC: 0.199339 cumulative IPC: 0.214365 (Simulation time: 0 hr 38 min 50 sec) 
Heartbeat CPU 2 instructions: 110000003 cycles: 118043369 heartbeat IPC: 0.800351 cumulative IPC: 0.832023 (Simulation time: 0 hr 41 min 40 sec) 
Heartbeat CPU 3 instructions: 60000000 cycles: 120446875 heartbeat IPC: 0.296621 cumulative IPC: 0.313494 (Simulation time: 0 hr 42 min 17 sec) 
Heartbeat CPU 4 instructions: 70000003 cycles: 120898107 heartbeat IPC: 0.52275 cumulative IPC: 0.410195 (Simulation time: 0 hr 42 min 24 sec) 
Heartbeat CPU 0 instructions: 80000000 cycles: 124022309 heartbeat IPC: 0.360256 cumulative IPC: 0.35417 (Simulation time: 0 hr 43 min 10 sec) 
Heartbeat CPU 2 instructions: 120000000 cycles: 130239647 heartbeat IPC: 0.819922 cumulative IPC: 0.830762 (Simulation time: 0 hr 44 min 42 sec) 
Heartbeat CPU 7 instructions: 70000002 cycles: 131465290 heartbeat IPC: 0.335964 cumulative IPC: 0.341484 (Simulation time: 0 hr 45 min 2 sec) 
Finished CPU 2 instructions: 100000003 cycles: 120326316 cumulative IPC: 0.831073 (Simulation time: 0 hr 45 min 35 sec) 
Heartbeat CPU 4 instructions: 80000000 cycles: 140021793 heartbeat IPC: 0.522912 cumulative IPC: 0.427194 (Simulation time: 0 hr 47 min 15 sec) 
Heartbeat CPU 2 instructions: 130000001 cycles: 142258080 heartbeat IPC: 0.832055 cumulative IPC: 0.830882 (Simulation time: 0 hr 47 min 52 sec) 
Heartbeat CPU 3 instructions: 70000001 cycles: 149186842 heartbeat IPC: 0.347948 cumulative IPC: 0.320776 (Simulation time: 0 hr 49 min 40 sec) 
Heartbeat CPU 0 instructions: 90000000 cycles: 150023763 heartbeat IPC: 0.384594 cumulative IPC: 0.359952 (Simulation time: 0 hr 49 min 52 sec) 
Heartbeat CPU 1 instructions: 60000000 cycles: 152988753 heartbeat IPC: 0.17489 cumulative IPC: 0.171808 (Simulation time: 0 hr 50 min 38 sec) 
Heartbeat CPU 2 instructions: 140000000 cycles: 154344367 heartbeat IPC: 0.827384 cumulative IPC: 0.830582 (Simulation time: 0 hr 50 min 59 sec) 
Heartbeat CPU 5 instructions: 50000000 cycles: 155579240 heartbeat IPC: 0.203819 cumulative IPC: 0.21073 (Simulation time: 0 hr 51 min 19 sec) 
Heartbeat CPU 7 instructions: 80000000 cycles: 158246245 heartbeat IPC: 0.3734 cumulative IPC: 0.347378 (Simulation time: 0 hr 52 min 4 sec) 
Heartbeat CPU 4 instructions: 90000003 cycles: 159160752 heartbeat IPC: 0.522495 cumulative IPC: 0.439692 (Simulation time: 0 hr 52 min 19 sec) 
Heartbeat CPU 2 instructions: 150000002 cycles: 166546682 heartbeat IPC: 0.819517 cumulative IPC: 0.829702 (Simulation time: 0 hr 54 min 13 sec) 
Heartbeat CPU 6 instructions: 50000000 cycles: 172645629 heartbeat IPC: 0.106324 cumulative IPC: 0.166856 (Simulation time: 0 hr 55 min 50 sec) 
Heartbeat CPU 0 instructions: 100000000 cycles: 175909946 heartbeat IPC: 0.386306 cumulative IPC: 0.364145 (Simulation time: 0 hr 56 min 36 sec) 
Heartbeat CPU 4 instructions: 100000000 cycles: 178399306 heartbeat IPC: 0.519789 cumulative IPC: 0.449021 (Simulation time: 0 hr 57 min 12 sec) 
Heartbeat CPU 2 instructions: 160000000 cycles: 178861632 heartbeat IPC: 0.812021 cumulative IPC: 0.828387 (Simulation time: 0 hr 57 min 19 sec) 
Heartbeat CPU 3 instructions: 80000000 cycles: 180375413 heartbeat IPC: 0.32063 cumulative IPC: 0.320749 (Simulation time: 0 hr 57 min 47 sec) 
Heartbeat CPU 7 instructions: 90000000 cycles: 186058984 heartbeat IPC: 0.359547 cumulative IPC: 0.349336 (Simulation time: 0 hr 59 min 25 sec) 
Heartbeat CPU 2 instructions: 170000003 cycles: 191122975 heartbeat IPC: 0.815572 cumulative IPC: 0.827504 (Simulation time: 1 hr 0 min 44 sec) 
Heartbeat CPU 4 instructions: 110000002 cycles: 197652678 heartbeat IPC: 0.51939 cumulative IPC: 0.456367 (Simulation time: 1 hr 2 min 17 sec) 
Heartbeat CPU 5 instructions: 60000000 cycles: 200893964 heartbeat IPC: 0.220679 cumulative IPC: 0.213132 (Simulation time: 1 hr 3 min 7 sec) 
Heartbeat CPU 0 instructions: 110000002 cycles: 203227766 heartbeat IPC: 0.366062 cumulative IPC: 0.364421 (Simulation time: 1 hr 3 min 46 sec) 
Heartbeat CPU 2 instructions: 180000000 cycles: 203343148 heartbeat IPC: 0.818319 cumulative IPC: 0.826914 (Simulation time: 1 hr 3 min 48 sec) 
Heartbeat CPU 3 instructions: 90000002 cycles: 209708347 heartbeat IPC: 0.340914 cumulative IPC: 0.323759 (Simulation time: 1 hr 5 min 31 sec) 
Heartbeat CPU 1 instructions: 70000000 cycles: 210165698 heartbeat IPC: 0.174896 cumulative IPC: 0.172704 (Simulation time: 1 hr 5 min 39 sec) 
Heartbeat CPU 7 instructions: 100000000 cycles: 212969217 heartbeat IPC: 0.371606 cumulative IPC: 0.352336 (Simulation time: 1 hr 6 min 23 sec) 
Heartbeat CPU 2 instructions: 190000002 cycles: 215538372 heartbeat IPC: 0.819993 cumulative IPC: 0.826497 (Simulation time: 1 hr 7 min 2 sec) 
Heartbeat CPU 6 instructions: 60000000 cycles: 219948743 heartbeat IPC: 0.211403 cumulative IPC: 0.177049 (Simulation time: 1 hr 8 min 5 sec) 
Heartbeat CPU 4 instructions: 120000000 cycles: 222033450 heartbeat IPC: 0.410159 cumulative IPC: 0.450972 (Simulation time: 1 hr 8 min 38 sec) 
Heartbeat CPU 2 instructions: 200000000 cycles: 228045832 heartbeat IPC: 0.799523 cumulative IPC: 0.824926 (Simulation time: 1 hr 10 min 0 sec) 
Heartbeat CPU 0 instructions: 120000000 cycles: 229908292 heartbeat IPC: 0.374805 cumulative IPC: 0.365699 (Simulation time: 1 hr 10 min 24 sec) 
Heartbeat CPU 3 instructions: 100000000 cycles: 237306876 heartbeat IPC: 0.362338 cumulative IPC: 0.328511 (Simulation time: 1 hr 12 min 7 sec) 
Heartbeat CPU 2 instructions: 210000000 cycles: 240553304 heartbeat IPC: 0.799522 cumulative IPC: 0.823528 (Simulation time: 1 hr 12 min 49 sec) 
Heartbeat CPU 7 instructions: 110000002 cycles: 241344570 heartbeat IPC: 0.352419 cumulative IPC: 0.352346 (Simulation time: 1 hr 12 min 59 sec) 
Finished CPU 4 instructions: 100000002 cycles: 233297257 cumulative IPC: 0.428638 (Simulation time: 1 hr 14 min 5 sec) 
Heartbeat CPU 5 instructions: 70000002 cycles: 252177333 heartbeat IPC: 0.194995 cumulative IPC: 0.20924 (Simulation time: 1 hr 15 min 21 sec) 
Heartbeat CPU 2 instructions: 220000000 cycles: 253337062 heartbeat IPC: 0.782243 cumulative IPC: 0.82133 (Simulation time: 1 hr 15 min 36 sec) 
Heartbeat CPU 0 instructions: 130000003 cycles: 258700899 heartbeat IPC: 0.347311 cumulative IPC: 0.363543 (Simulation time: 1 hr 16 min 49 sec) 
Heartbeat CPU 4 instructions: 130000003 cycles: 260720197 heartbeat IPC: 0.258487 cumulative IPC: 0.420885 (Simulation time: 1 hr 17 min 20 sec) 
Heartbeat CPU 2 instructions: 230000001 cycles: 265752784 heartbeat IPC: 0.80543 cumulative IPC: 0.820549 (Simulation time: 1 hr 18 min 40 sec) 
Heartbeat CPU 1 instructions: 80000000 cycles: 269009695 heartbeat IPC: 0.169941 cumulative IPC: 0.172068 (Simulation time: 1 hr 19 min 27 sec) 
Heartbeat CPU 7 instructions: 120000000 cycles: 270830821 heartbeat IPC: 0.339141 cumulative IPC: 0.350835 (Simulation time: 1 hr 19 min 52 sec) 
Heartbeat CPU 3 instructions: 110000001 cycles: 271518590 heartbeat IPC: 0.292298 cumulative IPC: 0.323714 (Simulation time: 1 hr 20 min 2 sec) 
Heartbeat CPU 6 instructions: 70000001 cycles: 276026652 heartbeat IPC: 0.178323 cumulative IPC: 0.177321 (Simulation time: 1 hr 21 min 12 sec) 
Heartbeat CPU 2 instructions: 240000000 cycles: 278412410 heartbeat IPC: 0.789913 cumulative IPC: 0.819086 (Simulation time: 1 hr 21 min 50 sec) 
Heartbeat CPU 4 instructions: 140000000 cycles: 279966794 heartbeat IPC: 0.519572 cumulative IPC: 0.428005 (Simulation time: 1 hr 22 min 15 sec) 
Heartbeat CPU 0 instructions: 140000000 cycles: 285139069 heartbeat IPC: 0.378241 cumulative IPC: 0.364972 (Simulation time: 1 hr 23 min 38 sec) 
Finished CPU 0 instructions: 100000003 cycles: 273760268 cumulative IPC: 0.365283 (Simulation time: 1 hr 24 min 8 sec) 
Heartbeat CPU 2 instructions: 250000003 cycles: 290326791 heartbeat IPC: 0.839322 cumulative IPC: 0.819956 (Simulation time: 1 hr 25 min 4 sec) 
Heartbeat CPU 3 instructions: 120000000 cycles: 294357826 heartbeat IPC: 0.437843 cumulative IPC: 0.332986 (Simulation time: 1 hr 26 min 8 sec) 
Finished CPU 7 instructions: 100000000 cycles: 282943219 cumulative IPC: 0.353428 (Simulation time: 1 hr 26 min 35 sec) 
Heartbeat CPU 7 instructions: 130000000 cycles: 297167612 heartbeat IPC: 0.379697 cumulative IPC: 0.353512 (Simulation time: 1 hr 26 min 51 sec) 
Heartbeat CPU 4 instructions: 150000000 cycles: 299065759 heartbeat IPC: 0.523589 cumulative IPC: 0.434392 (Simulation time: 1 hr 27 min 22 sec) 
Heartbeat CPU 5 instructions: 80000000 cycles: 301197453 heartbeat IPC: 0.203998 cumulative IPC: 0.208348 (Simulation time: 1 hr 28 min 0 sec) 
Heartbeat CPU 2 instructions: 260000000 cycles: 302436528 heartbeat IPC: 0.825782 cumulative IPC: 0.8202 (Simulation time: 1 hr 28 min 21 sec) 
Heartbeat CPU 0 instructions: 150000000 cycles: 310345414 heartbeat IPC: 0.396726 cumulative IPC: 0.367666 (Simulation time: 1 hr 30 min 31 sec) 
Heartbeat CPU 6 instructions: 80000000 cycles: 310695397 heartbeat IPC: 0.288444 cumulative IPC: 0.190271 (Simulation time: 1 hr 30 min 36 sec) 
Finished CPU 3 instructions: 100000002 cycles: 297838721 cumulative IPC: 0.335752 (Simulation time: 1 hr 30 min 41 sec) 
Heartbeat CPU 2 instructions: 270000003 cycles: 314651003 heartbeat IPC: 0.818701 cumulative IPC: 0.820139 (Simulation time: 1 hr 31 min 40 sec) 
Heartbeat CPU 4 instructions: 160000000 cycles: 318285780 heartbeat IPC: 0.520291 cumulative IPC: 0.439803 (Simulation time: 1 hr 32 min 41 sec) 
Heartbeat CPU 3 instructions: 130000001 cycles: 323433547 heartbeat IPC: 0.34393 cumulative IPC: 0.334012 (Simulation time: 1 hr 34 min 2 sec) 
Heartbeat CPU 7 instructions: 140000000 cycles: 324442335 heartbeat IPC: 0.36664 cumulative IPC: 0.354662 (Simulation time: 1 hr 34 min 18 sec) 
Heartbeat CPU 1 instructions: 90000003 cycles: 326038517 heartbeat IPC: 0.17535 cumulative IPC: 0.172667 (Simulation time: 1 hr 34 min 43 sec) 
Heartbeat CPU 2 instructions: 280000000 cycles: 327049097 heartbeat IPC: 0.806575 cumulative IPC: 0.819604 (Simulation time: 1 hr 35 min 0 sec) 
Heartbeat CPU 4 instructions: 170000003 cycles: 337523863 heartbeat IPC: 0.519802 cumulative IPC: 0.444549 (Simulation time: 1 hr 37 min 39 sec) 
Heartbeat CPU 0 instructions: 160000000 cycles: 338055777 heartbeat IPC: 0.360876 cumulative IPC: 0.367086 (Simulation time: 1 hr 37 min 47 sec) 
Heartbeat CPU 2 instructions: 290000000 cycles: 339540062 heartbeat IPC: 0.800579 cumulative IPC: 0.818875 (Simulation time: 1 hr 38 min 12 sec) 
Heartbeat CPU 6 instructions: 90000000 cycles: 345262412 heartbeat IPC: 0.289293 cumulative IPC: 0.20058 (Simulation time: 1 hr 39 min 53 sec) 
Heartbeat CPU 5 instructions: 90000000 cycles: 345349767 heartbeat IPC: 0.226489 cumulative IPC: 0.210759 (Simulation time: 1 hr 39 min 56 sec) 
Heartbeat CPU 7 instructions: 150000003 cycles: 351586566 heartbeat IPC: 0.368403 cumulative IPC: 0.355765 (Simulation time: 1 hr 41 min 52 sec) 
Heartbeat CPU 2 instructions: 300000000 cycles: 351699374 heartbeat IPC: 0.822415 cumulative IPC: 0.819003 (Simulation time: 1 hr 41 min 55 sec) 
Heartbeat CPU 3 instructions: 140000000 cycles: 352059386 heartbeat IPC: 0.349335 cumulative IPC: 0.335306 (Simulation time: 1 hr 42 min 2 sec) 
Heartbeat CPU 4 instructions: 180000000 cycles: 356661351 heartbeat IPC: 0.522534 cumulative IPC: 0.448895 (Simulation time: 1 hr 43 min 23 sec) 
Heartbeat CPU 0 instructions: 170000003 cycles: 363595183 heartbeat IPC: 0.391552 cumulative IPC: 0.36887 (Simulation time: 1 hr 45 min 14 sec) 
Heartbeat CPU 2 instructions: 310000002 cycles: 363748569 heartbeat IPC: 0.829931 cumulative IPC: 0.819378 (Simulation time: 1 hr 45 min 17 sec) 
Heartbeat CPU 2 instructions: 320000000 cycles: 375681791 heartbeat IPC: 0.837996 cumulative IPC: 0.819991 (Simulation time: 1 hr 48 min 38 sec) 
Heartbeat CPU 4 instructions: 190000003 cycles: 375723014 heartbeat IPC: 0.524613 cumulative IPC: 0.452876 (Simulation time: 1 hr 48 min 39 sec) 
Heartbeat CPU 6 instructions: 100000000 cycles: 376585781 heartbeat IPC: 0.31925 cumulative IPC: 0.21081 (Simulation time: 1 hr 48 min 52 sec) 
Heartbeat CPU 3 instructions: 150000002 cycles: 378880747 heartbeat IPC: 0.372837 cumulative IPC: 0.338059 (Simulation time: 1 hr 49 min 25 sec) 
Heartbeat CPU 7 instructions: 160000000 cycles: 379671507 heartbeat IPC: 0.356063 cumulative IPC: 0.355787 (Simulation time: 1 hr 49 min 36 sec) 
Heartbeat CPU 1 instructions: 100000000 cycles: 382450565 heartbeat IPC: 0.177267 cumulative IPC: 0.17337 (Simulation time: 1 hr 50 min 13 sec) 
Heartbeat CPU 2 instructions: 330000001 cycles: 388242916 heartbeat IPC: 0.796107 cumulative IPC: 0.819191 (Simulation time: 1 hr 51 min 26 sec) 
Heartbeat CPU 5 instructions: 100000000 cycles: 390085159 heartbeat IPC: 0.223537 cumulative IPC: 0.212276 (Simulation time: 1 hr 51 min 48 sec) 
Heartbeat CPU 0 instructions: 180000000 cycles: 392232152 heartbeat IPC: 0.349199 cumulative IPC: 0.367383 (Simulation time: 1 hr 52 min 17 sec) 
Heartbeat CPU 2 instructions: 340000000 cycles: 401073012 heartbeat IPC: 0.779417 cumulative IPC: 0.817876 (Simulation time: 1 hr 54 min 14 sec) 
Heartbeat CPU 7 instructions: 170000001 cycles: 412184813 heartbeat IPC: 0.307566 cumulative IPC: 0.351858 (Simulation time: 1 hr 56 min 43 sec) 
Heartbeat CPU 2 instructions: 350000002 cycles: 413742284 heartbeat IPC: 0.789311 cumulative IPC: 0.816972 (Simulation time: 1 hr 57 min 3 sec) 
Heartbeat CPU 3 instructions: 160000000 cycles: 413764474 heartbeat IPC: 0.286667 cumulative IPC: 0.333583 (Simulation time: 1 hr 57 min 3 sec) 
Heartbeat CPU 4 instructions: 200000000 cycles: 415622713 heartbeat IPC: 0.250628 cumulative IPC: 0.432823 (Simulation time: 1 hr 57 min 27 sec) 
Heartbeat CPU 2 instructions: 360000000 cycles: 426039932 heartbeat IPC: 0.813163 cumulative IPC: 0.816859 (Simulation time: 1 hr 59 min 49 sec) 
Heartbeat CPU 0 instructions: 190000003 cycles: 430666009 heartbeat IPC: 0.260187 cumulative IPC: 0.357514 (Simulation time: 2 hr 1 min 1 sec) 
Heartbeat CPU 5 instructions: 110000000 cycles: 436024545 heartbeat IPC: 0.217678 cumulative IPC: 0.212863 (Simulation time: 2 hr 2 min 25 sec) 
Heartbeat CPU 2 instructions: 370000002 cycles: 438062390 heartbeat IPC: 0.831777 cumulative IPC: 0.817281 (Simulation time: 2 hr 2 min 55 sec) 
Heartbeat CPU 6 instructions: 110000000 cycles: 438475059 heartbeat IPC: 0.161579 cumulative IPC: 0.203645 (Simulation time: 2 hr 3 min 2 sec) 
Heartbeat CPU 4 instructions: 210000000 cycles: 439453860 heartbeat IPC: 0.419619 cumulative IPC: 0.432084 (Simulation time: 2 hr 3 min 17 sec) 
Heartbeat CPU 7 instructions: 180000000 cycles: 440936175 heartbeat IPC: 0.34781 cumulative IPC: 0.351586 (Simulation time: 2 hr 3 min 39 sec) 
Heartbeat CPU 1 instructions: 110000001 cycles: 440944201 heartbeat IPC: 0.170959 cumulative IPC: 0.17304 (Simulation time: 2 hr 3 min 39 sec) 
Heartbeat CPU 3 instructions: 170000003 cycles: 440996511 heartbeat IPC: 0.367215 cumulative IPC: 0.335724 (Simulation time: 2 hr 3 min 40 sec) 
Heartbeat CPU 2 instructions: 380000000 cycles: 450024743 heartbeat IPC: 0.835956 cumulative IPC: 0.817792 (Simulation time: 2 hr 5 min 58 sec) 
Heartbeat CPU 4 instructions: 220000000 cycles: 458536325 heartbeat IPC: 0.524041 cumulative IPC: 0.436025 (Simulation time: 2 hr 8 min 5 sec) 
Heartbeat CPU 2 instructions: 390000002 cycles: 462341991 heartbeat IPC: 0.81187 cumulative IPC: 0.81763 (Simulation time: 2 hr 8 min 58 sec) 
Heartbeat CPU 7 instructions: 190000003 cycles: 470316766 heartbeat IPC: 0.340361 cumulative IPC: 0.350864 (Simulation time: 2 hr 10 min 54 sec) 
Heartbeat CPU 3 instructions: 180000000 cycles: 472846578 heartbeat IPC: 0.313971 cumulative IPC: 0.334217 (Simulation time: 2 hr 11 min 31 sec) 
Heartbeat CPU 2 instructions: 400000000 cycles: 474866658 heartbeat IPC: 0.798424 cumulative IPC: 0.817109 (Simulation time: 2 hr 12 min 0 sec) 
Heartbeat CPU 0 instructions: 200000000 cycles: 476410657 heartbeat IPC: 0.218605 cumulative IPC: 0.343795 (Simulation time: 2 hr 12 min 21 sec) 
Heartbeat CPU 4 instructions: 230000003 cycles: 477845437 heartbeat IPC: 0.51789 cumulative IPC: 0.439427 (Simulation time: 2 hr 12 min 42 sec) 
Heartbeat CPU 6 instructions: 120000000 cycles: 483203539 heartbeat IPC: 0.223571 cumulative IPC: 0.205541 (Simulation time: 2 hr 14 min 3 sec) 
Heartbeat CPU 5 instructions: 120000000 cycles: 486317846 heartbeat IPC: 0.198834 cumulative IPC: 0.211371 (Simulation time: 2 hr 14 min 53 sec) 
Finished CPU 5 instructions: 100000000 cycles: 473100688 cumulative IPC: 0.211371 (Simulation time: 2 hr 14 min 53 sec) 
Heartbeat CPU 2 instructions: 410000002 cycles: 487039058 heartbeat IPC: 0.821531 cumulative IPC: 0.817222 (Simulation time: 2 hr 15 min 4 sec) 
Finished CPU 6 instructions: 100000000 cycles: 482135111 cumulative IPC: 0.207411 (Simulation time: 2 hr 17 min 3 sec) 
Heartbeat CPU 4 instructions: 240000000 cycles: 496993860 heartbeat IPC: 0.522236 cumulative IPC: 0.442705 (Simulation time: 2 hr 17 min 29 sec) 
Heartbeat CPU 1 instructions: 120000000 cycles: 498222396 heartbeat IPC: 0.174586 cumulative IPC: 0.173223 (Simulation time: 2 hr 17 min 48 sec) 
Heartbeat CPU 2 instructions: 420000000 cycles: 499156732 heartbeat IPC: 0.825241 cumulative IPC: 0.817422 (Simulation time: 2 hr 18 min 2 sec) 
Heartbeat CPU 7 instructions: 200000000 cycles: 499697807 heartbeat IPC: 0.340355 cumulative IPC: 0.350229 (Simulation time: 2 hr 18 min 11 sec) 
Heartbeat CPU 3 instructions: 190000000 cycles: 501355415 heartbeat IPC: 0.350768 cumulative IPC: 0.335183 (Simulation time: 2 hr 18 min 37 sec) 
Heartbeat CPU 2 instructions: 430000001 cycles: 511369401 heartbeat IPC: 0.818822 cumulative IPC: 0.817456 (Simulation time: 2 hr 21 min 4 sec) 
Heartbeat CPU 4 instructions: 250000001 cycles: 516113781 heartbeat IPC: 0.523015 cumulative IPC: 0.445758 (Simulation time: 2 hr 22 min 16 sec) 
Heartbeat CPU 0 instructions: 210000000 cycles: 520646741 heartbeat IPC: 0.22606 cumulative IPC: 0.333532 (Simulation time: 2 hr 23 min 24 sec) 
Heartbeat CPU 6 instructions: 130000001 cycles: 521754875 heartbeat IPC: 0.259394 cumulative IPC: 0.209624 (Simulation time: 2 hr 23 min 41 sec) 
Heartbeat CPU 2 instructions: 440000000 cycles: 523190790 heartbeat IPC: 0.845924 cumulative IPC: 0.818116 (Simulation time: 2 hr 24 min 2 sec) 
Heartbeat CPU 7 instructions: 210000001 cycles: 527775069 heartbeat IPC: 0.35616 cumulative IPC: 0.350553 (Simulation time: 2 hr 25 min 8 sec) 
Heartbeat CPU 3 instructions: 200000000 cycles: 529086427 heartbeat IPC: 0.360607 cumulative IPC: 0.33655 (Simulation time: 2 hr 25 min 27 sec) 
Heartbeat CPU 5 instructions: 130000002 cycles: 534270738 heartbeat IPC: 0.208538 cumulative IPC: 0.211111 (Simulation time: 2 hr 26 min 43 sec) 
Heartbeat CPU 4 instructions: 260000000 cycles: 535296753 heartbeat IPC: 0.521296 cumulative IPC: 0.448534 (Simulation time: 2 hr 26 min 59 sec) 
Heartbeat CPU 2 instructions: 450000002 cycles: 535566812 heartbeat IPC: 0.808014 cumulative IPC: 0.817877 (Simulation time: 2 hr 27 min 4 sec) 
Heartbeat CPU 2 instructions: 460000000 cycles: 547971307 heartbeat IPC: 0.806159 cumulative IPC: 0.817605 (Simulation time: 2 hr 29 min 55 sec) 
Heartbeat CPU 1 instructions: 130000002 cycles: 555854769 heartbeat IPC: 0.173514 cumulative IPC: 0.173253 (Simulation time: 2 hr 31 min 27 sec) 
Heartbeat CPU 7 instructions: 220000000 cycles: 558858042 heartbeat IPC: 0.32172 cumulative IPC: 0.348911 (Simulation time: 2 hr 32 min 3 sec) 
Heartbeat CPU 3 instructions: 210000002 cycles: 559033403 heartbeat IPC: 0.333924 cumulative IPC: 0.336406 (Simulation time: 2 hr 32 min 5 sec) 
Heartbeat CPU 2 instructions: 470000002 cycles: 560650634 heartbeat IPC: 0.788686 cumulative IPC: 0.816935 (Simulation time: 2 hr 32 min 25 sec) 
Heartbeat CPU 4 instructions: 270000000 cycles: 566264345 heartbeat IPC: 0.322918 cumulative IPC: 0.4415 (Simulation time: 2 hr 33 min 34 sec) 
Heartbeat CPU 0 instructions: 220000000 cycles: 569380435 heartbeat IPC: 0.205197 cumulative IPC: 0.322286 (Simulation time: 2 hr 34 min 15 sec) 
Heartbeat CPU 6 instructions: 140000000 cycles: 572675080 heartbeat IPC: 0.196386 cumulative IPC: 0.208419 (Simulation time: 2 hr 34 min 56 sec) 
Heartbeat CPU 2 instructions: 480000000 cycles: 572870410 heartbeat IPC: 0.818345 cumulative IPC: 0.816966 (Simulation time: 2 hr 34 min 58 sec) 
Heartbeat CPU 3 instructions: 220000000 cycles: 582741855 heartbeat IPC: 0.42179 cumulative IPC: 0.33996 (Simulation time: 2 hr 36 min 56 sec) 
Heartbeat CPU 2 instructions: 490000002 cycles: 585288893 heartbeat IPC: 0.805251 cumulative IPC: 0.816712 (Simulation time: 2 hr 37 min 27 sec) 
Heartbeat CPU 7 instructions: 230000003 cycles: 589035407 heartbeat IPC: 0.331374 cumulative IPC: 0.347991 (Simulation time: 2 hr 38 min 13 sec) 
Finished CPU 1 instructions: 100000002 cycles: 577780082 cumulative IPC: 0.173076 (Simulation time: 2 hr 38 min 38 sec) 

CPU 0 Branch Prediction Accuracy: 99.8669% MPKI: 0.201994

CPU 1 Branch Prediction Accuracy: 99.9785% MPKI: 0.0206318

CPU 2 Branch Prediction Accuracy: 99.7661% MPKI: 0.00364443

CPU 3 Branch Prediction Accuracy: 99.8827% MPKI: 0.0607441

CPU 4 Branch Prediction Accuracy: 99.9611% MPKI: 0.0294038

CPU 5 Branch Prediction Accuracy: 98.541% MPKI: 1.67715

CPU 6 Branch Prediction Accuracy: 92.4383% MPKI: 13.6693

CPU 7 Branch Prediction Accuracy: 99.975% MPKI: 0.00418177

ChampSim completed all CPUs

Total Simulation Statistics (not including warmup)

CPU 0 cumulative IPC: 0.317908 instructions: 183680815 cycles: 577780082
L1D TOTAL     ACCESS:   14828227  HIT:   11490034  MISS:    3338193
L1D LOAD      ACCESS:   11131744  HIT:    7793554  MISS:    3338190
L1D RFO       ACCESS:    3696483  HIT:    3696480  MISS:          3
L1D PREFETCH  ACCESS:          0  HIT:          0  MISS:          0
L1D WRITEBACK ACCESS:          0  HIT:          0  MISS:          0
L1I TOTAL     ACCESS:   39964337  HIT:   39964326  MISS:         11
L1I LOAD      ACCESS:   39964337  HIT:   39964326  MISS:         11
L1I RFO       ACCESS:          0  HIT:          0  MISS:          0
L1I PREFETCH  ACCESS:          0  HIT:          0  MISS:          0
L1I WRITEBACK ACCESS:          0  HIT:          0  MISS:          0
L2C TOTAL     ACCESS:    3368494  HIT:      30306  MISS:    3338188
L2C LOAD      ACCESS:    3338201  HIT:         40  MISS:    3338161
L2C RFO       ACCESS:          3  HIT:          0  MISS:          3
L2C PREFETCH  ACCESS:          0  HIT:          0  MISS:          0
L2C WRITEBACK ACCESS:      30290  HIT:      30266  MISS:         24
LLC TOTAL     ACCESS:    3370175  HIT:      32763  MISS:    3337412
LLC LOAD      ACCESS:    3338161  HIT:        758  MISS:    3337403
LLC RFO       ACCESS:          3  HIT:          0  MISS:          3
LLC PREFETCH  ACCESS:          0  HIT:          0  MISS:          0
LLC WRITEBACK ACCESS:      32011  HIT:      32005  MISS:          6

CPU 1 cumulative IPC: 0.173076 instructions: 100000002 cycles: 577780082
L1D TOTAL     ACCESS:   19625384  HIT:   14164267  MISS:    5461117
L1D LOAD      ACCESS:   15191001  HIT:   10007146  MISS:    5183855
L1D RFO       ACCESS:    4434383  HIT:    4157121  MISS:     277262
L1D PREFETCH  ACCESS:          0  HIT:          0  MISS:          0
L1D WRITEBACK ACCESS:          0  HIT:          0  MISS:          0
L1I TOTAL     ACCESS:   25409220  HIT:   25409220  MISS:          0
L1I LOAD      ACCESS:   25409220  HIT:   25409220  MISS:          0
L1I RFO       ACCESS:          0  HIT:          0  MISS:          0
L1I PREFETCH  ACCESS:          0  HIT:          0  MISS:          0
L1I WRITEBACK ACCESS:          0  HIT:          0  MISS:          0
L2C TOTAL     ACCESS:    7678314  HIT:    4289727  MISS:    3388587
L2C LOAD      ACCESS:    5183855  HIT:    2016282  MISS:    3167573
L2C RFO       ACCESS:     277262  HIT:      56249  MISS:     221013
L2C PREFETCH  ACCESS:          0  HIT:          0  MISS:          0
L2C WRITEBACK ACCESS:    2217197  HIT:    2217196  MISS:          1
LLC TOTAL     ACCESS:    5605622  HIT:    3053901  MISS:    2551721
LLC LOAD      ACCESS:    3167573  HIT:     615868  MISS:    2551705
LLC RFO       ACCESS:     221013  HIT:     221008  MISS:          5
LLC PREFETCH  ACCESS:          0  HIT:          0  MISS:          0
LLC WRITEBACK ACCESS:    2217036  HIT:    2217025  MISS:         11

CPU 2 cumulative IPC: 0.816771 instructions: 471914211 cycles: 577780082
L1D TOTAL     ACCESS:  140676960  HIT:   87048319  MISS:   53628641
L1D LOAD      ACCESS:   88297590  HIT:   38474676  MISS:   49822914
L1D RFO       ACCESS:   52379370  HIT:   48573643  MISS:    3805727
L1D PREFETCH  ACCESS:          0  HIT:          0  MISS:          0
L1D WRITEBACK ACCESS:          0  HIT:          0  MISS:          0
L1I TOTAL     ACCESS:  118727697  HIT:  117970382  MISS:     757315
L1I LOAD      ACCESS:  118727697  HIT:  117970382  MISS:     757315
L1I RFO       ACCESS:          0  HIT:          0  MISS:          0
L1I PREFETCH  ACCESS:          0  HIT:          0  MISS:          0
L1I WRITEBACK ACCESS:          0  HIT:          0  MISS:          0
L2C TOTAL     ACCESS:   58453689  HIT:   43903663  MISS:   14550026
L2C LOAD      ACCESS:   50349383  HIT:   38039296  MISS:   12310087
L2C RFO       ACCESS:    3803023  HIT:    1563193  MISS:    2239830
L2C PREFETCH  ACCESS:          0  HIT:          0  MISS:          0
L2C WRITEBACK ACCESS:    4301283  HIT:    4301174  MISS:        109
LLC TOTAL     ACCESS:   16687048  HIT:   13208172  MISS:    3478876
LLC LOAD      ACCESS:   12309603  HIT:    8848547  MISS:    3461056
LLC RFO       ACCESS:    1991543  HIT:    1974410  MISS:      17133
LLC PREFETCH  ACCESS:          0  HIT:          0  MISS:          0
LLC WRITEBACK ACCESS:    2385902  HIT:    2385215  MISS:        687

CPU 3 cumulative IPC: 0.341263 instructions: 197174823 cycles: 577780082
L1D TOTAL     ACCESS:   50585627  HIT:   46088936  MISS:    4496691
L1D LOAD      ACCESS:   44852945  HIT:   41684543  MISS:    3168402
L1D RFO       ACCESS:    5732682  HIT:    4404393  MISS:    1328289
L1D PREFETCH  ACCESS:          0  HIT:          0  MISS:          0
L1D WRITEBACK ACCESS:          0  HIT:          0  MISS:          0
L1I TOTAL     ACCESS:   57171162  HIT:   57171115  MISS:         47
L1I LOAD      ACCESS:   57171162  HIT:   57171115  MISS:         47
L1I RFO       ACCESS:          0  HIT:          0  MISS:          0
L1I PREFETCH  ACCESS:          0  HIT:          0  MISS:          0
L1I WRITEBACK ACCESS:          0  HIT:          0  MISS:          0
L2C TOTAL     ACCESS:    5833318  HIT:    1571367  MISS:    4261951
L2C LOAD      ACCESS:    3168449  HIT:     234808  MISS:    2933641
L2C RFO       ACCESS:    1328289  HIT:          0  MISS:    1328289
L2C PREFETCH  ACCESS:          0  HIT:          0  MISS:          0
L2C WRITEBACK ACCESS:    1336580  HIT:    1336559  MISS:         21
LLC TOTAL     ACCESS:    5590340  HIT:    1328547  MISS:    4261793
LLC LOAD      ACCESS:    2933641  HIT:        176  MISS:    2933465
LLC RFO       ACCESS:    1328289  HIT:          0  MISS:    1328289
LLC PREFETCH  ACCESS:          0  HIT:          0  MISS:          0
LLC WRITEBACK ACCESS:    1328410  HIT:    1328371  MISS:         39

CPU 4 cumulative IPC: 0.432139 instructions: 249681053 cycles: 577780082
L1D TOTAL     ACCESS:   74126408  HIT:   72250114  MISS:    1876294
L1D LOAD      ACCESS:   46488571  HIT:   45251519  MISS:    1237052
L1D RFO       ACCESS:   27637837  HIT:   26998595  MISS:     639242
L1D PREFETCH  ACCESS:          0  HIT:          0  MISS:          0
L1D WRITEBACK ACCESS:          0  HIT:          0  MISS:          0
L1I TOTAL     ACCESS:   96871162  HIT:   96871099  MISS:         63
L1I LOAD      ACCESS:   96871162  HIT:   96871099  MISS:         63
L1I RFO       ACCESS:          0  HIT:          0  MISS:          0
L1I PREFETCH  ACCESS:          0  HIT:          0  MISS:          0
L1I WRITEBACK ACCESS:          0  HIT:          0  MISS:          0
L2C TOTAL     ACCESS:    2519867  HIT:     655067  MISS:    1864800
L2C LOAD      ACCESS:    1237115  HIT:      12345  MISS:    1224770
L2C RFO       ACCESS:     639241  HIT:         26  MISS:     639215
L2C PREFETCH  ACCESS:          0  HIT:          0  MISS:          0
L2C WRITEBACK ACCESS:     643511  HIT:     642696  MISS:        815
LLC TOTAL     ACCESS:    2503915  HIT:     589307  MISS:    1914608
LLC LOAD      ACCESS:    1224770  HIT:         13  MISS:    1224757
LLC RFO       ACCESS:     639215  HIT:          0  MISS:     639215
LLC PREFETCH  ACCESS:          0  HIT:          0  MISS:          0
LLC WRITEBACK ACCESS:     639930  HIT:     589294  MISS:      50636

CPU 5 cumulative IPC: 0.206932 instructions: 119561401 cycles: 577780082
L1D TOTAL     ACCESS:   57221507  HIT:   51084856  MISS:    6136651
L1D LOAD      ACCESS:   28869656  HIT:   23021199  MISS:    5848457
L1D RFO       ACCESS:   28351851  HIT:   28063657  MISS:     288194
L1D PREFETCH  ACCESS:          0  HIT:          0  MISS:          0
L1D WRITEBACK ACCESS:          0  HIT:          0  MISS:          0
L1I TOTAL     ACCESS:   39285287  HIT:   39285287  MISS:          0
L1I LOAD      ACCESS:   39285287  HIT:   39285287  MISS:          0
L1I RFO       ACCESS:          0  HIT:          0  MISS:          0
L1I PREFETCH  ACCESS:          0  HIT:          0  MISS:          0
L1I WRITEBACK ACCESS:          0  HIT:          0  MISS:          0
L2C TOTAL     ACCESS:    6822826  HIT:     843758  MISS:    5979068
L2C LOAD      ACCESS:    5848432  HIT:     151285  MISS:    5697147
L2C RFO       ACCESS:     288173  HIT:      10247  MISS:     277926
L2C PREFETCH  ACCESS:          0  HIT:          0  MISS:          0
L2C WRITEBACK ACCESS:     686221  HIT:     682226  MISS:       3995
LLC TOTAL     ACCESS:    6542892  HIT:    2650472  MISS:    3892420
LLC LOAD      ACCESS:    5697146  HIT:    2083366  MISS:    3613780
LLC RFO       ACCESS:     277926  HIT:        584  MISS:     277342
LLC PREFETCH  ACCESS:          0  HIT:          0  MISS:          0
LLC WRITEBACK ACCESS:     567820  HIT:     566522  MISS:       1298

CPU 6 cumulative IPC: 0.204038 instructions: 117888852 cycles: 577780083
L1D TOTAL     ACCESS:   48532541  HIT:   44098442  MISS:    4434099
L1D LOAD      ACCESS:   36634708  HIT:   32243050  MISS:    4391658
L1D RFO       ACCESS:   11897833  HIT:   11855392  MISS:      42441
L1D PREFETCH  ACCESS:          0  HIT:          0  MISS:          0
L1D WRITEBACK ACCESS:          0  HIT:          0  MISS:          0
L1I TOTAL     ACCESS:   25512253  HIT:   25512253  MISS:          0
L1I LOAD      ACCESS:   25512253  HIT:   25512253  MISS:          0
L1I RFO       ACCESS:          0  HIT:          0  MISS:          0
L1I PREFETCH  ACCESS:          0  HIT:          0  MISS:          0
L1I WRITEBACK ACCESS:          0  HIT:          0  MISS:          0
L2C TOTAL     ACCESS:    4752075  HIT:    1727923  MISS:    3024152
L2C LOAD      ACCESS:    4391649  HIT:    1376166  MISS:    3015483
L2C RFO       ACCESS:      42436  HIT:      34536  MISS:       7900
L2C PREFETCH  ACCESS:          0  HIT:          0  MISS:          0
L2C WRITEBACK ACCESS:     317990  HIT:     317221  MISS:        769
LLC TOTAL     ACCESS:    3227885  HIT:    1309599  MISS:    1918286
LLC LOAD      ACCESS:    3015481  HIT:    1099094  MISS:    1916387
LLC RFO       ACCESS:       7899  HIT:       6188  MISS:       1711
LLC PREFETCH  ACCESS:          0  HIT:          0  MISS:          0
LLC WRITEBACK ACCESS:     204505  HIT:     204317  MISS:        188

CPU 7 cumulative IPC: 0.34798 instructions: 201056112 cycles: 577780083
L1D TOTAL     ACCESS:   41428221  HIT:   38767480  MISS:    2660741
L1D LOAD      ACCESS:   27319350  HIT:   24661262  MISS:    2658088
L1D RFO       ACCESS:   14108871  HIT:   14106218  MISS:       2653
L1D PREFETCH  ACCESS:          0  HIT:          0  MISS:          0
L1D WRITEBACK ACCESS:          0  HIT:          0  MISS:          0
L1I TOTAL     ACCESS:   40135131  HIT:   40135131  MISS:          0
L1I LOAD      ACCESS:   40135131  HIT:   40135131  MISS:          0
L1I RFO       ACCESS:          0  HIT:          0  MISS:          0
L1I PREFETCH  ACCESS:          0  HIT:          0  MISS:          0
L1I WRITEBACK ACCESS:          0  HIT:          0  MISS:          0
L2C TOTAL     ACCESS:    4427465  HIT:    1852975  MISS:    2574490
L2C LOAD      ACCESS:    2658088  HIT:      85805  MISS:    2572283
L2C RFO       ACCESS:       2653  HIT:        446  MISS:       2207
L2C PREFETCH  ACCESS:          0  HIT:          0  MISS:          0
L2C WRITEBACK ACCESS:    1766724  HIT:    1766724  MISS:          0
LLC TOTAL     ACCESS:    4340074  HIT:    2575205  MISS:    1764869
LLC LOAD      ACCESS:    2572283  HIT:     807448  MISS:    1764835
LLC RFO       ACCESS:       2207  HIT:       2206  MISS:          1
LLC PREFETCH  ACCESS:          0  HIT:          0  MISS:          0
LLC WRITEBACK ACCESS:    1765584  HIT:    1765551  MISS:         33

Region of Interest Statistics

CPU 0 cumulative IPC: 0.365283 instructions: 100000003 cycles: 273760268
L1D TOTAL     ACCESS:    8295275  HIT:    6710854  MISS:    1584421
L1D LOAD      ACCESS:    5711517  HIT:    4127097  MISS:    1584420
L1D RFO       ACCESS:    2583758  HIT:    2583757  MISS:          1
L1D PREFETCH  ACCESS:          0  HIT:          0  MISS:          0
L1D WRITEBACK ACCESS:          0  HIT:          0  MISS:          0
L1D PREFETCH  REQUESTED:          0  ISSUED:          0  USEFUL:          0  USELESS:          0
L1I TOTAL     ACCESS:   22243821  HIT:   22243817  MISS:          4
L1I LOAD      ACCESS:   22243821  HIT:   22243817  MISS:          4
L1I RFO       ACCESS:          0  HIT:          0  MISS:          0
L1I PREFETCH  ACCESS:          0  HIT:          0  MISS:          0
L1I WRITEBACK ACCESS:          0  HIT:          0  MISS:          0
L1I PREFETCH  REQUESTED:          0  ISSUED:          0  USEFUL:          0  USELESS:          0
L2C TOTAL     ACCESS:    1614711  HIT:      30305  MISS:    1584406
L2C LOAD      ACCESS:    1584424  HIT:         40  MISS:    1584384
L2C RFO       ACCESS:          1  HIT:          0  MISS:          1
L2C PREFETCH  ACCESS:          0  HIT:          0  MISS:          0
L2C WRITEBACK ACCESS:      30286  HIT:      30265  MISS:         21
L2C PREFETCH  REQUESTED:          0  ISSUED:          0  USEFUL:          0  USELESS:          0
LLC TOTAL     ACCESS:    1616392  HIT:      32371  MISS:    1584021
LLC LOAD      ACCESS:    1584384  HIT:        367  MISS:    1584017
LLC RFO       ACCESS:          1  HIT:          0  MISS:          1
LLC PREFETCH  ACCESS:          0  HIT:          0  MISS:          0
LLC WRITEBACK ACCESS:      32007  HIT:      32004  MISS:          3
LLC PREFETCH  REQUESTED:          0  ISSUED:          0  USEFUL:          0  USELESS:          0
Major fault: 0 Minor fault: 56607

CPU 1 cumulative IPC: 0.173076 instructions: 100000002 cycles: 577780082
L1D TOTAL     ACCESS:   19625384  HIT:   14164267  MISS:    5461117
L1D LOAD      ACCESS:   15191001  HIT:   10007146  MISS:    5183855
L1D RFO       ACCESS:    4434383  HIT:    4157121  MISS:     277262
L1D PREFETCH  ACCESS:          0  HIT:          0  MISS:          0
L1D WRITEBACK ACCESS:          0  HIT:          0  MISS:          0
L1D PREFETCH  REQUESTED:          0  ISSUED:          0  USEFUL:          0  USELESS:          0
L1I TOTAL     ACCESS:   25409220  HIT:   25409220  MISS:          0
L1I LOAD      ACCESS:   25409220  HIT:   25409220  MISS:          0
L1I RFO       ACCESS:          0  HIT:          0  MISS:          0
L1I PREFETCH  ACCESS:          0  HIT:          0  MISS:          0
L1I WRITEBACK ACCESS:          0  HIT:          0  MISS:          0
L1I PREFETCH  REQUESTED:          0  ISSUED:          0  USEFUL:          0  USELESS:          0
L2C TOTAL     ACCESS:    7678314  HIT:    4289727  MISS:    3388587
L2C LOAD      ACCESS:    5183855  HIT:    2016282  MISS:    3167573
L2C RFO       ACCESS:     277262  HIT:      56249  MISS:     221013
L2C PREFETCH  ACCESS:          0  HIT:          0  MISS:          0
L2C WRITEBACK ACCESS:    2217197  HIT:    2217196  MISS:          1
L2C PREFETCH  REQUESTED:          0  ISSUED:          0  USEFUL:          0  USELESS:          0
LLC TOTAL     ACCESS:    5605622  HIT:    3053901  MISS:    2551721
LLC LOAD      ACCESS:    3167573  HIT:     615868  MISS:    2551705
LLC RFO       ACCESS:     221013  HIT:     221008  MISS:          5
LLC PREFETCH  ACCESS:          0  HIT:          0  MISS:          0
LLC WRITEBACK ACCESS:    2217036  HIT:    2217025  MISS:         11
LLC PREFETCH  REQUESTED:          0  ISSUED:          0  USEFUL:          0  USELESS:          0
Major fault: 0 Minor fault: 56270

CPU 2 cumulative IPC: 0.831073 instructions: 100000003 cycles: 120326316
L1D TOTAL     ACCESS:   32296804  HIT:   21767845  MISS:   10528959
L1D LOAD      ACCESS:   21961200  HIT:   12201079  MISS:    9760121
L1D RFO       ACCESS:   10335604  HIT:    9566766  MISS:     768838
L1D PREFETCH  ACCESS:          0  HIT:          0  MISS:          0
L1D WRITEBACK ACCESS:          0  HIT:          0  MISS:          0
L1D PREFETCH  REQUESTED:          0  ISSUED:          0  USEFUL:          0  USELESS:          0
L1I TOTAL     ACCESS:   24833310  HIT:   24075995  MISS:     757315
L1I LOAD      ACCESS:   24833310  HIT:   24075995  MISS:     757315
L1I RFO       ACCESS:          0  HIT:          0  MISS:          0
L1I PREFETCH  ACCESS:          0  HIT:          0  MISS:          0
L1I WRITEBACK ACCESS:          0  HIT:          0  MISS:          0
L1I PREFETCH  REQUESTED:          0  ISSUED:          0  USEFUL:          0  USELESS:          0
L2C TOTAL     ACCESS:   12115356  HIT:    9564574  MISS:    2550782
L2C LOAD      ACCESS:   10480658  HIT:    8312834  MISS:    2167824
L2C RFO       ACCESS:     768353  HIT:     385483  MISS:     382870
L2C PREFETCH  ACCESS:          0  HIT:          0  MISS:          0
L2C WRITEBACK ACCESS:     866345  HIT:     866257  MISS:         88
L2C PREFETCH  REQUESTED:          0  ISSUED:          0  USEFUL:          0  USELESS:          0
LLC TOTAL     ACCESS:    2915638  HIT:    2293366  MISS:     622272
LLC LOAD      ACCESS:    2167769  HIT:    1562864  MISS:     604905
LLC RFO       ACCESS:     342352  HIT:     325219  MISS:      17133
LLC PREFETCH  ACCESS:          0  HIT:          0  MISS:          0
LLC WRITEBACK ACCESS:     405517  HIT:     405283  MISS:        234
LLC PREFETCH  REQUESTED:          0  ISSUED:          0  USEFUL:          0  USELESS:          0
Major fault: 0 Minor fault: 24601

CPU 3 cumulative IPC: 0.335752 instructions: 100000002 cycles: 297838721
L1D TOTAL     ACCESS:   25382388  HIT:   23165614  MISS:    2216774
L1D LOAD      ACCESS:   22393770  HIT:   20873784  MISS:    1519986
L1D RFO       ACCESS:    2988618  HIT:    2291830  MISS:     696788
L1D PREFETCH  ACCESS:          0  HIT:          0  MISS:          0
L1D WRITEBACK ACCESS:          0  HIT:          0  MISS:          0
L1D PREFETCH  REQUESTED:          0  ISSUED:          0  USEFUL:          0  USELESS:          0
L1I TOTAL     ACCESS:   29504525  HIT:   29504525  MISS:          0
L1I LOAD      ACCESS:   29504525  HIT:   29504525  MISS:          0
L1I RFO       ACCESS:          0  HIT:          0  MISS:          0
L1I PREFETCH  ACCESS:          0  HIT:          0  MISS:          0
L1I WRITEBACK ACCESS:          0  HIT:          0  MISS:          0
L1I PREFETCH  REQUESTED:          0  ISSUED:          0  USEFUL:          0  USELESS:          0
L2C TOTAL     ACCESS:    2917521  HIT:     717262  MISS:    2200259
L2C LOAD      ACCESS:    1519986  HIT:      16519  MISS:    1503467
L2C RFO       ACCESS:     696788  HIT:          0  MISS:     696788
L2C PREFETCH  ACCESS:          0  HIT:          0  MISS:          0
L2C WRITEBACK ACCESS:     700747  HIT:     700743  MISS:          4
L2C PREFETCH  REQUESTED:          0  ISSUED:          0  USEFUL:          0  USELESS:          0
LLC TOTAL     ACCESS:    2895629  HIT:     695394  MISS:    2200235
LLC LOAD      ACCESS:    1503467  HIT:         39  MISS:    1503428
LLC RFO       ACCESS:     696788  HIT:          0  MISS:     696788
LLC PREFETCH  ACCESS:          0  HIT:          0  MISS:          0
LLC WRITEBACK ACCESS:     695374  HIT:     695355  MISS:         19
LLC PREFETCH  REQUESTED:          0  ISSUED:          0  USEFUL:          0  USELESS:          0
Major fault: 0 Minor fault: 46449

CPU 4 cumulative IPC: 0.428638 instructions: 100000002 cycles: 233297257
L1D TOTAL     ACCESS:   29745521  HIT:   28943333  MISS:     802188
L1D LOAD      ACCESS:   18817299  HIT:   18287536  MISS:     529763
L1D RFO       ACCESS:   10928222  HIT:   10655797  MISS:     272425
L1D PREFETCH  ACCESS:          0  HIT:          0  MISS:          0
L1D WRITEBACK ACCESS:          0  HIT:          0  MISS:          0
L1D PREFETCH  REQUESTED:          0  ISSUED:          0  USEFUL:          0  USELESS:          0
L1I TOTAL     ACCESS:   38529168  HIT:   38529105  MISS:         63
L1I LOAD      ACCESS:   38529168  HIT:   38529105  MISS:         63
L1I RFO       ACCESS:          0  HIT:          0  MISS:          0
L1I PREFETCH  ACCESS:          0  HIT:          0  MISS:          0
L1I WRITEBACK ACCESS:          0  HIT:          0  MISS:          0
L1I PREFETCH  REQUESTED:          0  ISSUED:          0  USEFUL:          0  USELESS:          0
L2C TOTAL     ACCESS:    1076860  HIT:     280266  MISS:     796594
L2C LOAD      ACCESS:     529826  HIT:       6058  MISS:     523768
L2C RFO       ACCESS:     272425  HIT:          0  MISS:     272425
L2C PREFETCH  ACCESS:          0  HIT:          0  MISS:          0
L2C WRITEBACK ACCESS:     274609  HIT:     274208  MISS:        401
L2C PREFETCH  REQUESTED:          0  ISSUED:          0  USEFUL:          0  USELESS:          0
LLC TOTAL     ACCESS:    1069320  HIT:     253132  MISS:     816188
LLC LOAD      ACCESS:     523768  HIT:          4  MISS:     523764
LLC RFO       ACCESS:     272425  HIT:          0  MISS:     272425
LLC PREFETCH  ACCESS:          0  HIT:          0  MISS:          0
LLC WRITEBACK ACCESS:     273127  HIT:     253128  MISS:      19999
LLC PREFETCH  REQUESTED:          0  ISSUED:          0  USEFUL:          0  USELESS:          0
Major fault: 0 Minor fault: 21289

CPU 5 cumulative IPC: 0.211371 instructions: 100000000 cycles: 473100688
L1D TOTAL     ACCESS:   47904754  HIT:   42849135  MISS:    5055619
L1D LOAD      ACCESS:   24084672  HIT:   19269964  MISS:    4814708
L1D RFO       ACCESS:   23820082  HIT:   23579171  MISS:     240911
L1D PREFETCH  ACCESS:          0  HIT:          0  MISS:          0
L1D WRITEBACK ACCESS:          0  HIT:          0  MISS:          0
L1D PREFETCH  REQUESTED:          0  ISSUED:          0  USEFUL:          0  USELESS:          0
L1I TOTAL     ACCESS:   32800531  HIT:   32800531  MISS:          0
L1I LOAD      ACCESS:   32800531  HIT:   32800531  MISS:          0
L1I RFO       ACCESS:          0  HIT:          0  MISS:          0
L1I PREFETCH  ACCESS:          0  HIT:          0  MISS:          0
L1I WRITEBACK ACCESS:          0  HIT:          0  MISS:          0
L1I PREFETCH  REQUESTED:          0  ISSUED:          0  USEFUL:          0  USELESS:          0
L2C TOTAL     ACCESS:    5624515  HIT:     700218  MISS:    4924297
L2C LOAD      ACCESS:    4814684  HIT:     126043  MISS:    4688641
L2C RFO       ACCESS:     240893  HIT:       8598  MISS:     232295
L2C PREFETCH  ACCESS:          0  HIT:          0  MISS:          0
L2C WRITEBACK ACCESS:     568938  HIT:     565577  MISS:       3361
L2C PREFETCH  REQUESTED:          0  ISSUED:          0  USEFUL:          0  USELESS:          0
LLC TOTAL     ACCESS:    5391174  HIT:    2268549  MISS:    3122625
LLC LOAD      ACCESS:    4688640  HIT:    1798903  MISS:    2889737
LLC RFO       ACCESS:     232295  HIT:        495  MISS:     231800
LLC PREFETCH  ACCESS:          0  HIT:          0  MISS:          0
LLC WRITEBACK ACCESS:     470239  HIT:     469151  MISS:       1088
LLC PREFETCH  REQUESTED:          0  ISSUED:          0  USEFUL:          0  USELESS:          0
Major fault: 0 Minor fault: 27575

CPU 6 cumulative IPC: 0.207411 instructions: 100000000 cycles: 482135111
L1D TOTAL     ACCESS:   41136386  HIT:   37405380  MISS:    3731006
L1D LOAD      ACCESS:   31019499  HIT:   27324247  MISS:    3695252
L1D RFO       ACCESS:   10116887  HIT:   10081133  MISS:      35754
L1D PREFETCH  ACCESS:          0  HIT:          0  MISS:          0
L1D WRITEBACK ACCESS:          0  HIT:          0  MISS:          0
L1D PREFETCH  REQUESTED:          0  ISSUED:          0  USEFUL:          0  USELESS:          0
L1I TOTAL     ACCESS:   21617696  HIT:   21617696  MISS:          0
L1I LOAD      ACCESS:   21617696  HIT:   21617696  MISS:          0
L1I RFO       ACCESS:          0  HIT:          0  MISS:          0
L1I PREFETCH  ACCESS:          0  HIT:          0  MISS:          0
L1I WRITEBACK ACCESS:          0  HIT:          0  MISS:          0
L1I PREFETCH  REQUESTED:          0  ISSUED:          0  USEFUL:          0  USELESS:          0
L2C TOTAL     ACCESS:    3999952  HIT:    1463449  MISS:    2536503
L2C LOAD      ACCESS:    3695248  HIT:    1166044  MISS:    2529204
L2C RFO       ACCESS:      35751  HIT:      29116  MISS:       6635
L2C PREFETCH  ACCESS:          0  HIT:          0  MISS:          0
L2C WRITEBACK ACCESS:     268953  HIT:     268289  MISS:        664
L2C PREFETCH  REQUESTED:          0  ISSUED:          0  USEFUL:          0  USELESS:          0
LLC TOTAL     ACCESS:    2708232  HIT:    1106493  MISS:    1601739
LLC LOAD      ACCESS:    2529202  HIT:     929205  MISS:    1599997
LLC RFO       ACCESS:       6634  HIT:       5058  MISS:       1576
LLC PREFETCH  ACCESS:          0  HIT:          0  MISS:          0
LLC WRITEBACK ACCESS:     172396  HIT:     172230  MISS:        166
LLC PREFETCH  REQUESTED:          0  ISSUED:          0  USEFUL:          0  USELESS:          0
Major fault: 0 Minor fault: 151898

CPU 7 cumulative IPC: 0.353428 instructions: 100000000 cycles: 282943219
L1D TOTAL     ACCESS:   20605264  HIT:   19281888  MISS:    1323376
L1D LOAD      ACCESS:   13587900  HIT:   12265842  MISS:    1322058
L1D RFO       ACCESS:    7017364  HIT:    7016046  MISS:       1318
L1D PREFETCH  ACCESS:          0  HIT:          0  MISS:          0
L1D WRITEBACK ACCESS:          0  HIT:          0  MISS:          0
L1D PREFETCH  REQUESTED:          0  ISSUED:          0  USEFUL:          0  USELESS:          0
L1I TOTAL     ACCESS:   19961490  HIT:   19961490  MISS:          0
L1I LOAD      ACCESS:   19961490  HIT:   19961490  MISS:          0
L1I RFO       ACCESS:          0  HIT:          0  MISS:          0
L1I PREFETCH  ACCESS:          0  HIT:          0  MISS:          0
L1I WRITEBACK ACCESS:          0  HIT:          0  MISS:          0
L1I PREFETCH  REQUESTED:          0  ISSUED:          0  USEFUL:          0  USELESS:          0
L2C TOTAL     ACCESS:    2202084  HIT:     920640  MISS:    1281444
L2C LOAD      ACCESS:    1322058  HIT:      41715  MISS:    1280343
L2C RFO       ACCESS:       1318  HIT:        217  MISS:       1101
L2C PREFETCH  ACCESS:          0  HIT:          0  MISS:          0
L2C WRITEBACK ACCESS:     878708  HIT:     878708  MISS:          0
L2C PREFETCH  REQUESTED:          0  ISSUED:          0  USEFUL:          0  USELESS:          0
LLC TOTAL     ACCESS:    2159472  HIT:    1281925  MISS:     877547
LLC LOAD      ACCESS:    1280343  HIT:     402808  MISS:     877535
LLC RFO       ACCESS:       1101  HIT:       1101  MISS:          0
LLC PREFETCH  ACCESS:          0  HIT:          0  MISS:          0
LLC WRITEBACK ACCESS:     878028  HIT:     878016  MISS:         12
LLC PREFETCH  REQUESTED:          0  ISSUED:          0  USEFUL:          0  USELESS:          0
Major fault: 0 Minor fault: 31699

DRAM Statistics
 CHANNEL 0
 RQ ROW_BUFFER_HIT:    4011953  ROW_BUFFER_MISS:    7523388
 DBUS_CONGESTED:   17583522
 WQ ROW_BUFFER_HIT:     252139  ROW_BUFFER_MISS:    3327526  FULL:          0

 CHANNEL 1
 RQ ROW_BUFFER_HIT:    3986047  ROW_BUFFER_MISS:    7545679
 DBUS_CONGESTED:   17583522
 WQ ROW_BUFFER_HIT:     254337  ROW_BUFFER_MISS:    3324440  FULL:          0

 AVG_CONGESTED_CYCLE: 13
