
*** ChampSim Multicore Out-of-Order Simulator ***

Warmup Instructions: 20000000
Simulation Instructions: 100000000
Number of CPUs: 8
LLC sets: 16384
LLC ways: 16
Off-chip DRAM Size: 8192 MB Channels: 2 Width: 64-bit Data Rate: 1600 MT/s

CPU 0 runs /scratch/user/djimenez/champsim-traces/speccpu2017/xz/654.roms_s/654.roms_s-1390B.champsimtrace.xz
CPU 1 runs /scratch/user/djimenez/champsim-traces/speccpu2017/xz/649.fotonik3d_s/649.fotonik3d_s-8225B.champsimtrace.xz
CPU 2 runs /scratch/user/djimenez/champsim-traces/speccpu2017/xz/605.mcf_s/605.mcf_s-1554B.champsimtrace.xz
CPU 3 runs /scratch/user/djimenez/champsim-traces/speccpu2017/xz/603.bwaves_s/603.bwaves_s-2609B.champsimtrace.xz
CPU 4 runs /scratch/user/djimenez/champsim-traces/speccpu2017/xz/627.cam4_s/627.cam4_s-490B.champsimtrace.xz
CPU 5 runs /scratch/user/djimenez/champsim-traces/speccpu2017/xz/619.lbm_s/619.lbm_s-2676B.champsimtrace.xz
CPU 6 runs /scratch/user/djimenez/champsim-traces/speccpu2017/xz/623.xalancbmk_s/623.xalancbmk_s-10B.champsimtrace.xz
CPU 7 runs /scratch/user/djimenez/champsim-traces/speccpu2017/xz/623.xalancbmk_s/623.xalancbmk_s-165B.champsimtrace.xz
Heartbeat CPU 4 instructions: 10000002 cycles: 4028017 heartbeat IPC: 2.48261 cumulative IPC: 2.48261 (Simulation time: 0 hr 3 min 43 sec) 
Heartbeat CPU 7 instructions: 10000001 cycles: 4366097 heartbeat IPC: 2.29038 cumulative IPC: 2.29038 (Simulation time: 0 hr 4 min 1 sec) 
Heartbeat CPU 1 instructions: 10000001 cycles: 4474015 heartbeat IPC: 2.23513 cumulative IPC: 2.23513 (Simulation time: 0 hr 4 min 7 sec) 
Heartbeat CPU 5 instructions: 10000000 cycles: 4853352 heartbeat IPC: 2.06043 cumulative IPC: 2.06043 (Simulation time: 0 hr 4 min 29 sec) 
Heartbeat CPU 6 instructions: 10000001 cycles: 5030444 heartbeat IPC: 1.9879 cumulative IPC: 1.9879 (Simulation time: 0 hr 4 min 39 sec) 
Heartbeat CPU 3 instructions: 10000000 cycles: 5299121 heartbeat IPC: 1.88711 cumulative IPC: 1.88711 (Simulation time: 0 hr 4 min 54 sec) 
Heartbeat CPU 2 instructions: 10000001 cycles: 5707485 heartbeat IPC: 1.75209 cumulative IPC: 1.75209 (Simulation time: 0 hr 5 min 17 sec) 
Heartbeat CPU 0 instructions: 10000001 cycles: 6741046 heartbeat IPC: 1.48345 cumulative IPC: 1.48345 (Simulation time: 0 hr 6 min 14 sec) 
Heartbeat CPU 4 instructions: 20000000 cycles: 7817505 heartbeat IPC: 2.63888 cumulative IPC: 2.55836 (Simulation time: 0 hr 7 min 14 sec) 
Heartbeat CPU 7 instructions: 20000000 cycles: 8731181 heartbeat IPC: 2.29091 cumulative IPC: 2.29064 (Simulation time: 0 hr 8 min 5 sec) 
Heartbeat CPU 1 instructions: 20000000 cycles: 8948759 heartbeat IPC: 2.23476 cumulative IPC: 2.23495 (Simulation time: 0 hr 8 min 17 sec) 
Heartbeat CPU 5 instructions: 20000000 cycles: 9685985 heartbeat IPC: 2.06927 cumulative IPC: 2.06484 (Simulation time: 0 hr 8 min 57 sec) 
Heartbeat CPU 6 instructions: 20000000 cycles: 10007395 heartbeat IPC: 2.00926 cumulative IPC: 1.99852 (Simulation time: 0 hr 9 min 14 sec) 
Heartbeat CPU 3 instructions: 20000000 cycles: 10601288 heartbeat IPC: 1.88602 cumulative IPC: 1.88656 (Simulation time: 0 hr 9 min 47 sec) 
Heartbeat CPU 2 instructions: 20000000 cycles: 11420105 heartbeat IPC: 1.75051 cumulative IPC: 1.7513 (Simulation time: 0 hr 10 min 34 sec) 
Heartbeat CPU 4 instructions: 30000001 cycles: 11814717 heartbeat IPC: 2.50174 cumulative IPC: 0.846402 (Simulation time: 0 hr 10 min 56 sec) 
Heartbeat CPU 0 instructions: 20000000 cycles: 11869828 heartbeat IPC: 1.94978 cumulative IPC: 1.68494 (Simulation time: 0 hr 10 min 59 sec) 

Warmup complete CPU 0 instructions: 20000001 cycles: 11869837 (Simulation time: 0 hr 10 min 59 sec) 
Warmup complete CPU 1 instructions: 26516480 cycles: 11869836 (Simulation time: 0 hr 10 min 59 sec) 
Warmup complete CPU 2 instructions: 20795748 cycles: 11869836 (Simulation time: 0 hr 10 min 59 sec) 
Warmup complete CPU 3 instructions: 22393462 cycles: 11869836 (Simulation time: 0 hr 10 min 59 sec) 
Warmup complete CPU 4 instructions: 30170019 cycles: 11869836 (Simulation time: 0 hr 10 min 59 sec) 
Warmup complete CPU 5 instructions: 24498708 cycles: 11869836 (Simulation time: 0 hr 10 min 59 sec) 
Warmup complete CPU 6 instructions: 23558665 cycles: 11869836 (Simulation time: 0 hr 10 min 59 sec) 
Warmup complete CPU 7 instructions: 27136570 cycles: 11869836 (Simulation time: 0 hr 10 min 59 sec) 

Heartbeat CPU 1 instructions: 30000002 cycles: 23666686 heartbeat IPC: 0.679444 cumulative IPC: 0.295293 (Simulation time: 0 hr 14 min 1 sec) 
Heartbeat CPU 7 instructions: 30000001 cycles: 24797460 heartbeat IPC: 0.622422 cumulative IPC: 0.221497 (Simulation time: 0 hr 14 min 18 sec) 
Heartbeat CPU 4 instructions: 40000000 cycles: 25684179 heartbeat IPC: 0.721008 cumulative IPC: 0.711578 (Simulation time: 0 hr 14 min 32 sec) 
Heartbeat CPU 5 instructions: 30000001 cycles: 26268236 heartbeat IPC: 0.603055 cumulative IPC: 0.382077 (Simulation time: 0 hr 14 min 42 sec) 
Heartbeat CPU 3 instructions: 30000000 cycles: 28786747 heartbeat IPC: 0.54989 cumulative IPC: 0.449641 (Simulation time: 0 hr 15 min 20 sec) 
Heartbeat CPU 4 instructions: 50000000 cycles: 39873227 heartbeat IPC: 0.704769 cumulative IPC: 0.708128 (Simulation time: 0 hr 18 min 14 sec) 
Heartbeat CPU 2 instructions: 30000003 cycles: 40494953 heartbeat IPC: 0.34394 cumulative IPC: 0.321545 (Simulation time: 0 hr 18 min 23 sec) 
Heartbeat CPU 3 instructions: 40000000 cycles: 51295302 heartbeat IPC: 0.444276 cumulative IPC: 0.446578 (Simulation time: 0 hr 21 min 8 sec) 
Heartbeat CPU 6 instructions: 30000000 cycles: 52382018 heartbeat IPC: 0.23599 cumulative IPC: 0.158997 (Simulation time: 0 hr 21 min 25 sec) 
Heartbeat CPU 5 instructions: 40000000 cycles: 52552747 heartbeat IPC: 0.380452 cumulative IPC: 0.381027 (Simulation time: 0 hr 21 min 28 sec) 
Heartbeat CPU 4 instructions: 60000000 cycles: 55179901 heartbeat IPC: 0.65331 cumulative IPC: 0.688754 (Simulation time: 0 hr 22 min 12 sec) 
Heartbeat CPU 1 instructions: 40000000 cycles: 57827668 heartbeat IPC: 0.292732 cumulative IPC: 0.293389 (Simulation time: 0 hr 23 min 0 sec) 
Heartbeat CPU 0 instructions: 30000002 cycles: 62304535 heartbeat IPC: 0.198276 cumulative IPC: 0.198276 (Simulation time: 0 hr 24 min 16 sec) 
Heartbeat CPU 4 instructions: 70000000 cycles: 67861388 heartbeat IPC: 0.788551 cumulative IPC: 0.711357 (Simulation time: 0 hr 25 min 44 sec) 
Heartbeat CPU 7 instructions: 40000000 cycles: 70659610 heartbeat IPC: 0.218045 cumulative IPC: 0.218804 (Simulation time: 0 hr 26 min 27 sec) 
Heartbeat CPU 2 instructions: 40000000 cycles: 71994226 heartbeat IPC: 0.317468 cumulative IPC: 0.319409 (Simulation time: 0 hr 26 min 48 sec) 
Heartbeat CPU 3 instructions: 50000001 cycles: 73791494 heartbeat IPC: 0.44452 cumulative IPC: 0.44583 (Simulation time: 0 hr 27 min 15 sec) 
Heartbeat CPU 5 instructions: 50000003 cycles: 78280682 heartbeat IPC: 0.388683 cumulative IPC: 0.383993 (Simulation time: 0 hr 28 min 21 sec) 
Heartbeat CPU 4 instructions: 80000000 cycles: 82514690 heartbeat IPC: 0.68244 cumulative IPC: 0.705359 (Simulation time: 0 hr 29 min 28 sec) 
Heartbeat CPU 1 instructions: 50000000 cycles: 92001000 heartbeat IPC: 0.292626 cumulative IPC: 0.293064 (Simulation time: 0 hr 31 min 52 sec) 
Heartbeat CPU 4 instructions: 90000002 cycles: 95655817 heartbeat IPC: 0.76097 cumulative IPC: 0.714081 (Simulation time: 0 hr 32 min 51 sec) 
Heartbeat CPU 3 instructions: 60000000 cycles: 96006319 heartbeat IPC: 0.45015 cumulative IPC: 0.446971 (Simulation time: 0 hr 32 min 57 sec) 
Heartbeat CPU 5 instructions: 60000000 cycles: 103155165 heartbeat IPC: 0.402018 cumulative IPC: 0.388905 (Simulation time: 0 hr 34 min 46 sec) 
Heartbeat CPU 2 instructions: 50000000 cycles: 103855490 heartbeat IPC: 0.313861 cumulative IPC: 0.317487 (Simulation time: 0 hr 34 min 57 sec) 
Heartbeat CPU 4 instructions: 100000000 cycles: 110143805 heartbeat IPC: 0.690227 cumulative IPC: 0.710564 (Simulation time: 0 hr 36 min 42 sec) 
Heartbeat CPU 6 instructions: 40000000 cycles: 110559287 heartbeat IPC: 0.171888 cumulative IPC: 0.166597 (Simulation time: 0 hr 36 min 49 sec) 
Heartbeat CPU 7 instructions: 50000003 cycles: 116801569 heartbeat IPC: 0.216723 cumulative IPC: 0.217889 (Simulation time: 0 hr 38 min 27 sec) 
Heartbeat CPU 0 instructions: 40000000 cycles: 117556654 heartbeat IPC: 0.180988 cumulative IPC: 0.189238 (Simulation time: 0 hr 38 min 39 sec) 
Heartbeat CPU 3 instructions: 70000003 cycles: 118770008 heartbeat IPC: 0.439296 cumulative IPC: 0.445336 (Simulation time: 0 hr 38 min 56 sec) 
Heartbeat CPU 4 instructions: 110000001 cycles: 124678366 heartbeat IPC: 0.688015 cumulative IPC: 0.707659 (Simulation time: 0 hr 40 min 34 sec) 
Heartbeat CPU 1 instructions: 60000000 cycles: 126900648 heartbeat IPC: 0.286536 cumulative IPC: 0.291083 (Simulation time: 0 hr 41 min 9 sec) 
Heartbeat CPU 5 instructions: 70000000 cycles: 127672032 heartbeat IPC: 0.407882 cumulative IPC: 0.392923 (Simulation time: 0 hr 41 min 20 sec) 
Heartbeat CPU 2 instructions: 60000000 cycles: 135123184 heartbeat IPC: 0.319819 cumulative IPC: 0.318079 (Simulation time: 0 hr 43 min 16 sec) 
Heartbeat CPU 4 instructions: 120000000 cycles: 139641887 heartbeat IPC: 0.668292 cumulative IPC: 0.703049 (Simulation time: 0 hr 44 min 29 sec) 
Heartbeat CPU 3 instructions: 80000000 cycles: 141299167 heartbeat IPC: 0.443869 cumulative IPC: 0.445081 (Simulation time: 0 hr 44 min 54 sec) 
Heartbeat CPU 5 instructions: 80000000 cycles: 150864461 heartbeat IPC: 0.431175 cumulative IPC: 0.399305 (Simulation time: 0 hr 47 min 27 sec) 
Heartbeat CPU 4 instructions: 130000001 cycles: 153909263 heartbeat IPC: 0.7009 cumulative IPC: 0.702833 (Simulation time: 0 hr 48 min 13 sec) 
Finished CPU 4 instructions: 100000002 cycles: 142515160 cumulative IPC: 0.70168 (Simulation time: 0 hr 48 min 20 sec) 
Heartbeat CPU 0 instructions: 50000003 cycles: 160445894 heartbeat IPC: 0.233159 cumulative IPC: 0.201917 (Simulation time: 0 hr 49 min 53 sec) 
Heartbeat CPU 1 instructions: 70000002 cycles: 161904183 heartbeat IPC: 0.285685 cumulative IPC: 0.289824 (Simulation time: 0 hr 50 min 16 sec) 
Heartbeat CPU 7 instructions: 60000000 cycles: 163710809 heartbeat IPC: 0.213178 cumulative IPC: 0.216433 (Simulation time: 0 hr 50 min 48 sec) 
Heartbeat CPU 3 instructions: 90000002 cycles: 164003831 heartbeat IPC: 0.440438 cumulative IPC: 0.444388 (Simulation time: 0 hr 50 min 53 sec) 
Heartbeat CPU 2 instructions: 70000001 cycles: 167078497 heartbeat IPC: 0.312937 cumulative IPC: 0.31702 (Simulation time: 0 hr 51 min 46 sec) 
Heartbeat CPU 4 instructions: 140000000 cycles: 168954178 heartbeat IPC: 0.664676 cumulative IPC: 0.699178 (Simulation time: 0 hr 52 min 19 sec) 
Heartbeat CPU 5 instructions: 90000000 cycles: 173831789 heartbeat IPC: 0.435401 cumulative IPC: 0.404424 (Simulation time: 0 hr 53 min 40 sec) 
Heartbeat CPU 6 instructions: 50000002 cycles: 182235629 heartbeat IPC: 0.139516 cumulative IPC: 0.155203 (Simulation time: 0 hr 55 min 55 sec) 
Heartbeat CPU 4 instructions: 150000001 cycles: 182466366 heartbeat IPC: 0.740073 cumulative IPC: 0.702417 (Simulation time: 0 hr 55 min 59 sec) 
Heartbeat CPU 0 instructions: 60000000 cycles: 185768291 heartbeat IPC: 0.394907 cumulative IPC: 0.230019 (Simulation time: 0 hr 56 min 52 sec) 
Heartbeat CPU 3 instructions: 100000000 cycles: 185796513 heartbeat IPC: 0.45887 cumulative IPC: 0.446203 (Simulation time: 0 hr 56 min 52 sec) 
Heartbeat CPU 1 instructions: 80000000 cycles: 194928167 heartbeat IPC: 0.30281 cumulative IPC: 0.292167 (Simulation time: 0 hr 59 min 22 sec) 
Heartbeat CPU 5 instructions: 100000000 cycles: 195085897 heartbeat IPC: 0.470497 cumulative IPC: 0.412089 (Simulation time: 0 hr 59 min 25 sec) 
Heartbeat CPU 4 instructions: 160000000 cycles: 197368049 heartbeat IPC: 0.671065 cumulative IPC: 0.699899 (Simulation time: 1 hr 0 min 3 sec) 
Heartbeat CPU 2 instructions: 80000000 cycles: 199191068 heartbeat IPC: 0.311404 cumulative IPC: 0.316057 (Simulation time: 1 hr 0 min 32 sec) 
Heartbeat CPU 3 instructions: 110000002 cycles: 207256696 heartbeat IPC: 0.465979 cumulative IPC: 0.448375 (Simulation time: 1 hr 2 min 43 sec) 
Heartbeat CPU 7 instructions: 70000000 cycles: 207907986 heartbeat IPC: 0.226259 cumulative IPC: 0.218648 (Simulation time: 1 hr 2 min 54 sec) 
Heartbeat CPU 0 instructions: 70000002 cycles: 209038936 heartbeat IPC: 0.429726 cumulative IPC: 0.253589 (Simulation time: 1 hr 3 min 13 sec) 
Heartbeat CPU 4 instructions: 170000001 cycles: 211683609 heartbeat IPC: 0.698541 cumulative IPC: 0.699802 (Simulation time: 1 hr 3 min 55 sec) 
Heartbeat CPU 5 instructions: 110000002 cycles: 215931747 heartbeat IPC: 0.479712 cumulative IPC: 0.418997 (Simulation time: 1 hr 5 min 7 sec) 
Heartbeat CPU 4 instructions: 180000000 cycles: 224619483 heartbeat IPC: 0.773044 cumulative IPC: 0.704255 (Simulation time: 1 hr 7 min 27 sec) 
Heartbeat CPU 1 instructions: 90000000 cycles: 227182347 heartbeat IPC: 0.310037 cumulative IPC: 0.294844 (Simulation time: 1 hr 8 min 8 sec) 
Heartbeat CPU 3 instructions: 120000000 cycles: 228800983 heartbeat IPC: 0.46416 cumulative IPC: 0.449942 (Simulation time: 1 hr 8 min 34 sec) 
Heartbeat CPU 2 instructions: 90000003 cycles: 230183957 heartbeat IPC: 0.322655 cumulative IPC: 0.316994 (Simulation time: 1 hr 8 min 55 sec) 
Heartbeat CPU 0 instructions: 80000000 cycles: 232350935 heartbeat IPC: 0.428964 cumulative IPC: 0.272132 (Simulation time: 1 hr 9 min 27 sec) 
Finished CPU 3 instructions: 100000001 cycles: 222054227 cumulative IPC: 0.45034 (Simulation time: 1 hr 9 min 52 sec) 
Heartbeat CPU 5 instructions: 120000000 cycles: 236160317 heartbeat IPC: 0.49435 cumulative IPC: 0.425793 (Simulation time: 1 hr 10 min 28 sec) 
Heartbeat CPU 4 instructions: 190000000 cycles: 239391464 heartbeat IPC: 0.676957 cumulative IPC: 0.702483 (Simulation time: 1 hr 11 min 17 sec) 
Finished CPU 5 instructions: 100000000 cycles: 233662065 cumulative IPC: 0.427968 (Simulation time: 1 hr 12 min 53 sec) 
Heartbeat CPU 6 instructions: 60000000 cycles: 245569764 heartbeat IPC: 0.157893 cumulative IPC: 0.155932 (Simulation time: 1 hr 12 min 53 sec) 
Heartbeat CPU 3 instructions: 130000002 cycles: 250711862 heartbeat IPC: 0.456394 cumulative IPC: 0.450534 (Simulation time: 1 hr 14 min 11 sec) 
Heartbeat CPU 7 instructions: 80000000 cycles: 252304473 heartbeat IPC: 0.225243 cumulative IPC: 0.219866 (Simulation time: 1 hr 14 min 36 sec) 
Heartbeat CPU 4 instructions: 200000000 cycles: 253010402 heartbeat IPC: 0.734272 cumulative IPC: 0.704278 (Simulation time: 1 hr 14 min 48 sec) 
Heartbeat CPU 5 instructions: 130000001 cycles: 256804399 heartbeat IPC: 0.4844 cumulative IPC: 0.430733 (Simulation time: 1 hr 15 min 44 sec) 
Heartbeat CPU 1 instructions: 100000000 cycles: 260382261 heartbeat IPC: 0.301206 cumulative IPC: 0.295694 (Simulation time: 1 hr 16 min 37 sec) 
Heartbeat CPU 2 instructions: 100000000 cycles: 261055921 heartbeat IPC: 0.323918 cumulative IPC: 0.317852 (Simulation time: 1 hr 16 min 48 sec) 
Heartbeat CPU 4 instructions: 210000000 cycles: 267688367 heartbeat IPC: 0.681293 cumulative IPC: 0.702959 (Simulation time: 1 hr 18 min 29 sec) 
Heartbeat CPU 0 instructions: 90000003 cycles: 267794456 heartbeat IPC: 0.282139 cumulative IPC: 0.273518 (Simulation time: 1 hr 18 min 31 sec) 
Heartbeat CPU 3 instructions: 140000000 cycles: 272358261 heartbeat IPC: 0.461971 cumulative IPC: 0.451485 (Simulation time: 1 hr 19 min 43 sec) 
Heartbeat CPU 5 instructions: 140000000 cycles: 276873097 heartbeat IPC: 0.498288 cumulative IPC: 0.435849 (Simulation time: 1 hr 20 min 57 sec) 
Heartbeat CPU 4 instructions: 220000000 cycles: 281644740 heartbeat IPC: 0.716519 cumulative IPC: 0.703661 (Simulation time: 1 hr 22 min 13 sec) 
Heartbeat CPU 2 instructions: 110000000 cycles: 291867990 heartbeat IPC: 0.324548 cumulative IPC: 0.318589 (Simulation time: 1 hr 24 min 56 sec) 
Heartbeat CPU 1 instructions: 110000002 cycles: 293241753 heartbeat IPC: 0.304326 cumulative IPC: 0.296702 (Simulation time: 1 hr 25 min 19 sec) 
Heartbeat CPU 3 instructions: 150000002 cycles: 294174051 heartbeat IPC: 0.458384 cumulative IPC: 0.452018 (Simulation time: 1 hr 25 min 33 sec) 
Heartbeat CPU 5 instructions: 150000001 cycles: 296769896 heartbeat IPC: 0.502593 cumulative IPC: 0.44051 (Simulation time: 1 hr 26 min 12 sec) 
Heartbeat CPU 4 instructions: 230000000 cycles: 296779525 heartbeat IPC: 0.66073 cumulative IPC: 0.70138 (Simulation time: 1 hr 26 min 12 sec) 
Heartbeat CPU 7 instructions: 90000000 cycles: 297043484 heartbeat IPC: 0.223519 cumulative IPC: 0.220439 (Simulation time: 1 hr 26 min 17 sec) 
Heartbeat CPU 0 instructions: 100000000 cycles: 303506833 heartbeat IPC: 0.280015 cumulative IPC: 0.274314 (Simulation time: 1 hr 27 min 56 sec) 
Heartbeat CPU 6 instructions: 70000000 cycles: 307443028 heartbeat IPC: 0.161621 cumulative IPC: 0.157123 (Simulation time: 1 hr 28 min 59 sec) 
Heartbeat CPU 4 instructions: 240000000 cycles: 311060355 heartbeat IPC: 0.700239 cumulative IPC: 0.701326 (Simulation time: 1 hr 29 min 54 sec) 
Heartbeat CPU 3 instructions: 160000000 cycles: 315526449 heartbeat IPC: 0.468331 cumulative IPC: 0.453165 (Simulation time: 1 hr 31 min 5 sec) 
Heartbeat CPU 5 instructions: 160000000 cycles: 315785166 heartbeat IPC: 0.525893 cumulative IPC: 0.445852 (Simulation time: 1 hr 31 min 9 sec) 
Heartbeat CPU 2 instructions: 120000000 cycles: 321026149 heartbeat IPC: 0.342957 cumulative IPC: 0.320887 (Simulation time: 1 hr 32 min 30 sec) 
Finished CPU 2 instructions: 100000000 cycles: 311602664 cumulative IPC: 0.320922 (Simulation time: 1 hr 33 min 8 sec) 
Heartbeat CPU 4 instructions: 250000001 cycles: 325404664 heartbeat IPC: 0.697141 cumulative IPC: 0.701134 (Simulation time: 1 hr 33 min 37 sec) 
Heartbeat CPU 1 instructions: 120000000 cycles: 326021385 heartbeat IPC: 0.305067 cumulative IPC: 0.297575 (Simulation time: 1 hr 33 min 47 sec) 
Heartbeat CPU 5 instructions: 170000002 cycles: 335282958 heartbeat IPC: 0.512879 cumulative IPC: 0.449893 (Simulation time: 1 hr 36 min 9 sec) 
Heartbeat CPU 3 instructions: 170000002 cycles: 337355326 heartbeat IPC: 0.458109 cumulative IPC: 0.453497 (Simulation time: 1 hr 36 min 41 sec) 
Heartbeat CPU 0 instructions: 110000000 cycles: 339242845 heartbeat IPC: 0.27983 cumulative IPC: 0.274916 (Simulation time: 1 hr 37 min 10 sec) 
Heartbeat CPU 4 instructions: 260000000 cycles: 340380457 heartbeat IPC: 0.667744 cumulative IPC: 0.699612 (Simulation time: 1 hr 37 min 27 sec) 
Heartbeat CPU 7 instructions: 100000000 cycles: 341190712 heartbeat IPC: 0.226515 cumulative IPC: 0.221254 (Simulation time: 1 hr 37 min 38 sec) 
Finished CPU 1 instructions: 100000000 cycles: 335398390 cumulative IPC: 0.298153 (Simulation time: 1 hr 39 min 13 sec) 
Heartbeat CPU 2 instructions: 130000001 cycles: 351355210 heartbeat IPC: 0.329717 cumulative IPC: 0.321676 (Simulation time: 1 hr 40 min 16 sec) 
Heartbeat CPU 4 instructions: 270000000 cycles: 353852641 heartbeat IPC: 0.74227 cumulative IPC: 0.701293 (Simulation time: 1 hr 40 min 55 sec) 
Heartbeat CPU 5 instructions: 180000000 cycles: 354080733 heartbeat IPC: 0.531978 cumulative IPC: 0.454402 (Simulation time: 1 hr 40 min 59 sec) 
Heartbeat CPU 1 instructions: 130000000 cycles: 358392247 heartbeat IPC: 0.30892 cumulative IPC: 0.298634 (Simulation time: 1 hr 42 min 4 sec) 
Heartbeat CPU 3 instructions: 180000000 cycles: 358455688 heartbeat IPC: 0.473925 cumulative IPC: 0.45474 (Simulation time: 1 hr 42 min 5 sec) 
Heartbeat CPU 4 instructions: 280000000 cycles: 368647458 heartbeat IPC: 0.675912 cumulative IPC: 0.70024 (Simulation time: 1 hr 44 min 38 sec) 
Heartbeat CPU 6 instructions: 80000000 cycles: 371221853 heartbeat IPC: 0.156792 cumulative IPC: 0.157064 (Simulation time: 1 hr 45 min 21 sec) 
Heartbeat CPU 5 instructions: 190000002 cycles: 372721711 heartbeat IPC: 0.536453 cumulative IPC: 0.458641 (Simulation time: 1 hr 45 min 46 sec) 
Heartbeat CPU 0 instructions: 120000000 cycles: 374077909 heartbeat IPC: 0.287067 cumulative IPC: 0.276084 (Simulation time: 1 hr 46 min 8 sec) 
Finished CPU 0 instructions: 100000001 cycles: 362208080 cumulative IPC: 0.276084 (Simulation time: 1 hr 46 min 8 sec) 
Heartbeat CPU 3 instructions: 190000000 cycles: 380039765 heartbeat IPC: 0.463304 cumulative IPC: 0.455242 (Simulation time: 1 hr 47 min 45 sec) 
Heartbeat CPU 2 instructions: 140000000 cycles: 381572562 heartbeat IPC: 0.330936 cumulative IPC: 0.322433 (Simulation time: 1 hr 48 min 10 sec) 
Heartbeat CPU 4 instructions: 290000001 cycles: 381955211 heartbeat IPC: 0.751442 cumulative IPC: 0.702081 (Simulation time: 1 hr 48 min 16 sec) 
Heartbeat CPU 7 instructions: 110000001 cycles: 384612470 heartbeat IPC: 0.230299 cumulative IPC: 0.222307 (Simulation time: 1 hr 49 min 0 sec) 
Heartbeat CPU 1 instructions: 140000000 cycles: 390912529 heartbeat IPC: 0.3075 cumulative IPC: 0.299395 (Simulation time: 1 hr 50 min 40 sec) 
Heartbeat CPU 5 instructions: 200000000 cycles: 391560433 heartbeat IPC: 0.530821 cumulative IPC: 0.462222 (Simulation time: 1 hr 50 min 50 sec) 
Heartbeat CPU 4 instructions: 300000000 cycles: 396483903 heartbeat IPC: 0.688293 cumulative IPC: 0.70156 (Simulation time: 1 hr 52 min 10 sec) 
Heartbeat CPU 3 instructions: 200000000 cycles: 401158440 heartbeat IPC: 0.473515 cumulative IPC: 0.456234 (Simulation time: 1 hr 53 min 28 sec) 
Heartbeat CPU 0 instructions: 130000003 cycles: 406394840 heartbeat IPC: 0.309435 cumulative IPC: 0.278816 (Simulation time: 1 hr 54 min 49 sec) 
Heartbeat CPU 5 instructions: 210000000 cycles: 409923729 heartbeat IPC: 0.544565 cumulative IPC: 0.466021 (Simulation time: 1 hr 55 min 44 sec) 
Heartbeat CPU 4 instructions: 310000000 cycles: 410184015 heartbeat IPC: 0.729921 cumulative IPC: 0.702536 (Simulation time: 1 hr 55 min 48 sec) 
Heartbeat CPU 2 instructions: 150000001 cycles: 411558174 heartbeat IPC: 0.333493 cumulative IPC: 0.323263 (Simulation time: 1 hr 56 min 9 sec) 
Heartbeat CPU 3 instructions: 210000002 cycles: 423098163 heartbeat IPC: 0.455794 cumulative IPC: 0.45621 (Simulation time: 1 hr 59 min 8 sec) 
Heartbeat CPU 1 instructions: 150000003 cycles: 423495655 heartbeat IPC: 0.306907 cumulative IPC: 0.29999 (Simulation time: 1 hr 59 min 15 sec) 
Heartbeat CPU 4 instructions: 320000000 cycles: 425927715 heartbeat IPC: 0.635175 cumulative IPC: 0.699975 (Simulation time: 1 hr 59 min 53 sec) 
Heartbeat CPU 6 instructions: 90000002 cycles: 427241918 heartbeat IPC: 0.178508 cumulative IPC: 0.159956 (Simulation time: 2 hr 0 min 17 sec) 
Heartbeat CPU 5 instructions: 220000000 cycles: 428615137 heartbeat IPC: 0.535005 cumulative IPC: 0.469115 (Simulation time: 2 hr 0 min 40 sec) 
Heartbeat CPU 7 instructions: 120000000 cycles: 428639926 heartbeat IPC: 0.227131 cumulative IPC: 0.222817 (Simulation time: 2 hr 0 min 40 sec) 
Heartbeat CPU 4 instructions: 330000001 cycles: 439094396 heartbeat IPC: 0.759493 cumulative IPC: 0.701809 (Simulation time: 2 hr 3 min 21 sec) 
Heartbeat CPU 2 instructions: 160000000 cycles: 439929112 heartbeat IPC: 0.352473 cumulative IPC: 0.325199 (Simulation time: 2 hr 3 min 33 sec) 
Heartbeat CPU 3 instructions: 220000000 cycles: 444572175 heartbeat IPC: 0.465679 cumulative IPC: 0.45668 (Simulation time: 2 hr 4 min 44 sec) 
Heartbeat CPU 5 instructions: 230000001 cycles: 447091471 heartbeat IPC: 0.541233 cumulative IPC: 0.472176 (Simulation time: 2 hr 5 min 24 sec) 
Heartbeat CPU 0 instructions: 140000000 cycles: 451873846 heartbeat IPC: 0.219882 cumulative IPC: 0.272725 (Simulation time: 2 hr 6 min 38 sec) 
Heartbeat CPU 4 instructions: 340000000 cycles: 453833826 heartbeat IPC: 0.678452 cumulative IPC: 0.70103 (Simulation time: 2 hr 7 min 10 sec) 
Heartbeat CPU 1 instructions: 160000000 cycles: 455954628 heartbeat IPC: 0.308081 cumulative IPC: 0.300581 (Simulation time: 2 hr 7 min 44 sec) 
Finished CPU 7 instructions: 100000000 cycles: 447710968 cumulative IPC: 0.223358 (Simulation time: 2 hr 8 min 41 sec) 
Heartbeat CPU 5 instructions: 240000000 cycles: 465540426 heartbeat IPC: 0.542036 cumulative IPC: 0.475017 (Simulation time: 2 hr 10 min 16 sec) 
Heartbeat CPU 3 instructions: 230000001 cycles: 466139538 heartbeat IPC: 0.463664 cumulative IPC: 0.457012 (Simulation time: 2 hr 10 min 26 sec) 
Heartbeat CPU 4 instructions: 350000001 cycles: 467958547 heartbeat IPC: 0.707979 cumulative IPC: 0.701245 (Simulation time: 2 hr 10 min 56 sec) 
Heartbeat CPU 2 instructions: 170000002 cycles: 468115938 heartbeat IPC: 0.354776 cumulative IPC: 0.327026 (Simulation time: 2 hr 10 min 58 sec) 
Heartbeat CPU 7 instructions: 130000003 cycles: 472343184 heartbeat IPC: 0.228816 cumulative IPC: 0.223386 (Simulation time: 2 hr 12 min 0 sec) 
Heartbeat CPU 4 instructions: 360000000 cycles: 482121856 heartbeat IPC: 0.70605 cumulative IPC: 0.70139 (Simulation time: 2 hr 14 min 36 sec) 
Heartbeat CPU 5 instructions: 250000002 cycles: 484070891 heartbeat IPC: 0.539652 cumulative IPC: 0.477554 (Simulation time: 2 hr 15 min 6 sec) 
Heartbeat CPU 3 instructions: 240000000 cycles: 487866333 heartbeat IPC: 0.460261 cumulative IPC: 0.45716 (Simulation time: 2 hr 16 min 6 sec) 
Heartbeat CPU 1 instructions: 170000001 cycles: 488504831 heartbeat IPC: 0.307218 cumulative IPC: 0.301034 (Simulation time: 2 hr 16 min 16 sec) 
Heartbeat CPU 6 instructions: 100000000 cycles: 489528869 heartbeat IPC: 0.160547 cumulative IPC: 0.160033 (Simulation time: 2 hr 16 min 32 sec) 
Heartbeat CPU 0 instructions: 150000003 cycles: 493148823 heartbeat IPC: 0.242278 cumulative IPC: 0.270114 (Simulation time: 2 hr 17 min 33 sec) 
Heartbeat CPU 2 instructions: 180000000 cycles: 496671653 heartbeat IPC: 0.350193 cumulative IPC: 0.32839 (Simulation time: 2 hr 18 min 27 sec) 
Heartbeat CPU 4 instructions: 370000000 cycles: 497269257 heartbeat IPC: 0.660179 cumulative IPC: 0.700104 (Simulation time: 2 hr 18 min 36 sec) 
Heartbeat CPU 5 instructions: 260000000 cycles: 502101664 heartbeat IPC: 0.554607 cumulative IPC: 0.480388 (Simulation time: 2 hr 19 min 54 sec) 
Heartbeat CPU 3 instructions: 250000001 cycles: 508966769 heartbeat IPC: 0.473924 cumulative IPC: 0.457872 (Simulation time: 2 hr 21 min 47 sec) 
Heartbeat CPU 4 instructions: 380000000 cycles: 509929678 heartbeat IPC: 0.789863 cumulative IPC: 0.702385 (Simulation time: 2 hr 22 min 3 sec) 
Heartbeat CPU 7 instructions: 140000000 cycles: 515054083 heartbeat IPC: 0.234132 cumulative IPC: 0.224298 (Simulation time: 2 hr 23 min 25 sec) 
Heartbeat CPU 5 instructions: 270000002 cycles: 519926110 heartbeat IPC: 0.561027 cumulative IPC: 0.483217 (Simulation time: 2 hr 24 min 44 sec) 
Heartbeat CPU 1 instructions: 180000000 cycles: 520106330 heartbeat IPC: 0.316441 cumulative IPC: 0.301992 (Simulation time: 2 hr 24 min 47 sec) 
Heartbeat CPU 2 instructions: 190000001 cycles: 524645693 heartbeat IPC: 0.357474 cumulative IPC: 0.329977 (Simulation time: 2 hr 25 min 54 sec) 
Heartbeat CPU 3 instructions: 260000000 cycles: 529774566 heartbeat IPC: 0.480589 cumulative IPC: 0.458784 (Simulation time: 2 hr 27 min 8 sec) 
Heartbeat CPU 0 instructions: 160000000 cycles: 533986053 heartbeat IPC: 0.244875 cumulative IPC: 0.26814 (Simulation time: 2 hr 28 min 11 sec) 
Heartbeat CPU 5 instructions: 280000000 cycles: 537745198 heartbeat IPC: 0.561196 cumulative IPC: 0.485859 (Simulation time: 2 hr 29 min 6 sec) 
Heartbeat CPU 6 instructions: 110000000 cycles: 537952309 heartbeat IPC: 0.206512 cumulative IPC: 0.164311 (Simulation time: 2 hr 29 min 10 sec) 
Heartbeat CPU 3 instructions: 270000003 cycles: 550274000 heartbeat IPC: 0.487818 cumulative IPC: 0.45989 (Simulation time: 2 hr 32 min 14 sec) 
Heartbeat CPU 1 instructions: 190000003 cycles: 551342358 heartbeat IPC: 0.320143 cumulative IPC: 0.303043 (Simulation time: 2 hr 32 min 29 sec) 
Heartbeat CPU 2 instructions: 200000000 cycles: 552382985 heartbeat IPC: 0.360525 cumulative IPC: 0.331545 (Simulation time: 2 hr 32 min 44 sec) 
Heartbeat CPU 5 instructions: 290000000 cycles: 555355676 heartbeat IPC: 0.567844 cumulative IPC: 0.488516 (Simulation time: 2 hr 33 min 25 sec) 
Heartbeat CPU 7 instructions: 150000001 cycles: 556684854 heartbeat IPC: 0.240207 cumulative IPC: 0.225514 (Simulation time: 2 hr 33 min 45 sec) 
Heartbeat CPU 4 instructions: 390000002 cycles: 562642512 heartbeat IPC: 0.189707 cumulative IPC: 0.653319 (Simulation time: 2 hr 35 min 19 sec) 
Heartbeat CPU 3 instructions: 280000000 cycles: 570981498 heartbeat IPC: 0.482917 cumulative IPC: 0.460743 (Simulation time: 2 hr 37 min 40 sec) 
Heartbeat CPU 0 instructions: 170000001 cycles: 572016585 heartbeat IPC: 0.262947 cumulative IPC: 0.267787 (Simulation time: 2 hr 37 min 58 sec) 
Heartbeat CPU 5 instructions: 300000000 cycles: 572922993 heartbeat IPC: 0.569239 cumulative IPC: 0.491043 (Simulation time: 2 hr 38 min 14 sec) 
Heartbeat CPU 4 instructions: 400000000 cycles: 575347839 heartbeat IPC: 0.787071 cumulative IPC: 0.656334 (Simulation time: 2 hr 38 min 56 sec) 
Heartbeat CPU 2 instructions: 210000000 cycles: 581046127 heartbeat IPC: 0.34888 cumulative IPC: 0.332418 (Simulation time: 2 hr 40 min 32 sec) 
Heartbeat CPU 1 instructions: 200000000 cycles: 582289283 heartbeat IPC: 0.323134 cumulative IPC: 0.304133 (Simulation time: 2 hr 40 min 53 sec) 
Heartbeat CPU 4 instructions: 410000001 cycles: 588128161 heartbeat IPC: 0.782453 cumulative IPC: 0.659131 (Simulation time: 2 hr 42 min 29 sec) 
Heartbeat CPU 6 instructions: 120000000 cycles: 590183063 heartbeat IPC: 0.191458 cumulative IPC: 0.166763 (Simulation time: 2 hr 43 min 5 sec) 
Heartbeat CPU 5 instructions: 310000002 cycles: 590235105 heartbeat IPC: 0.57763 cumulative IPC: 0.493635 (Simulation time: 2 hr 43 min 6 sec) 
Heartbeat CPU 3 instructions: 290000003 cycles: 591518363 heartbeat IPC: 0.486929 cumulative IPC: 0.46167 (Simulation time: 2 hr 43 min 28 sec) 
Heartbeat CPU 7 instructions: 160000000 cycles: 597687548 heartbeat IPC: 0.243886 cumulative IPC: 0.2268 (Simulation time: 2 hr 45 min 10 sec) 
Heartbeat CPU 4 instructions: 420000000 cycles: 600886422 heartbeat IPC: 0.783806 cumulative IPC: 0.661832 (Simulation time: 2 hr 46 min 6 sec) 
Heartbeat CPU 5 instructions: 320000000 cycles: 607748790 heartbeat IPC: 0.570982 cumulative IPC: 0.495908 (Simulation time: 2 hr 48 min 5 sec) 
Heartbeat CPU 0 instructions: 180000000 cycles: 609914107 heartbeat IPC: 0.263869 cumulative IPC: 0.267539 (Simulation time: 2 hr 48 min 41 sec) 
Heartbeat CPU 2 instructions: 220000000 cycles: 610062612 heartbeat IPC: 0.344632 cumulative IPC: 0.33301 (Simulation time: 2 hr 48 min 43 sec) 
Heartbeat CPU 3 instructions: 300000000 cycles: 611975749 heartbeat IPC: 0.488821 cumulative IPC: 0.462596 (Simulation time: 2 hr 49 min 16 sec) 
Finished CPU 6 instructions: 100000001 cycles: 600233368 cumulative IPC: 0.166602 (Simulation time: 2 hr 49 min 18 sec) 

CPU 0 Branch Prediction Accuracy: 99.7415% MPKI: 0.0895707

CPU 1 Branch Prediction Accuracy: 99.975% MPKI: 0.00423279

CPU 2 Branch Prediction Accuracy: 98.2299% MPKI: 3.23026

CPU 3 Branch Prediction Accuracy: 99.9707% MPKI: 0.00725194

CPU 4 Branch Prediction Accuracy: 94.7735% MPKI: 4.73959

CPU 5 Branch Prediction Accuracy: 99.0782% MPKI: 0.109985

CPU 6 Branch Prediction Accuracy: 99.2301% MPKI: 1.75005

CPU 7 Branch Prediction Accuracy: 99.9802% MPKI: 0.0501206

ChampSim completed all CPUs

Total Simulation Statistics (not including warmup)

CPU 0 cumulative IPC: 0.267227 instructions: 160398353 cycles: 600233367
L1D TOTAL     ACCESS:   44417284  HIT:   39172065  MISS:    5245219
L1D LOAD      ACCESS:   37978863  HIT:   33781460  MISS:    4197403
L1D RFO       ACCESS:    6438421  HIT:    5390605  MISS:    1047816
L1D PREFETCH  ACCESS:          0  HIT:          0  MISS:          0
L1D WRITEBACK ACCESS:          0  HIT:          0  MISS:          0
L1I TOTAL     ACCESS:   39053133  HIT:   39052673  MISS:        460
L1I LOAD      ACCESS:   39053133  HIT:   39052673  MISS:        460
L1I RFO       ACCESS:          0  HIT:          0  MISS:          0
L1I PREFETCH  ACCESS:          0  HIT:          0  MISS:          0
L1I WRITEBACK ACCESS:          0  HIT:          0  MISS:          0
L2C TOTAL     ACCESS:    6609375  HIT:    2446348  MISS:    4163027
L2C LOAD      ACCESS:    4197675  HIT:    1082845  MISS:    3114830
L2C RFO       ACCESS:    1047815  HIT:         16  MISS:    1047799
L2C PREFETCH  ACCESS:          0  HIT:          0  MISS:          0
L2C WRITEBACK ACCESS:    1363885  HIT:    1363487  MISS:        398
LLC TOTAL     ACCESS:    5516684  HIT:    1355350  MISS:    4161334
LLC LOAD      ACCESS:    3114830  HIT:       1430  MISS:    3113400
LLC RFO       ACCESS:    1047799  HIT:         18  MISS:    1047781
LLC PREFETCH  ACCESS:          0  HIT:          0  MISS:          0
LLC WRITEBACK ACCESS:    1354055  HIT:    1353902  MISS:        153

CPU 1 cumulative IPC: 0.305203 instructions: 183192729 cycles: 600233368
L1D TOTAL     ACCESS:   37746292  HIT:   35321946  MISS:    2424346
L1D LOAD      ACCESS:   24890913  HIT:   22468986  MISS:    2421927
L1D RFO       ACCESS:   12855379  HIT:   12852960  MISS:       2419
L1D PREFETCH  ACCESS:          0  HIT:          0  MISS:          0
L1D WRITEBACK ACCESS:          0  HIT:          0  MISS:          0
L1I TOTAL     ACCESS:   36578879  HIT:   36578879  MISS:          0
L1I LOAD      ACCESS:   36578879  HIT:   36578879  MISS:          0
L1I RFO       ACCESS:          0  HIT:          0  MISS:          0
L1I PREFETCH  ACCESS:          0  HIT:          0  MISS:          0
L1I WRITEBACK ACCESS:          0  HIT:          0  MISS:          0
L2C TOTAL     ACCESS:    4034095  HIT:    1683604  MISS:    2350491
L2C LOAD      ACCESS:    2421927  HIT:      73275  MISS:    2348652
L2C RFO       ACCESS:       2419  HIT:        580  MISS:       1839
L2C PREFETCH  ACCESS:          0  HIT:          0  MISS:          0
L2C WRITEBACK ACCESS:    1609749  HIT:    1609749  MISS:          0
LLC TOTAL     ACCESS:    3958905  HIT:    2343477  MISS:    1615428
LLC LOAD      ACCESS:    2348652  HIT:     733674  MISS:    1614978
LLC RFO       ACCESS:       1839  HIT:       1829  MISS:         10
LLC PREFETCH  ACCESS:          0  HIT:          0  MISS:          0
LLC WRITEBACK ACCESS:    1608414  HIT:    1607974  MISS:        440

CPU 2 cumulative IPC: 0.333178 instructions: 199984325 cycles: 600233368
L1D TOTAL     ACCESS:   78202875  HIT:   47081375  MISS:   31121500
L1D LOAD      ACCESS:   65857307  HIT:   35193965  MISS:   30663342
L1D RFO       ACCESS:   12345568  HIT:   11887410  MISS:     458158
L1D PREFETCH  ACCESS:          0  HIT:          0  MISS:          0
L1D WRITEBACK ACCESS:          0  HIT:          0  MISS:          0
L1I TOTAL     ACCESS:   73697012  HIT:   73697012  MISS:          0
L1I LOAD      ACCESS:   73697012  HIT:   73697012  MISS:          0
L1I RFO       ACCESS:          0  HIT:          0  MISS:          0
L1I PREFETCH  ACCESS:          0  HIT:          0  MISS:          0
L1I WRITEBACK ACCESS:          0  HIT:          0  MISS:          0
L2C TOTAL     ACCESS:   31708122  HIT:     590292  MISS:   31117830
L2C LOAD      ACCESS:   30663336  HIT:       4398  MISS:   30658938
L2C RFO       ACCESS:     458158  HIT:       1073  MISS:     457085
L2C PREFETCH  ACCESS:          0  HIT:          0  MISS:          0
L2C WRITEBACK ACCESS:     586628  HIT:     584821  MISS:       1807
LLC TOTAL     ACCESS:   31699856  HIT:   30977064  MISS:     722792
LLC LOAD      ACCESS:   30658938  HIT:   30389860  MISS:     269078
LLC RFO       ACCESS:     457085  HIT:       3533  MISS:     453552
LLC PREFETCH  ACCESS:          0  HIT:          0  MISS:          0
LLC WRITEBACK ACCESS:     583833  HIT:     583671  MISS:        162

CPU 3 cumulative IPC: 0.462602 instructions: 277669361 cycles: 600233368
L1D TOTAL     ACCESS:  105102346  HIT:   99331019  MISS:    5771327
L1D LOAD      ACCESS:   89600666  HIT:   84010349  MISS:    5590317
L1D RFO       ACCESS:   15501680  HIT:   15320670  MISS:     181010
L1D PREFETCH  ACCESS:          0  HIT:          0  MISS:          0
L1D WRITEBACK ACCESS:          0  HIT:          0  MISS:          0
L1I TOTAL     ACCESS:   70741773  HIT:   70741773  MISS:          0
L1I LOAD      ACCESS:   70741773  HIT:   70741773  MISS:          0
L1I RFO       ACCESS:          0  HIT:          0  MISS:          0
L1I PREFETCH  ACCESS:          0  HIT:          0  MISS:          0
L1I WRITEBACK ACCESS:          0  HIT:          0  MISS:          0
L2C TOTAL     ACCESS:    5963642  HIT:     670569  MISS:    5293073
L2C LOAD      ACCESS:    5589082  HIT:     432519  MISS:    5156563
L2C RFO       ACCESS:     177761  HIT:      42468  MISS:     135293
L2C PREFETCH  ACCESS:          0  HIT:          0  MISS:          0
L2C WRITEBACK ACCESS:     196799  HIT:     195582  MISS:       1217
LLC TOTAL     ACCESS:    5428460  HIT:     151536  MISS:    5276924
LLC LOAD      ACCESS:    5156563  HIT:      15318  MISS:    5141245
LLC RFO       ACCESS:     135293  HIT:          0  MISS:     135293
LLC PREFETCH  ACCESS:          0  HIT:          0  MISS:          0
LLC WRITEBACK ACCESS:     136604  HIT:     136218  MISS:        386

CPU 4 cumulative IPC: 0.664152 instructions: 398645995 cycles: 600233368
L1D TOTAL     ACCESS:   61200930  HIT:   54347505  MISS:    6853425
L1D LOAD      ACCESS:   41131289  HIT:   36408447  MISS:    4722842
L1D RFO       ACCESS:   20069641  HIT:   17939058  MISS:    2130583
L1D PREFETCH  ACCESS:          0  HIT:          0  MISS:          0
L1D WRITEBACK ACCESS:          0  HIT:          0  MISS:          0
L1I TOTAL     ACCESS:   92077376  HIT:   92068917  MISS:       8459
L1I LOAD      ACCESS:   92077376  HIT:   92068917  MISS:       8459
L1I RFO       ACCESS:          0  HIT:          0  MISS:          0
L1I PREFETCH  ACCESS:          0  HIT:          0  MISS:          0
L1I WRITEBACK ACCESS:          0  HIT:          0  MISS:          0
L2C TOTAL     ACCESS:    9824195  HIT:    3550736  MISS:    6273459
L2C LOAD      ACCESS:    4731301  HIT:     549153  MISS:    4182148
L2C RFO       ACCESS:    2130583  HIT:      46943  MISS:    2083640
L2C PREFETCH  ACCESS:          0  HIT:          0  MISS:          0
L2C WRITEBACK ACCESS:    2962311  HIT:    2954640  MISS:       7671
LLC TOTAL     ACCESS:    9056476  HIT:    6799374  MISS:    2257102
LLC LOAD      ACCESS:    4182133  HIT:    3195042  MISS:     987091
LLC RFO       ACCESS:    2083640  HIT:     815554  MISS:    1268086
LLC PREFETCH  ACCESS:          0  HIT:          0  MISS:          0
LLC WRITEBACK ACCESS:    2790703  HIT:    2788778  MISS:       1925

CPU 5 cumulative IPC: 0.496576 instructions: 298061325 cycles: 600233368
L1D TOTAL     ACCESS:   76111872  HIT:   63013288  MISS:   13098584
L1D LOAD      ACCESS:   29743218  HIT:   27758364  MISS:    1984854
L1D RFO       ACCESS:   46368654  HIT:   35254924  MISS:   11113730
L1D PREFETCH  ACCESS:          0  HIT:          0  MISS:          0
L1D WRITEBACK ACCESS:          0  HIT:          0  MISS:          0
L1I TOTAL     ACCESS:   69724931  HIT:   69724931  MISS:          0
L1I LOAD      ACCESS:   69724931  HIT:   69724931  MISS:          0
L1I RFO       ACCESS:          0  HIT:          0  MISS:          0
L1I PREFETCH  ACCESS:          0  HIT:          0  MISS:          0
L1I WRITEBACK ACCESS:          0  HIT:          0  MISS:          0
L2C TOTAL     ACCESS:   24212311  HIT:   14411424  MISS:    9800887
L2C LOAD      ACCESS:    1984854  HIT:        121  MISS:    1984733
L2C RFO       ACCESS:   11113729  HIT:    3297993  MISS:    7815736
L2C PREFETCH  ACCESS:          0  HIT:          0  MISS:          0
L2C WRITEBACK ACCESS:   11113728  HIT:   11113310  MISS:        418
LLC TOTAL     ACCESS:   17611951  HIT:    9673784  MISS:    7938167
LLC LOAD      ACCESS:    1984733  HIT:        184  MISS:    1984549
LLC RFO       ACCESS:    7811031  HIT:    1857594  MISS:    5953437
LLC PREFETCH  ACCESS:          0  HIT:          0  MISS:          0
LLC WRITEBACK ACCESS:    7816187  HIT:    7816006  MISS:        181

CPU 6 cumulative IPC: 0.166602 instructions: 100000001 cycles: 600233368
L1D TOTAL     ACCESS:   23338523  HIT:   20537420  MISS:    2801103
L1D LOAD      ACCESS:   18664467  HIT:   15924040  MISS:    2740427
L1D RFO       ACCESS:    4674056  HIT:    4613380  MISS:      60676
L1D PREFETCH  ACCESS:          0  HIT:          0  MISS:          0
L1D WRITEBACK ACCESS:          0  HIT:          0  MISS:          0
L1I TOTAL     ACCESS:   31898209  HIT:   31538208  MISS:     360001
L1I LOAD      ACCESS:   31898209  HIT:   31538208  MISS:     360001
L1I RFO       ACCESS:          0  HIT:          0  MISS:          0
L1I PREFETCH  ACCESS:          0  HIT:          0  MISS:          0
L1I WRITEBACK ACCESS:          0  HIT:          0  MISS:          0
L2C TOTAL     ACCESS:    3287387  HIT:     662013  MISS:    2625374
L2C LOAD      ACCESS:    3100369  HIT:     506287  MISS:    2594082
L2C RFO       ACCESS:      60668  HIT:      30148  MISS:      30520
L2C PREFETCH  ACCESS:          0  HIT:          0  MISS:          0
L2C WRITEBACK ACCESS:     126350  HIT:     125578  MISS:        772
LLC TOTAL     ACCESS:    2678062  HIT:     346680  MISS:    2331382
LLC LOAD      ACCESS:    2594082  HIT:     287393  MISS:    2306689
LLC RFO       ACCESS:      30520  HIT:       6221  MISS:      24299
LLC PREFETCH  ACCESS:          0  HIT:          0  MISS:          0
LLC WRITEBACK ACCESS:      53460  HIT:      53066  MISS:        394

CPU 7 cumulative IPC: 0.227406 instructions: 136496851 cycles: 600233368
L1D TOTAL     ACCESS:   25751173  HIT:   23154795  MISS:    2596378
L1D LOAD      ACCESS:   23961321  HIT:   21365721  MISS:    2595600
L1D RFO       ACCESS:    1789852  HIT:    1789074  MISS:        778
L1D PREFETCH  ACCESS:          0  HIT:          0  MISS:          0
L1D WRITEBACK ACCESS:          0  HIT:          0  MISS:          0
L1I TOTAL     ACCESS:   47914516  HIT:   47914516  MISS:          0
L1I LOAD      ACCESS:   47914516  HIT:   47914516  MISS:          0
L1I RFO       ACCESS:          0  HIT:          0  MISS:          0
L1I PREFETCH  ACCESS:          0  HIT:          0  MISS:          0
L1I WRITEBACK ACCESS:          0  HIT:          0  MISS:          0
L2C TOTAL     ACCESS:    2597522  HIT:       1666  MISS:    2595856
L2C LOAD      ACCESS:    2595600  HIT:        522  MISS:    2595078
L2C RFO       ACCESS:        778  HIT:          0  MISS:        778
L2C PREFETCH  ACCESS:          0  HIT:          0  MISS:          0
L2C WRITEBACK ACCESS:       1144  HIT:       1144  MISS:          0
LLC TOTAL     ACCESS:    2596995  HIT:      21720  MISS:    2575275
LLC LOAD      ACCESS:    2595078  HIT:      20581  MISS:    2574497
LLC RFO       ACCESS:        778  HIT:          0  MISS:        778
LLC PREFETCH  ACCESS:          0  HIT:          0  MISS:          0
LLC WRITEBACK ACCESS:       1139  HIT:       1139  MISS:          0

Region of Interest Statistics

CPU 0 cumulative IPC: 0.276084 instructions: 100000001 cycles: 362208080
L1D TOTAL     ACCESS:   21245395  HIT:   18287782  MISS:    2957613
L1D LOAD      ACCESS:   16952657  HIT:   14748465  MISS:    2204192
L1D RFO       ACCESS:    4292738  HIT:    3539317  MISS:     753421
L1D PREFETCH  ACCESS:          0  HIT:          0  MISS:          0
L1D WRITEBACK ACCESS:          0  HIT:          0  MISS:          0
L1D PREFETCH  REQUESTED:          0  ISSUED:          0  USEFUL:          0  USELESS:          0
L1I TOTAL     ACCESS:   23826372  HIT:   23826085  MISS:        287
L1I LOAD      ACCESS:   23826372  HIT:   23826085  MISS:        287
L1I RFO       ACCESS:          0  HIT:          0  MISS:          0
L1I PREFETCH  ACCESS:          0  HIT:          0  MISS:          0
L1I WRITEBACK ACCESS:          0  HIT:          0  MISS:          0
L1I PREFETCH  REQUESTED:          0  ISSUED:          0  USEFUL:          0  USELESS:          0
L2C TOTAL     ACCESS:    3883225  HIT:    1436900  MISS:    2446325
L2C LOAD      ACCESS:    2204466  HIT:     511648  MISS:    1692818
L2C RFO       ACCESS:     753421  HIT:          4  MISS:     753417
L2C PREFETCH  ACCESS:          0  HIT:          0  MISS:          0
L2C WRITEBACK ACCESS:     925338  HIT:     925248  MISS:         90
L2C PREFETCH  REQUESTED:          0  ISSUED:          0  USEFUL:          0  USELESS:          0
LLC TOTAL     ACCESS:    3366165  HIT:     921113  MISS:    2445052
LLC LOAD      ACCESS:    1692818  HIT:       1224  MISS:    1691594
LLC RFO       ACCESS:     753417  HIT:         18  MISS:     753399
LLC PREFETCH  ACCESS:          0  HIT:          0  MISS:          0
LLC WRITEBACK ACCESS:     919930  HIT:     919871  MISS:         59
LLC PREFETCH  REQUESTED:          0  ISSUED:          0  USEFUL:          0  USELESS:          0
Major fault: 0 Minor fault: 48708

CPU 1 cumulative IPC: 0.298153 instructions: 100000000 cycles: 335398390
L1D TOTAL     ACCESS:   20605293  HIT:   19281918  MISS:    1323375
L1D LOAD      ACCESS:   13587886  HIT:   12265829  MISS:    1322057
L1D RFO       ACCESS:    7017407  HIT:    7016089  MISS:       1318
L1D PREFETCH  ACCESS:          0  HIT:          0  MISS:          0
L1D WRITEBACK ACCESS:          0  HIT:          0  MISS:          0
L1D PREFETCH  REQUESTED:          0  ISSUED:          0  USEFUL:          0  USELESS:          0
L1I TOTAL     ACCESS:   19969304  HIT:   19969304  MISS:          0
L1I LOAD      ACCESS:   19969304  HIT:   19969304  MISS:          0
L1I RFO       ACCESS:          0  HIT:          0  MISS:          0
L1I PREFETCH  ACCESS:          0  HIT:          0  MISS:          0
L1I WRITEBACK ACCESS:          0  HIT:          0  MISS:          0
L1I PREFETCH  REQUESTED:          0  ISSUED:          0  USEFUL:          0  USELESS:          0
L2C TOTAL     ACCESS:    2202102  HIT:     919793  MISS:    1282309
L2C LOAD      ACCESS:    1322057  HIT:      40746  MISS:    1281311
L2C RFO       ACCESS:       1318  HIT:        320  MISS:        998
L2C PREFETCH  ACCESS:          0  HIT:          0  MISS:          0
L2C WRITEBACK ACCESS:     878727  HIT:     878727  MISS:          0
L2C PREFETCH  REQUESTED:          0  ISSUED:          0  USEFUL:          0  USELESS:          0
LLC TOTAL     ACCESS:    2160498  HIT:    1277380  MISS:     883118
LLC LOAD      ACCESS:    1281311  HIT:     398494  MISS:     882817
LLC RFO       ACCESS:        998  HIT:        989  MISS:          9
LLC PREFETCH  ACCESS:          0  HIT:          0  MISS:          0
LLC WRITEBACK ACCESS:     878189  HIT:     877897  MISS:        292
LLC PREFETCH  REQUESTED:          0  ISSUED:          0  USEFUL:          0  USELESS:          0
Major fault: 0 Minor fault: 28824

CPU 2 cumulative IPC: 0.320922 instructions: 100000000 cycles: 311602664
L1D TOTAL     ACCESS:   39146415  HIT:   23786560  MISS:   15359855
L1D LOAD      ACCESS:   32709402  HIT:   17640438  MISS:   15068964
L1D RFO       ACCESS:    6437013  HIT:    6146122  MISS:     290891
L1D PREFETCH  ACCESS:          0  HIT:          0  MISS:          0
L1D WRITEBACK ACCESS:          0  HIT:          0  MISS:          0
L1D PREFETCH  REQUESTED:          0  ISSUED:          0  USEFUL:          0  USELESS:          0
L1I TOTAL     ACCESS:   36039424  HIT:   36039424  MISS:          0
L1I LOAD      ACCESS:   36039424  HIT:   36039424  MISS:          0
L1I RFO       ACCESS:          0  HIT:          0  MISS:          0
L1I PREFETCH  ACCESS:          0  HIT:          0  MISS:          0
L1I WRITEBACK ACCESS:          0  HIT:          0  MISS:          0
L1I PREFETCH  REQUESTED:          0  ISSUED:          0  USEFUL:          0  USELESS:          0
L2C TOTAL     ACCESS:   15720653  HIT:     362687  MISS:   15357966
L2C LOAD      ACCESS:   15068962  HIT:       2238  MISS:   15066724
L2C RFO       ACCESS:     290891  HIT:        610  MISS:     290281
L2C PREFETCH  ACCESS:          0  HIT:          0  MISS:          0
L2C WRITEBACK ACCESS:     360800  HIT:     359839  MISS:        961
L2C PREFETCH  REQUESTED:          0  ISSUED:          0  USEFUL:          0  USELESS:          0
LLC TOTAL     ACCESS:   15716092  HIT:   15262146  MISS:     453946
LLC LOAD      ACCESS:   15066724  HIT:   14901297  MISS:     165427
LLC RFO       ACCESS:     290281  HIT:       1838  MISS:     288443
LLC PREFETCH  ACCESS:          0  HIT:          0  MISS:          0
LLC WRITEBACK ACCESS:     359087  HIT:     359011  MISS:         76
LLC PREFETCH  REQUESTED:          0  ISSUED:          0  USEFUL:          0  USELESS:          0
Major fault: 0 Minor fault: 15947

CPU 3 cumulative IPC: 0.45034 instructions: 100000001 cycles: 222054227
L1D TOTAL     ACCESS:   37850108  HIT:   35771861  MISS:    2078247
L1D LOAD      ACCESS:   32269625  HIT:   30256494  MISS:    2013131
L1D RFO       ACCESS:    5580483  HIT:    5515367  MISS:      65116
L1D PREFETCH  ACCESS:          0  HIT:          0  MISS:          0
L1D WRITEBACK ACCESS:          0  HIT:          0  MISS:          0
L1D PREFETCH  REQUESTED:          0  ISSUED:          0  USEFUL:          0  USELESS:          0
L1I TOTAL     ACCESS:   25472377  HIT:   25472377  MISS:          0
L1I LOAD      ACCESS:   25472377  HIT:   25472377  MISS:          0
L1I RFO       ACCESS:          0  HIT:          0  MISS:          0
L1I PREFETCH  ACCESS:          0  HIT:          0  MISS:          0
L1I WRITEBACK ACCESS:          0  HIT:          0  MISS:          0
L1I PREFETCH  REQUESTED:          0  ISSUED:          0  USEFUL:          0  USELESS:          0
L2C TOTAL     ACCESS:    2147436  HIT:     241748  MISS:    1905688
L2C LOAD      ACCESS:    2012716  HIT:     156179  MISS:    1856537
L2C RFO       ACCESS:      63956  HIT:      15231  MISS:      48725
L2C PREFETCH  ACCESS:          0  HIT:          0  MISS:          0
L2C WRITEBACK ACCESS:      70764  HIT:      70338  MISS:        426
L2C PREFETCH  REQUESTED:          0  ISSUED:          0  USEFUL:          0  USELESS:          0
LLC TOTAL     ACCESS:    1954472  HIT:      54044  MISS:    1900428
LLC LOAD      ACCESS:    1856537  HIT:       4969  MISS:    1851568
LLC RFO       ACCESS:      48725  HIT:          0  MISS:      48725
LLC PREFETCH  ACCESS:          0  HIT:          0  MISS:          0
LLC WRITEBACK ACCESS:      49210  HIT:      49075  MISS:        135
LLC PREFETCH  REQUESTED:          0  ISSUED:          0  USEFUL:          0  USELESS:          0
Major fault: 0 Minor fault: 84811

CPU 4 cumulative IPC: 0.70168 instructions: 100000002 cycles: 142515160
L1D TOTAL     ACCESS:   14350988  HIT:   12526693  MISS:    1824295
L1D LOAD      ACCESS:    9828533  HIT:    8559006  MISS:    1269527
L1D RFO       ACCESS:    4522455  HIT:    3967687  MISS:     554768
L1D PREFETCH  ACCESS:          0  HIT:          0  MISS:          0
L1D WRITEBACK ACCESS:          0  HIT:          0  MISS:          0
L1D PREFETCH  REQUESTED:          0  ISSUED:          0  USEFUL:          0  USELESS:          0
L1I TOTAL     ACCESS:   21543751  HIT:   21541482  MISS:       2269
L1I LOAD      ACCESS:   21543751  HIT:   21541482  MISS:       2269
L1I RFO       ACCESS:          0  HIT:          0  MISS:          0
L1I PREFETCH  ACCESS:          0  HIT:          0  MISS:          0
L1I WRITEBACK ACCESS:          0  HIT:          0  MISS:          0
L1I PREFETCH  REQUESTED:          0  ISSUED:          0  USEFUL:          0  USELESS:          0
L2C TOTAL     ACCESS:    2607223  HIT:     933495  MISS:    1673728
L2C LOAD      ACCESS:    1271796  HIT:     141088  MISS:    1130708
L2C RFO       ACCESS:     554768  HIT:      13898  MISS:     540870
L2C PREFETCH  ACCESS:          0  HIT:          0  MISS:          0
L2C WRITEBACK ACCESS:     780659  HIT:     778509  MISS:       2150
L2C PREFETCH  REQUESTED:          0  ISSUED:          0  USEFUL:          0  USELESS:          0
LLC TOTAL     ACCESS:    2411448  HIT:    1845542  MISS:     565906
LLC LOAD      ACCESS:    1130706  HIT:     885167  MISS:     245539
LLC RFO       ACCESS:     540870  HIT:     220521  MISS:     320349
LLC PREFETCH  ACCESS:          0  HIT:          0  MISS:          0
LLC WRITEBACK ACCESS:     739872  HIT:     739854  MISS:         18
LLC PREFETCH  REQUESTED:          0  ISSUED:          0  USEFUL:          0  USELESS:          0
Major fault: 0 Minor fault: 9566

CPU 5 cumulative IPC: 0.427968 instructions: 100000000 cycles: 233662065
L1D TOTAL     ACCESS:   26379773  HIT:   20807266  MISS:    5572507
L1D LOAD      ACCESS:    9866679  HIT:    9022161  MISS:     844518
L1D RFO       ACCESS:   16513094  HIT:   11785105  MISS:    4727989
L1D PREFETCH  ACCESS:          0  HIT:          0  MISS:          0
L1D WRITEBACK ACCESS:          0  HIT:          0  MISS:          0
L1D PREFETCH  REQUESTED:          0  ISSUED:          0  USEFUL:          0  USELESS:          0
L1I TOTAL     ACCESS:   23562642  HIT:   23562642  MISS:          0
L1I LOAD      ACCESS:   23562642  HIT:   23562642  MISS:          0
L1I RFO       ACCESS:          0  HIT:          0  MISS:          0
L1I PREFETCH  ACCESS:          0  HIT:          0  MISS:          0
L1I WRITEBACK ACCESS:          0  HIT:          0  MISS:          0
L1I PREFETCH  REQUESTED:          0  ISSUED:          0  USEFUL:          0  USELESS:          0
L2C TOTAL     ACCESS:   10300492  HIT:    6137581  MISS:    4162911
L2C LOAD      ACCESS:     844518  HIT:        121  MISS:     844397
L2C RFO       ACCESS:    4727988  HIT:    1409825  MISS:    3318163
L2C PREFETCH  ACCESS:          0  HIT:          0  MISS:          0
L2C WRITEBACK ACCESS:    4727986  HIT:    4727635  MISS:        351
L2C PREFETCH  REQUESTED:          0  ISSUED:          0  USEFUL:          0  USELESS:          0
LLC TOTAL     ACCESS:    7479296  HIT:    4102427  MISS:    3376869
LLC LOAD      ACCESS:     844397  HIT:        183  MISS:     844214
LLC RFO       ACCESS:    3316276  HIT:     783738  MISS:    2532538
LLC PREFETCH  ACCESS:          0  HIT:          0  MISS:          0
LLC WRITEBACK ACCESS:    3318623  HIT:    3318506  MISS:        117
LLC PREFETCH  REQUESTED:          0  ISSUED:          0  USEFUL:          0  USELESS:          0
Major fault: 0 Minor fault: 73657

CPU 6 cumulative IPC: 0.166602 instructions: 100000001 cycles: 600233368
L1D TOTAL     ACCESS:   23338523  HIT:   20537420  MISS:    2801103
L1D LOAD      ACCESS:   18664467  HIT:   15924040  MISS:    2740427
L1D RFO       ACCESS:    4674056  HIT:    4613380  MISS:      60676
L1D PREFETCH  ACCESS:          0  HIT:          0  MISS:          0
L1D WRITEBACK ACCESS:          0  HIT:          0  MISS:          0
L1D PREFETCH  REQUESTED:          0  ISSUED:          0  USEFUL:          0  USELESS:          0
L1I TOTAL     ACCESS:   31898209  HIT:   31538208  MISS:     360001
L1I LOAD      ACCESS:   31898209  HIT:   31538208  MISS:     360001
L1I RFO       ACCESS:          0  HIT:          0  MISS:          0
L1I PREFETCH  ACCESS:          0  HIT:          0  MISS:          0
L1I WRITEBACK ACCESS:          0  HIT:          0  MISS:          0
L1I PREFETCH  REQUESTED:          0  ISSUED:          0  USEFUL:          0  USELESS:          0
L2C TOTAL     ACCESS:    3287387  HIT:     662013  MISS:    2625374
L2C LOAD      ACCESS:    3100369  HIT:     506287  MISS:    2594082
L2C RFO       ACCESS:      60668  HIT:      30148  MISS:      30520
L2C PREFETCH  ACCESS:          0  HIT:          0  MISS:          0
L2C WRITEBACK ACCESS:     126350  HIT:     125578  MISS:        772
L2C PREFETCH  REQUESTED:          0  ISSUED:          0  USEFUL:          0  USELESS:          0
LLC TOTAL     ACCESS:    2678062  HIT:     346680  MISS:    2331382
LLC LOAD      ACCESS:    2594082  HIT:     287393  MISS:    2306689
LLC RFO       ACCESS:      30520  HIT:       6221  MISS:      24299
LLC PREFETCH  ACCESS:          0  HIT:          0  MISS:          0
LLC WRITEBACK ACCESS:      53460  HIT:      53066  MISS:        394
LLC PREFETCH  REQUESTED:          0  ISSUED:          0  USEFUL:          0  USELESS:          0
Major fault: 0 Minor fault: 11119

CPU 7 cumulative IPC: 0.223358 instructions: 100000000 cycles: 447710968
L1D TOTAL     ACCESS:   18874968  HIT:   16972663  MISS:    1902305
L1D LOAD      ACCESS:   17563562  HIT:   15661828  MISS:    1901734
L1D RFO       ACCESS:    1311406  HIT:    1310835  MISS:        571
L1D PREFETCH  ACCESS:          0  HIT:          0  MISS:          0
L1D WRITEBACK ACCESS:          0  HIT:          0  MISS:          0
L1D PREFETCH  REQUESTED:          0  ISSUED:          0  USEFUL:          0  USELESS:          0
L1I TOTAL     ACCESS:   35120599  HIT:   35120599  MISS:          0
L1I LOAD      ACCESS:   35120599  HIT:   35120599  MISS:          0
L1I RFO       ACCESS:          0  HIT:          0  MISS:          0
L1I PREFETCH  ACCESS:          0  HIT:          0  MISS:          0
L1I WRITEBACK ACCESS:          0  HIT:          0  MISS:          0
L1I PREFETCH  REQUESTED:          0  ISSUED:          0  USEFUL:          0  USELESS:          0
L2C TOTAL     ACCESS:    1903144  HIT:       1223  MISS:    1901921
L2C LOAD      ACCESS:    1901734  HIT:        384  MISS:    1901350
L2C RFO       ACCESS:        571  HIT:          0  MISS:        571
L2C PREFETCH  ACCESS:          0  HIT:          0  MISS:          0
L2C WRITEBACK ACCESS:        839  HIT:        839  MISS:          0
L2C PREFETCH  REQUESTED:          0  ISSUED:          0  USEFUL:          0  USELESS:          0
LLC TOTAL     ACCESS:    1902760  HIT:       9666  MISS:    1893094
LLC LOAD      ACCESS:    1901350  HIT:       8827  MISS:    1892523
LLC RFO       ACCESS:        571  HIT:          0  MISS:        571
LLC PREFETCH  ACCESS:          0  HIT:          0  MISS:          0
LLC WRITEBACK ACCESS:        839  HIT:        839  MISS:          0
LLC PREFETCH  REQUESTED:          0  ISSUED:          0  USEFUL:          0  USELESS:          0
Major fault: 0 Minor fault: 819

DRAM Statistics
 CHANNEL 0
 RQ ROW_BUFFER_HIT:    4405174  ROW_BUFFER_MISS:    9038421
 DBUS_CONGESTED:   24990589
 WQ ROW_BUFFER_HIT:     503383  ROW_BUFFER_MISS:    5133083  FULL:          0

 CHANNEL 1
 RQ ROW_BUFFER_HIT:    4394175  ROW_BUFFER_MISS:    9035861
 DBUS_CONGESTED:   24990589
 WQ ROW_BUFFER_HIT:     503918  ROW_BUFFER_MISS:    5131060  FULL:          0

 AVG_CONGESTED_CYCLE: 13
