
*** ChampSim Multicore Out-of-Order Simulator ***

Warmup Instructions: 20000000
Simulation Instructions: 100000000
Number of CPUs: 8
LLC sets: 16384
LLC ways: 16
Off-chip DRAM Size: 8192 MB Channels: 2 Width: 64-bit Data Rate: 1600 MT/s

CPU 0 runs /scratch/user/djimenez/champsim-traces/speccpu2017/xz/621.wrf_s/621.wrf_s-8065B.champsimtrace.xz
CPU 1 runs /scratch/user/djimenez/champsim-traces/speccpu2017/xz/619.lbm_s/619.lbm_s-3766B.champsimtrace.xz
CPU 2 runs /scratch/user/djimenez/champsim-traces/speccpu2017/xz/603.bwaves_s/603.bwaves_s-891B.champsimtrace.xz
CPU 3 runs /scratch/user/djimenez/champsim-traces/speccpu2017/xz/654.roms_s/654.roms_s-1070B.champsimtrace.xz
CPU 4 runs /scratch/user/djimenez/champsim-traces/speccpu2017/xz/654.roms_s/654.roms_s-1390B.champsimtrace.xz
CPU 5 runs /scratch/user/djimenez/champsim-traces/speccpu2017/xz/607.cactuBSSN_s/607.cactuBSSN_s-2421B.champsimtrace.xz
CPU 6 runs /scratch/user/djimenez/champsim-traces/speccpu2017/xz/623.xalancbmk_s/623.xalancbmk_s-700B.champsimtrace.xz
CPU 7 runs /scratch/user/djimenez/champsim-traces/speccpu2017/xz/602.gcc_s/602.gcc_s-734B.champsimtrace.xz
Heartbeat CPU 2 instructions: 10000003 cycles: 3246085 heartbeat IPC: 3.08064 cumulative IPC: 3.08064 (Simulation time: 0 hr 2 min 55 sec) 
Heartbeat CPU 1 instructions: 10000000 cycles: 4266761 heartbeat IPC: 2.3437 cumulative IPC: 2.3437 (Simulation time: 0 hr 3 min 49 sec) 
Heartbeat CPU 0 instructions: 10000003 cycles: 4751084 heartbeat IPC: 2.10478 cumulative IPC: 2.10478 (Simulation time: 0 hr 4 min 15 sec) 
Heartbeat CPU 3 instructions: 10000001 cycles: 4924418 heartbeat IPC: 2.0307 cumulative IPC: 2.0307 (Simulation time: 0 hr 4 min 24 sec) 
Heartbeat CPU 7 instructions: 10000000 cycles: 5330107 heartbeat IPC: 1.87613 cumulative IPC: 1.87613 (Simulation time: 0 hr 4 min 46 sec) 
Heartbeat CPU 5 instructions: 10000000 cycles: 5802603 heartbeat IPC: 1.72336 cumulative IPC: 1.72336 (Simulation time: 0 hr 5 min 11 sec) 
Heartbeat CPU 6 instructions: 10000001 cycles: 5981556 heartbeat IPC: 1.67181 cumulative IPC: 1.67181 (Simulation time: 0 hr 5 min 21 sec) 
Heartbeat CPU 2 instructions: 20000000 cycles: 6488515 heartbeat IPC: 3.08411 cumulative IPC: 3.08237 (Simulation time: 0 hr 5 min 48 sec) 
Heartbeat CPU 4 instructions: 10000001 cycles: 6743287 heartbeat IPC: 1.48296 cumulative IPC: 1.48296 (Simulation time: 0 hr 6 min 2 sec) 
Heartbeat CPU 1 instructions: 20000000 cycles: 8541637 heartbeat IPC: 2.33925 cumulative IPC: 2.34147 (Simulation time: 0 hr 7 min 38 sec) 
Heartbeat CPU 0 instructions: 20000000 cycles: 9260129 heartbeat IPC: 2.21776 cumulative IPC: 2.1598 (Simulation time: 0 hr 8 min 17 sec) 
Heartbeat CPU 2 instructions: 30000003 cycles: 9731077 heartbeat IPC: 3.08398 cumulative IPC: 1.02764 (Simulation time: 0 hr 8 min 43 sec) 
Heartbeat CPU 3 instructions: 20000000 cycles: 9989487 heartbeat IPC: 1.97431 cumulative IPC: 2.0021 (Simulation time: 0 hr 8 min 57 sec) 
Heartbeat CPU 7 instructions: 20000000 cycles: 10682312 heartbeat IPC: 1.86839 cumulative IPC: 1.87225 (Simulation time: 0 hr 9 min 34 sec) 
Heartbeat CPU 6 instructions: 20000000 cycles: 10854665 heartbeat IPC: 2.05208 cumulative IPC: 1.84253 (Simulation time: 0 hr 9 min 44 sec) 
Heartbeat CPU 5 instructions: 20000000 cycles: 11603658 heartbeat IPC: 1.72382 cumulative IPC: 1.72359 (Simulation time: 0 hr 10 min 25 sec) 
Heartbeat CPU 4 instructions: 20000000 cycles: 11855192 heartbeat IPC: 1.95622 cumulative IPC: 1.68702 (Simulation time: 0 hr 10 min 39 sec) 

Warmup complete CPU 0 instructions: 25862658 cycles: 11855201 (Simulation time: 0 hr 10 min 39 sec) 
Warmup complete CPU 1 instructions: 27767053 cycles: 11855201 (Simulation time: 0 hr 10 min 39 sec) 
Warmup complete CPU 2 instructions: 36545910 cycles: 11855201 (Simulation time: 0 hr 10 min 39 sec) 
Warmup complete CPU 3 instructions: 23690243 cycles: 11855201 (Simulation time: 0 hr 10 min 39 sec) 
Warmup complete CPU 4 instructions: 20000001 cycles: 11855201 (Simulation time: 0 hr 10 min 39 sec) 
Warmup complete CPU 5 instructions: 20433768 cycles: 11855200 (Simulation time: 0 hr 10 min 39 sec) 
Warmup complete CPU 6 instructions: 21991283 cycles: 11855200 (Simulation time: 0 hr 10 min 39 sec) 
Warmup complete CPU 7 instructions: 22205769 cycles: 11855200 (Simulation time: 0 hr 10 min 39 sec) 

Heartbeat CPU 1 instructions: 30000001 cycles: 15772659 heartbeat IPC: 1.38293 cumulative IPC: 0.569999 (Simulation time: 0 hr 11 min 48 sec) 
Heartbeat CPU 0 instructions: 30000000 cycles: 21128696 heartbeat IPC: 0.842562 cumulative IPC: 0.446147 (Simulation time: 0 hr 13 min 18 sec) 
Heartbeat CPU 5 instructions: 30000001 cycles: 22649221 heartbeat IPC: 0.905341 cumulative IPC: 0.886253 (Simulation time: 0 hr 13 min 43 sec) 
Heartbeat CPU 2 instructions: 40000000 cycles: 26673368 heartbeat IPC: 0.590239 cumulative IPC: 0.233098 (Simulation time: 0 hr 14 min 53 sec) 
Heartbeat CPU 5 instructions: 40000000 cycles: 34210333 heartbeat IPC: 0.864969 cumulative IPC: 0.875246 (Simulation time: 0 hr 17 min 2 sec) 
Heartbeat CPU 3 instructions: 30000000 cycles: 34232340 heartbeat IPC: 0.412493 cumulative IPC: 0.281973 (Simulation time: 0 hr 17 min 2 sec) 
Heartbeat CPU 1 instructions: 40000000 cycles: 34492421 heartbeat IPC: 0.534195 cumulative IPC: 0.540391 (Simulation time: 0 hr 17 min 7 sec) 
Heartbeat CPU 0 instructions: 40000000 cycles: 37784298 heartbeat IPC: 0.600399 cumulative IPC: 0.545231 (Simulation time: 0 hr 18 min 4 sec) 
Heartbeat CPU 6 instructions: 30000001 cycles: 38612702 heartbeat IPC: 0.360256 cumulative IPC: 0.299307 (Simulation time: 0 hr 18 min 19 sec) 
Heartbeat CPU 7 instructions: 30000003 cycles: 44672357 heartbeat IPC: 0.294204 cumulative IPC: 0.237505 (Simulation time: 0 hr 20 min 4 sec) 
Heartbeat CPU 5 instructions: 50000003 cycles: 45488042 heartbeat IPC: 0.886705 cumulative IPC: 0.879088 (Simulation time: 0 hr 20 min 19 sec) 
Heartbeat CPU 1 instructions: 50000003 cycles: 52740234 heartbeat IPC: 0.548011 cumulative IPC: 0.543792 (Simulation time: 0 hr 22 min 19 sec) 
Heartbeat CPU 0 instructions: 50000002 cycles: 58564145 heartbeat IPC: 0.481236 cumulative IPC: 0.516761 (Simulation time: 0 hr 23 min 55 sec) 
Heartbeat CPU 5 instructions: 60000000 cycles: 58994839 heartbeat IPC: 0.740368 cumulative IPC: 0.839341 (Simulation time: 0 hr 24 min 2 sec) 
Heartbeat CPU 4 instructions: 30000002 cycles: 60845215 heartbeat IPC: 0.204123 cumulative IPC: 0.204123 (Simulation time: 0 hr 24 min 32 sec) 
Heartbeat CPU 2 instructions: 50000001 cycles: 62640192 heartbeat IPC: 0.278034 cumulative IPC: 0.264923 (Simulation time: 0 hr 25 min 1 sec) 
Heartbeat CPU 6 instructions: 40000000 cycles: 67556487 heartbeat IPC: 0.345497 cumulative IPC: 0.323309 (Simulation time: 0 hr 26 min 26 sec) 
Heartbeat CPU 3 instructions: 40000000 cycles: 68557648 heartbeat IPC: 0.29133 cumulative IPC: 0.287638 (Simulation time: 0 hr 26 min 44 sec) 
Heartbeat CPU 1 instructions: 60000000 cycles: 70657862 heartbeat IPC: 0.558109 cumulative IPC: 0.548155 (Simulation time: 0 hr 27 min 19 sec) 
Heartbeat CPU 5 instructions: 70000000 cycles: 72242706 heartbeat IPC: 0.754838 cumulative IPC: 0.820803 (Simulation time: 0 hr 27 min 47 sec) 
Heartbeat CPU 0 instructions: 60000000 cycles: 75412704 heartbeat IPC: 0.593522 cumulative IPC: 0.53711 (Simulation time: 0 hr 28 min 41 sec) 
Heartbeat CPU 5 instructions: 80000000 cycles: 84960063 heartbeat IPC: 0.786327 cumulative IPC: 0.814805 (Simulation time: 0 hr 31 min 23 sec) 
Heartbeat CPU 1 instructions: 70000003 cycles: 87702281 heartbeat IPC: 0.586702 cumulative IPC: 0.556817 (Simulation time: 0 hr 32 min 10 sec) 
Heartbeat CPU 7 instructions: 40000000 cycles: 88721461 heartbeat IPC: 0.227019 cumulative IPC: 0.231496 (Simulation time: 0 hr 32 min 27 sec) 
Heartbeat CPU 2 instructions: 60000000 cycles: 92831345 heartbeat IPC: 0.331223 cumulative IPC: 0.289642 (Simulation time: 0 hr 33 min 38 sec) 
Heartbeat CPU 6 instructions: 50000001 cycles: 94414858 heartbeat IPC: 0.372323 cumulative IPC: 0.339254 (Simulation time: 0 hr 34 min 6 sec) 
Heartbeat CPU 0 instructions: 70000000 cycles: 94680380 heartbeat IPC: 0.519004 cumulative IPC: 0.532898 (Simulation time: 0 hr 34 min 11 sec) 
Heartbeat CPU 5 instructions: 90000000 cycles: 97891892 heartbeat IPC: 0.773286 cumulative IPC: 0.808565 (Simulation time: 0 hr 35 min 5 sec) 
Heartbeat CPU 3 instructions: 50000000 cycles: 98810723 heartbeat IPC: 0.330545 cumulative IPC: 0.302566 (Simulation time: 0 hr 35 min 20 sec) 
Heartbeat CPU 1 instructions: 80000000 cycles: 105466199 heartbeat IPC: 0.562939 cumulative IPC: 0.557979 (Simulation time: 0 hr 37 min 18 sec) 
Heartbeat CPU 5 instructions: 100000000 cycles: 111406578 heartbeat IPC: 0.739936 cumulative IPC: 0.799248 (Simulation time: 0 hr 39 min 4 sec) 
Heartbeat CPU 0 instructions: 80000000 cycles: 112890648 heartbeat IPC: 0.549141 cumulative IPC: 0.535825 (Simulation time: 0 hr 39 min 29 sec) 
Heartbeat CPU 4 instructions: 40000000 cycles: 113022460 heartbeat IPC: 0.191654 cumulative IPC: 0.197692 (Simulation time: 0 hr 39 min 32 sec) 
Heartbeat CPU 6 instructions: 60000000 cycles: 114450585 heartbeat IPC: 0.499108 cumulative IPC: 0.370472 (Simulation time: 0 hr 39 min 57 sec) 
Heartbeat CPU 1 instructions: 90000000 cycles: 123768571 heartbeat IPC: 0.546377 cumulative IPC: 0.556081 (Simulation time: 0 hr 42 min 41 sec) 
Heartbeat CPU 5 instructions: 110000003 cycles: 124729356 heartbeat IPC: 0.750594 cumulative IPC: 0.793505 (Simulation time: 0 hr 42 min 58 sec) 
Heartbeat CPU 2 instructions: 70000000 cycles: 125077917 heartbeat IPC: 0.31011 cumulative IPC: 0.295472 (Simulation time: 0 hr 43 min 4 sec) 
Heartbeat CPU 0 instructions: 90000003 cycles: 132514241 heartbeat IPC: 0.509591 cumulative IPC: 0.531559 (Simulation time: 0 hr 45 min 18 sec) 
Heartbeat CPU 7 instructions: 50000000 cycles: 133203140 heartbeat IPC: 0.224812 cumulative IPC: 0.229046 (Simulation time: 0 hr 45 min 31 sec) 
Heartbeat CPU 3 instructions: 60000000 cycles: 136455485 heartbeat IPC: 0.265641 cumulative IPC: 0.29141 (Simulation time: 0 hr 46 min 27 sec) 
Heartbeat CPU 6 instructions: 70000001 cycles: 137899438 heartbeat IPC: 0.42646 cumulative IPC: 0.380888 (Simulation time: 0 hr 46 min 52 sec) 
Heartbeat CPU 5 instructions: 120000000 cycles: 138031263 heartbeat IPC: 0.751772 cumulative IPC: 0.789106 (Simulation time: 0 hr 46 min 54 sec) 
Finished CPU 5 instructions: 100000002 cycles: 126763418 cumulative IPC: 0.788871 (Simulation time: 0 hr 47 min 4 sec) 
Heartbeat CPU 1 instructions: 100000000 cycles: 141842434 heartbeat IPC: 0.553285 cumulative IPC: 0.555693 (Simulation time: 0 hr 47 min 59 sec) 
Heartbeat CPU 5 instructions: 130000001 cycles: 151549702 heartbeat IPC: 0.73973 cumulative IPC: 0.784327 (Simulation time: 0 hr 50 min 56 sec) 
Heartbeat CPU 0 instructions: 100000000 cycles: 151569232 heartbeat IPC: 0.524797 cumulative IPC: 0.530636 (Simulation time: 0 hr 50 min 56 sec) 
Heartbeat CPU 4 instructions: 50000003 cycles: 154555126 heartbeat IPC: 0.240774 cumulative IPC: 0.210231 (Simulation time: 0 hr 51 min 49 sec) 
Heartbeat CPU 2 instructions: 80000000 cycles: 156939609 heartbeat IPC: 0.313857 cumulative IPC: 0.299509 (Simulation time: 0 hr 52 min 31 sec) 
Heartbeat CPU 1 instructions: 110000001 cycles: 160397802 heartbeat IPC: 0.538928 cumulative IPC: 0.553598 (Simulation time: 0 hr 53 min 32 sec) 
Heartbeat CPU 5 instructions: 140000000 cycles: 164537435 heartbeat IPC: 0.769957 cumulative IPC: 0.783105 (Simulation time: 0 hr 54 min 44 sec) 
Heartbeat CPU 3 instructions: 70000001 cycles: 169226092 heartbeat IPC: 0.305152 cumulative IPC: 0.294271 (Simulation time: 0 hr 56 min 9 sec) 
Heartbeat CPU 0 instructions: 110000000 cycles: 170602633 heartbeat IPC: 0.525392 cumulative IPC: 0.530008 (Simulation time: 0 hr 56 min 34 sec) 
Heartbeat CPU 6 instructions: 80000000 cycles: 172194637 heartbeat IPC: 0.291586 cumulative IPC: 0.361787 (Simulation time: 0 hr 57 min 2 sec) 
Heartbeat CPU 7 instructions: 60000000 cycles: 176956743 heartbeat IPC: 0.228553 cumulative IPC: 0.228915 (Simulation time: 0 hr 58 min 26 sec) 
Heartbeat CPU 5 instructions: 150000002 cycles: 177425602 heartbeat IPC: 0.775906 cumulative IPC: 0.782545 (Simulation time: 0 hr 58 min 35 sec) 
Heartbeat CPU 1 instructions: 120000000 cycles: 177891067 heartbeat IPC: 0.571649 cumulative IPC: 0.5555 (Simulation time: 0 hr 58 min 43 sec) 
Heartbeat CPU 4 instructions: 60000000 cycles: 178730087 heartbeat IPC: 0.413651 cumulative IPC: 0.239701 (Simulation time: 0 hr 58 min 57 sec) 
Heartbeat CPU 2 instructions: 90000000 cycles: 186707945 heartbeat IPC: 0.335927 cumulative IPC: 0.305709 (Simulation time: 1 hr 1 min 21 sec) 
Heartbeat CPU 5 instructions: 160000000 cycles: 190278361 heartbeat IPC: 0.778043 cumulative IPC: 0.78222 (Simulation time: 1 hr 2 min 26 sec) 
Heartbeat CPU 0 instructions: 120000000 cycles: 190583093 heartbeat IPC: 0.500489 cumulative IPC: 0.526708 (Simulation time: 1 hr 2 min 31 sec) 
Finished CPU 1 instructions: 100000000 cycles: 180963185 cumulative IPC: 0.552599 (Simulation time: 1 hr 3 min 12 sec) 
Heartbeat CPU 1 instructions: 130000000 cycles: 197422593 heartbeat IPC: 0.511993 cumulative IPC: 0.550921 (Simulation time: 1 hr 4 min 35 sec) 
Finished CPU 0 instructions: 100000001 cycles: 188065341 cumulative IPC: 0.53173 (Simulation time: 1 hr 5 min 21 sec) 
Heartbeat CPU 6 instructions: 90000001 cycles: 201602162 heartbeat IPC: 0.340049 cumulative IPC: 0.358418 (Simulation time: 1 hr 5 min 52 sec) 
Heartbeat CPU 4 instructions: 70000002 cycles: 201973723 heartbeat IPC: 0.430225 cumulative IPC: 0.262994 (Simulation time: 1 hr 5 min 59 sec) 
Heartbeat CPU 5 instructions: 170000003 cycles: 203260772 heartbeat IPC: 0.770273 cumulative IPC: 0.78141 (Simulation time: 1 hr 6 min 22 sec) 
Heartbeat CPU 3 instructions: 80000000 cycles: 203416146 heartbeat IPC: 0.292483 cumulative IPC: 0.293952 (Simulation time: 1 hr 6 min 25 sec) 
Heartbeat CPU 0 instructions: 130000000 cycles: 206495745 heartbeat IPC: 0.628431 cumulative IPC: 0.535024 (Simulation time: 1 hr 7 min 18 sec) 
Heartbeat CPU 5 instructions: 180000000 cycles: 216190569 heartbeat IPC: 0.773407 cumulative IPC: 0.780904 (Simulation time: 1 hr 10 min 25 sec) 
Heartbeat CPU 2 instructions: 100000000 cycles: 217420038 heartbeat IPC: 0.325605 cumulative IPC: 0.308682 (Simulation time: 1 hr 10 min 52 sec) 
Heartbeat CPU 1 instructions: 140000000 cycles: 218298860 heartbeat IPC: 0.479013 cumulative IPC: 0.543649 (Simulation time: 1 hr 11 min 10 sec) 
Heartbeat CPU 7 instructions: 70000003 cycles: 220953172 heartbeat IPC: 0.227291 cumulative IPC: 0.228573 (Simulation time: 1 hr 12 min 7 sec) 
Heartbeat CPU 0 instructions: 140000000 cycles: 222382146 heartbeat IPC: 0.629469 cumulative IPC: 0.542151 (Simulation time: 1 hr 12 min 38 sec) 
Heartbeat CPU 4 instructions: 80000000 cycles: 225289754 heartbeat IPC: 0.428889 cumulative IPC: 0.281117 (Simulation time: 1 hr 13 min 39 sec) 
Heartbeat CPU 5 instructions: 190000002 cycles: 229219281 heartbeat IPC: 0.767536 cumulative IPC: 0.780102 (Simulation time: 1 hr 15 min 0 sec) 
Heartbeat CPU 3 instructions: 90000002 cycles: 235810586 heartbeat IPC: 0.308695 cumulative IPC: 0.296085 (Simulation time: 1 hr 17 min 24 sec) 
Heartbeat CPU 6 instructions: 100000000 cycles: 236064272 heartbeat IPC: 0.290174 cumulative IPC: 0.347928 (Simulation time: 1 hr 17 min 30 sec) 
Heartbeat CPU 0 instructions: 150000001 cycles: 240984211 heartbeat IPC: 0.537575 cumulative IPC: 0.541779 (Simulation time: 1 hr 19 min 3 sec) 
Heartbeat CPU 1 instructions: 150000001 cycles: 241636645 heartbeat IPC: 0.42849 cumulative IPC: 0.531953 (Simulation time: 1 hr 19 min 13 sec) 
Heartbeat CPU 5 instructions: 200000000 cycles: 242763127 heartbeat IPC: 0.738343 cumulative IPC: 0.777653 (Simulation time: 1 hr 19 min 33 sec) 
Heartbeat CPU 2 instructions: 110000002 cycles: 249499177 heartbeat IPC: 0.311729 cumulative IPC: 0.309093 (Simulation time: 1 hr 21 min 42 sec) 
Heartbeat CPU 5 instructions: 210000000 cycles: 256437577 heartbeat IPC: 0.731291 cumulative IPC: 0.775061 (Simulation time: 1 hr 23 min 42 sec) 
Heartbeat CPU 4 instructions: 90000003 cycles: 261436815 heartbeat IPC: 0.276648 cumulative IPC: 0.280469 (Simulation time: 1 hr 25 min 8 sec) 
Heartbeat CPU 6 instructions: 110000002 cycles: 265845204 heartbeat IPC: 0.335785 cumulative IPC: 0.346505 (Simulation time: 1 hr 26 min 22 sec) 
Heartbeat CPU 7 instructions: 80000000 cycles: 265961875 heartbeat IPC: 0.222179 cumulative IPC: 0.227441 (Simulation time: 1 hr 26 min 24 sec) 
Heartbeat CPU 3 instructions: 100000000 cycles: 268347551 heartbeat IPC: 0.307343 cumulative IPC: 0.297513 (Simulation time: 1 hr 27 min 2 sec) 
Heartbeat CPU 1 instructions: 160000000 cycles: 269443306 heartbeat IPC: 0.359626 cumulative IPC: 0.51335 (Simulation time: 1 hr 27 min 20 sec) 
Heartbeat CPU 5 instructions: 220000000 cycles: 269659129 heartbeat IPC: 0.756341 cumulative IPC: 0.774101 (Simulation time: 1 hr 27 min 24 sec) 
Heartbeat CPU 0 instructions: 160000000 cycles: 270044565 heartbeat IPC: 0.344111 cumulative IPC: 0.519531 (Simulation time: 1 hr 27 min 30 sec) 
Heartbeat CPU 2 instructions: 120000000 cycles: 282867579 heartbeat IPC: 0.299685 cumulative IPC: 0.307935 (Simulation time: 1 hr 31 min 0 sec) 
Heartbeat CPU 5 instructions: 230000001 cycles: 283756195 heartbeat IPC: 0.709368 cumulative IPC: 0.770745 (Simulation time: 1 hr 31 min 31 sec) 
Heartbeat CPU 6 instructions: 120000000 cycles: 293404120 heartbeat IPC: 0.362859 cumulative IPC: 0.348105 (Simulation time: 1 hr 34 min 18 sec) 
Heartbeat CPU 0 instructions: 170000002 cycles: 297024302 heartbeat IPC: 0.370649 cumulative IPC: 0.505445 (Simulation time: 1 hr 35 min 19 sec) 
Finished CPU 6 instructions: 100000000 cycles: 286869579 cumulative IPC: 0.34859 (Simulation time: 1 hr 35 min 47 sec) 
Heartbeat CPU 5 instructions: 240000000 cycles: 299078242 heartbeat IPC: 0.652654 cumulative IPC: 0.764445 (Simulation time: 1 hr 35 min 53 sec) 
Heartbeat CPU 4 instructions: 100000000 cycles: 300590915 heartbeat IPC: 0.255401 cumulative IPC: 0.27707 (Simulation time: 1 hr 36 min 19 sec) 
Heartbeat CPU 1 instructions: 170000002 cycles: 304346595 heartbeat IPC: 0.286506 cumulative IPC: 0.486281 (Simulation time: 1 hr 37 min 23 sec) 
Heartbeat CPU 3 instructions: 110000001 cycles: 309497286 heartbeat IPC: 0.243015 cumulative IPC: 0.289978 (Simulation time: 1 hr 38 min 53 sec) 
Heartbeat CPU 5 instructions: 250000003 cycles: 312547352 heartbeat IPC: 0.74244 cumulative IPC: 0.763459 (Simulation time: 1 hr 39 min 46 sec) 
Heartbeat CPU 7 instructions: 90000003 cycles: 313977953 heartbeat IPC: 0.208264 cumulative IPC: 0.224393 (Simulation time: 1 hr 40 min 10 sec) 
Heartbeat CPU 6 instructions: 130000001 cycles: 314675930 heartbeat IPC: 0.470106 cumulative IPC: 0.356675 (Simulation time: 1 hr 40 min 22 sec) 
Heartbeat CPU 0 instructions: 180000000 cycles: 316088227 heartbeat IPC: 0.524551 cumulative IPC: 0.506642 (Simulation time: 1 hr 40 min 46 sec) 
Heartbeat CPU 2 instructions: 130000003 cycles: 317871268 heartbeat IPC: 0.285684 cumulative IPC: 0.305389 (Simulation time: 1 hr 41 min 17 sec) 
Heartbeat CPU 5 instructions: 260000000 cycles: 326108013 heartbeat IPC: 0.737427 cumulative IPC: 0.762336 (Simulation time: 1 hr 43 min 37 sec) 
Heartbeat CPU 0 instructions: 190000002 cycles: 332947084 heartbeat IPC: 0.59316 cumulative IPC: 0.511185 (Simulation time: 1 hr 45 min 27 sec) 
Heartbeat CPU 3 instructions: 120000000 cycles: 337157982 heartbeat IPC: 0.361524 cumulative IPC: 0.296062 (Simulation time: 1 hr 46 min 34 sec) 
Heartbeat CPU 1 instructions: 180000000 cycles: 337931217 heartbeat IPC: 0.297755 cumulative IPC: 0.466863 (Simulation time: 1 hr 46 min 46 sec) 
Heartbeat CPU 4 instructions: 110000000 cycles: 338020470 heartbeat IPC: 0.267169 cumulative IPC: 0.275934 (Simulation time: 1 hr 46 min 47 sec) 
Heartbeat CPU 6 instructions: 140000000 cycles: 338285077 heartbeat IPC: 0.423565 cumulative IPC: 0.361513 (Simulation time: 1 hr 46 min 51 sec) 
Finished CPU 2 instructions: 100000001 cycles: 327481103 cumulative IPC: 0.305361 (Simulation time: 1 hr 47 min 7 sec) 
Heartbeat CPU 5 instructions: 270000003 cycles: 339459869 heartbeat IPC: 0.74896 cumulative IPC: 0.761791 (Simulation time: 1 hr 47 min 9 sec) 
Finished CPU 3 instructions: 100000002 cycles: 335371404 cumulative IPC: 0.298177 (Simulation time: 1 hr 49 min 7 sec) 
Heartbeat CPU 2 instructions: 140000000 cycles: 350236949 heartbeat IPC: 0.308969 cumulative IPC: 0.305732 (Simulation time: 1 hr 49 min 57 sec) 
Heartbeat CPU 0 instructions: 200000000 cycles: 351547571 heartbeat IPC: 0.53762 cumulative IPC: 0.512632 (Simulation time: 1 hr 50 min 18 sec) 
Heartbeat CPU 5 instructions: 280000000 cycles: 352771044 heartbeat IPC: 0.751248 cumulative IPC: 0.761379 (Simulation time: 1 hr 50 min 37 sec) 
Heartbeat CPU 5 instructions: 290000000 cycles: 366422836 heartbeat IPC: 0.732505 cumulative IPC: 0.760267 (Simulation time: 1 hr 54 min 19 sec) 
Heartbeat CPU 0 instructions: 210000003 cycles: 369540741 heartbeat IPC: 0.555767 cumulative IPC: 0.514802 (Simulation time: 1 hr 55 min 7 sec) 
Heartbeat CPU 6 instructions: 150000001 cycles: 370799600 heartbeat IPC: 0.307555 cumulative IPC: 0.356625 (Simulation time: 1 hr 55 min 26 sec) 
Heartbeat CPU 3 instructions: 130000001 cycles: 372439407 heartbeat IPC: 0.283435 cumulative IPC: 0.294826 (Simulation time: 1 hr 55 min 51 sec) 
Heartbeat CPU 1 instructions: 190000000 cycles: 372903449 heartbeat IPC: 0.285941 cumulative IPC: 0.449339 (Simulation time: 1 hr 55 min 59 sec) 
Heartbeat CPU 4 instructions: 120000000 cycles: 375348762 heartbeat IPC: 0.267893 cumulative IPC: 0.275108 (Simulation time: 1 hr 56 min 37 sec) 
Finished CPU 4 instructions: 100000001 cycles: 363493569 cumulative IPC: 0.275108 (Simulation time: 1 hr 56 min 37 sec) 
Heartbeat CPU 5 instructions: 300000000 cycles: 380162192 heartbeat IPC: 0.727836 cumulative IPC: 0.759058 (Simulation time: 1 hr 57 min 54 sec) 
Heartbeat CPU 2 instructions: 150000000 cycles: 384113303 heartbeat IPC: 0.295191 cumulative IPC: 0.304773 (Simulation time: 1 hr 58 min 56 sec) 
Heartbeat CPU 0 instructions: 220000000 cycles: 387206694 heartbeat IPC: 0.56606 cumulative IPC: 0.517215 (Simulation time: 1 hr 59 min 44 sec) 
Heartbeat CPU 5 instructions: 310000002 cycles: 393862775 heartbeat IPC: 0.729896 cumulative IPC: 0.758012 (Simulation time: 2 hr 1 min 33 sec) 
Heartbeat CPU 6 instructions: 160000000 cycles: 400158494 heartbeat IPC: 0.340612 cumulative IPC: 0.355415 (Simulation time: 2 hr 3 min 14 sec) 
Heartbeat CPU 3 instructions: 140000000 cycles: 405911980 heartbeat IPC: 0.298752 cumulative IPC: 0.29516 (Simulation time: 2 hr 4 min 45 sec) 
Heartbeat CPU 1 instructions: 200000000 cycles: 406042573 heartbeat IPC: 0.301758 cumulative IPC: 0.436932 (Simulation time: 2 hr 4 min 48 sec) 
Heartbeat CPU 7 instructions: 100000000 cycles: 407152716 heartbeat IPC: 0.107325 cumulative IPC: 0.196799 (Simulation time: 2 hr 5 min 5 sec) 
Heartbeat CPU 5 instructions: 320000000 cycles: 407183826 heartbeat IPC: 0.750691 cumulative IPC: 0.757765 (Simulation time: 2 hr 5 min 6 sec) 
Heartbeat CPU 4 instructions: 130000003 cycles: 409160621 heartbeat IPC: 0.295754 cumulative IPC: 0.276865 (Simulation time: 2 hr 5 min 39 sec) 
Heartbeat CPU 0 instructions: 230000000 cycles: 411241896 heartbeat IPC: 0.416056 cumulative IPC: 0.511127 (Simulation time: 2 hr 6 min 14 sec) 
Heartbeat CPU 2 instructions: 160000000 cycles: 416740164 heartbeat IPC: 0.306496 cumulative IPC: 0.304912 (Simulation time: 2 hr 7 min 39 sec) 
Heartbeat CPU 5 instructions: 330000001 cycles: 420629989 heartbeat IPC: 0.743707 cumulative IPC: 0.757303 (Simulation time: 2 hr 8 min 40 sec) 
Heartbeat CPU 6 instructions: 170000000 cycles: 433175939 heartbeat IPC: 0.30287 cumulative IPC: 0.351297 (Simulation time: 2 hr 11 min 54 sec) 
Heartbeat CPU 5 instructions: 340000000 cycles: 434425920 heartbeat IPC: 0.724851 cumulative IPC: 0.756243 (Simulation time: 2 hr 12 min 14 sec) 
Heartbeat CPU 1 instructions: 210000002 cycles: 437326702 heartbeat IPC: 0.319651 cumulative IPC: 0.428308 (Simulation time: 2 hr 12 min 59 sec) 
Heartbeat CPU 3 instructions: 150000002 cycles: 438075068 heartbeat IPC: 0.310915 cumulative IPC: 0.296349 (Simulation time: 2 hr 13 min 11 sec) 
Heartbeat CPU 0 instructions: 240000000 cycles: 446284459 heartbeat IPC: 0.285367 cumulative IPC: 0.492916 (Simulation time: 2 hr 15 min 19 sec) 
Heartbeat CPU 5 instructions: 350000002 cycles: 448033225 heartbeat IPC: 0.7349 cumulative IPC: 0.755577 (Simulation time: 2 hr 15 min 45 sec) 
Heartbeat CPU 2 instructions: 170000003 cycles: 450884680 heartbeat IPC: 0.292873 cumulative IPC: 0.303975 (Simulation time: 2 hr 16 min 29 sec) 
Heartbeat CPU 7 instructions: 110000002 cycles: 452868424 heartbeat IPC: 0.218743 cumulative IPC: 0.199074 (Simulation time: 2 hr 17 min 4 sec) 
Heartbeat CPU 4 instructions: 140000000 cycles: 457484692 heartbeat IPC: 0.206936 cumulative IPC: 0.269282 (Simulation time: 2 hr 18 min 23 sec) 
Heartbeat CPU 5 instructions: 360000000 cycles: 461531553 heartbeat IPC: 0.740832 cumulative IPC: 0.755135 (Simulation time: 2 hr 19 min 32 sec) 
Heartbeat CPU 6 instructions: 180000000 cycles: 463653278 heartbeat IPC: 0.328113 cumulative IPC: 0.349733 (Simulation time: 2 hr 20 min 9 sec) 
Heartbeat CPU 1 instructions: 220000000 cycles: 467783768 heartbeat IPC: 0.328331 cumulative IPC: 0.42163 (Simulation time: 2 hr 21 min 17 sec) 
Heartbeat CPU 0 instructions: 250000001 cycles: 469735956 heartbeat IPC: 0.426412 cumulative IPC: 0.48951 (Simulation time: 2 hr 21 min 48 sec) 
Heartbeat CPU 5 instructions: 370000002 cycles: 475150959 heartbeat IPC: 0.734247 cumulative IPC: 0.754521 (Simulation time: 2 hr 23 min 13 sec) 
Heartbeat CPU 3 instructions: 160000000 cycles: 476452693 heartbeat IPC: 0.260568 cumulative IPC: 0.293393 (Simulation time: 2 hr 23 min 33 sec) 
Heartbeat CPU 2 instructions: 180000000 cycles: 486203598 heartbeat IPC: 0.283134 cumulative IPC: 0.302423 (Simulation time: 2 hr 26 min 9 sec) 
Heartbeat CPU 5 instructions: 380000000 cycles: 488740725 heartbeat IPC: 0.735848 cumulative IPC: 0.753989 (Simulation time: 2 hr 26 min 49 sec) 
Heartbeat CPU 6 instructions: 190000001 cycles: 491466035 heartbeat IPC: 0.359547 cumulative IPC: 0.350302 (Simulation time: 2 hr 27 min 33 sec) 
Heartbeat CPU 1 instructions: 230000003 cycles: 497615650 heartbeat IPC: 0.335212 cumulative IPC: 0.416322 (Simulation time: 2 hr 29 min 12 sec) 
Heartbeat CPU 7 instructions: 120000000 cycles: 498771344 heartbeat IPC: 0.217851 cumulative IPC: 0.200844 (Simulation time: 2 hr 29 min 31 sec) 
Heartbeat CPU 0 instructions: 260000000 cycles: 500062347 heartbeat IPC: 0.329746 cumulative IPC: 0.479586 (Simulation time: 2 hr 29 min 52 sec) 
Heartbeat CPU 4 instructions: 150000003 cycles: 501219065 heartbeat IPC: 0.228653 cumulative IPC: 0.265651 (Simulation time: 2 hr 30 min 12 sec) 
Heartbeat CPU 5 instructions: 390000002 cycles: 502177320 heartbeat IPC: 0.744236 cumulative IPC: 0.753721 (Simulation time: 2 hr 30 min 28 sec) 
Heartbeat CPU 3 instructions: 170000003 cycles: 507516255 heartbeat IPC: 0.321921 cumulative IPC: 0.295181 (Simulation time: 2 hr 31 min 56 sec) 
Finished CPU 7 instructions: 100000001 cycles: 496602249 cumulative IPC: 0.201368 (Simulation time: 2 hr 32 min 12 sec) 

CPU 0 Branch Prediction Accuracy: 99.2975% MPKI: 0.336138

CPU 1 Branch Prediction Accuracy: 97.8557% MPKI: 0.308503

CPU 2 Branch Prediction Accuracy: 99.8669% MPKI: 0.204512

CPU 3 Branch Prediction Accuracy: 99.883% MPKI: 0.0614451

CPU 4 Branch Prediction Accuracy: 99.7351% MPKI: 0.101501

CPU 5 Branch Prediction Accuracy: 99.7561% MPKI: 0.00414589

CPU 6 Branch Prediction Accuracy: 99.2077% MPKI: 1.85328

CPU 7 Branch Prediction Accuracy: 99.8588% MPKI: 0.296979

ChampSim completed all CPUs

Total Simulation Statistics (not including warmup)

CPU 0 cumulative IPC: 0.477571 instructions: 237162577 cycles: 496602248
L1D TOTAL     ACCESS:   56947846  HIT:   53526592  MISS:    3421254
L1D LOAD      ACCESS:   48730583  HIT:   45857645  MISS:    2872938
L1D RFO       ACCESS:    8217263  HIT:    7668947  MISS:     548316
L1D PREFETCH  ACCESS:          0  HIT:          0  MISS:          0
L1D WRITEBACK ACCESS:          0  HIT:          0  MISS:          0
L1I TOTAL     ACCESS:   66111676  HIT:   66105576  MISS:       6100
L1I LOAD      ACCESS:   66111676  HIT:   66105576  MISS:       6100
L1I RFO       ACCESS:          0  HIT:          0  MISS:          0
L1I PREFETCH  ACCESS:          0  HIT:          0  MISS:          0
L1I WRITEBACK ACCESS:          0  HIT:          0  MISS:          0
L2C TOTAL     ACCESS:    4534536  HIT:    2164287  MISS:    2370249
L2C LOAD      ACCESS:    2878962  HIT:     975758  MISS:    1903204
L2C RFO       ACCESS:     548307  HIT:      84830  MISS:     463477
L2C PREFETCH  ACCESS:          0  HIT:          0  MISS:          0
L2C WRITEBACK ACCESS:    1107267  HIT:    1103699  MISS:       3568
LLC TOTAL     ACCESS:    3341139  HIT:    1288021  MISS:    2053118
LLC LOAD      ACCESS:    1903204  HIT:     240621  MISS:    1662583
LLC RFO       ACCESS:     463477  HIT:      80086  MISS:     383391
LLC PREFETCH  ACCESS:          0  HIT:          0  MISS:          0
LLC WRITEBACK ACCESS:     974458  HIT:     967314  MISS:       7144

CPU 1 cumulative IPC: 0.415166 instructions: 206172542 cycles: 496602248
L1D TOTAL     ACCESS:   56250428  HIT:   43748230  MISS:   12502198
L1D LOAD      ACCESS:   21394132  HIT:   19498632  MISS:    1895500
L1D RFO       ACCESS:   34856296  HIT:   24249598  MISS:   10606698
L1D PREFETCH  ACCESS:          0  HIT:          0  MISS:          0
L1D WRITEBACK ACCESS:          0  HIT:          0  MISS:          0
L1I TOTAL     ACCESS:   48954975  HIT:   48954975  MISS:          0
L1I LOAD      ACCESS:   48954975  HIT:   48954975  MISS:          0
L1I RFO       ACCESS:          0  HIT:          0  MISS:          0
L1I PREFETCH  ACCESS:          0  HIT:          0  MISS:          0
L1I WRITEBACK ACCESS:          0  HIT:          0  MISS:          0
L2C TOTAL     ACCESS:   23108895  HIT:   13723616  MISS:    9385279
L2C LOAD      ACCESS:    1895500  HIT:       1166  MISS:    1894334
L2C RFO       ACCESS:   10606690  HIT:    3117826  MISS:    7488864
L2C PREFETCH  ACCESS:          0  HIT:          0  MISS:          0
L2C WRITEBACK ACCESS:   10606705  HIT:   10604624  MISS:       2081
LLC TOTAL     ACCESS:   16869850  HIT:    9296447  MISS:    7573403
LLC LOAD      ACCESS:    1894334  HIT:       1018  MISS:    1893316
LLC RFO       ACCESS:    7484608  HIT:    1804775  MISS:    5679833
LLC PREFETCH  ACCESS:          0  HIT:          0  MISS:          0
LLC WRITEBACK ACCESS:    7490908  HIT:    7490654  MISS:        254

CPU 2 cumulative IPC: 0.3012 instructions: 149576363 cycles: 496602248
L1D TOTAL     ACCESS:   12584559  HIT:   10170120  MISS:    2414439
L1D LOAD      ACCESS:    8611537  HIT:    6197101  MISS:    2414436
L1D RFO       ACCESS:    3973022  HIT:    3973019  MISS:          3
L1D PREFETCH  ACCESS:          0  HIT:          0  MISS:          0
L1D WRITEBACK ACCESS:          0  HIT:          0  MISS:          0
L1I TOTAL     ACCESS:   33338726  HIT:   33338715  MISS:         11
L1I LOAD      ACCESS:   33338726  HIT:   33338715  MISS:         11
L1I RFO       ACCESS:          0  HIT:          0  MISS:          0
L1I PREFETCH  ACCESS:          0  HIT:          0  MISS:          0
L1I WRITEBACK ACCESS:          0  HIT:          0  MISS:          0
L2C TOTAL     ACCESS:    2501877  HIT:      87469  MISS:    2414408
L2C LOAD      ACCESS:    2414446  HIT:        107  MISS:    2414339
L2C RFO       ACCESS:          3  HIT:          0  MISS:          3
L2C PREFETCH  ACCESS:          0  HIT:          0  MISS:          0
L2C WRITEBACK ACCESS:      87428  HIT:      87362  MISS:         66
LLC TOTAL     ACCESS:    2503543  HIT:      89758  MISS:    2413785
LLC LOAD      ACCESS:    2414339  HIT:        571  MISS:    2413768
LLC RFO       ACCESS:          3  HIT:          0  MISS:          3
LLC PREFETCH  ACCESS:          0  HIT:          0  MISS:          0
LLC WRITEBACK ACCESS:      89201  HIT:      89187  MISS:         14

CPU 3 cumulative IPC: 0.295252 instructions: 146622896 cycles: 496602248
L1D TOTAL     ACCESS:   37436447  HIT:   34223545  MISS:    3212902
L1D LOAD      ACCESS:   33151847  HIT:   30934119  MISS:    2217728
L1D RFO       ACCESS:    4284600  HIT:    3289426  MISS:     995174
L1D PREFETCH  ACCESS:          0  HIT:          0  MISS:          0
L1D WRITEBACK ACCESS:          0  HIT:          0  MISS:          0
L1I TOTAL     ACCESS:   43330054  HIT:   43330054  MISS:          0
L1I LOAD      ACCESS:   43330054  HIT:   43330054  MISS:          0
L1I RFO       ACCESS:          0  HIT:          0  MISS:          0
L1I PREFETCH  ACCESS:          0  HIT:          0  MISS:          0
L1I WRITEBACK ACCESS:          0  HIT:          0  MISS:          0
L2C TOTAL     ACCESS:    4214235  HIT:    1025856  MISS:    3188379
L2C LOAD      ACCESS:    2217728  HIT:      24529  MISS:    2193199
L2C RFO       ACCESS:     995174  HIT:          0  MISS:     995174
L2C PREFETCH  ACCESS:          0  HIT:          0  MISS:          0
L2C WRITEBACK ACCESS:    1001333  HIT:    1001327  MISS:          6
LLC TOTAL     ACCESS:    4183568  HIT:     995207  MISS:    3188361
LLC LOAD      ACCESS:    2193199  HIT:         36  MISS:    2193163
LLC RFO       ACCESS:     995174  HIT:          0  MISS:     995174
LLC PREFETCH  ACCESS:          0  HIT:          0  MISS:          0
LLC WRITEBACK ACCESS:     995195  HIT:     995171  MISS:         24

CPU 4 cumulative IPC: 0.265228 instructions: 131712666 cycles: 496602248
L1D TOTAL     ACCESS:   30114633  HIT:   25907493  MISS:    4207140
L1D LOAD      ACCESS:   24490779  HIT:   21214630  MISS:    3276149
L1D RFO       ACCESS:    5623854  HIT:    4692863  MISS:     930991
L1D PREFETCH  ACCESS:          0  HIT:          0  MISS:          0
L1D WRITEBACK ACCESS:          0  HIT:          0  MISS:          0
L1I TOTAL     ACCESS:   31954493  HIT:   31954078  MISS:        415
L1I LOAD      ACCESS:   31954493  HIT:   31954078  MISS:        415
L1I RFO       ACCESS:          0  HIT:          0  MISS:          0
L1I PREFETCH  ACCESS:          0  HIT:          0  MISS:          0
L1I WRITEBACK ACCESS:          0  HIT:          0  MISS:          0
L2C TOTAL     ACCESS:    5446579  HIT:    2015897  MISS:    3430682
L2C LOAD      ACCESS:    3276532  HIT:     776962  MISS:    2499570
L2C RFO       ACCESS:     930991  HIT:          9  MISS:     930982
L2C PREFETCH  ACCESS:          0  HIT:          0  MISS:          0
L2C WRITEBACK ACCESS:    1239056  HIT:    1238926  MISS:        130
LLC TOTAL     ACCESS:    4661896  HIT:    1233858  MISS:    3428038
LLC LOAD      ACCESS:    2499570  HIT:       2571  MISS:    2496999
LLC RFO       ACCESS:     930982  HIT:         19  MISS:     930963
LLC PREFETCH  ACCESS:          0  HIT:          0  MISS:          0
LLC WRITEBACK ACCESS:    1231344  HIT:    1231268  MISS:         76

CPU 5 cumulative IPC: 0.753913 instructions: 374395060 cycles: 496602249
L1D TOTAL     ACCESS:  112491005  HIT:   70267953  MISS:   42223052
L1D LOAD      ACCESS:   71214438  HIT:   31997388  MISS:   39217050
L1D RFO       ACCESS:   41276567  HIT:   38270565  MISS:    3006002
L1D PREFETCH  ACCESS:          0  HIT:          0  MISS:          0
L1D WRITEBACK ACCESS:          0  HIT:          0  MISS:          0
L1I TOTAL     ACCESS:   93944214  HIT:   93125854  MISS:     818360
L1I LOAD      ACCESS:   93944214  HIT:   93125854  MISS:     818360
L1I RFO       ACCESS:          0  HIT:          0  MISS:          0
L1I PREFETCH  ACCESS:          0  HIT:          0  MISS:          0
L1I WRITEBACK ACCESS:          0  HIT:          0  MISS:          0
L2C TOTAL     ACCESS:   46261246  HIT:   35143367  MISS:   11117879
L2C LOAD      ACCESS:   39861290  HIT:   30550482  MISS:    9310808
L2C RFO       ACCESS:    3003910  HIT:    1196937  MISS:    1806973
L2C PREFETCH  ACCESS:          0  HIT:          0  MISS:          0
L2C WRITEBACK ACCESS:    3396046  HIT:    3395948  MISS:         98
LLC TOTAL     ACCESS:   12807033  HIT:   10088631  MISS:    2718402
LLC LOAD      ACCESS:    9310378  HIT:    6611046  MISS:    2699332
LLC RFO       ACCESS:    1587748  HIT:    1569240  MISS:      18508
LLC PREFETCH  ACCESS:          0  HIT:          0  MISS:          0
LLC WRITEBACK ACCESS:    1908907  HIT:    1908345  MISS:        562

CPU 6 cumulative IPC: 0.351661 instructions: 174635426 cycles: 496602249
L1D TOTAL     ACCESS:   47079642  HIT:   37858019  MISS:    9221623
L1D LOAD      ACCESS:   33114847  HIT:   24171800  MISS:    8943047
L1D RFO       ACCESS:   13964795  HIT:   13686219  MISS:     278576
L1D PREFETCH  ACCESS:          0  HIT:          0  MISS:          0
L1D WRITEBACK ACCESS:          0  HIT:          0  MISS:          0
L1I TOTAL     ACCESS:   74744140  HIT:   74232501  MISS:     511639
L1I LOAD      ACCESS:   74744140  HIT:   74232501  MISS:     511639
L1I RFO       ACCESS:          0  HIT:          0  MISS:          0
L1I PREFETCH  ACCESS:          0  HIT:          0  MISS:          0
L1I WRITEBACK ACCESS:          0  HIT:          0  MISS:          0
L2C TOTAL     ACCESS:   10191940  HIT:    6656354  MISS:    3535586
L2C LOAD      ACCESS:    9454664  HIT:    6145731  MISS:    3308933
L2C RFO       ACCESS:     278570  HIT:      51991  MISS:     226579
L2C PREFETCH  ACCESS:          0  HIT:          0  MISS:          0
L2C WRITEBACK ACCESS:     458706  HIT:     458632  MISS:         74
LLC TOTAL     ACCESS:    3850874  HIT:    3500249  MISS:     350625
LLC LOAD      ACCESS:    3308929  HIT:    3178513  MISS:     130416
LLC RFO       ACCESS:     226579  HIT:      21303  MISS:     205276
LLC PREFETCH  ACCESS:          0  HIT:          0  MISS:          0
LLC WRITEBACK ACCESS:     315366  HIT:     300433  MISS:      14933

CPU 7 cumulative IPC: 0.201368 instructions: 100000001 cycles: 496602249
L1D TOTAL     ACCESS:   30883830  HIT:   29141039  MISS:    1742791
L1D LOAD      ACCESS:   19909899  HIT:   18169802  MISS:    1740097
L1D RFO       ACCESS:   10973931  HIT:   10971237  MISS:       2694
L1D PREFETCH  ACCESS:          0  HIT:          0  MISS:          0
L1D WRITEBACK ACCESS:          0  HIT:          0  MISS:          0
L1I TOTAL     ACCESS:   38919510  HIT:   38919421  MISS:         89
L1I LOAD      ACCESS:   38919510  HIT:   38919421  MISS:         89
L1I RFO       ACCESS:          0  HIT:          0  MISS:          0
L1I PREFETCH  ACCESS:          0  HIT:          0  MISS:          0
L1I WRITEBACK ACCESS:          0  HIT:          0  MISS:          0
L2C TOTAL     ACCESS:    1761620  HIT:     801705  MISS:     959915
L2C LOAD      ACCESS:    1740186  HIT:     782709  MISS:     957477
L2C RFO       ACCESS:       2694  HIT:        325  MISS:       2369
L2C PREFETCH  ACCESS:          0  HIT:          0  MISS:          0
L2C WRITEBACK ACCESS:      18740  HIT:      18671  MISS:         69
LLC TOTAL     ACCESS:     970327  HIT:      16161  MISS:     954166
LLC LOAD      ACCESS:     957477  HIT:       7525  MISS:     949952
LLC RFO       ACCESS:       2369  HIT:         14  MISS:       2355
LLC PREFETCH  ACCESS:          0  HIT:          0  MISS:          0
LLC WRITEBACK ACCESS:      10481  HIT:       8622  MISS:       1859

Region of Interest Statistics

CPU 0 cumulative IPC: 0.53173 instructions: 100000001 cycles: 188065341
L1D TOTAL     ACCESS:   23540437  HIT:   22167795  MISS:    1372642
L1D LOAD      ACCESS:   20177255  HIT:   19087574  MISS:    1089681
L1D RFO       ACCESS:    3363182  HIT:    3080221  MISS:     282961
L1D PREFETCH  ACCESS:          0  HIT:          0  MISS:          0
L1D WRITEBACK ACCESS:          0  HIT:          0  MISS:          0
L1D PREFETCH  REQUESTED:          0  ISSUED:          0  USEFUL:          0  USELESS:          0
L1I TOTAL     ACCESS:   27052788  HIT:   27050198  MISS:       2590
L1I LOAD      ACCESS:   27052788  HIT:   27050198  MISS:       2590
L1I RFO       ACCESS:          0  HIT:          0  MISS:          0
L1I PREFETCH  ACCESS:          0  HIT:          0  MISS:          0
L1I WRITEBACK ACCESS:          0  HIT:          0  MISS:          0
L1I PREFETCH  REQUESTED:          0  ISSUED:          0  USEFUL:          0  USELESS:          0
L2C TOTAL     ACCESS:    1898047  HIT:     924160  MISS:     973887
L2C LOAD      ACCESS:    1092256  HIT:     376317  MISS:     715939
L2C RFO       ACCESS:     282961  HIT:      26637  MISS:     256324
L2C PREFETCH  ACCESS:          0  HIT:          0  MISS:          0
L2C WRITEBACK ACCESS:     522830  HIT:     521206  MISS:       1624
L2C PREFETCH  REQUESTED:          0  ISSUED:          0  USEFUL:          0  USELESS:          0
LLC TOTAL     ACCESS:    1457722  HIT:     712316  MISS:     745406
LLC LOAD      ACCESS:     715939  HIT:     152161  MISS:     563778
LLC RFO       ACCESS:     256324  HIT:      77503  MISS:     178821
LLC PREFETCH  ACCESS:          0  HIT:          0  MISS:          0
LLC WRITEBACK ACCESS:     485459  HIT:     482652  MISS:       2807
LLC PREFETCH  REQUESTED:          0  ISSUED:          0  USEFUL:          0  USELESS:          0
Major fault: 0 Minor fault: 8774

CPU 1 cumulative IPC: 0.552599 instructions: 100000000 cycles: 180963185
L1D TOTAL     ACCESS:   25651997  HIT:   21952183  MISS:    3699814
L1D LOAD      ACCESS:   10660882  HIT:   10100294  MISS:     560588
L1D RFO       ACCESS:   14991115  HIT:   11851889  MISS:    3139226
L1D PREFETCH  ACCESS:          0  HIT:          0  MISS:          0
L1D WRITEBACK ACCESS:          0  HIT:          0  MISS:          0
L1D PREFETCH  REQUESTED:          0  ISSUED:          0  USEFUL:          0  USELESS:          0
L1I TOTAL     ACCESS:   23456954  HIT:   23456954  MISS:          0
L1I LOAD      ACCESS:   23456954  HIT:   23456954  MISS:          0
L1I RFO       ACCESS:          0  HIT:          0  MISS:          0
L1I PREFETCH  ACCESS:          0  HIT:          0  MISS:          0
L1I WRITEBACK ACCESS:          0  HIT:          0  MISS:          0
L1I PREFETCH  REQUESTED:          0  ISSUED:          0  USEFUL:          0  USELESS:          0
L2C TOTAL     ACCESS:    6839043  HIT:    4048222  MISS:    2790821
L2C LOAD      ACCESS:     560588  HIT:          0  MISS:     560588
L2C RFO       ACCESS:    3139226  HIT:     909029  MISS:    2230197
L2C PREFETCH  ACCESS:          0  HIT:          0  MISS:          0
L2C WRITEBACK ACCESS:    3139229  HIT:    3139193  MISS:         36
L2C PREFETCH  REQUESTED:          0  ISSUED:          0  USEFUL:          0  USELESS:          0
LLC TOTAL     ACCESS:    5019645  HIT:    2777312  MISS:    2242333
LLC LOAD      ACCESS:     560588  HIT:          0  MISS:     560588
LLC RFO       ACCESS:    2228814  HIT:     547105  MISS:    1681709
LLC PREFETCH  ACCESS:          0  HIT:          0  MISS:          0
LLC WRITEBACK ACCESS:    2230243  HIT:    2230207  MISS:         36
LLC PREFETCH  REQUESTED:          0  ISSUED:          0  USEFUL:          0  USELESS:          0
Major fault: 0 Minor fault: 66978

CPU 2 cumulative IPC: 0.305361 instructions: 100000001 cycles: 327481103
L1D TOTAL     ACCESS:    8565791  HIT:    6932732  MISS:    1633059
L1D LOAD      ACCESS:    5810481  HIT:    4177423  MISS:    1633058
L1D RFO       ACCESS:    2755310  HIT:    2755309  MISS:          1
L1D PREFETCH  ACCESS:          0  HIT:          0  MISS:          0
L1D WRITEBACK ACCESS:          0  HIT:          0  MISS:          0
L1D PREFETCH  REQUESTED:          0  ISSUED:          0  USEFUL:          0  USELESS:          0
L1I TOTAL     ACCESS:   22315004  HIT:   22315000  MISS:          4
L1I LOAD      ACCESS:   22315004  HIT:   22315000  MISS:          4
L1I RFO       ACCESS:          0  HIT:          0  MISS:          0
L1I PREFETCH  ACCESS:          0  HIT:          0  MISS:          0
L1I WRITEBACK ACCESS:          0  HIT:          0  MISS:          0
L1I PREFETCH  REQUESTED:          0  ISSUED:          0  USEFUL:          0  USELESS:          0
L2C TOTAL     ACCESS:    1720486  HIT:      87467  MISS:    1633019
L2C LOAD      ACCESS:    1633061  HIT:        106  MISS:    1632955
L2C RFO       ACCESS:          1  HIT:          0  MISS:          1
L2C PREFETCH  ACCESS:          0  HIT:          0  MISS:          0
L2C WRITEBACK ACCESS:      87424  HIT:      87361  MISS:         63
L2C PREFETCH  REQUESTED:          0  ISSUED:          0  USEFUL:          0  USELESS:          0
LLC TOTAL     ACCESS:    1722153  HIT:      89582  MISS:    1632571
LLC LOAD      ACCESS:    1632955  HIT:        396  MISS:    1632559
LLC RFO       ACCESS:          1  HIT:          0  MISS:          1
LLC PREFETCH  ACCESS:          0  HIT:          0  MISS:          0
LLC WRITEBACK ACCESS:      89197  HIT:      89186  MISS:         11
LLC PREFETCH  REQUESTED:          0  ISSUED:          0  USEFUL:          0  USELESS:          0
Major fault: 0 Minor fault: 48499

CPU 3 cumulative IPC: 0.298177 instructions: 100000002 cycles: 335371404
L1D TOTAL     ACCESS:   25568993  HIT:   23387155  MISS:    2181838
L1D LOAD      ACCESS:   22674272  HIT:   21160803  MISS:    1513469
L1D RFO       ACCESS:    2894721  HIT:    2226352  MISS:     668369
L1D PREFETCH  ACCESS:          0  HIT:          0  MISS:          0
L1D WRITEBACK ACCESS:          0  HIT:          0  MISS:          0
L1D PREFETCH  REQUESTED:          0  ISSUED:          0  USEFUL:          0  USELESS:          0
L1I TOTAL     ACCESS:   29388408  HIT:   29388408  MISS:          0
L1I LOAD      ACCESS:   29388408  HIT:   29388408  MISS:          0
L1I RFO       ACCESS:          0  HIT:          0  MISS:          0
L1I PREFETCH  ACCESS:          0  HIT:          0  MISS:          0
L1I WRITEBACK ACCESS:          0  HIT:          0  MISS:          0
L1I PREFETCH  REQUESTED:          0  ISSUED:          0  USEFUL:          0  USELESS:          0
L2C TOTAL     ACCESS:    2854461  HIT:     689580  MISS:    2164881
L2C LOAD      ACCESS:    1513469  HIT:      16961  MISS:    1496508
L2C RFO       ACCESS:     668369  HIT:          0  MISS:     668369
L2C PREFETCH  ACCESS:          0  HIT:          0  MISS:          0
L2C WRITEBACK ACCESS:     672623  HIT:     672619  MISS:          4
L2C PREFETCH  REQUESTED:          0  ISSUED:          0  USEFUL:          0  USELESS:          0
LLC TOTAL     ACCESS:    2833342  HIT:     668467  MISS:    2164875
LLC LOAD      ACCESS:    1496508  HIT:         18  MISS:    1496490
LLC RFO       ACCESS:     668369  HIT:          0  MISS:     668369
LLC PREFETCH  ACCESS:          0  HIT:          0  MISS:          0
LLC WRITEBACK ACCESS:     668465  HIT:     668449  MISS:         16
LLC PREFETCH  REQUESTED:          0  ISSUED:          0  USEFUL:          0  USELESS:          0
Major fault: 0 Minor fault: 35633

CPU 4 cumulative IPC: 0.275108 instructions: 100000001 cycles: 363493569
L1D TOTAL     ACCESS:   21256776  HIT:   18299149  MISS:    2957627
L1D LOAD      ACCESS:   16949754  HIT:   14745551  MISS:    2204203
L1D RFO       ACCESS:    4307022  HIT:    3553598  MISS:     753424
L1D PREFETCH  ACCESS:          0  HIT:          0  MISS:          0
L1D WRITEBACK ACCESS:          0  HIT:          0  MISS:          0
L1D PREFETCH  REQUESTED:          0  ISSUED:          0  USEFUL:          0  USELESS:          0
L1I TOTAL     ACCESS:   23834258  HIT:   23833971  MISS:        287
L1I LOAD      ACCESS:   23834258  HIT:   23833971  MISS:        287
L1I RFO       ACCESS:          0  HIT:          0  MISS:          0
L1I PREFETCH  ACCESS:          0  HIT:          0  MISS:          0
L1I WRITEBACK ACCESS:          0  HIT:          0  MISS:          0
L1I PREFETCH  REQUESTED:          0  ISSUED:          0  USEFUL:          0  USELESS:          0
L2C TOTAL     ACCESS:    3883247  HIT:    1436392  MISS:    2446855
L2C LOAD      ACCESS:    2204477  HIT:     511132  MISS:    1693345
L2C RFO       ACCESS:     753424  HIT:          6  MISS:     753418
L2C PREFETCH  ACCESS:          0  HIT:          0  MISS:          0
L2C WRITEBACK ACCESS:     925346  HIT:     925254  MISS:         92
L2C PREFETCH  REQUESTED:          0  ISSUED:          0  USEFUL:          0  USELESS:          0
LLC TOTAL     ACCESS:    3366746  HIT:     922400  MISS:    2444346
LLC LOAD      ACCESS:    1693345  HIT:       2453  MISS:    1690892
LLC RFO       ACCESS:     753418  HIT:         19  MISS:     753399
LLC PREFETCH  ACCESS:          0  HIT:          0  MISS:          0
LLC WRITEBACK ACCESS:     919983  HIT:     919928  MISS:         55
LLC PREFETCH  REQUESTED:          0  ISSUED:          0  USEFUL:          0  USELESS:          0
Major fault: 0 Minor fault: 39677

CPU 5 cumulative IPC: 0.788871 instructions: 100000002 cycles: 126763418
L1D TOTAL     ACCESS:   32543344  HIT:   22102337  MISS:   10441007
L1D LOAD      ACCESS:   22286133  HIT:   12610438  MISS:    9675695
L1D RFO       ACCESS:   10257211  HIT:    9491899  MISS:     765312
L1D PREFETCH  ACCESS:          0  HIT:          0  MISS:          0
L1D WRITEBACK ACCESS:          0  HIT:          0  MISS:          0
L1D PREFETCH  REQUESTED:          0  ISSUED:          0  USEFUL:          0  USELESS:          0
L1I TOTAL     ACCESS:   24797486  HIT:   23979126  MISS:     818360
L1I LOAD      ACCESS:   24797486  HIT:   23979126  MISS:     818360
L1I RFO       ACCESS:          0  HIT:          0  MISS:          0
L1I PREFETCH  ACCESS:          0  HIT:          0  MISS:          0
L1I WRITEBACK ACCESS:          0  HIT:          0  MISS:          0
L1I PREFETCH  REQUESTED:          0  ISSUED:          0  USEFUL:          0  USELESS:          0
L2C TOTAL     ACCESS:   12085336  HIT:    9626798  MISS:    2458538
L2C LOAD      ACCESS:   10458625  HIT:    8385214  MISS:    2073411
L2C RFO       ACCESS:     764809  HIT:     379778  MISS:     385031
L2C PREFETCH  ACCESS:          0  HIT:          0  MISS:          0
L2C WRITEBACK ACCESS:     861902  HIT:     861806  MISS:         96
L2C PREFETCH  REQUESTED:          0  ISSUED:          0  USEFUL:          0  USELESS:          0
LLC TOTAL     ACCESS:    2816647  HIT:    2206017  MISS:     610630
LLC LOAD      ACCESS:    2073321  HIT:    1481391  MISS:     591930
LLC RFO       ACCESS:     337818  HIT:     319310  MISS:      18508
LLC PREFETCH  ACCESS:          0  HIT:          0  MISS:          0
LLC WRITEBACK ACCESS:     405508  HIT:     405316  MISS:        192
LLC PREFETCH  REQUESTED:          0  ISSUED:          0  USEFUL:          0  USELESS:          0
Major fault: 0 Minor fault: 21551

CPU 6 cumulative IPC: 0.34859 instructions: 100000000 cycles: 286869579
L1D TOTAL     ACCESS:   27508829  HIT:   22250261  MISS:    5258568
L1D LOAD      ACCESS:   19165007  HIT:   14077318  MISS:    5087689
L1D RFO       ACCESS:    8343822  HIT:    8172943  MISS:     170879
L1D PREFETCH  ACCESS:          0  HIT:          0  MISS:          0
L1D WRITEBACK ACCESS:          0  HIT:          0  MISS:          0
L1D PREFETCH  REQUESTED:          0  ISSUED:          0  USEFUL:          0  USELESS:          0
L1I TOTAL     ACCESS:   42644981  HIT:   42335625  MISS:     309356
L1I LOAD      ACCESS:   42644981  HIT:   42335625  MISS:     309356
L1I RFO       ACCESS:          0  HIT:          0  MISS:          0
L1I PREFETCH  ACCESS:          0  HIT:          0  MISS:          0
L1I WRITEBACK ACCESS:          0  HIT:          0  MISS:          0
L1I PREFETCH  REQUESTED:          0  ISSUED:          0  USEFUL:          0  USELESS:          0
L2C TOTAL     ACCESS:    5843725  HIT:    3798737  MISS:    2044988
L2C LOAD      ACCESS:    5397028  HIT:    3491068  MISS:    1905960
L2C RFO       ACCESS:     170874  HIT:      31895  MISS:     138979
L2C PREFETCH  ACCESS:          0  HIT:          0  MISS:          0
L2C WRITEBACK ACCESS:     275823  HIT:     275774  MISS:         49
L2C PREFETCH  REQUESTED:          0  ISSUED:          0  USEFUL:          0  USELESS:          0
LLC TOTAL     ACCESS:    2234714  HIT:    2028941  MISS:     205773
LLC LOAD      ACCESS:    1905958  HIT:    1833899  MISS:      72059
LLC RFO       ACCESS:     138979  HIT:      13146  MISS:     125833
LLC PREFETCH  ACCESS:          0  HIT:          0  MISS:          0
LLC WRITEBACK ACCESS:     189777  HIT:     181896  MISS:       7881
LLC PREFETCH  REQUESTED:          0  ISSUED:          0  USEFUL:          0  USELESS:          0
Major fault: 0 Minor fault: 3667

CPU 7 cumulative IPC: 0.201368 instructions: 100000001 cycles: 496602249
L1D TOTAL     ACCESS:   30883830  HIT:   29141039  MISS:    1742791
L1D LOAD      ACCESS:   19909899  HIT:   18169802  MISS:    1740097
L1D RFO       ACCESS:   10973931  HIT:   10971237  MISS:       2694
L1D PREFETCH  ACCESS:          0  HIT:          0  MISS:          0
L1D WRITEBACK ACCESS:          0  HIT:          0  MISS:          0
L1D PREFETCH  REQUESTED:          0  ISSUED:          0  USEFUL:          0  USELESS:          0
L1I TOTAL     ACCESS:   38919510  HIT:   38919421  MISS:         89
L1I LOAD      ACCESS:   38919510  HIT:   38919421  MISS:         89
L1I RFO       ACCESS:          0  HIT:          0  MISS:          0
L1I PREFETCH  ACCESS:          0  HIT:          0  MISS:          0
L1I WRITEBACK ACCESS:          0  HIT:          0  MISS:          0
L1I PREFETCH  REQUESTED:          0  ISSUED:          0  USEFUL:          0  USELESS:          0
L2C TOTAL     ACCESS:    1761620  HIT:     801705  MISS:     959915
L2C LOAD      ACCESS:    1740186  HIT:     782709  MISS:     957477
L2C RFO       ACCESS:       2694  HIT:        325  MISS:       2369
L2C PREFETCH  ACCESS:          0  HIT:          0  MISS:          0
L2C WRITEBACK ACCESS:      18740  HIT:      18671  MISS:         69
L2C PREFETCH  REQUESTED:          0  ISSUED:          0  USEFUL:          0  USELESS:          0
LLC TOTAL     ACCESS:     970327  HIT:      16161  MISS:     954166
LLC LOAD      ACCESS:     957477  HIT:       7525  MISS:     949952
LLC RFO       ACCESS:       2369  HIT:         14  MISS:       2355
LLC PREFETCH  ACCESS:          0  HIT:          0  MISS:          0
LLC WRITEBACK ACCESS:      10481  HIT:       8622  MISS:       1859
LLC PREFETCH  REQUESTED:          0  ISSUED:          0  USEFUL:          0  USELESS:          0
Major fault: 0 Minor fault: 8618

DRAM Statistics
 CHANNEL 0
 RQ ROW_BUFFER_HIT:    3336651  ROW_BUFFER_MISS:    7991029
 DBUS_CONGESTED:   22005455
 WQ ROW_BUFFER_HIT:     397800  ROW_BUFFER_MISS:    4318380  FULL:          0

 CHANNEL 1
 RQ ROW_BUFFER_HIT:    3337682  ROW_BUFFER_MISS:    7989591
 DBUS_CONGESTED:   22005455
 WQ ROW_BUFFER_HIT:     400492  ROW_BUFFER_MISS:    4315637  FULL:          0

 AVG_CONGESTED_CYCLE: 13
