
*** ChampSim Multicore Out-of-Order Simulator ***

Warmup Instructions: 20000000
Simulation Instructions: 100000000
Number of CPUs: 8
LLC sets: 16384
LLC ways: 16
Off-chip DRAM Size: 8192 MB Channels: 2 Width: 64-bit Data Rate: 1600 MT/s

CPU 0 runs /scratch/user/djimenez/champsim-traces/speccpu2017/xz/627.cam4_s/627.cam4_s-490B.champsimtrace.xz
CPU 1 runs /scratch/user/djimenez/champsim-traces/speccpu2017/xz/620.omnetpp_s/620.omnetpp_s-874B.champsimtrace.xz
CPU 2 runs /scratch/user/djimenez/champsim-traces/speccpu2017/xz/623.xalancbmk_s/623.xalancbmk_s-165B.champsimtrace.xz
CPU 3 runs /scratch/user/djimenez/champsim-traces/speccpu2017/xz/649.fotonik3d_s/649.fotonik3d_s-1176B.champsimtrace.xz
CPU 4 runs /scratch/user/djimenez/champsim-traces/speccpu2017/xz/603.bwaves_s/603.bwaves_s-891B.champsimtrace.xz
CPU 5 runs /scratch/user/djimenez/champsim-traces/speccpu2017/xz/602.gcc_s/602.gcc_s-2226B.champsimtrace.xz
CPU 6 runs /scratch/user/djimenez/champsim-traces/speccpu2017/xz/607.cactuBSSN_s/607.cactuBSSN_s-3477B.champsimtrace.xz
CPU 7 runs /scratch/user/djimenez/champsim-traces/speccpu2017/xz/628.pop2_s/628.pop2_s-17B.champsimtrace.xz
Heartbeat CPU 4 instructions: 10000003 cycles: 3244691 heartbeat IPC: 3.08196 cumulative IPC: 3.08196 (Simulation time: 0 hr 3 min 11 sec) 
Heartbeat CPU 0 instructions: 10000002 cycles: 4007389 heartbeat IPC: 2.49539 cumulative IPC: 2.49539 (Simulation time: 0 hr 3 min 57 sec) 
Heartbeat CPU 7 instructions: 10000002 cycles: 4128812 heartbeat IPC: 2.422 cumulative IPC: 2.422 (Simulation time: 0 hr 4 min 5 sec) 
Heartbeat CPU 2 instructions: 10000001 cycles: 4271617 heartbeat IPC: 2.34103 cumulative IPC: 2.34103 (Simulation time: 0 hr 4 min 14 sec) 
Heartbeat CPU 3 instructions: 10000000 cycles: 4457561 heartbeat IPC: 2.24338 cumulative IPC: 2.24338 (Simulation time: 0 hr 4 min 27 sec) 
Heartbeat CPU 5 instructions: 10000000 cycles: 5427896 heartbeat IPC: 1.84233 cumulative IPC: 1.84233 (Simulation time: 0 hr 5 min 24 sec) 
Heartbeat CPU 6 instructions: 10000003 cycles: 5770637 heartbeat IPC: 1.73291 cumulative IPC: 1.73291 (Simulation time: 0 hr 5 min 45 sec) 
Heartbeat CPU 4 instructions: 20000000 cycles: 6488565 heartbeat IPC: 3.08273 cumulative IPC: 3.08235 (Simulation time: 0 hr 6 min 32 sec) 
Heartbeat CPU 1 instructions: 10000000 cycles: 7373644 heartbeat IPC: 1.35618 cumulative IPC: 1.35618 (Simulation time: 0 hr 7 min 26 sec) 
Heartbeat CPU 0 instructions: 20000000 cycles: 7788404 heartbeat IPC: 2.64479 cumulative IPC: 2.56792 (Simulation time: 0 hr 7 min 49 sec) 
Heartbeat CPU 7 instructions: 20000000 cycles: 8249013 heartbeat IPC: 2.42707 cumulative IPC: 2.42453 (Simulation time: 0 hr 8 min 15 sec) 
Heartbeat CPU 2 instructions: 20000000 cycles: 8539394 heartbeat IPC: 2.34314 cumulative IPC: 2.34209 (Simulation time: 0 hr 8 min 31 sec) 
Heartbeat CPU 3 instructions: 20000000 cycles: 8914381 heartbeat IPC: 2.24375 cumulative IPC: 2.24357 (Simulation time: 0 hr 8 min 54 sec) 
Heartbeat CPU 4 instructions: 30000003 cycles: 9732716 heartbeat IPC: 3.08247 cumulative IPC: 1.02746 (Simulation time: 0 hr 9 min 44 sec) 
Heartbeat CPU 5 instructions: 20000000 cycles: 10860378 heartbeat IPC: 1.84078 cumulative IPC: 1.84156 (Simulation time: 0 hr 10 min 54 sec) 
Heartbeat CPU 6 instructions: 20000000 cycles: 11540225 heartbeat IPC: 1.73323 cumulative IPC: 1.73307 (Simulation time: 0 hr 11 min 44 sec) 
Heartbeat CPU 0 instructions: 30000000 cycles: 11769383 heartbeat IPC: 2.51195 cumulative IPC: 0.849662 (Simulation time: 0 hr 11 min 57 sec) 
Heartbeat CPU 7 instructions: 30000002 cycles: 12367377 heartbeat IPC: 2.42815 cumulative IPC: 0.808579 (Simulation time: 0 hr 12 min 30 sec) 
Heartbeat CPU 2 instructions: 30000001 cycles: 12800969 heartbeat IPC: 2.34655 cumulative IPC: 0.781191 (Simulation time: 0 hr 12 min 57 sec) 
Heartbeat CPU 4 instructions: 40000000 cycles: 12976978 heartbeat IPC: 3.08236 cumulative IPC: 1.54119 (Simulation time: 0 hr 13 min 7 sec) 
Heartbeat CPU 3 instructions: 30000002 cycles: 13371894 heartbeat IPC: 2.2434 cumulative IPC: 0.747837 (Simulation time: 0 hr 13 min 37 sec) 
Heartbeat CPU 1 instructions: 20000000 cycles: 14729104 heartbeat IPC: 1.35953 cumulative IPC: 1.35786 (Simulation time: 0 hr 14 min 50 sec) 

Warmup complete CPU 0 instructions: 37789003 cycles: 14729111 (Simulation time: 0 hr 14 min 50 sec) 
Warmup complete CPU 1 instructions: 20000002 cycles: 14729111 (Simulation time: 0 hr 14 min 50 sec) 
Warmup complete CPU 2 instructions: 34534393 cycles: 14729110 (Simulation time: 0 hr 14 min 50 sec) 
Warmup complete CPU 3 instructions: 33045522 cycles: 14729110 (Simulation time: 0 hr 14 min 50 sec) 
Warmup complete CPU 4 instructions: 45353410 cycles: 14729110 (Simulation time: 0 hr 14 min 50 sec) 
Warmup complete CPU 5 instructions: 27134200 cycles: 14729110 (Simulation time: 0 hr 14 min 50 sec) 
Warmup complete CPU 6 instructions: 25525421 cycles: 14729110 (Simulation time: 0 hr 14 min 50 sec) 
Warmup complete CPU 7 instructions: 35746309 cycles: 14729110 (Simulation time: 0 hr 14 min 50 sec) 

Heartbeat CPU 0 instructions: 40000000 cycles: 17804783 heartbeat IPC: 1.65689 cumulative IPC: 0.718866 (Simulation time: 0 hr 15 min 57 sec) 
Heartbeat CPU 6 instructions: 30000000 cycles: 19425737 heartbeat IPC: 1.26815 cumulative IPC: 0.952722 (Simulation time: 0 hr 16 min 38 sec) 
Heartbeat CPU 7 instructions: 40000000 cycles: 19554672 heartbeat IPC: 1.39134 cumulative IPC: 0.881491 (Simulation time: 0 hr 16 min 41 sec) 
Heartbeat CPU 2 instructions: 40000000 cycles: 22497791 heartbeat IPC: 1.03127 cumulative IPC: 0.703544 (Simulation time: 0 hr 17 min 46 sec) 
Heartbeat CPU 4 instructions: 50000001 cycles: 23799248 heartbeat IPC: 0.924021 cumulative IPC: 0.512295 (Simulation time: 0 hr 18 min 15 sec) 
Heartbeat CPU 0 instructions: 50000000 cycles: 29109541 heartbeat IPC: 0.884583 cumulative IPC: 0.84914 (Simulation time: 0 hr 20 min 11 sec) 
Heartbeat CPU 6 instructions: 40000000 cycles: 29943640 heartbeat IPC: 0.95076 cumulative IPC: 0.951366 (Simulation time: 0 hr 20 min 29 sec) 
Heartbeat CPU 3 instructions: 40000000 cycles: 30005020 heartbeat IPC: 0.60121 cumulative IPC: 0.455258 (Simulation time: 0 hr 20 min 31 sec) 
Heartbeat CPU 7 instructions: 50000001 cycles: 30524767 heartbeat IPC: 0.911569 cumulative IPC: 0.90238 (Simulation time: 0 hr 20 min 42 sec) 
Heartbeat CPU 2 instructions: 50000003 cycles: 35483909 heartbeat IPC: 0.770053 cumulative IPC: 0.745158 (Simulation time: 0 hr 22 min 29 sec) 
Heartbeat CPU 6 instructions: 50000000 cycles: 40912661 heartbeat IPC: 0.911658 cumulative IPC: 0.934731 (Simulation time: 0 hr 24 min 21 sec) 
Heartbeat CPU 0 instructions: 60000000 cycles: 41030894 heartbeat IPC: 0.838831 cumulative IPC: 0.844467 (Simulation time: 0 hr 24 min 24 sec) 
Heartbeat CPU 7 instructions: 60000000 cycles: 41648225 heartbeat IPC: 0.899001 cumulative IPC: 0.900984 (Simulation time: 0 hr 24 min 38 sec) 
Heartbeat CPU 4 instructions: 60000000 cycles: 44705683 heartbeat IPC: 0.478322 cumulative IPC: 0.488601 (Simulation time: 0 hr 25 min 42 sec) 
Heartbeat CPU 2 instructions: 60000000 cycles: 48479971 heartbeat IPC: 0.769464 cumulative IPC: 0.754517 (Simulation time: 0 hr 27 min 3 sec) 
Heartbeat CPU 6 instructions: 60000000 cycles: 51421237 heartbeat IPC: 0.951604 cumulative IPC: 0.939563 (Simulation time: 0 hr 28 min 7 sec) 
Heartbeat CPU 0 instructions: 70000000 cycles: 51482279 heartbeat IPC: 0.956811 cumulative IPC: 0.876414 (Simulation time: 0 hr 28 min 8 sec) 
Heartbeat CPU 7 instructions: 70000002 cycles: 52500889 heartbeat IPC: 0.921433 cumulative IPC: 0.906859 (Simulation time: 0 hr 28 min 30 sec) 
Heartbeat CPU 3 instructions: 50000002 cycles: 52909815 heartbeat IPC: 0.43659 cumulative IPC: 0.444059 (Simulation time: 0 hr 28 min 39 sec) 
Heartbeat CPU 5 instructions: 30000000 cycles: 53597393 heartbeat IPC: 0.233989 cumulative IPC: 0.0737311 (Simulation time: 0 hr 28 min 54 sec) 
Heartbeat CPU 1 instructions: 30000001 cycles: 58831832 heartbeat IPC: 0.226743 cumulative IPC: 0.226743 (Simulation time: 0 hr 30 min 48 sec) 
Heartbeat CPU 2 instructions: 70000000 cycles: 61454097 heartbeat IPC: 0.770765 cumulative IPC: 0.759029 (Simulation time: 0 hr 31 min 41 sec) 
Heartbeat CPU 7 instructions: 80000000 cycles: 61582471 heartbeat IPC: 1.10113 cumulative IPC: 0.944515 (Simulation time: 0 hr 31 min 44 sec) 
Heartbeat CPU 6 instructions: 70000001 cycles: 62036541 heartbeat IPC: 0.942036 cumulative IPC: 0.940118 (Simulation time: 0 hr 31 min 53 sec) 
Heartbeat CPU 0 instructions: 80000000 cycles: 63378353 heartbeat IPC: 0.840613 cumulative IPC: 0.86766 (Simulation time: 0 hr 32 min 21 sec) 
Heartbeat CPU 4 instructions: 70000000 cycles: 65970954 heartbeat IPC: 0.47025 cumulative IPC: 0.480986 (Simulation time: 0 hr 33 min 15 sec) 
Heartbeat CPU 6 instructions: 80000000 cycles: 72624469 heartbeat IPC: 0.944472 cumulative IPC: 0.940914 (Simulation time: 0 hr 35 min 39 sec) 
Heartbeat CPU 7 instructions: 90000002 cycles: 72838395 heartbeat IPC: 0.888421 cumulative IPC: 0.933649 (Simulation time: 0 hr 35 min 44 sec) 
Heartbeat CPU 0 instructions: 90000002 cycles: 74130763 heartbeat IPC: 0.930024 cumulative IPC: 0.878949 (Simulation time: 0 hr 36 min 10 sec) 
Heartbeat CPU 2 instructions: 80000000 cycles: 74400183 heartbeat IPC: 0.772434 cumulative IPC: 0.761937 (Simulation time: 0 hr 36 min 16 sec) 
Heartbeat CPU 3 instructions: 60000000 cycles: 76116340 heartbeat IPC: 0.430913 cumulative IPC: 0.439089 (Simulation time: 0 hr 36 min 52 sec) 
Heartbeat CPU 6 instructions: 90000002 cycles: 83205729 heartbeat IPC: 0.945067 cumulative IPC: 0.941556 (Simulation time: 0 hr 39 min 23 sec) 
Heartbeat CPU 7 instructions: 100000000 cycles: 83871330 heartbeat IPC: 0.906377 cumulative IPC: 0.929298 (Simulation time: 0 hr 39 min 37 sec) 
Heartbeat CPU 0 instructions: 100000000 cycles: 85659211 heartbeat IPC: 0.867419 cumulative IPC: 0.877075 (Simulation time: 0 hr 40 min 16 sec) 
Heartbeat CPU 2 instructions: 90000000 cycles: 87443645 heartbeat IPC: 0.766668 cumulative IPC: 0.762786 (Simulation time: 0 hr 40 min 51 sec) 
Heartbeat CPU 4 instructions: 80000000 cycles: 87499730 heartbeat IPC: 0.464495 cumulative IPC: 0.476107 (Simulation time: 0 hr 40 min 52 sec) 
Heartbeat CPU 7 instructions: 110000001 cycles: 93228271 heartbeat IPC: 1.06873 cumulative IPC: 0.945917 (Simulation time: 0 hr 42 min 56 sec) 
Heartbeat CPU 6 instructions: 100000000 cycles: 93887837 heartbeat IPC: 0.936145 cumulative IPC: 0.940826 (Simulation time: 0 hr 43 min 10 sec) 
Heartbeat CPU 0 instructions: 110000001 cycles: 97371382 heartbeat IPC: 0.853813 cumulative IPC: 0.873778 (Simulation time: 0 hr 44 min 21 sec) 
Heartbeat CPU 2 instructions: 100000000 cycles: 100419486 heartbeat IPC: 0.770663 cumulative IPC: 0.763979 (Simulation time: 0 hr 45 min 22 sec) 
Heartbeat CPU 3 instructions: 70000000 cycles: 101007033 heartbeat IPC: 0.401757 cumulative IPC: 0.428319 (Simulation time: 0 hr 45 min 34 sec) 
Heartbeat CPU 7 instructions: 120000000 cycles: 103688305 heartbeat IPC: 0.95602 cumulative IPC: 0.947105 (Simulation time: 0 hr 46 min 27 sec) 
Heartbeat CPU 1 instructions: 40000000 cycles: 104252842 heartbeat IPC: 0.220162 cumulative IPC: 0.223404 (Simulation time: 0 hr 46 min 38 sec) 
Heartbeat CPU 6 instructions: 110000001 cycles: 104624230 heartbeat IPC: 0.931412 cumulative IPC: 0.939701 (Simulation time: 0 hr 46 min 46 sec) 
Heartbeat CPU 0 instructions: 120000000 cycles: 109510730 heartbeat IPC: 0.823767 cumulative IPC: 0.867373 (Simulation time: 0 hr 48 min 24 sec) 
Heartbeat CPU 4 instructions: 90000000 cycles: 110600052 heartbeat IPC: 0.432894 cumulative IPC: 0.465695 (Simulation time: 0 hr 48 min 46 sec) 
Heartbeat CPU 2 instructions: 110000001 cycles: 113360492 heartbeat IPC: 0.772738 cumulative IPC: 0.765128 (Simulation time: 0 hr 49 min 42 sec) 
Heartbeat CPU 7 instructions: 130000001 cycles: 113796091 heartbeat IPC: 0.989336 cumulative IPC: 0.951414 (Simulation time: 0 hr 49 min 51 sec) 
Heartbeat CPU 6 instructions: 120000000 cycles: 115227075 heartbeat IPC: 0.943143 cumulative IPC: 0.940065 (Simulation time: 0 hr 50 min 20 sec) 
Finished CPU 7 instructions: 100000001 cycles: 104678003 cumulative IPC: 0.955311 (Simulation time: 0 hr 51 min 39 sec) 
Heartbeat CPU 0 instructions: 130000001 cycles: 120925853 heartbeat IPC: 0.876031 cumulative IPC: 0.868303 (Simulation time: 0 hr 52 min 7 sec) 
Finished CPU 6 instructions: 100000001 cycles: 106459566 cumulative IPC: 0.939324 (Simulation time: 0 hr 52 min 12 sec) 
Heartbeat CPU 7 instructions: 140000000 cycles: 122266057 heartbeat IPC: 1.18064 cumulative IPC: 0.969469 (Simulation time: 0 hr 52 min 34 sec) 
Heartbeat CPU 3 instructions: 80000000 cycles: 124676259 heartbeat IPC: 0.42249 cumulative IPC: 0.427064 (Simulation time: 0 hr 53 min 20 sec) 
Heartbeat CPU 6 instructions: 130000001 cycles: 125961093 heartbeat IPC: 0.931618 cumulative IPC: 0.939249 (Simulation time: 0 hr 53 min 46 sec) 
Heartbeat CPU 2 instructions: 120000000 cycles: 126315482 heartbeat IPC: 0.771903 cumulative IPC: 0.765914 (Simulation time: 0 hr 53 min 54 sec) 
Finished CPU 0 instructions: 100000001 cycles: 115614573 cumulative IPC: 0.864943 (Simulation time: 0 hr 55 min 18 sec) 
Heartbeat CPU 7 instructions: 150000001 cycles: 131151293 heartbeat IPC: 1.12546 cumulative IPC: 0.981374 (Simulation time: 0 hr 55 min 34 sec) 
Heartbeat CPU 0 instructions: 140000000 cycles: 132616681 heartbeat IPC: 0.855371 cumulative IPC: 0.867021 (Simulation time: 0 hr 56 min 5 sec) 
Heartbeat CPU 4 instructions: 100000000 cycles: 132783604 heartbeat IPC: 0.450784 cumulative IPC: 0.462893 (Simulation time: 0 hr 56 min 8 sec) 
Heartbeat CPU 6 instructions: 140000000 cycles: 136578518 heartbeat IPC: 0.941848 cumulative IPC: 0.939476 (Simulation time: 0 hr 57 min 24 sec) 
Heartbeat CPU 2 instructions: 130000003 cycles: 139291718 heartbeat IPC: 0.77064 cumulative IPC: 0.766407 (Simulation time: 0 hr 58 min 19 sec) 
Heartbeat CPU 7 instructions: 160000000 cycles: 140470625 heartbeat IPC: 1.07304 cumulative IPC: 0.988168 (Simulation time: 0 hr 58 min 43 sec) 
Heartbeat CPU 0 instructions: 150000001 cycles: 144000187 heartbeat IPC: 0.878464 cumulative IPC: 0.868029 (Simulation time: 0 hr 59 min 53 sec) 
Finished CPU 2 instructions: 100000002 cycles: 130433601 cumulative IPC: 0.766674 (Simulation time: 1 hr 0 min 15 sec) 
Heartbeat CPU 6 instructions: 150000001 cycles: 147340469 heartbeat IPC: 0.9292 cumulative IPC: 0.938642 (Simulation time: 1 hr 0 min 58 sec) 
Heartbeat CPU 3 instructions: 90000002 cycles: 148198384 heartbeat IPC: 0.425132 cumulative IPC: 0.426724 (Simulation time: 1 hr 1 min 20 sec) 
Heartbeat CPU 1 instructions: 50000000 cycles: 149656118 heartbeat IPC: 0.220248 cumulative IPC: 0.222342 (Simulation time: 1 hr 1 min 49 sec) 
Heartbeat CPU 7 instructions: 170000001 cycles: 152221719 heartbeat IPC: 0.850985 cumulative IPC: 0.976443 (Simulation time: 1 hr 2 min 39 sec) 
Heartbeat CPU 2 instructions: 140000000 cycles: 152236725 heartbeat IPC: 0.772498 cumulative IPC: 0.76698 (Simulation time: 1 hr 2 min 39 sec) 
Heartbeat CPU 4 instructions: 110000002 cycles: 154761095 heartbeat IPC: 0.455011 cumulative IPC: 0.461656 (Simulation time: 1 hr 3 min 30 sec) 
Heartbeat CPU 0 instructions: 160000000 cycles: 155746480 heartbeat IPC: 0.851332 cumulative IPC: 0.866638 (Simulation time: 1 hr 3 min 50 sec) 
Heartbeat CPU 6 instructions: 160000000 cycles: 158098766 heartbeat IPC: 0.929515 cumulative IPC: 0.937957 (Simulation time: 1 hr 4 min 36 sec) 
Heartbeat CPU 7 instructions: 180000000 cycles: 164912178 heartbeat IPC: 0.787993 cumulative IPC: 0.960519 (Simulation time: 1 hr 6 min 50 sec) 
Heartbeat CPU 2 instructions: 150000001 cycles: 165169073 heartbeat IPC: 0.773255 cumulative IPC: 0.76752 (Simulation time: 1 hr 6 min 55 sec) 
Heartbeat CPU 0 instructions: 170000001 cycles: 167620132 heartbeat IPC: 0.842201 cumulative IPC: 0.86474 (Simulation time: 1 hr 7 min 44 sec) 
Heartbeat CPU 6 instructions: 170000001 cycles: 168728735 heartbeat IPC: 0.940737 cumulative IPC: 0.938149 (Simulation time: 1 hr 8 min 7 sec) 
Heartbeat CPU 3 instructions: 100000000 cycles: 171525504 heartbeat IPC: 0.428685 cumulative IPC: 0.427015 (Simulation time: 1 hr 9 min 4 sec) 
Heartbeat CPU 7 instructions: 190000002 cycles: 176237589 heartbeat IPC: 0.88297 cumulative IPC: 0.955081 (Simulation time: 1 hr 10 min 40 sec) 
Heartbeat CPU 4 instructions: 120000000 cycles: 176709950 heartbeat IPC: 0.455605 cumulative IPC: 0.460836 (Simulation time: 1 hr 10 min 49 sec) 
Heartbeat CPU 2 instructions: 160000000 cycles: 178223609 heartbeat IPC: 0.766017 cumulative IPC: 0.7674 (Simulation time: 1 hr 11 min 20 sec) 
Heartbeat CPU 0 instructions: 180000000 cycles: 178586444 heartbeat IPC: 0.911883 cumulative IPC: 0.867895 (Simulation time: 1 hr 11 min 27 sec) 
Heartbeat CPU 6 instructions: 180000000 cycles: 179323535 heartbeat IPC: 0.943859 cumulative IPC: 0.938516 (Simulation time: 1 hr 11 min 42 sec) 
Heartbeat CPU 7 instructions: 200000000 cycles: 187600961 heartbeat IPC: 0.88002 cumulative IPC: 0.950147 (Simulation time: 1 hr 14 min 27 sec) 
Heartbeat CPU 6 instructions: 190000003 cycles: 189907681 heartbeat IPC: 0.94481 cumulative IPC: 0.938897 (Simulation time: 1 hr 15 min 14 sec) 
Heartbeat CPU 0 instructions: 190000000 cycles: 190753639 heartbeat IPC: 0.821882 cumulative IPC: 0.864715 (Simulation time: 1 hr 15 min 31 sec) 
Heartbeat CPU 2 instructions: 170000001 cycles: 191196723 heartbeat IPC: 0.770825 cumulative IPC: 0.767651 (Simulation time: 1 hr 15 min 41 sec) 
Heartbeat CPU 3 instructions: 110000001 cycles: 194661420 heartbeat IPC: 0.432228 cumulative IPC: 0.427686 (Simulation time: 1 hr 16 min 50 sec) 
Heartbeat CPU 1 instructions: 60000000 cycles: 194813991 heartbeat IPC: 0.221445 cumulative IPC: 0.222117 (Simulation time: 1 hr 16 min 53 sec) 
Heartbeat CPU 4 instructions: 130000003 cycles: 198421572 heartbeat IPC: 0.460583 cumulative IPC: 0.460806 (Simulation time: 1 hr 18 min 7 sec) 
Heartbeat CPU 7 instructions: 210000001 cycles: 198933844 heartbeat IPC: 0.882388 cumulative IPC: 0.945978 (Simulation time: 1 hr 18 min 17 sec) 
Heartbeat CPU 6 instructions: 200000000 cycles: 200772587 heartbeat IPC: 0.920394 cumulative IPC: 0.937816 (Simulation time: 1 hr 18 min 53 sec) 
Heartbeat CPU 0 instructions: 200000000 cycles: 201996172 heartbeat IPC: 0.889479 cumulative IPC: 0.866201 (Simulation time: 1 hr 19 min 17 sec) 
Heartbeat CPU 2 instructions: 180000000 cycles: 204216000 heartbeat IPC: 0.768092 cumulative IPC: 0.767682 (Simulation time: 1 hr 20 min 2 sec) 
Heartbeat CPU 5 instructions: 40000000 cycles: 205153887 heartbeat IPC: 0.065982 cumulative IPC: 0.0675637 (Simulation time: 1 hr 20 min 20 sec) 
Heartbeat CPU 7 instructions: 220000000 cycles: 210394254 heartbeat IPC: 0.872569 cumulative IPC: 0.941679 (Simulation time: 1 hr 22 min 4 sec) 
Heartbeat CPU 6 instructions: 210000000 cycles: 211428217 heartbeat IPC: 0.938471 cumulative IPC: 0.937852 (Simulation time: 1 hr 22 min 26 sec) 
Heartbeat CPU 0 instructions: 210000000 cycles: 214078070 heartbeat IPC: 0.827685 cumulative IPC: 0.863867 (Simulation time: 1 hr 23 min 20 sec) 
Heartbeat CPU 2 instructions: 190000001 cycles: 217195749 heartbeat IPC: 0.770431 cumulative IPC: 0.767858 (Simulation time: 1 hr 25 min 11 sec) 
Heartbeat CPU 3 instructions: 120000000 cycles: 217875773 heartbeat IPC: 0.430768 cumulative IPC: 0.428038 (Simulation time: 1 hr 25 min 41 sec) 
Heartbeat CPU 4 instructions: 140000000 cycles: 220364003 heartbeat IPC: 0.455738 cumulative IPC: 0.460265 (Simulation time: 1 hr 26 min 51 sec) 
Heartbeat CPU 7 instructions: 230000003 cycles: 221685527 heartbeat IPC: 0.88564 cumulative IPC: 0.938621 (Simulation time: 1 hr 27 min 17 sec) 
Heartbeat CPU 6 instructions: 220000000 cycles: 221986452 heartbeat IPC: 0.947128 cumulative IPC: 0.938324 (Simulation time: 1 hr 27 min 23 sec) 
Heartbeat CPU 0 instructions: 220000000 cycles: 225435412 heartbeat IPC: 0.880488 cumulative IPC: 0.864763 (Simulation time: 1 hr 28 min 33 sec) 
Heartbeat CPU 2 instructions: 200000000 cycles: 230166618 heartbeat IPC: 0.770958 cumulative IPC: 0.768045 (Simulation time: 1 hr 30 min 7 sec) 
Finished CPU 4 instructions: 100000003 cycles: 217364871 cumulative IPC: 0.460056 (Simulation time: 1 hr 30 min 46 sec) 
Heartbeat CPU 6 instructions: 230000003 cycles: 232583672 heartbeat IPC: 0.943644 cumulative IPC: 0.938583 (Simulation time: 1 hr 30 min 55 sec) 
Heartbeat CPU 7 instructions: 240000000 cycles: 233007067 heartbeat IPC: 0.883272 cumulative IPC: 0.93575 (Simulation time: 1 hr 31 min 4 sec) 
Heartbeat CPU 0 instructions: 230000000 cycles: 237969759 heartbeat IPC: 0.797808 cumulative IPC: 0.861004 (Simulation time: 1 hr 32 min 43 sec) 
Heartbeat CPU 1 instructions: 70000000 cycles: 239671511 heartbeat IPC: 0.222928 cumulative IPC: 0.222279 (Simulation time: 1 hr 33 min 18 sec) 
Heartbeat CPU 3 instructions: 130000003 cycles: 240956652 heartbeat IPC: 0.433259 cumulative IPC: 0.428571 (Simulation time: 1 hr 33 min 44 sec) 
Heartbeat CPU 4 instructions: 150000000 cycles: 242144432 heartbeat IPC: 0.459128 cumulative IPC: 0.460156 (Simulation time: 1 hr 34 min 7 sec) 
Heartbeat CPU 6 instructions: 240000000 cycles: 243107932 heartbeat IPC: 0.950185 cumulative IPC: 0.939118 (Simulation time: 1 hr 34 min 27 sec) 
Heartbeat CPU 2 instructions: 210000002 cycles: 243149333 heartbeat IPC: 0.770255 cumulative IPC: 0.76817 (Simulation time: 1 hr 34 min 28 sec) 
Heartbeat CPU 7 instructions: 250000003 cycles: 243914700 heartbeat IPC: 0.916789 cumulative IPC: 0.934848 (Simulation time: 1 hr 34 min 43 sec) 
Finished CPU 3 instructions: 100000001 cycles: 233414708 cumulative IPC: 0.428422 (Simulation time: 1 hr 36 min 12 sec) 
Heartbeat CPU 0 instructions: 240000000 cycles: 249763658 heartbeat IPC: 0.847896 cumulative IPC: 0.860346 (Simulation time: 1 hr 36 min 44 sec) 
Heartbeat CPU 6 instructions: 250000002 cycles: 253714003 heartbeat IPC: 0.942856 cumulative IPC: 0.939284 (Simulation time: 1 hr 37 min 59 sec) 
Heartbeat CPU 7 instructions: 260000000 cycles: 253779527 heartbeat IPC: 1.0137 cumulative IPC: 0.938102 (Simulation time: 1 hr 38 min 0 sec) 
Heartbeat CPU 2 instructions: 220000000 cycles: 256144694 heartbeat IPC: 0.769505 cumulative IPC: 0.768242 (Simulation time: 1 hr 38 min 47 sec) 
Heartbeat CPU 0 instructions: 250000001 cycles: 261347399 heartbeat IPC: 0.863279 cumulative IPC: 0.860484 (Simulation time: 1 hr 40 min 33 sec) 
Heartbeat CPU 4 instructions: 160000000 cycles: 263789243 heartbeat IPC: 0.462004 cumulative IPC: 0.460317 (Simulation time: 1 hr 41 min 22 sec) 
Heartbeat CPU 3 instructions: 140000000 cycles: 264059940 heartbeat IPC: 0.432839 cumulative IPC: 0.428966 (Simulation time: 1 hr 41 min 28 sec) 
Heartbeat CPU 6 instructions: 260000000 cycles: 264239077 heartbeat IPC: 0.950112 cumulative IPC: 0.93974 (Simulation time: 1 hr 41 min 32 sec) 
Heartbeat CPU 7 instructions: 270000001 cycles: 264871126 heartbeat IPC: 0.901583 cumulative IPC: 0.936483 (Simulation time: 1 hr 41 min 44 sec) 
Heartbeat CPU 2 instructions: 230000000 cycles: 268234197 heartbeat IPC: 0.827164 cumulative IPC: 0.771052 (Simulation time: 1 hr 42 min 52 sec) 
Heartbeat CPU 0 instructions: 260000000 cycles: 272973587 heartbeat IPC: 0.860127 cumulative IPC: 0.860468 (Simulation time: 1 hr 44 min 29 sec) 
Heartbeat CPU 6 instructions: 270000000 cycles: 274806126 heartbeat IPC: 0.946338 cumulative IPC: 0.940008 (Simulation time: 1 hr 45 min 7 sec) 
Heartbeat CPU 7 instructions: 280000000 cycles: 276078757 heartbeat IPC: 0.892249 cumulative IPC: 0.934586 (Simulation time: 1 hr 45 min 32 sec) 
Heartbeat CPU 2 instructions: 240000000 cycles: 280443729 heartbeat IPC: 0.819032 cumulative IPC: 0.773257 (Simulation time: 1 hr 46 min 58 sec) 
Heartbeat CPU 0 instructions: 270000000 cycles: 284281897 heartbeat IPC: 0.884305 cumulative IPC: 0.861468 (Simulation time: 1 hr 48 min 17 sec) 
Heartbeat CPU 1 instructions: 80000000 cycles: 284905717 heartbeat IPC: 0.221072 cumulative IPC: 0.222077 (Simulation time: 1 hr 48 min 30 sec) 
Heartbeat CPU 6 instructions: 280000000 cycles: 285463835 heartbeat IPC: 0.938288 cumulative IPC: 0.939941 (Simulation time: 1 hr 48 min 41 sec) 
Heartbeat CPU 7 instructions: 290000000 cycles: 285481969 heartbeat IPC: 1.06347 cumulative IPC: 0.939062 (Simulation time: 1 hr 48 min 41 sec) 
Heartbeat CPU 4 instructions: 170000003 cycles: 287020136 heartbeat IPC: 0.430461 cumulative IPC: 0.45777 (Simulation time: 1 hr 49 min 12 sec) 
Heartbeat CPU 3 instructions: 150000001 cycles: 289010872 heartbeat IPC: 0.400787 cumulative IPC: 0.426403 (Simulation time: 1 hr 49 min 51 sec) 
Heartbeat CPU 2 instructions: 250000001 cycles: 293739905 heartbeat IPC: 0.752096 cumulative IPC: 0.772248 (Simulation time: 1 hr 51 min 21 sec) 
Heartbeat CPU 7 instructions: 300000000 cycles: 295567390 heartbeat IPC: 0.99153 cumulative IPC: 0.940946 (Simulation time: 1 hr 51 min 55 sec) 
Heartbeat CPU 6 instructions: 290000003 cycles: 296195960 heartbeat IPC: 0.931782 cumulative IPC: 0.93963 (Simulation time: 1 hr 52 min 8 sec) 
Heartbeat CPU 0 instructions: 280000000 cycles: 296784495 heartbeat IPC: 0.799834 cumulative IPC: 0.858736 (Simulation time: 1 hr 52 min 20 sec) 
Heartbeat CPU 7 instructions: 310000000 cycles: 306091725 heartbeat IPC: 0.950179 cumulative IPC: 0.94128 (Simulation time: 1 hr 55 min 20 sec) 
Heartbeat CPU 6 instructions: 300000000 cycles: 306848283 heartbeat IPC: 0.938762 cumulative IPC: 0.939598 (Simulation time: 1 hr 55 min 35 sec) 
Heartbeat CPU 0 instructions: 290000001 cycles: 308040038 heartbeat IPC: 0.888451 cumulative IPC: 0.859876 (Simulation time: 1 hr 55 min 58 sec) 
Heartbeat CPU 2 instructions: 260000000 cycles: 308042716 heartbeat IPC: 0.699163 cumulative IPC: 0.768684 (Simulation time: 1 hr 55 min 58 sec) 
Heartbeat CPU 4 instructions: 180000000 cycles: 311626596 heartbeat IPC: 0.406397 cumulative IPC: 0.453512 (Simulation time: 1 hr 57 min 5 sec) 
Heartbeat CPU 7 instructions: 320000000 cycles: 314922387 heartbeat IPC: 1.13242 cumulative IPC: 0.946902 (Simulation time: 1 hr 58 min 10 sec) 
Heartbeat CPU 3 instructions: 160000000 cycles: 315977378 heartbeat IPC: 0.37083 cumulative IPC: 0.421428 (Simulation time: 1 hr 58 min 31 sec) 
Heartbeat CPU 6 instructions: 310000003 cycles: 317828483 heartbeat IPC: 0.91073 cumulative IPC: 0.938552 (Simulation time: 1 hr 59 min 8 sec) 
Heartbeat CPU 0 instructions: 300000000 cycles: 319911880 heartbeat IPC: 0.842329 cumulative IPC: 0.859193 (Simulation time: 1 hr 59 min 47 sec) 
Heartbeat CPU 2 instructions: 270000002 cycles: 322777407 heartbeat IPC: 0.678671 cumulative IPC: 0.764379 (Simulation time: 2 hr 0 min 41 sec) 
Heartbeat CPU 7 instructions: 330000002 cycles: 325240205 heartbeat IPC: 0.969197 cumulative IPC: 0.947643 (Simulation time: 2 hr 1 min 27 sec) 
Heartbeat CPU 6 instructions: 320000000 cycles: 328417133 heartbeat IPC: 0.944407 cumulative IPC: 0.93875 (Simulation time: 2 hr 2 min 27 sec) 
Heartbeat CPU 1 instructions: 90000001 cycles: 329459276 heartbeat IPC: 0.224449 cumulative IPC: 0.222413 (Simulation time: 2 hr 2 min 47 sec) 
Heartbeat CPU 0 instructions: 310000002 cycles: 331393209 heartbeat IPC: 0.870979 cumulative IPC: 0.859621 (Simulation time: 2 hr 3 min 23 sec) 
Heartbeat CPU 7 instructions: 340000000 cycles: 335160507 heartbeat IPC: 1.00803 cumulative IPC: 0.949513 (Simulation time: 2 hr 4 min 32 sec) 
Heartbeat CPU 2 instructions: 280000000 cycles: 337526550 heartbeat IPC: 0.678005 cumulative IPC: 0.760432 (Simulation time: 2 hr 5 min 19 sec) 
Heartbeat CPU 6 instructions: 330000002 cycles: 339061926 heartbeat IPC: 0.939427 cumulative IPC: 0.938772 (Simulation time: 2 hr 5 min 47 sec) 
Heartbeat CPU 3 instructions: 170000003 cycles: 342467578 heartbeat IPC: 0.377498 cumulative IPC: 0.417877 (Simulation time: 2 hr 6 min 52 sec) 
Heartbeat CPU 4 instructions: 190000001 cycles: 343402353 heartbeat IPC: 0.314705 cumulative IPC: 0.440092 (Simulation time: 2 hr 7 min 9 sec) 
Heartbeat CPU 0 instructions: 320000000 cycles: 343904754 heartbeat IPC: 0.799262 cumulative IPC: 0.857327 (Simulation time: 2 hr 7 min 18 sec) 
Heartbeat CPU 7 instructions: 350000000 cycles: 346442164 heartbeat IPC: 0.886395 cumulative IPC: 0.947366 (Simulation time: 2 hr 8 min 6 sec) 
Heartbeat CPU 6 instructions: 340000000 cycles: 349610143 heartbeat IPC: 0.948027 cumulative IPC: 0.939064 (Simulation time: 2 hr 9 min 6 sec) 
Heartbeat CPU 2 instructions: 290000000 cycles: 352245993 heartbeat IPC: 0.679374 cumulative IPC: 0.756897 (Simulation time: 2 hr 9 min 56 sec) 
Heartbeat CPU 0 instructions: 330000001 cycles: 354677446 heartbeat IPC: 0.928273 cumulative IPC: 0.859575 (Simulation time: 2 hr 10 min 40 sec) 
Heartbeat CPU 7 instructions: 360000000 cycles: 359279420 heartbeat IPC: 0.778983 cumulative IPC: 0.941092 (Simulation time: 2 hr 12 min 5 sec) 
Heartbeat CPU 6 instructions: 350000003 cycles: 360146603 heartbeat IPC: 0.949086 cumulative IPC: 0.939369 (Simulation time: 2 hr 12 min 22 sec) 
Heartbeat CPU 0 instructions: 340000000 cycles: 366711225 heartbeat IPC: 0.830994 cumulative IPC: 0.858598 (Simulation time: 2 hr 14 min 27 sec) 
Heartbeat CPU 2 instructions: 300000000 cycles: 367168183 heartbeat IPC: 0.670143 cumulative IPC: 0.753224 (Simulation time: 2 hr 14 min 36 sec) 
Heartbeat CPU 3 instructions: 180000000 cycles: 367694924 heartbeat IPC: 0.396395 cumulative IPC: 0.416342 (Simulation time: 2 hr 14 min 46 sec) 
Heartbeat CPU 5 instructions: 50000003 cycles: 370460888 heartbeat IPC: 0.0604935 cumulative IPC: 0.0642782 (Simulation time: 2 hr 15 min 41 sec) 
Heartbeat CPU 7 instructions: 370000001 cycles: 370766157 heartbeat IPC: 0.870569 cumulative IPC: 0.938817 (Simulation time: 2 hr 15 min 47 sec) 
Heartbeat CPU 6 instructions: 360000000 cycles: 370998908 heartbeat IPC: 0.921463 cumulative IPC: 0.938824 (Simulation time: 2 hr 15 min 51 sec) 
Heartbeat CPU 1 instructions: 100000000 cycles: 374717435 heartbeat IPC: 0.220955 cumulative IPC: 0.222229 (Simulation time: 2 hr 17 min 2 sec) 
Heartbeat CPU 0 instructions: 350000001 cycles: 378049396 heartbeat IPC: 0.881977 cumulative IPC: 0.859327 (Simulation time: 2 hr 18 min 5 sec) 
Heartbeat CPU 6 instructions: 370000000 cycles: 381496756 heartbeat IPC: 0.952576 cumulative IPC: 0.939217 (Simulation time: 2 hr 19 min 11 sec) 
Heartbeat CPU 2 instructions: 310000003 cycles: 381966651 heartbeat IPC: 0.675746 cumulative IPC: 0.750102 (Simulation time: 2 hr 19 min 19 sec) 
Heartbeat CPU 7 instructions: 380000000 cycles: 382326357 heartbeat IPC: 0.865037 cumulative IPC: 0.936497 (Simulation time: 2 hr 19 min 26 sec) 
Heartbeat CPU 4 instructions: 200000000 cycles: 382784855 heartbeat IPC: 0.25392 cumulative IPC: 0.420172 (Simulation time: 2 hr 19 min 35 sec) 
Heartbeat CPU 0 instructions: 360000000 cycles: 389488146 heartbeat IPC: 0.874221 cumulative IPC: 0.859782 (Simulation time: 2 hr 21 min 45 sec) 
Heartbeat CPU 6 instructions: 380000000 cycles: 391969007 heartbeat IPC: 0.954905 cumulative IPC: 0.939653 (Simulation time: 2 hr 22 min 33 sec) 
Heartbeat CPU 3 instructions: 190000001 cycles: 392643155 heartbeat IPC: 0.40083 cumulative IPC: 0.415318 (Simulation time: 2 hr 22 min 45 sec) 
Heartbeat CPU 7 instructions: 390000003 cycles: 393809535 heartbeat IPC: 0.870839 cumulative IPC: 0.934508 (Simulation time: 2 hr 23 min 6 sec) 
Heartbeat CPU 2 instructions: 320000000 cycles: 396810884 heartbeat IPC: 0.673662 cumulative IPC: 0.747132 (Simulation time: 2 hr 24 min 0 sec) 
Heartbeat CPU 0 instructions: 370000000 cycles: 401652261 heartbeat IPC: 0.82209 cumulative IPC: 0.858597 (Simulation time: 2 hr 25 min 27 sec) 
Heartbeat CPU 6 instructions: 390000000 cycles: 402541771 heartbeat IPC: 0.945826 cumulative IPC: 0.939821 (Simulation time: 2 hr 25 min 43 sec) 
Heartbeat CPU 7 instructions: 400000000 cycles: 405277392 heartbeat IPC: 0.872002 cumulative IPC: 0.932673 (Simulation time: 2 hr 26 min 33 sec) 
Heartbeat CPU 2 instructions: 330000000 cycles: 411787061 heartbeat IPC: 0.667727 cumulative IPC: 0.744137 (Simulation time: 2 hr 28 min 32 sec) 
Heartbeat CPU 0 instructions: 380000000 cycles: 412448397 heartbeat IPC: 0.926257 cumulative IPC: 0.860434 (Simulation time: 2 hr 28 min 44 sec) 
Heartbeat CPU 6 instructions: 400000000 cycles: 413072210 heartbeat IPC: 0.949628 cumulative IPC: 0.940081 (Simulation time: 2 hr 28 min 56 sec) 
Heartbeat CPU 7 instructions: 410000001 cycles: 416719154 heartbeat IPC: 0.873991 cumulative IPC: 0.931002 (Simulation time: 2 hr 30 min 2 sec) 
Heartbeat CPU 3 instructions: 200000000 cycles: 417968228 heartbeat IPC: 0.394866 cumulative IPC: 0.414033 (Simulation time: 2 hr 30 min 24 sec) 
Heartbeat CPU 1 instructions: 110000003 cycles: 418941207 heartbeat IPC: 0.226123 cumulative IPC: 0.222655 (Simulation time: 2 hr 30 min 40 sec) 
Heartbeat CPU 4 instructions: 210000000 cycles: 421975576 heartbeat IPC: 0.255162 cumulative IPC: 0.404292 (Simulation time: 2 hr 31 min 34 sec) 
Heartbeat CPU 6 instructions: 410000000 cycles: 423636473 heartbeat IPC: 0.946588 cumulative IPC: 0.940249 (Simulation time: 2 hr 32 min 1 sec) 
Heartbeat CPU 2 instructions: 340000000 cycles: 426811257 heartbeat IPC: 0.665593 cumulative IPC: 0.741274 (Simulation time: 2 hr 32 min 52 sec) 
Heartbeat CPU 7 instructions: 420000000 cycles: 428209123 heartbeat IPC: 0.870324 cumulative IPC: 0.929316 (Simulation time: 2 hr 33 min 14 sec) 
Heartbeat CPU 6 instructions: 420000000 cycles: 434224320 heartbeat IPC: 0.944479 cumulative IPC: 0.940355 (Simulation time: 2 hr 34 min 49 sec) 
Heartbeat CPU 7 instructions: 430000001 cycles: 439501094 heartbeat IPC: 0.885585 cumulative IPC: 0.928154 (Simulation time: 2 hr 36 min 14 sec) 
Heartbeat CPU 2 instructions: 350000000 cycles: 441955727 heartbeat IPC: 0.660307 cumulative IPC: 0.738403 (Simulation time: 2 hr 36 min 55 sec) 
Heartbeat CPU 3 instructions: 210000003 cycles: 443601861 heartbeat IPC: 0.390113 cumulative IPC: 0.412604 (Simulation time: 2 hr 37 min 23 sec) 
Heartbeat CPU 6 instructions: 430000000 cycles: 444801828 heartbeat IPC: 0.945402 cumulative IPC: 0.94048 (Simulation time: 2 hr 37 min 43 sec) 
Heartbeat CPU 7 instructions: 440000000 cycles: 448576557 heartbeat IPC: 1.10187 cumulative IPC: 0.931788 (Simulation time: 2 hr 38 min 42 sec) 
Heartbeat CPU 6 instructions: 440000000 cycles: 455376142 heartbeat IPC: 0.945688 cumulative IPC: 0.940605 (Simulation time: 2 hr 40 min 32 sec) 
Heartbeat CPU 0 instructions: 390000002 cycles: 456028533 heartbeat IPC: 0.229462 cumulative IPC: 0.798123 (Simulation time: 2 hr 40 min 44 sec) 
Heartbeat CPU 2 instructions: 360000000 cycles: 457180183 heartbeat IPC: 0.656838 cumulative IPC: 0.735597 (Simulation time: 2 hr 41 min 5 sec) 
Heartbeat CPU 7 instructions: 450000000 cycles: 460759206 heartbeat IPC: 0.82084 cumulative IPC: 0.928757 (Simulation time: 2 hr 42 min 11 sec) 
Heartbeat CPU 4 instructions: 220000000 cycles: 462323070 heartbeat IPC: 0.247847 cumulative IPC: 0.39019 (Simulation time: 2 hr 42 min 40 sec) 
Heartbeat CPU 1 instructions: 120000000 cycles: 463852335 heartbeat IPC: 0.222662 cumulative IPC: 0.222656 (Simulation time: 2 hr 43 min 8 sec) 
Finished CPU 1 instructions: 100000000 cycles: 449123233 cumulative IPC: 0.222656 (Simulation time: 2 hr 43 min 8 sec) 
Heartbeat CPU 6 instructions: 450000003 cycles: 465866555 heartbeat IPC: 0.953252 cumulative IPC: 0.940899 (Simulation time: 2 hr 43 min 45 sec) 
Heartbeat CPU 0 instructions: 400000000 cycles: 468379612 heartbeat IPC: 0.809646 cumulative IPC: 0.798436 (Simulation time: 2 hr 44 min 30 sec) 
Heartbeat CPU 3 instructions: 220000000 cycles: 468812164 heartbeat IPC: 0.396663 cumulative IPC: 0.411719 (Simulation time: 2 hr 44 min 39 sec) 
Heartbeat CPU 7 instructions: 460000000 cycles: 471085217 heartbeat IPC: 0.968428 cumulative IPC: 0.929655 (Simulation time: 2 hr 45 min 23 sec) 
Heartbeat CPU 2 instructions: 370000001 cycles: 472429943 heartbeat IPC: 0.655748 cumulative IPC: 0.732936 (Simulation time: 2 hr 45 min 47 sec) 
Heartbeat CPU 6 instructions: 460000000 cycles: 476500901 heartbeat IPC: 0.940349 cumulative IPC: 0.940886 (Simulation time: 2 hr 47 min 1 sec) 
Heartbeat CPU 0 instructions: 410000001 cycles: 480813311 heartbeat IPC: 0.804266 cumulative IPC: 0.798592 (Simulation time: 2 hr 48 min 21 sec) 
Heartbeat CPU 7 instructions: 470000003 cycles: 481257622 heartbeat IPC: 0.983052 cumulative IPC: 0.930819 (Simulation time: 2 hr 48 min 29 sec) 
Heartbeat CPU 6 instructions: 470000003 cycles: 487187167 heartbeat IPC: 0.935781 cumulative IPC: 0.94077 (Simulation time: 2 hr 50 min 18 sec) 
Heartbeat CPU 2 instructions: 380000000 cycles: 487771202 heartbeat IPC: 0.651837 cumulative IPC: 0.730306 (Simulation time: 2 hr 50 min 29 sec) 
Heartbeat CPU 7 instructions: 480000000 cycles: 490730630 heartbeat IPC: 1.05563 cumulative IPC: 0.933303 (Simulation time: 2 hr 51 min 22 sec) 
Heartbeat CPU 0 instructions: 420000000 cycles: 493321963 heartbeat IPC: 0.799447 cumulative IPC: 0.798614 (Simulation time: 2 hr 52 min 9 sec) 
Heartbeat CPU 3 instructions: 230000002 cycles: 494632934 heartbeat IPC: 0.387285 cumulative IPC: 0.410404 (Simulation time: 2 hr 52 min 32 sec) 
Heartbeat CPU 6 instructions: 480000000 cycles: 497795492 heartbeat IPC: 0.942656 cumulative IPC: 0.940812 (Simulation time: 2 hr 53 min 30 sec) 
Heartbeat CPU 7 instructions: 490000000 cycles: 500840313 heartbeat IPC: 0.989151 cumulative IPC: 0.934465 (Simulation time: 2 hr 54 min 25 sec) 
Heartbeat CPU 4 instructions: 230000001 cycles: 502598968 heartbeat IPC: 0.248287 cumulative IPC: 0.378475 (Simulation time: 2 hr 54 min 57 sec) 
Heartbeat CPU 2 instructions: 390000001 cycles: 503101221 heartbeat IPC: 0.652315 cumulative IPC: 0.727858 (Simulation time: 2 hr 55 min 6 sec) 
Heartbeat CPU 0 instructions: 430000000 cycles: 505752962 heartbeat IPC: 0.804441 cumulative IPC: 0.798762 (Simulation time: 2 hr 55 min 54 sec) 
Heartbeat CPU 6 instructions: 490000000 cycles: 508364878 heartbeat IPC: 0.946129 cumulative IPC: 0.940926 (Simulation time: 2 hr 56 min 40 sec) 
Heartbeat CPU 1 instructions: 130000000 cycles: 509258277 heartbeat IPC: 0.220235 cumulative IPC: 0.222434 (Simulation time: 2 hr 56 min 57 sec) 
Heartbeat CPU 7 instructions: 500000000 cycles: 510489135 heartbeat IPC: 1.0364 cumulative IPC: 0.936448 (Simulation time: 2 hr 57 min 20 sec) 
Heartbeat CPU 0 instructions: 440000000 cycles: 518157855 heartbeat IPC: 0.806134 cumulative IPC: 0.798943 (Simulation time: 2 hr 59 min 38 sec) 
Heartbeat CPU 2 instructions: 400000000 cycles: 518448041 heartbeat IPC: 0.651601 cumulative IPC: 0.725535 (Simulation time: 2 hr 59 min 43 sec) 
Heartbeat CPU 6 instructions: 500000000 cycles: 518911518 heartbeat IPC: 0.948169 cumulative IPC: 0.941077 (Simulation time: 2 hr 59 min 51 sec) 
Heartbeat CPU 7 instructions: 510000001 cycles: 519868873 heartbeat IPC: 1.06613 cumulative IPC: 0.938856 (Simulation time: 3 hr 0 min 8 sec) 
Heartbeat CPU 3 instructions: 240000000 cycles: 520535827 heartbeat IPC: 0.386057 cumulative IPC: 0.409157 (Simulation time: 3 hr 0 min 20 sec) 
Heartbeat CPU 6 instructions: 510000000 cycles: 529789240 heartbeat IPC: 0.91931 cumulative IPC: 0.940618 (Simulation time: 3 hr 3 min 3 sec) 
Heartbeat CPU 0 instructions: 450000002 cycles: 530590883 heartbeat IPC: 0.804309 cumulative IPC: 0.799073 (Simulation time: 3 hr 3 min 18 sec) 
Heartbeat CPU 7 instructions: 520000000 cycles: 531007599 heartbeat IPC: 0.897769 cumulative IPC: 0.93797 (Simulation time: 3 hr 3 min 26 sec) 
Heartbeat CPU 2 instructions: 410000002 cycles: 533858293 heartbeat IPC: 0.648919 cumulative IPC: 0.72326 (Simulation time: 3 hr 4 min 18 sec) 
Heartbeat CPU 5 instructions: 60000000 cycles: 537469168 heartbeat IPC: 0.0598773 cumulative IPC: 0.0628722 (Simulation time: 3 hr 5 min 24 sec) 
Heartbeat CPU 6 instructions: 520000000 cycles: 540282164 heartbeat IPC: 0.953023 cumulative IPC: 0.940865 (Simulation time: 3 hr 6 min 14 sec) 
Heartbeat CPU 7 instructions: 530000001 cycles: 541186182 heartbeat IPC: 0.982455 cumulative IPC: 0.93883 (Simulation time: 3 hr 6 min 31 sec) 
Heartbeat CPU 4 instructions: 240000000 cycles: 542439174 heartbeat IPC: 0.251003 cumulative IPC: 0.368851 (Simulation time: 3 hr 6 min 53 sec) 
Heartbeat CPU 0 instructions: 460000000 cycles: 542939132 heartbeat IPC: 0.809831 cumulative IPC: 0.799324 (Simulation time: 3 hr 7 min 3 sec) 
Heartbeat CPU 3 instructions: 250000000 cycles: 545831732 heartbeat IPC: 0.395321 cumulative IPC: 0.408498 (Simulation time: 3 hr 7 min 55 sec) 
Heartbeat CPU 2 instructions: 420000000 cycles: 549300296 heartbeat IPC: 0.647584 cumulative IPC: 0.721074 (Simulation time: 3 hr 8 min 57 sec) 
Heartbeat CPU 6 instructions: 530000002 cycles: 550788590 heartbeat IPC: 0.951799 cumulative IPC: 0.941079 (Simulation time: 3 hr 9 min 23 sec) 
Heartbeat CPU 1 instructions: 140000000 cycles: 553696488 heartbeat IPC: 0.225032 cumulative IPC: 0.222648 (Simulation time: 3 hr 10 min 15 sec) 
Heartbeat CPU 7 instructions: 540000000 cycles: 554094911 heartbeat IPC: 0.77467 cumulative IPC: 0.934901 (Simulation time: 3 hr 10 min 22 sec) 
Heartbeat CPU 0 instructions: 470000003 cycles: 555306296 heartbeat IPC: 0.808593 cumulative IPC: 0.799536 (Simulation time: 3 hr 10 min 45 sec) 
Heartbeat CPU 6 instructions: 540000000 cycles: 561282560 heartbeat IPC: 0.952928 cumulative IPC: 0.941307 (Simulation time: 3 hr 12 min 34 sec) 
Heartbeat CPU 2 instructions: 430000000 cycles: 564711178 heartbeat IPC: 0.648892 cumulative IPC: 0.719052 (Simulation time: 3 hr 13 min 36 sec) 
Heartbeat CPU 7 instructions: 550000003 cycles: 565454551 heartbeat IPC: 0.88031 cumulative IPC: 0.933775 (Simulation time: 3 hr 13 min 49 sec) 
Heartbeat CPU 0 instructions: 480000000 cycles: 567641984 heartbeat IPC: 0.810656 cumulative IPC: 0.799784 (Simulation time: 3 hr 14 min 29 sec) 
Heartbeat CPU 3 instructions: 260000000 cycles: 570714338 heartbeat IPC: 0.401887 cumulative IPC: 0.408202 (Simulation time: 3 hr 15 min 25 sec) 
Heartbeat CPU 6 instructions: 550000002 cycles: 571782887 heartbeat IPC: 0.952352 cumulative IPC: 0.941515 (Simulation time: 3 hr 15 min 44 sec) 
Heartbeat CPU 7 instructions: 560000000 cycles: 576783274 heartbeat IPC: 0.882712 cumulative IPC: 0.932746 (Simulation time: 3 hr 17 min 16 sec) 
Heartbeat CPU 0 instructions: 490000003 cycles: 579972043 heartbeat IPC: 0.811026 cumulative IPC: 0.800029 (Simulation time: 3 hr 18 min 14 sec) 
Heartbeat CPU 2 instructions: 440000000 cycles: 580105469 heartbeat IPC: 0.649591 cumulative IPC: 0.717161 (Simulation time: 3 hr 18 min 16 sec) 
Heartbeat CPU 4 instructions: 250000003 cycles: 581063442 heartbeat IPC: 0.258905 cumulative IPC: 0.361353 (Simulation time: 3 hr 18 min 34 sec) 
Heartbeat CPU 6 instructions: 560000000 cycles: 582280320 heartbeat IPC: 0.952614 cumulative IPC: 0.94172 (Simulation time: 3 hr 18 min 56 sec) 
Heartbeat CPU 7 instructions: 570000000 cycles: 588192008 heartbeat IPC: 0.876521 cumulative IPC: 0.931627 (Simulation time: 3 hr 20 min 43 sec) 
Heartbeat CPU 0 instructions: 500000000 cycles: 592304786 heartbeat IPC: 0.810849 cumulative IPC: 0.80026 (Simulation time: 3 hr 21 min 58 sec) 
Heartbeat CPU 6 instructions: 570000003 cycles: 592782256 heartbeat IPC: 0.952206 cumulative IPC: 0.941911 (Simulation time: 3 hr 22 min 7 sec) 
Heartbeat CPU 3 instructions: 270000000 cycles: 594501883 heartbeat IPC: 0.420388 cumulative IPC: 0.408702 (Simulation time: 3 hr 22 min 40 sec) 
Heartbeat CPU 2 instructions: 450000000 cycles: 595502552 heartbeat IPC: 0.649474 cumulative IPC: 0.715366 (Simulation time: 3 hr 22 min 59 sec) 
Heartbeat CPU 1 instructions: 150000001 cycles: 598086491 heartbeat IPC: 0.225276 cumulative IPC: 0.222848 (Simulation time: 3 hr 23 min 47 sec) 
Heartbeat CPU 7 instructions: 580000000 cycles: 599390112 heartbeat IPC: 0.893008 cumulative IPC: 0.930888 (Simulation time: 3 hr 24 min 11 sec) 
Heartbeat CPU 6 instructions: 580000000 cycles: 603250742 heartbeat IPC: 0.955248 cumulative IPC: 0.942148 (Simulation time: 3 hr 25 min 16 sec) 
Heartbeat CPU 7 instructions: 590000002 cycles: 610688420 heartbeat IPC: 0.885088 cumulative IPC: 0.930019 (Simulation time: 3 hr 27 min 11 sec) 
Heartbeat CPU 2 instructions: 460000000 cycles: 610884041 heartbeat IPC: 0.650132 cumulative IPC: 0.713683 (Simulation time: 3 hr 27 min 14 sec) 
Heartbeat CPU 6 instructions: 590000003 cycles: 613764363 heartbeat IPC: 0.951147 cumulative IPC: 0.942306 (Simulation time: 3 hr 27 min 59 sec) 
Heartbeat CPU 3 instructions: 280000000 cycles: 617528544 heartbeat IPC: 0.434279 cumulative IPC: 0.409679 (Simulation time: 3 hr 28 min 57 sec) 
Heartbeat CPU 4 instructions: 260000000 cycles: 619758539 heartbeat IPC: 0.258431 cumulative IPC: 0.35477 (Simulation time: 3 hr 29 min 31 sec) 
Heartbeat CPU 7 instructions: 600000000 cycles: 622114526 heartbeat IPC: 0.875189 cumulative IPC: 0.928988 (Simulation time: 3 hr 30 min 7 sec) 
Heartbeat CPU 6 instructions: 600000000 cycles: 624311435 heartbeat IPC: 0.94813 cumulative IPC: 0.942407 (Simulation time: 3 hr 30 min 40 sec) 
Heartbeat CPU 2 instructions: 470000002 cycles: 626244663 heartbeat IPC: 0.651015 cumulative IPC: 0.712109 (Simulation time: 3 hr 31 min 10 sec) 
Heartbeat CPU 7 instructions: 610000002 cycles: 633611001 heartbeat IPC: 0.869832 cumulative IPC: 0.927889 (Simulation time: 3 hr 33 min 2 sec) 
Heartbeat CPU 6 instructions: 610000000 cycles: 634927084 heartbeat IPC: 0.942006 cumulative IPC: 0.9424 (Simulation time: 3 hr 33 min 23 sec) 
Heartbeat CPU 0 instructions: 510000001 cycles: 639277482 heartbeat IPC: 0.21289 cumulative IPC: 0.756084 (Simulation time: 3 hr 34 min 35 sec) 
Heartbeat CPU 2 instructions: 480000000 cycles: 641615374 heartbeat IPC: 0.650588 cumulative IPC: 0.7106 (Simulation time: 3 hr 35 min 17 sec) 
Heartbeat CPU 7 instructions: 620000000 cycles: 642177952 heartbeat IPC: 1.16728 cumulative IPC: 0.931157 (Simulation time: 3 hr 35 min 26 sec) 
Heartbeat CPU 3 instructions: 290000002 cycles: 642893590 heartbeat IPC: 0.394243 cumulative IPC: 0.409056 (Simulation time: 3 hr 35 min 39 sec) 
Heartbeat CPU 1 instructions: 160000000 cycles: 643117590 heartbeat IPC: 0.222069 cumulative IPC: 0.222792 (Simulation time: 3 hr 35 min 42 sec) 
Heartbeat CPU 6 instructions: 620000000 cycles: 645503066 heartbeat IPC: 0.945539 cumulative IPC: 0.942453 (Simulation time: 3 hr 36 min 21 sec) 
Heartbeat CPU 7 instructions: 630000001 cycles: 654953286 heartbeat IPC: 0.782758 cumulative IPC: 0.928196 (Simulation time: 3 hr 38 min 58 sec) 
Heartbeat CPU 0 instructions: 520000000 cycles: 655630566 heartbeat IPC: 0.611505 cumulative IPC: 0.752395 (Simulation time: 3 hr 39 min 9 sec) 
Heartbeat CPU 6 instructions: 630000003 cycles: 655983525 heartbeat IPC: 0.954157 cumulative IPC: 0.942644 (Simulation time: 3 hr 39 min 16 sec) 
Heartbeat CPU 2 instructions: 490000000 cycles: 656967194 heartbeat IPC: 0.651389 cumulative IPC: 0.709185 (Simulation time: 3 hr 39 min 32 sec) 
Heartbeat CPU 4 instructions: 270000003 cycles: 659204860 heartbeat IPC: 0.253509 cumulative IPC: 0.348573 (Simulation time: 3 hr 40 min 8 sec) 
Heartbeat CPU 7 instructions: 640000000 cycles: 666318307 heartbeat IPC: 0.879893 cumulative IPC: 0.927354 (Simulation time: 3 hr 42 min 7 sec) 
Heartbeat CPU 6 instructions: 640000000 cycles: 666524245 heartbeat IPC: 0.948702 cumulative IPC: 0.942742 (Simulation time: 3 hr 42 min 11 sec) 
Heartbeat CPU 3 instructions: 300000000 cycles: 668338791 heartbeat IPC: 0.393001 cumulative IPC: 0.408431 (Simulation time: 3 hr 42 min 42 sec) 
Heartbeat CPU 2 instructions: 500000000 cycles: 672307393 heartbeat IPC: 0.651882 cumulative IPC: 0.707848 (Simulation time: 3 hr 43 min 47 sec) 
Heartbeat CPU 0 instructions: 530000001 cycles: 674390657 heartbeat IPC: 0.533046 cumulative IPC: 0.746157 (Simulation time: 3 hr 44 min 18 sec) 
Heartbeat CPU 7 instructions: 650000000 cycles: 677091582 heartbeat IPC: 0.928223 cumulative IPC: 0.927368 (Simulation time: 3 hr 45 min 1 sec) 
Heartbeat CPU 6 instructions: 650000002 cycles: 677301234 heartbeat IPC: 0.927903 cumulative IPC: 0.942501 (Simulation time: 3 hr 45 min 4 sec) 
Heartbeat CPU 7 instructions: 660000000 cycles: 687199645 heartbeat IPC: 0.989309 cumulative IPC: 0.928299 (Simulation time: 3 hr 47 min 48 sec) 
Heartbeat CPU 2 instructions: 510000000 cycles: 687654645 heartbeat IPC: 0.651582 cumulative IPC: 0.706565 (Simulation time: 3 hr 47 min 56 sec) 
Heartbeat CPU 1 instructions: 170000002 cycles: 688421789 heartbeat IPC: 0.22073 cumulative IPC: 0.222653 (Simulation time: 3 hr 48 min 8 sec) 
Heartbeat CPU 6 instructions: 660000000 cycles: 688659272 heartbeat IPC: 0.880434 cumulative IPC: 0.941454 (Simulation time: 3 hr 48 min 12 sec) 
Heartbeat CPU 0 instructions: 540000000 cycles: 690472706 heartbeat IPC: 0.621811 cumulative IPC: 0.743198 (Simulation time: 3 hr 48 min 41 sec) 
Heartbeat CPU 3 instructions: 310000000 cycles: 697179992 heartbeat IPC: 0.346726 cumulative IPC: 0.405823 (Simulation time: 3 hr 50 min 31 sec) 
Heartbeat CPU 7 instructions: 670000001 cycles: 697442262 heartbeat IPC: 0.976313 cumulative IPC: 0.929019 (Simulation time: 3 hr 50 min 35 sec) 
Heartbeat CPU 6 instructions: 670000000 cycles: 699485346 heartbeat IPC: 0.923696 cumulative IPC: 0.941174 (Simulation time: 3 hr 51 min 8 sec) 
Heartbeat CPU 2 instructions: 520000000 cycles: 703001567 heartbeat IPC: 0.651596 cumulative IPC: 0.705339 (Simulation time: 3 hr 52 min 6 sec) 
Heartbeat CPU 4 instructions: 280000000 cycles: 703050382 heartbeat IPC: 0.228073 cumulative IPC: 0.340897 (Simulation time: 3 hr 52 min 7 sec) 
Heartbeat CPU 0 instructions: 550000001 cycles: 705860734 heartbeat IPC: 0.649856 cumulative IPC: 0.741119 (Simulation time: 3 hr 52 min 53 sec) 
Heartbeat CPU 7 instructions: 680000000 cycles: 708507018 heartbeat IPC: 0.90377 cumulative IPC: 0.928617 (Simulation time: 3 hr 53 min 37 sec) 
Heartbeat CPU 5 instructions: 70000000 cycles: 708688177 heartbeat IPC: 0.0584047 cumulative IPC: 0.0617699 (Simulation time: 3 hr 53 min 40 sec) 
Heartbeat CPU 6 instructions: 680000000 cycles: 710088080 heartbeat IPC: 0.943153 cumulative IPC: 0.941204 (Simulation time: 3 hr 54 min 5 sec) 
Heartbeat CPU 7 instructions: 690000000 cycles: 716008570 heartbeat IPC: 1.33306 cumulative IPC: 0.932943 (Simulation time: 3 hr 55 min 44 sec) 
Heartbeat CPU 2 instructions: 530000000 cycles: 718326691 heartbeat IPC: 0.652523 cumulative IPC: 0.704189 (Simulation time: 3 hr 56 min 20 sec) 
Heartbeat CPU 0 instructions: 560000000 cycles: 719637529 heartbeat IPC: 0.725858 cumulative IPC: 0.740821 (Simulation time: 3 hr 56 min 42 sec) 
Heartbeat CPU 6 instructions: 690000001 cycles: 720669655 heartbeat IPC: 0.945039 cumulative IPC: 0.941261 (Simulation time: 3 hr 56 min 59 sec) 
Heartbeat CPU 3 instructions: 320000000 cycles: 723884570 heartbeat IPC: 0.374468 cumulative IPC: 0.404643 (Simulation time: 3 hr 57 min 51 sec) 
Heartbeat CPU 7 instructions: 700000000 cycles: 728148280 heartbeat IPC: 0.823743 cumulative IPC: 0.931085 (Simulation time: 3 hr 59 min 1 sec) 
Heartbeat CPU 6 instructions: 700000000 cycles: 731215832 heartbeat IPC: 0.948211 cumulative IPC: 0.941364 (Simulation time: 3 hr 59 min 51 sec) 
Heartbeat CPU 2 instructions: 540000000 cycles: 733636528 heartbeat IPC: 0.653175 cumulative IPC: 0.703103 (Simulation time: 4 hr 0 min 33 sec) 
Heartbeat CPU 1 instructions: 180000000 cycles: 734053836 heartbeat IPC: 0.219144 cumulative IPC: 0.222431 (Simulation time: 4 hr 0 min 40 sec) 
Heartbeat CPU 0 instructions: 570000000 cycles: 734400085 heartbeat IPC: 0.677389 cumulative IPC: 0.73952 (Simulation time: 4 hr 0 min 45 sec) 
Heartbeat CPU 7 instructions: 710000001 cycles: 738644884 heartbeat IPC: 0.952689 cumulative IPC: 0.931398 (Simulation time: 4 hr 1 min 57 sec) 
Heartbeat CPU 6 instructions: 710000003 cycles: 741748977 heartbeat IPC: 0.949384 cumulative IPC: 0.94148 (Simulation time: 4 hr 2 min 49 sec) 
Heartbeat CPU 4 instructions: 290000002 cycles: 743679804 heartbeat IPC: 0.246127 cumulative IPC: 0.335615 (Simulation time: 4 hr 3 min 20 sec) 
Heartbeat CPU 0 instructions: 580000000 cycles: 748401546 heartbeat IPC: 0.714211 cumulative IPC: 0.739037 (Simulation time: 4 hr 4 min 40 sec) 
Heartbeat CPU 2 instructions: 550000000 cycles: 748944046 heartbeat IPC: 0.653274 cumulative IPC: 0.702064 (Simulation time: 4 hr 4 min 49 sec) 
Heartbeat CPU 3 instructions: 330000002 cycles: 749493872 heartbeat IPC: 0.390483 cumulative IPC: 0.404149 (Simulation time: 4 hr 4 min 58 sec) 
Heartbeat CPU 7 instructions: 720000000 cycles: 750985690 heartbeat IPC: 0.81032 cumulative IPC: 0.929368 (Simulation time: 4 hr 5 min 22 sec) 
Heartbeat CPU 6 instructions: 720000000 cycles: 752195663 heartbeat IPC: 0.957241 cumulative IPC: 0.941703 (Simulation time: 4 hr 5 min 44 sec) 
Heartbeat CPU 0 instructions: 590000000 cycles: 762538936 heartbeat IPC: 0.707344 cumulative IPC: 0.738438 (Simulation time: 4 hr 8 min 36 sec) 
Heartbeat CPU 6 instructions: 730000000 cycles: 762676127 heartbeat IPC: 0.954156 cumulative IPC: 0.941878 (Simulation time: 4 hr 8 min 39 sec) 
Heartbeat CPU 7 instructions: 730000000 cycles: 763286875 heartbeat IPC: 0.81293 cumulative IPC: 0.927455 (Simulation time: 4 hr 8 min 49 sec) 
Heartbeat CPU 2 instructions: 560000000 cycles: 764251766 heartbeat IPC: 0.653265 cumulative IPC: 0.701067 (Simulation time: 4 hr 9 min 6 sec) 
Heartbeat CPU 6 instructions: 740000000 cycles: 773146064 heartbeat IPC: 0.955116 cumulative IPC: 0.94206 (Simulation time: 4 hr 11 min 38 sec) 
Heartbeat CPU 3 instructions: 340000000 cycles: 774267835 heartbeat IPC: 0.40365 cumulative IPC: 0.404133 (Simulation time: 4 hr 11 min 58 sec) 
Heartbeat CPU 7 instructions: 740000000 cycles: 774574072 heartbeat IPC: 0.88596 cumulative IPC: 0.926839 (Simulation time: 4 hr 12 min 3 sec) 
Heartbeat CPU 0 instructions: 600000000 cycles: 776384594 heartbeat IPC: 0.722248 cumulative IPC: 0.738143 (Simulation time: 4 hr 12 min 34 sec) 
Heartbeat CPU 1 instructions: 190000002 cycles: 778805789 heartbeat IPC: 0.223454 cumulative IPC: 0.222491 (Simulation time: 4 hr 13 min 14 sec) 
Heartbeat CPU 2 instructions: 570000001 cycles: 779542916 heartbeat IPC: 0.653973 cumulative IPC: 0.700125 (Simulation time: 4 hr 13 min 26 sec) 
Heartbeat CPU 4 instructions: 300000000 cycles: 783233675 heartbeat IPC: 0.25282 cumulative IPC: 0.331353 (Simulation time: 4 hr 14 min 26 sec) 
Heartbeat CPU 6 instructions: 750000001 cycles: 783807967 heartbeat IPC: 0.937919 cumulative IPC: 0.942003 (Simulation time: 4 hr 14 min 35 sec) 
Heartbeat CPU 7 instructions: 750000001 cycles: 786572620 heartbeat IPC: 0.833434 cumulative IPC: 0.925387 (Simulation time: 4 hr 15 min 18 sec) 
Heartbeat CPU 6 instructions: 760000000 cycles: 794755811 heartbeat IPC: 0.913422 cumulative IPC: 0.941602 (Simulation time: 4 hr 17 min 28 sec) 
Heartbeat CPU 2 instructions: 580000000 cycles: 794833999 heartbeat IPC: 0.653976 cumulative IPC: 0.699221 (Simulation time: 4 hr 17 min 29 sec) 
Heartbeat CPU 0 instructions: 610000000 cycles: 796609145 heartbeat IPC: 0.494449 cumulative IPC: 0.73184 (Simulation time: 4 hr 17 min 58 sec) 
Heartbeat CPU 7 instructions: 760000000 cycles: 798813936 heartbeat IPC: 0.816906 cumulative IPC: 0.923693 (Simulation time: 4 hr 18 min 36 sec) 
Heartbeat CPU 3 instructions: 350000003 cycles: 802835704 heartbeat IPC: 0.350044 cumulative IPC: 0.402172 (Simulation time: 4 hr 19 min 42 sec) 
Heartbeat CPU 6 instructions: 770000003 cycles: 805395164 heartbeat IPC: 0.939907 cumulative IPC: 0.941579 (Simulation time: 4 hr 20 min 25 sec) 
Heartbeat CPU 2 instructions: 590000002 cycles: 810120459 heartbeat IPC: 0.654174 cumulative IPC: 0.698355 (Simulation time: 4 hr 21 min 46 sec) 
Heartbeat CPU 7 instructions: 770000003 cycles: 810414823 heartbeat IPC: 0.862003 cumulative IPC: 0.922794 (Simulation time: 4 hr 21 min 51 sec) 
Heartbeat CPU 0 instructions: 620000000 cycles: 811440181 heartbeat IPC: 0.674262 cumulative IPC: 0.730768 (Simulation time: 4 hr 22 min 9 sec) 
Heartbeat CPU 6 instructions: 780000000 cycles: 815889661 heartbeat IPC: 0.95288 cumulative IPC: 0.941727 (Simulation time: 4 hr 23 min 23 sec) 
Heartbeat CPU 7 instructions: 780000000 cycles: 821919030 heartbeat IPC: 0.869247 cumulative IPC: 0.92203 (Simulation time: 4 hr 25 min 6 sec) 
Heartbeat CPU 1 instructions: 200000000 cycles: 824643461 heartbeat IPC: 0.218161 cumulative IPC: 0.222246 (Simulation time: 4 hr 25 min 51 sec) 
Heartbeat CPU 4 instructions: 310000003 cycles: 825248400 heartbeat IPC: 0.238012 cumulative IPC: 0.326515 (Simulation time: 4 hr 26 min 2 sec) 
Heartbeat CPU 2 instructions: 600000000 cycles: 825405044 heartbeat IPC: 0.654254 cumulative IPC: 0.697524 (Simulation time: 4 hr 26 min 4 sec) 
Heartbeat CPU 6 instructions: 790000001 cycles: 826375610 heartbeat IPC: 0.953657 cumulative IPC: 0.941881 (Simulation time: 4 hr 26 min 20 sec) 
Heartbeat CPU 0 instructions: 630000000 cycles: 826855173 heartbeat IPC: 0.648719 cumulative IPC: 0.729211 (Simulation time: 4 hr 26 min 29 sec) 
Heartbeat CPU 3 instructions: 360000000 cycles: 828137380 heartbeat IPC: 0.395231 cumulative IPC: 0.401956 (Simulation time: 4 hr 26 min 50 sec) 
Heartbeat CPU 7 instructions: 790000001 cycles: 833439330 heartbeat IPC: 0.868033 cumulative IPC: 0.921271 (Simulation time: 4 hr 28 min 21 sec) 
Heartbeat CPU 6 instructions: 800000000 cycles: 836863041 heartbeat IPC: 0.953522 cumulative IPC: 0.94203 (Simulation time: 4 hr 29 min 19 sec) 
Heartbeat CPU 0 instructions: 640000000 cycles: 840401278 heartbeat IPC: 0.73822 cumulative IPC: 0.729358 (Simulation time: 4 hr 30 min 20 sec) 
Heartbeat CPU 2 instructions: 610000000 cycles: 840677353 heartbeat IPC: 0.65478 cumulative IPC: 0.696733 (Simulation time: 4 hr 30 min 25 sec) 
Heartbeat CPU 7 instructions: 800000000 cycles: 843317492 heartbeat IPC: 1.01233 cumulative IPC: 0.922356 (Simulation time: 4 hr 31 min 11 sec) 
Heartbeat CPU 6 instructions: 810000001 cycles: 847691936 heartbeat IPC: 0.923455 cumulative IPC: 0.941788 (Simulation time: 4 hr 32 min 26 sec) 
Heartbeat CPU 3 instructions: 370000001 cycles: 853176745 heartbeat IPC: 0.399371 cumulative IPC: 0.401879 (Simulation time: 4 hr 33 min 57 sec) 
Heartbeat CPU 0 instructions: 650000001 cycles: 854109610 heartbeat IPC: 0.729483 cumulative IPC: 0.729361 (Simulation time: 4 hr 34 min 12 sec) 
Heartbeat CPU 7 instructions: 810000000 cycles: 854602664 heartbeat IPC: 0.886119 cumulative IPC: 0.921869 (Simulation time: 4 hr 34 min 21 sec) 
Heartbeat CPU 2 instructions: 620000000 cycles: 855936111 heartbeat IPC: 0.655361 cumulative IPC: 0.695983 (Simulation time: 4 hr 34 min 43 sec) 
Heartbeat CPU 6 instructions: 820000000 cycles: 858244427 heartbeat IPC: 0.947643 cumulative IPC: 0.941861 (Simulation time: 4 hr 35 min 23 sec) 
Heartbeat CPU 4 instructions: 320000000 cycles: 864577374 heartbeat IPC: 0.254265 cumulative IPC: 0.323171 (Simulation time: 4 hr 37 min 9 sec) 
Heartbeat CPU 7 instructions: 820000000 cycles: 865987185 heartbeat IPC: 0.878386 cumulative IPC: 0.921288 (Simulation time: 4 hr 37 min 33 sec) 
Heartbeat CPU 6 instructions: 830000003 cycles: 868786121 heartbeat IPC: 0.948614 cumulative IPC: 0.941945 (Simulation time: 4 hr 38 min 19 sec) 
Heartbeat CPU 0 instructions: 660000000 cycles: 868842343 heartbeat IPC: 0.678761 cumulative IPC: 0.728488 (Simulation time: 4 hr 38 min 20 sec) 
Heartbeat CPU 1 instructions: 210000003 cycles: 869565288 heartbeat IPC: 0.222609 cumulative IPC: 0.222265 (Simulation time: 4 hr 38 min 32 sec) 
Heartbeat CPU 2 instructions: 630000002 cycles: 871198633 heartbeat IPC: 0.6552 cumulative IPC: 0.695256 (Simulation time: 4 hr 39 min 2 sec) 
Heartbeat CPU 7 instructions: 830000001 cycles: 876980836 heartbeat IPC: 0.909616 cumulative IPC: 0.921139 (Simulation time: 4 hr 40 min 41 sec) 
Heartbeat CPU 5 instructions: 80000000 cycles: 878258917 heartbeat IPC: 0.0589724 cumulative IPC: 0.0612206 (Simulation time: 4 hr 41 min 3 sec) 
Heartbeat CPU 3 instructions: 380000000 cycles: 878707847 heartbeat IPC: 0.391679 cumulative IPC: 0.401578 (Simulation time: 4 hr 41 min 9 sec) 
Heartbeat CPU 6 instructions: 840000000 cycles: 879339848 heartbeat IPC: 0.947532 cumulative IPC: 0.942013 (Simulation time: 4 hr 41 min 19 sec) 
Heartbeat CPU 0 instructions: 670000001 cycles: 882810204 heartbeat IPC: 0.715929 cumulative IPC: 0.728286 (Simulation time: 4 hr 42 min 20 sec) 
Heartbeat CPU 7 instructions: 840000000 cycles: 886129716 heartbeat IPC: 1.09303 cumulative IPC: 0.922944 (Simulation time: 4 hr 43 min 17 sec) 
Heartbeat CPU 2 instructions: 640000000 cycles: 886460470 heartbeat IPC: 0.655229 cumulative IPC: 0.694555 (Simulation time: 4 hr 43 min 22 sec) 
Heartbeat CPU 6 instructions: 850000000 cycles: 890100463 heartbeat IPC: 0.929315 cumulative IPC: 0.941857 (Simulation time: 4 hr 44 min 24 sec) 
Heartbeat CPU 7 instructions: 850000001 cycles: 896234213 heartbeat IPC: 0.989658 cumulative IPC: 0.923708 (Simulation time: 4 hr 46 min 5 sec) 
Heartbeat CPU 0 instructions: 680000000 cycles: 897473092 heartbeat IPC: 0.681994 cumulative IPC: 0.727517 (Simulation time: 4 hr 46 min 25 sec) 
Heartbeat CPU 6 instructions: 860000000 cycles: 900720197 heartbeat IPC: 0.941643 cumulative IPC: 0.941854 (Simulation time: 4 hr 47 min 19 sec) 
Heartbeat CPU 2 instructions: 650000000 cycles: 901721475 heartbeat IPC: 0.655265 cumulative IPC: 0.693879 (Simulation time: 4 hr 47 min 37 sec) 
Heartbeat CPU 3 instructions: 390000003 cycles: 905748683 heartbeat IPC: 0.369811 cumulative IPC: 0.400614 (Simulation time: 4 hr 48 min 45 sec) 
Heartbeat CPU 4 instructions: 330000001 cycles: 906056063 heartbeat IPC: 0.241088 cumulative IPC: 0.319351 (Simulation time: 4 hr 48 min 50 sec) 
Heartbeat CPU 7 instructions: 860000000 cycles: 907277055 heartbeat IPC: 0.905564 cumulative IPC: 0.923484 (Simulation time: 4 hr 49 min 11 sec) 
Heartbeat CPU 6 instructions: 870000000 cycles: 911326125 heartbeat IPC: 0.942869 cumulative IPC: 0.941866 (Simulation time: 4 hr 50 min 16 sec) 
Heartbeat CPU 0 instructions: 690000003 cycles: 911818700 heartbeat IPC: 0.697078 cumulative IPC: 0.72703 (Simulation time: 4 hr 50 min 25 sec) 
Heartbeat CPU 1 instructions: 220000000 cycles: 914975185 heartbeat IPC: 0.220216 cumulative IPC: 0.222161 (Simulation time: 4 hr 51 min 20 sec) 
Heartbeat CPU 7 instructions: 870000001 cycles: 915837741 heartbeat IPC: 1.16813 cumulative IPC: 0.925808 (Simulation time: 4 hr 51 min 34 sec) 
Heartbeat CPU 2 instructions: 660000000 cycles: 916968190 heartbeat IPC: 0.655879 cumulative IPC: 0.693237 (Simulation time: 4 hr 51 min 53 sec) 
Heartbeat CPU 6 instructions: 880000000 cycles: 921898204 heartbeat IPC: 0.945888 cumulative IPC: 0.941913 (Simulation time: 4 hr 53 min 13 sec) 
Heartbeat CPU 0 instructions: 700000000 cycles: 925683710 heartbeat IPC: 0.72124 cumulative IPC: 0.726942 (Simulation time: 4 hr 54 min 15 sec) 
Heartbeat CPU 7 instructions: 880000000 cycles: 927927380 heartbeat IPC: 0.827154 cumulative IPC: 0.924502 (Simulation time: 4 hr 54 min 51 sec) 
Heartbeat CPU 3 instructions: 400000000 cycles: 932176643 heartbeat IPC: 0.378387 cumulative IPC: 0.399973 (Simulation time: 4 hr 56 min 2 sec) 
Heartbeat CPU 2 instructions: 670000000 cycles: 932241544 heartbeat IPC: 0.654735 cumulative IPC: 0.692596 (Simulation time: 4 hr 56 min 3 sec) 
Heartbeat CPU 6 instructions: 890000000 cycles: 932470724 heartbeat IPC: 0.945848 cumulative IPC: 0.941959 (Simulation time: 4 hr 56 min 7 sec) 
Heartbeat CPU 7 instructions: 890000000 cycles: 938386859 heartbeat IPC: 0.956071 cumulative IPC: 0.92486 (Simulation time: 4 hr 57 min 46 sec) 
Heartbeat CPU 0 instructions: 710000002 cycles: 939444148 heartbeat IPC: 0.726721 cumulative IPC: 0.726939 (Simulation time: 4 hr 58 min 4 sec) 
Heartbeat CPU 6 instructions: 900000000 cycles: 943111951 heartbeat IPC: 0.939741 cumulative IPC: 0.941933 (Simulation time: 4 hr 59 min 4 sec) 
Heartbeat CPU 4 instructions: 340000000 cycles: 947395021 heartbeat IPC: 0.241903 cumulative IPC: 0.315919 (Simulation time: 5 hr 0 min 15 sec) 
Heartbeat CPU 2 instructions: 680000000 cycles: 947688519 heartbeat IPC: 0.647376 cumulative IPC: 0.691847 (Simulation time: 5 hr 0 min 20 sec) 
Heartbeat CPU 7 instructions: 900000000 cycles: 949739220 heartbeat IPC: 0.880874 cumulative IPC: 0.924326 (Simulation time: 5 hr 0 min 54 sec) 
Heartbeat CPU 6 instructions: 910000000 cycles: 953649246 heartbeat IPC: 0.94901 cumulative IPC: 0.942013 (Simulation time: 5 hr 2 min 0 sec) 
Heartbeat CPU 0 instructions: 720000000 cycles: 954170682 heartbeat IPC: 0.679046 cumulative IPC: 0.726188 (Simulation time: 5 hr 2 min 8 sec) 
Heartbeat CPU 3 instructions: 410000001 cycles: 958127364 heartbeat IPC: 0.385346 cumulative IPC: 0.399571 (Simulation time: 5 hr 3 min 14 sec) 
Heartbeat CPU 1 instructions: 230000002 cycles: 959497733 heartbeat IPC: 0.224605 cumulative IPC: 0.222277 (Simulation time: 5 hr 3 min 36 sec) 
Heartbeat CPU 7 instructions: 910000002 cycles: 962496192 heartbeat IPC: 0.783885 cumulative IPC: 0.922435 (Simulation time: 5 hr 4 min 28 sec) 
Heartbeat CPU 2 instructions: 690000000 cycles: 963114453 heartbeat IPC: 0.648259 cumulative IPC: 0.691139 (Simulation time: 5 hr 4 min 39 sec) 
Heartbeat CPU 6 instructions: 920000000 cycles: 964150557 heartbeat IPC: 0.952262 cumulative IPC: 0.942126 (Simulation time: 5 hr 4 min 56 sec) 
Heartbeat CPU 0 instructions: 730000003 cycles: 967851998 heartbeat IPC: 0.730924 cumulative IPC: 0.726256 (Simulation time: 5 hr 5 min 59 sec) 
Heartbeat CPU 7 instructions: 920000000 cycles: 973881336 heartbeat IPC: 0.878337 cumulative IPC: 0.921912 (Simulation time: 5 hr 7 min 42 sec) 
Heartbeat CPU 6 instructions: 930000002 cycles: 974673338 heartbeat IPC: 0.950319 cumulative IPC: 0.942216 (Simulation time: 5 hr 7 min 56 sec) 
Heartbeat CPU 2 instructions: 700000000 cycles: 978546276 heartbeat IPC: 0.648012 cumulative IPC: 0.690448 (Simulation time: 5 hr 9 min 1 sec) 
Heartbeat CPU 0 instructions: 740000000 cycles: 982131921 heartbeat IPC: 0.700284 cumulative IPC: 0.725872 (Simulation time: 5 hr 10 min 1 sec) 
Heartbeat CPU 3 instructions: 420000000 cycles: 983374137 heartbeat IPC: 0.39609 cumulative IPC: 0.39948 (Simulation time: 5 hr 10 min 23 sec) 
Heartbeat CPU 6 instructions: 940000000 cycles: 985205646 heartbeat IPC: 0.949459 cumulative IPC: 0.942294 (Simulation time: 5 hr 10 min 54 sec) 
Heartbeat CPU 7 instructions: 930000002 cycles: 985352148 heartbeat IPC: 0.871778 cumulative IPC: 0.921319 (Simulation time: 5 hr 10 min 56 sec) 
Heartbeat CPU 4 instructions: 350000002 cycles: 986572679 heartbeat IPC: 0.255248 cumulative IPC: 0.313473 (Simulation time: 5 hr 11 min 18 sec) 
Heartbeat CPU 2 instructions: 710000000 cycles: 993963010 heartbeat IPC: 0.648646 cumulative IPC: 0.68979 (Simulation time: 5 hr 13 min 24 sec) 
Heartbeat CPU 6 instructions: 950000000 cycles: 995833169 heartbeat IPC: 0.940953 cumulative IPC: 0.94228 (Simulation time: 5 hr 13 min 55 sec) 
Heartbeat CPU 0 instructions: 750000001 cycles: 996411635 heartbeat IPC: 0.700294 cumulative IPC: 0.7255 (Simulation time: 5 hr 14 min 6 sec) 
Heartbeat CPU 7 instructions: 940000000 cycles: 996921311 heartbeat IPC: 0.864367 cumulative IPC: 0.920648 (Simulation time: 5 hr 14 min 15 sec) 
Heartbeat CPU 1 instructions: 240000000 cycles: 1004722209 heartbeat IPC: 0.221119 cumulative IPC: 0.222224 (Simulation time: 5 hr 16 min 27 sec) 
Heartbeat CPU 6 instructions: 960000000 cycles: 1006512912 heartbeat IPC: 0.936352 cumulative IPC: 0.942216 (Simulation time: 5 hr 16 min 57 sec) 
Heartbeat CPU 7 instructions: 950000003 cycles: 1008540224 heartbeat IPC: 0.860666 cumulative IPC: 0.919947 (Simulation time: 5 hr 17 min 31 sec) 
Heartbeat CPU 2 instructions: 720000000 cycles: 1009387029 heartbeat IPC: 0.648339 cumulative IPC: 0.689147 (Simulation time: 5 hr 17 min 45 sec) 
Heartbeat CPU 0 instructions: 760000000 cycles: 1010388585 heartbeat IPC: 0.715464 cumulative IPC: 0.725359 (Simulation time: 5 hr 18 min 2 sec) 
Heartbeat CPU 3 instructions: 430000002 cycles: 1011353380 heartbeat IPC: 0.357408 cumulative IPC: 0.398299 (Simulation time: 5 hr 18 min 20 sec) 
Heartbeat CPU 6 instructions: 970000003 cycles: 1017477069 heartbeat IPC: 0.912063 cumulative IPC: 0.941886 (Simulation time: 5 hr 20 min 2 sec) 
Heartbeat CPU 7 instructions: 960000000 cycles: 1020175955 heartbeat IPC: 0.859421 cumulative IPC: 0.919247 (Simulation time: 5 hr 20 min 48 sec) 
Heartbeat CPU 4 instructions: 360000000 cycles: 1021568560 heartbeat IPC: 0.285748 cumulative IPC: 0.312509 (Simulation time: 5 hr 21 min 12 sec) 
Heartbeat CPU 0 instructions: 770000000 cycles: 1024235710 heartbeat IPC: 0.722172 cumulative IPC: 0.725316 (Simulation time: 5 hr 21 min 58 sec) 
Heartbeat CPU 2 instructions: 730000001 cycles: 1024803233 heartbeat IPC: 0.648668 cumulative IPC: 0.688529 (Simulation time: 5 hr 22 min 7 sec) 
Heartbeat CPU 6 instructions: 980000000 cycles: 1028078012 heartbeat IPC: 0.943312 cumulative IPC: 0.941901 (Simulation time: 5 hr 23 min 2 sec) 
Heartbeat CPU 7 instructions: 970000000 cycles: 1031988660 heartbeat IPC: 0.846546 cumulative IPC: 0.918402 (Simulation time: 5 hr 24 min 9 sec) 
Heartbeat CPU 6 instructions: 990000001 cycles: 1038692997 heartbeat IPC: 0.942065 cumulative IPC: 0.941903 (Simulation time: 5 hr 26 min 2 sec) 
Heartbeat CPU 0 instructions: 780000000 cycles: 1039108274 heartbeat IPC: 0.672379 cumulative IPC: 0.724547 (Simulation time: 5 hr 26 min 9 sec) 
Heartbeat CPU 3 instructions: 440000000 cycles: 1039748698 heartbeat IPC: 0.352171 cumulative IPC: 0.397021 (Simulation time: 5 hr 26 min 21 sec) 
Heartbeat CPU 2 instructions: 740000000 cycles: 1040202457 heartbeat IPC: 0.649383 cumulative IPC: 0.687941 (Simulation time: 5 hr 26 min 28 sec) 
Heartbeat CPU 7 instructions: 980000000 cycles: 1043827527 heartbeat IPC: 0.844675 cumulative IPC: 0.917554 (Simulation time: 5 hr 27 min 30 sec) 
Heartbeat CPU 6 instructions: 1000000000 cycles: 1049331536 heartbeat IPC: 0.939979 cumulative IPC: 0.941883 (Simulation time: 5 hr 29 min 7 sec) 
Heartbeat CPU 1 instructions: 250000000 cycles: 1050478580 heartbeat IPC: 0.218549 cumulative IPC: 0.222061 (Simulation time: 5 hr 29 min 27 sec) 
Heartbeat CPU 5 instructions: 90000000 cycles: 1050659965 heartbeat IPC: 0.0580043 cumulative IPC: 0.0606853 (Simulation time: 5 hr 29 min 29 sec) 
Heartbeat CPU 7 instructions: 990000002 cycles: 1052813237 heartbeat IPC: 1.11288 cumulative IPC: 0.919245 (Simulation time: 5 hr 30 min 6 sec) 
Heartbeat CPU 0 instructions: 790000000 cycles: 1053134012 heartbeat IPC: 0.712975 cumulative IPC: 0.724391 (Simulation time: 5 hr 30 min 12 sec) 
Heartbeat CPU 2 instructions: 750000000 cycles: 1055600233 heartbeat IPC: 0.649444 cumulative IPC: 0.687372 (Simulation time: 5 hr 30 min 51 sec) 
Heartbeat CPU 4 instructions: 370000000 cycles: 1057177233 heartbeat IPC: 0.28083 cumulative IPC: 0.311427 (Simulation time: 5 hr 31 min 15 sec) 
Heartbeat CPU 6 instructions: 1010000002 cycles: 1059986813 heartbeat IPC: 0.938502 cumulative IPC: 0.941849 (Simulation time: 5 hr 32 min 4 sec) 
Heartbeat CPU 7 instructions: 1000000000 cycles: 1065715239 heartbeat IPC: 0.775073 cumulative IPC: 0.917475 (Simulation time: 5 hr 33 min 40 sec) 
Heartbeat CPU 0 instructions: 800000000 cycles: 1067812809 heartbeat IPC: 0.681255 cumulative IPC: 0.72379 (Simulation time: 5 hr 34 min 14 sec) 
Heartbeat CPU 3 instructions: 450000003 cycles: 1068124740 heartbeat IPC: 0.35241 cumulative IPC: 0.395819 (Simulation time: 5 hr 34 min 19 sec) 
Heartbeat CPU 6 instructions: 1020000000 cycles: 1070627008 heartbeat IPC: 0.939832 cumulative IPC: 0.941828 (Simulation time: 5 hr 35 min 1 sec) 
Heartbeat CPU 2 instructions: 760000000 cycles: 1071001474 heartbeat IPC: 0.649298 cumulative IPC: 0.686817 (Simulation time: 5 hr 35 min 8 sec) 
Heartbeat CPU 7 instructions: 1010000002 cycles: 1076635999 heartbeat IPC: 0.915687 cumulative IPC: 0.917457 (Simulation time: 5 hr 36 min 46 sec) 
Heartbeat CPU 6 instructions: 1030000000 cycles: 1081271525 heartbeat IPC: 0.939451 cumulative IPC: 0.941805 (Simulation time: 5 hr 38 min 3 sec) 
Heartbeat CPU 0 instructions: 810000000 cycles: 1082367116 heartbeat IPC: 0.687082 cumulative IPC: 0.723289 (Simulation time: 5 hr 38 min 21 sec) 
Heartbeat CPU 2 instructions: 770000001 cycles: 1086400523 heartbeat IPC: 0.649391 cumulative IPC: 0.686279 (Simulation time: 5 hr 39 min 30 sec) 
Heartbeat CPU 7 instructions: 1020000000 cycles: 1087604563 heartbeat IPC: 0.911696 cumulative IPC: 0.917398 (Simulation time: 5 hr 39 min 50 sec) 
Heartbeat CPU 6 instructions: 1040000000 cycles: 1092149848 heartbeat IPC: 0.919259 cumulative IPC: 0.941577 (Simulation time: 5 hr 41 min 7 sec) 
Heartbeat CPU 4 instructions: 380000000 cycles: 1094093775 heartbeat IPC: 0.270881 cumulative IPC: 0.31004 (Simulation time: 5 hr 41 min 39 sec) 
Heartbeat CPU 1 instructions: 260000000 cycles: 1096859832 heartbeat IPC: 0.215604 cumulative IPC: 0.221785 (Simulation time: 5 hr 42 min 25 sec) 
Heartbeat CPU 0 instructions: 820000000 cycles: 1096912320 heartbeat IPC: 0.687512 cumulative IPC: 0.722808 (Simulation time: 5 hr 42 min 26 sec) 
Heartbeat CPU 3 instructions: 460000000 cycles: 1097661348 heartbeat IPC: 0.338563 cumulative IPC: 0.394258 (Simulation time: 5 hr 42 min 39 sec) 
Heartbeat CPU 7 instructions: 1030000000 cycles: 1097883071 heartbeat IPC: 0.972904 cumulative IPC: 0.917925 (Simulation time: 5 hr 42 min 43 sec) 
Heartbeat CPU 2 instructions: 780000000 cycles: 1101775519 heartbeat IPC: 0.650407 cumulative IPC: 0.685772 (Simulation time: 5 hr 43 min 47 sec) 
Heartbeat CPU 6 instructions: 1050000000 cycles: 1102942743 heartbeat IPC: 0.926535 cumulative IPC: 0.941428 (Simulation time: 5 hr 44 min 6 sec) 
Heartbeat CPU 7 instructions: 1040000000 cycles: 1108434202 heartbeat IPC: 0.947766 cumulative IPC: 0.918213 (Simulation time: 5 hr 45 min 30 sec) 
Heartbeat CPU 6 instructions: 1060000000 cycles: 1113727187 heartbeat IPC: 0.927262 cumulative IPC: 0.941289 (Simulation time: 5 hr 46 min 49 sec) 
Heartbeat CPU 2 instructions: 790000002 cycles: 1117162206 heartbeat IPC: 0.649913 cumulative IPC: 0.685271 (Simulation time: 5 hr 47 min 39 sec) 
Heartbeat CPU 7 instructions: 1050000001 cycles: 1118916820 heartbeat IPC: 0.95396 cumulative IPC: 0.918552 (Simulation time: 5 hr 48 min 6 sec) 
Heartbeat CPU 6 instructions: 1070000001 cycles: 1124529694 heartbeat IPC: 0.925711 cumulative IPC: 0.941137 (Simulation time: 5 hr 49 min 31 sec) 
Heartbeat CPU 3 instructions: 470000000 cycles: 1128289474 heartbeat IPC: 0.326497 cumulative IPC: 0.392394 (Simulation time: 5 hr 50 min 25 sec) 
Heartbeat CPU 7 instructions: 1060000000 cycles: 1128525217 heartbeat IPC: 1.04076 cumulative IPC: 0.919606 (Simulation time: 5 hr 50 min 28 sec) 
Heartbeat CPU 4 instructions: 390000001 cycles: 1131469262 heartbeat IPC: 0.267555 cumulative IPC: 0.308618 (Simulation time: 5 hr 51 min 11 sec) 
Heartbeat CPU 2 instructions: 800000000 cycles: 1132540666 heartbeat IPC: 0.65026 cumulative IPC: 0.684789 (Simulation time: 5 hr 51 min 26 sec) 
Heartbeat CPU 6 instructions: 1080000000 cycles: 1135230065 heartbeat IPC: 0.934547 cumulative IPC: 0.941074 (Simulation time: 5 hr 52 min 5 sec) 
Heartbeat CPU 7 instructions: 1070000001 cycles: 1141452983 heartbeat IPC: 0.773529 cumulative IPC: 0.91793 (Simulation time: 5 hr 53 min 44 sec) 
Heartbeat CPU 1 instructions: 270000000 cycles: 1143772375 heartbeat IPC: 0.213163 cumulative IPC: 0.221426 (Simulation time: 5 hr 54 min 24 sec) 
Heartbeat CPU 0 instructions: 830000002 cycles: 1144588839 heartbeat IPC: 0.209747 cumulative IPC: 0.701159 (Simulation time: 5 hr 54 min 39 sec) 
Heartbeat CPU 6 instructions: 1090000002 cycles: 1145938652 heartbeat IPC: 0.93383 cumulative IPC: 0.941006 (Simulation time: 5 hr 55 min 3 sec) 
Heartbeat CPU 2 instructions: 810000000 cycles: 1147905197 heartbeat IPC: 0.65085 cumulative IPC: 0.684329 (Simulation time: 5 hr 55 min 38 sec) 
Heartbeat CPU 7 instructions: 1080000000 cycles: 1151613952 heartbeat IPC: 0.984158 cumulative IPC: 0.918522 (Simulation time: 5 hr 56 min 42 sec) 
Heartbeat CPU 6 instructions: 1100000000 cycles: 1156577176 heartbeat IPC: 0.93998 cumulative IPC: 0.940996 (Simulation time: 5 hr 58 min 10 sec) 
Heartbeat CPU 0 instructions: 840000000 cycles: 1157043261 heartbeat IPC: 0.802927 cumulative IPC: 0.702268 (Simulation time: 5 hr 58 min 19 sec) 
Heartbeat CPU 3 instructions: 480000000 cycles: 1157548343 heartbeat IPC: 0.341777 cumulative IPC: 0.391098 (Simulation time: 5 hr 58 min 28 sec) 
Heartbeat CPU 2 instructions: 820000000 cycles: 1163278266 heartbeat IPC: 0.650488 cumulative IPC: 0.683876 (Simulation time: 6 hr 0 min 8 sec) 
Heartbeat CPU 7 instructions: 1090000000 cycles: 1164678462 heartbeat IPC: 0.765432 cumulative IPC: 0.916783 (Simulation time: 6 hr 0 min 32 sec) 
Heartbeat CPU 6 instructions: 1110000002 cycles: 1167214441 heartbeat IPC: 0.940091 cumulative IPC: 0.940988 (Simulation time: 6 hr 1 min 16 sec) 
Heartbeat CPU 4 instructions: 400000000 cycles: 1167402447 heartbeat IPC: 0.278294 cumulative IPC: 0.307673 (Simulation time: 6 hr 1 min 19 sec) 
Heartbeat CPU 0 instructions: 850000001 cycles: 1169511811 heartbeat IPC: 0.802018 cumulative IPC: 0.703345 (Simulation time: 6 hr 1 min 57 sec) 
Heartbeat CPU 7 instructions: 1100000000 cycles: 1176664633 heartbeat IPC: 0.834295 cumulative IPC: 0.915932 (Simulation time: 6 hr 4 min 4 sec) 
Heartbeat CPU 6 instructions: 1120000000 cycles: 1178115745 heartbeat IPC: 0.917321 cumulative IPC: 0.940766 (Simulation time: 6 hr 4 min 30 sec) 
Heartbeat CPU 2 instructions: 830000000 cycles: 1178641618 heartbeat IPC: 0.6509 cumulative IPC: 0.683441 (Simulation time: 6 hr 4 min 40 sec) 
Heartbeat CPU 0 instructions: 860000000 cycles: 1182024413 heartbeat IPC: 0.799194 cumulative IPC: 0.704373 (Simulation time: 6 hr 5 min 40 sec) 
Heartbeat CPU 3 instructions: 490000002 cycles: 1185662652 heartbeat IPC: 0.355691 cumulative IPC: 0.390248 (Simulation time: 6 hr 6 min 46 sec) 
Heartbeat CPU 7 instructions: 1110000001 cycles: 1188338822 heartbeat IPC: 0.856591 cumulative IPC: 0.915341 (Simulation time: 6 hr 7 min 33 sec) 
Heartbeat CPU 6 instructions: 1130000003 cycles: 1188709255 heartbeat IPC: 0.943974 cumulative IPC: 0.940795 (Simulation time: 6 hr 7 min 40 sec) 
Heartbeat CPU 1 instructions: 280000000 cycles: 1188971549 heartbeat IPC: 0.221243 cumulative IPC: 0.221419 (Simulation time: 6 hr 7 min 45 sec) 
Heartbeat CPU 2 instructions: 840000000 cycles: 1193983960 heartbeat IPC: 0.651791 cumulative IPC: 0.683029 (Simulation time: 6 hr 9 min 15 sec) 
Heartbeat CPU 0 instructions: 870000002 cycles: 1194467634 heartbeat IPC: 0.803651 cumulative IPC: 0.70542 (Simulation time: 6 hr 9 min 23 sec) 
Heartbeat CPU 6 instructions: 1140000000 cycles: 1199322323 heartbeat IPC: 0.942234 cumulative IPC: 0.940808 (Simulation time: 6 hr 10 min 51 sec) 
Heartbeat CPU 7 instructions: 1120000000 cycles: 1200075984 heartbeat IPC: 0.851995 cumulative IPC: 0.914714 (Simulation time: 6 hr 11 min 4 sec) 
Heartbeat CPU 4 instructions: 410000003 cycles: 1202307684 heartbeat IPC: 0.28649 cumulative IPC: 0.30705 (Simulation time: 6 hr 11 min 44 sec) 
Heartbeat CPU 0 instructions: 880000000 cycles: 1206869581 heartbeat IPC: 0.806325 cumulative IPC: 0.70647 (Simulation time: 6 hr 13 min 5 sec) 
Heartbeat CPU 2 instructions: 850000000 cycles: 1209332473 heartbeat IPC: 0.651529 cumulative IPC: 0.682625 (Simulation time: 6 hr 13 min 50 sec) 
Heartbeat CPU 6 instructions: 1150000002 cycles: 1209936582 heartbeat IPC: 0.942129 cumulative IPC: 0.94082 (Simulation time: 6 hr 14 min 0 sec) 
Heartbeat CPU 7 instructions: 1130000000 cycles: 1211814579 heartbeat IPC: 0.851891 cumulative IPC: 0.914098 (Simulation time: 6 hr 14 min 34 sec) 
Heartbeat CPU 3 instructions: 500000000 cycles: 1213563202 heartbeat IPC: 0.358416 cumulative IPC: 0.389507 (Simulation time: 6 hr 15 min 5 sec) 
Heartbeat CPU 0 instructions: 890000002 cycles: 1219345187 heartbeat IPC: 0.801564 cumulative IPC: 0.707454 (Simulation time: 6 hr 16 min 48 sec) 
Heartbeat CPU 6 instructions: 1160000000 cycles: 1220495303 heartbeat IPC: 0.947084 cumulative IPC: 0.940874 (Simulation time: 6 hr 17 min 9 sec) 
[...]
L2C WRITEBACK ACCESS:    2130358  HIT:    2130355  MISS:          3
LLC TOTAL     ACCESS:   15144452  HIT:    2131548  MISS:   13012904
LLC LOAD      ACCESS:   13015116  HIT:       2217  MISS:   13012899
LLC RFO       ACCESS:          2  HIT:          0  MISS:          2
LLC PREFETCH  ACCESS:          0  HIT:          0  MISS:          0
LLC WRITEBACK ACCESS:    2129334  HIT:    2129331  MISS:          3

CPU 5 cumulative IPC: 0.0582855 instructions: 100000000 cycles: 1715691578
L1D TOTAL     ACCESS:   15855309  HIT:    8619118  MISS:    7236191
L1D LOAD      ACCESS:   14373147  HIT:    7139743  MISS:    7233404
L1D RFO       ACCESS:    1482162  HIT:    1479375  MISS:       2787
L1D PREFETCH  ACCESS:          0  HIT:          0  MISS:          0
L1D WRITEBACK ACCESS:          0  HIT:          0  MISS:          0
L1I TOTAL     ACCESS:   36390045  HIT:   36390020  MISS:         25
L1I LOAD      ACCESS:   36390045  HIT:   36390020  MISS:         25
L1I RFO       ACCESS:          0  HIT:          0  MISS:          0
L1I PREFETCH  ACCESS:          0  HIT:          0  MISS:          0
L1I WRITEBACK ACCESS:          0  HIT:          0  MISS:          0
L2C TOTAL     ACCESS:    7261683  HIT:     269751  MISS:    6991932
L2C LOAD      ACCESS:    7233428  HIT:     244281  MISS:    6989147
L2C RFO       ACCESS:       2787  HIT:          2  MISS:       2785
L2C PREFETCH  ACCESS:          0  HIT:          0  MISS:          0
L2C WRITEBACK ACCESS:      25468  HIT:      25468  MISS:          0
LLC TOTAL     ACCESS:    7003176  HIT:      12580  MISS:    6990596
LLC LOAD      ACCESS:    6989147  HIT:       1346  MISS:    6987801
LLC RFO       ACCESS:       2785  HIT:          0  MISS:       2785
LLC PREFETCH  ACCESS:          0  HIT:          0  MISS:          0
LLC WRITEBACK ACCESS:      11244  HIT:      11234  MISS:         10

CPU 6 cumulative IPC: 0.938867 instructions: 1610805757 cycles: 1715691578
L1D TOTAL     ACCESS:  641712071  HIT:  513613251  MISS:  128098820
L1D LOAD      ACCESS:  514651257  HIT:  397165339  MISS:  117485918
L1D RFO       ACCESS:  127060814  HIT:  116447912  MISS:   10612902
L1D PREFETCH  ACCESS:          0  HIT:          0  MISS:          0
L1D WRITEBACK ACCESS:          0  HIT:          0  MISS:          0
L1I TOTAL     ACCESS:  376486155  HIT:  330044230  MISS:   46441925
L1I LOAD      ACCESS:  376486155  HIT:  330044230  MISS:   46441925
L1I RFO       ACCESS:          0  HIT:          0  MISS:          0
L1I PREFETCH  ACCESS:          0  HIT:          0  MISS:          0
L1I WRITEBACK ACCESS:          0  HIT:          0  MISS:          0
L2C TOTAL     ACCESS:  186345228  HIT:  172027847  MISS:   14317381
L2C LOAD      ACCESS:  163920269  HIT:  150921891  MISS:   12998378
L2C RFO       ACCESS:   10606404  HIT:    9291293  MISS:    1315111
L2C PREFETCH  ACCESS:          0  HIT:          0  MISS:          0
L2C WRITEBACK ACCESS:   11818555  HIT:   11814663  MISS:       3892
LLC TOTAL     ACCESS:   15542868  HIT:   11275489  MISS:    4267379
LLC LOAD      ACCESS:   12998250  HIT:    9676966  MISS:    3321284
LLC RFO       ACCESS:    1223298  HIT:     280375  MISS:     942923
LLC PREFETCH  ACCESS:          0  HIT:          0  MISS:          0
LLC WRITEBACK ACCESS:    1321320  HIT:    1318148  MISS:       3172

CPU 7 cumulative IPC: 0.905463 instructions: 1553495565 cycles: 1715691578
L1D TOTAL     ACCESS:  286459421  HIT:  259750753  MISS:   26708668
L1D LOAD      ACCESS:  204158002  HIT:  186465600  MISS:   17692402
L1D RFO       ACCESS:   82301419  HIT:   73285153  MISS:    9016266
L1D PREFETCH  ACCESS:          0  HIT:          0  MISS:          0
L1D WRITEBACK ACCESS:          0  HIT:          0  MISS:          0
L1I TOTAL     ACCESS:  375158088  HIT:  374391961  MISS:     766127
L1I LOAD      ACCESS:  375158088  HIT:  374391961  MISS:     766127
L1I RFO       ACCESS:          0  HIT:          0  MISS:          0
L1I PREFETCH  ACCESS:          0  HIT:          0  MISS:          0
L1I WRITEBACK ACCESS:          0  HIT:          0  MISS:          0
L2C TOTAL     ACCESS:   38931692  HIT:   26535433  MISS:   12396259
L2C LOAD      ACCESS:   18457261  HIT:   10277770  MISS:    8179491
L2C RFO       ACCESS:    9015976  HIT:    4806971  MISS:    4209005
L2C PREFETCH  ACCESS:          0  HIT:          0  MISS:          0
L2C WRITEBACK ACCESS:   11458455  HIT:   11450692  MISS:       7763
LLC TOTAL     ACCESS:   18245647  HIT:   12765741  MISS:    5479906
LLC LOAD      ACCESS:    8179488  HIT:    4844666  MISS:    3334822
LLC RFO       ACCESS:    4208988  HIT:    2093229  MISS:    2115759
LLC PREFETCH  ACCESS:          0  HIT:          0  MISS:          0
LLC WRITEBACK ACCESS:    5857171  HIT:    5827846  MISS:      29325

Region of Interest Statistics

CPU 0 cumulative IPC: 0.864943 instructions: 100000001 cycles: 115614573
L1D TOTAL     ACCESS:   14846165  HIT:   13014866  MISS:    1831299
L1D LOAD      ACCESS:    9945967  HIT:    8670304  MISS:    1275663
L1D RFO       ACCESS:    4900198  HIT:    4344562  MISS:     555636
L1D PREFETCH  ACCESS:          0  HIT:          0  MISS:          0
L1D WRITEBACK ACCESS:          0  HIT:          0  MISS:          0
L1D PREFETCH  REQUESTED:          0  ISSUED:          0  USEFUL:          0  USELESS:          0
L1I TOTAL     ACCESS:   21473147  HIT:   21470758  MISS:       2389
L1I LOAD      ACCESS:   21473147  HIT:   21470758  MISS:       2389
L1I RFO       ACCESS:          0  HIT:          0  MISS:          0
L1I PREFETCH  ACCESS:          0  HIT:          0  MISS:          0
L1I WRITEBACK ACCESS:          0  HIT:          0  MISS:          0
L1I PREFETCH  REQUESTED:          0  ISSUED:          0  USEFUL:          0  USELESS:          0
L2C TOTAL     ACCESS:    2617363  HIT:     962689  MISS:    1654674
L2C LOAD      ACCESS:    1278052  HIT:     169454  MISS:    1108598
L2C RFO       ACCESS:     555635  HIT:      11942  MISS:     543693
L2C PREFETCH  ACCESS:          0  HIT:          0  MISS:          0
L2C WRITEBACK ACCESS:     783676  HIT:     781293  MISS:       2383
L2C PREFETCH  REQUESTED:          0  ISSUED:          0  USEFUL:          0  USELESS:          0
LLC TOTAL     ACCESS:    2394969  HIT:    2054241  MISS:     340728
LLC LOAD      ACCESS:    1108598  HIT:     931634  MISS:     176964
LLC RFO       ACCESS:     543693  HIT:     379929  MISS:     163764
LLC PREFETCH  ACCESS:          0  HIT:          0  MISS:          0
LLC WRITEBACK ACCESS:     742678  HIT:     742678  MISS:          0
LLC PREFETCH  REQUESTED:          0  ISSUED:          0  USEFUL:          0  USELESS:          0
Major fault: 0 Minor fault: 19547

CPU 1 cumulative IPC: 0.222656 instructions: 100000000 cycles: 449123233
L1D TOTAL     ACCESS:   44161612  HIT:   42176502  MISS:    1985110
L1D LOAD      ACCESS:   26114011  HIT:   24378738  MISS:    1735273
L1D RFO       ACCESS:   18047601  HIT:   17797764  MISS:     249837
L1D PREFETCH  ACCESS:          0  HIT:          0  MISS:          0
L1D WRITEBACK ACCESS:          0  HIT:          0  MISS:          0
L1D PREFETCH  REQUESTED:          0  ISSUED:          0  USEFUL:          0  USELESS:          0
L1I TOTAL     ACCESS:   35580318  HIT:   35543303  MISS:      37015
L1I LOAD      ACCESS:   35580318  HIT:   35543303  MISS:      37015
L1I RFO       ACCESS:          0  HIT:          0  MISS:          0
L1I PREFETCH  ACCESS:          0  HIT:          0  MISS:          0
L1I WRITEBACK ACCESS:          0  HIT:          0  MISS:          0
L1I PREFETCH  REQUESTED:          0  ISSUED:          0  USEFUL:          0  USELESS:          0
L2C TOTAL     ACCESS:    2984520  HIT:    1545239  MISS:    1439281
L2C LOAD      ACCESS:    1772236  HIT:     537969  MISS:    1234267
L2C RFO       ACCESS:     249828  HIT:      47881  MISS:     201947
L2C PREFETCH  ACCESS:          0  HIT:          0  MISS:          0
L2C WRITEBACK ACCESS:     962456  HIT:     959389  MISS:       3067
L2C PREFETCH  REQUESTED:          0  ISSUED:          0  USEFUL:          0  USELESS:          0
LLC TOTAL     ACCESS:    2159624  HIT:    1150658  MISS:    1008966
LLC LOAD      ACCESS:    1234265  HIT:     345885  MISS:     888380
LLC RFO       ACCESS:     201947  HIT:      83819  MISS:     118128
LLC PREFETCH  ACCESS:          0  HIT:          0  MISS:          0
LLC WRITEBACK ACCESS:     723412  HIT:     720954  MISS:       2458
LLC PREFETCH  REQUESTED:          0  ISSUED:          0  USEFUL:          0  USELESS:          0
Major fault: 0 Minor fault: 48090

CPU 2 cumulative IPC: 0.766674 instructions: 100000002 cycles: 130433601
L1D TOTAL     ACCESS:   18749212  HIT:   16846911  MISS:    1902301
L1D LOAD      ACCESS:   17437756  HIT:   15536026  MISS:    1901730
L1D RFO       ACCESS:    1311456  HIT:    1310885  MISS:        571
L1D PREFETCH  ACCESS:          0  HIT:          0  MISS:          0
L1D WRITEBACK ACCESS:          0  HIT:          0  MISS:          0
L1D PREFETCH  REQUESTED:          0  ISSUED:          0  USEFUL:          0  USELESS:          0
L1I TOTAL     ACCESS:   35242743  HIT:   35242743  MISS:          0
L1I LOAD      ACCESS:   35242743  HIT:   35242743  MISS:          0
L1I RFO       ACCESS:          0  HIT:          0  MISS:          0
L1I PREFETCH  ACCESS:          0  HIT:          0  MISS:          0
L1I WRITEBACK ACCESS:          0  HIT:          0  MISS:          0
L1I PREFETCH  REQUESTED:          0  ISSUED:          0  USEFUL:          0  USELESS:          0
L2C TOTAL     ACCESS:    1903140  HIT:       1224  MISS:    1901916
L2C LOAD      ACCESS:    1901730  HIT:        385  MISS:    1901345
L2C RFO       ACCESS:        571  HIT:          0  MISS:        571
L2C PREFETCH  ACCESS:          0  HIT:          0  MISS:          0
L2C WRITEBACK ACCESS:        839  HIT:        839  MISS:          0
L2C PREFETCH  REQUESTED:          0  ISSUED:          0  USEFUL:          0  USELESS:          0
LLC TOTAL     ACCESS:    1902755  HIT:    1892314  MISS:      10441
LLC LOAD      ACCESS:    1901345  HIT:    1891255  MISS:      10090
LLC RFO       ACCESS:        571  HIT:        220  MISS:        351
LLC PREFETCH  ACCESS:          0  HIT:          0  MISS:          0
LLC WRITEBACK ACCESS:        839  HIT:        839  MISS:          0
LLC PREFETCH  REQUESTED:          0  ISSUED:          0  USEFUL:          0  USELESS:          0
Major fault: 0 Minor fault: 3899

CPU 3 cumulative IPC: 0.428422 instructions: 100000001 cycles: 233414708
L1D TOTAL     ACCESS:   20622692  HIT:   19299319  MISS:    1323373
L1D LOAD      ACCESS:   13605570  HIT:   12283730  MISS:    1321840
L1D RFO       ACCESS:    7017122  HIT:    7015589  MISS:       1533
L1D PREFETCH  ACCESS:          0  HIT:          0  MISS:          0
L1D WRITEBACK ACCESS:          0  HIT:          0  MISS:          0
L1D PREFETCH  REQUESTED:          0  ISSUED:          0  USEFUL:          0  USELESS:          0
L1I TOTAL     ACCESS:   19962695  HIT:   19962695  MISS:          0
L1I LOAD      ACCESS:   19962695  HIT:   19962695  MISS:          0
L1I RFO       ACCESS:          0  HIT:          0  MISS:          0
L1I PREFETCH  ACCESS:          0  HIT:          0  MISS:          0
L1I WRITEBACK ACCESS:          0  HIT:          0  MISS:          0
L1I PREFETCH  REQUESTED:          0  ISSUED:          0  USEFUL:          0  USELESS:          0
L2C TOTAL     ACCESS:    2201882  HIT:     907851  MISS:    1294031
L2C LOAD      ACCESS:    1321840  HIT:      29260  MISS:    1292580
L2C RFO       ACCESS:       1533  HIT:         82  MISS:       1451
L2C PREFETCH  ACCESS:          0  HIT:          0  MISS:          0
L2C WRITEBACK ACCESS:     878509  HIT:     878509  MISS:          0
L2C PREFETCH  REQUESTED:          0  ISSUED:          0  USEFUL:          0  USELESS:          0
LLC TOTAL     ACCESS:    2172275  HIT:    1294880  MISS:     877395
LLC LOAD      ACCESS:    1292580  HIT:     415185  MISS:     877395
LLC RFO       ACCESS:       1451  HIT:       1451  MISS:          0
LLC PREFETCH  ACCESS:          0  HIT:          0  MISS:          0
LLC WRITEBACK ACCESS:     878244  HIT:     878244  MISS:          0
LLC PREFETCH  REQUESTED:          0  ISSUED:          0  USEFUL:          0  USELESS:          0
Major fault: 0 Minor fault: 92892

CPU 4 cumulative IPC: 0.460056 instructions: 100000003 cycles: 217364871
L1D TOTAL     ACCESS:    8192191  HIT:    6633337  MISS:    1558854
L1D LOAD      ACCESS:    5698589  HIT:    4139735  MISS:    1558854
L1D RFO       ACCESS:    2493602  HIT:    2493602  MISS:          0
L1D PREFETCH  ACCESS:          0  HIT:          0  MISS:          0
L1D WRITEBACK ACCESS:          0  HIT:          0  MISS:          0
L1D PREFETCH  REQUESTED:          0  ISSUED:          0  USEFUL:          0  USELESS:          0
L1I TOTAL     ACCESS:   22127609  HIT:   22127609  MISS:          0
L1I LOAD      ACCESS:   22127609  HIT:   22127609  MISS:          0
L1I RFO       ACCESS:          0  HIT:          0  MISS:          0
L1I PREFETCH  ACCESS:          0  HIT:          0  MISS:          0
L1I WRITEBACK ACCESS:          0  HIT:          0  MISS:          0
L1I PREFETCH  REQUESTED:          0  ISSUED:          0  USEFUL:          0  USELESS:          0
L2C TOTAL     ACCESS:    1558854  HIT:          0  MISS:    1558854
L2C LOAD      ACCESS:    1558854  HIT:          0  MISS:    1558854
L2C RFO       ACCESS:          0  HIT:          0  MISS:          0
L2C PREFETCH  ACCESS:          0  HIT:          0  MISS:          0
L2C WRITEBACK ACCESS:          0  HIT:          0  MISS:          0
L2C PREFETCH  REQUESTED:          0  ISSUED:          0  USEFUL:          0  USELESS:          0
LLC TOTAL     ACCESS:    1558854  HIT:        352  MISS:    1558502
LLC LOAD      ACCESS:    1558854  HIT:        352  MISS:    1558502
LLC RFO       ACCESS:          0  HIT:          0  MISS:          0
LLC PREFETCH  ACCESS:          0  HIT:          0  MISS:          0
LLC WRITEBACK ACCESS:          0  HIT:          0  MISS:          0
LLC PREFETCH  REQUESTED:          0  ISSUED:          0  USEFUL:          0  USELESS:          0
Major fault: 0 Minor fault: 146439

CPU 5 cumulative IPC: 0.0582855 instructions: 100000000 cycles: 1715691578
L1D TOTAL     ACCESS:   15855309  HIT:    8619118  MISS:    7236191
L1D LOAD      ACCESS:   14373147  HIT:    7139743  MISS:    7233404
L1D RFO       ACCESS:    1482162  HIT:    1479375  MISS:       2787
L1D PREFETCH  ACCESS:          0  HIT:          0  MISS:          0
L1D WRITEBACK ACCESS:          0  HIT:          0  MISS:          0
L1D PREFETCH  REQUESTED:          0  ISSUED:          0  USEFUL:          0  USELESS:          0
L1I TOTAL     ACCESS:   36390045  HIT:   36390020  MISS:         25
L1I LOAD      ACCESS:   36390045  HIT:   36390020  MISS:         25
L1I RFO       ACCESS:          0  HIT:          0  MISS:          0
L1I PREFETCH  ACCESS:          0  HIT:          0  MISS:          0
L1I WRITEBACK ACCESS:          0  HIT:          0  MISS:          0
L1I PREFETCH  REQUESTED:          0  ISSUED:          0  USEFUL:          0  USELESS:          0
L2C TOTAL     ACCESS:    7261683  HIT:     269751  MISS:    6991932
L2C LOAD      ACCESS:    7233428  HIT:     244281  MISS:    6989147
L2C RFO       ACCESS:       2787  HIT:          2  MISS:       2785
L2C PREFETCH  ACCESS:          0  HIT:          0  MISS:          0
L2C WRITEBACK ACCESS:      25468  HIT:      25468  MISS:          0
L2C PREFETCH  REQUESTED:          0  ISSUED:          0  USEFUL:          0  USELESS:          0
LLC TOTAL     ACCESS:    7003176  HIT:      12580  MISS:    6990596
LLC LOAD      ACCESS:    6989147  HIT:       1346  MISS:    6987801
LLC RFO       ACCESS:       2785  HIT:          0  MISS:       2785
LLC PREFETCH  ACCESS:          0  HIT:          0  MISS:          0
LLC WRITEBACK ACCESS:      11244  HIT:      11234  MISS:         10
LLC PREFETCH  REQUESTED:          0  ISSUED:          0  USEFUL:          0  USELESS:          0
Major fault: 0 Minor fault: 48145

CPU 6 cumulative IPC: 0.939324 instructions: 100000001 cycles: 106459566
L1D TOTAL     ACCESS:   39836011  HIT:   31884298  MISS:    7951713
L1D LOAD      ACCESS:   31947983  HIT:   24654951  MISS:    7293032
L1D RFO       ACCESS:    7888028  HIT:    7229347  MISS:     658681
L1D PREFETCH  ACCESS:          0  HIT:          0  MISS:          0
L1D WRITEBACK ACCESS:          0  HIT:          0  MISS:          0
L1D PREFETCH  REQUESTED:          0  ISSUED:          0  USEFUL:          0  USELESS:          0
L1I TOTAL     ACCESS:   23372829  HIT:   20489128  MISS:    2883701
L1I LOAD      ACCESS:   23372829  HIT:   20489128  MISS:    2883701
L1I RFO       ACCESS:          0  HIT:          0  MISS:          0
L1I PREFETCH  ACCESS:          0  HIT:          0  MISS:          0
L1I WRITEBACK ACCESS:          0  HIT:          0  MISS:          0
L1I PREFETCH  REQUESTED:          0  ISSUED:          0  USEFUL:          0  USELESS:          0
L2C TOTAL     ACCESS:   11568134  HIT:   10665667  MISS:     902467
L2C LOAD      ACCESS:   10176281  HIT:    9360101  MISS:     816180
L2C RFO       ACCESS:     658286  HIT:     572239  MISS:      86047
L2C PREFETCH  ACCESS:          0  HIT:          0  MISS:          0
L2C WRITEBACK ACCESS:     733567  HIT:     733327  MISS:        240
L2C PREFETCH  REQUESTED:          0  ISSUED:          0  USEFUL:          0  USELESS:          0
LLC TOTAL     ACCESS:     981806  HIT:     714599  MISS:     267207
LLC LOAD      ACCESS:     816176  HIT:     607751  MISS:     208425
LLC RFO       ACCESS:      79162  HIT:      20600  MISS:      58562
LLC PREFETCH  ACCESS:          0  HIT:          0  MISS:          0
LLC WRITEBACK ACCESS:      86468  HIT:      86248  MISS:        220
LLC PREFETCH  REQUESTED:          0  ISSUED:          0  USEFUL:          0  USELESS:          0
Major fault: 0 Minor fault: 34834

CPU 7 cumulative IPC: 0.955311 instructions: 100000001 cycles: 104678003
L1D TOTAL     ACCESS:   18382010  HIT:   16575206  MISS:    1806804
L1D LOAD      ACCESS:   13129476  HIT:   12005300  MISS:    1124176
L1D RFO       ACCESS:    5252534  HIT:    4569906  MISS:     682628
L1D PREFETCH  ACCESS:          0  HIT:          0  MISS:          0
L1D WRITEBACK ACCESS:          0  HIT:          0  MISS:          0
L1D PREFETCH  REQUESTED:          0  ISSUED:          0  USEFUL:          0  USELESS:          0
L1I TOTAL     ACCESS:   23663022  HIT:   23620096  MISS:      42926
L1I LOAD      ACCESS:   23663022  HIT:   23620096  MISS:      42926
L1I RFO       ACCESS:          0  HIT:          0  MISS:          0
L1I PREFETCH  ACCESS:          0  HIT:          0  MISS:          0
L1I WRITEBACK ACCESS:          0  HIT:          0  MISS:          0
L1I PREFETCH  REQUESTED:          0  ISSUED:          0  USEFUL:          0  USELESS:          0
L2C TOTAL     ACCESS:    2687983  HIT:    1875626  MISS:     812357
L2C LOAD      ACCESS:    1167047  HIT:     658021  MISS:     509026
L2C RFO       ACCESS:     682594  HIT:     379809  MISS:     302785
L2C PREFETCH  ACCESS:          0  HIT:          0  MISS:          0
L2C WRITEBACK ACCESS:     838342  HIT:     837796  MISS:        546
L2C PREFETCH  REQUESTED:          0  ISSUED:          0  USEFUL:          0  USELESS:          0
LLC TOTAL     ACCESS:    1220848  HIT:     826550  MISS:     394298
LLC LOAD      ACCESS:     509026  HIT:     295426  MISS:     213600
LLC RFO       ACCESS:     302785  HIT:     124298  MISS:     178487
LLC PREFETCH  ACCESS:          0  HIT:          0  MISS:          0
LLC WRITEBACK ACCESS:     409037  HIT:     406826  MISS:       2211
LLC PREFETCH  REQUESTED:          0  ISSUED:          0  USEFUL:          0  USELESS:          0
Major fault: 0 Minor fault: 44353

DRAM Statistics
 CHANNEL 0
 RQ ROW_BUFFER_HIT:   10130392  ROW_BUFFER_MISS:   12225993
 DBUS_CONGESTED:   28886052
 WQ ROW_BUFFER_HIT:     859353  ROW_BUFFER_MISS:    7604902  FULL:          0

 CHANNEL 1
 RQ ROW_BUFFER_HIT:   10130809  ROW_BUFFER_MISS:   12232649
 DBUS_CONGESTED:   28886052
 WQ ROW_BUFFER_HIT:     863215  ROW_BUFFER_MISS:    7600964  FULL:          0

 AVG_CONGESTED_CYCLE: 13
