
*** ChampSim Multicore Out-of-Order Simulator ***

Warmup Instructions: 20000000
Simulation Instructions: 100000000
Number of CPUs: 8
LLC sets: 16384
LLC ways: 16
Off-chip DRAM Size: 8192 MB Channels: 2 Width: 64-bit Data Rate: 1600 MT/s

CPU 0 runs /scratch/user/djimenez/champsim-traces/speccpu2017/xz/657.xz_s/657.xz_s-2302B.champsimtrace.xz
CPU 1 runs /scratch/user/djimenez/champsim-traces/speccpu2017/xz/649.fotonik3d_s/649.fotonik3d_s-8225B.champsimtrace.xz
CPU 2 runs /scratch/user/djimenez/champsim-traces/speccpu2017/xz/654.roms_s/654.roms_s-1007B.champsimtrace.xz
CPU 3 runs /scratch/user/djimenez/champsim-traces/speccpu2017/xz/605.mcf_s/605.mcf_s-1554B.champsimtrace.xz
CPU 4 runs /scratch/user/djimenez/champsim-traces/speccpu2017/xz/619.lbm_s/619.lbm_s-4268B.champsimtrace.xz
CPU 5 runs /scratch/user/djimenez/champsim-traces/speccpu2017/xz/602.gcc_s/602.gcc_s-2375B.champsimtrace.xz
CPU 6 runs /scratch/user/djimenez/champsim-traces/speccpu2017/xz/603.bwaves_s/603.bwaves_s-891B.champsimtrace.xz
CPU 7 runs /scratch/user/djimenez/champsim-traces/speccpu2017/xz/621.wrf_s/621.wrf_s-8065B.champsimtrace.xz
Heartbeat CPU 6 instructions: 10000003 cycles: 3260275 heartbeat IPC: 3.06723 cumulative IPC: 3.06723 (Simulation time: 0 hr 3 min 31 sec) 
Heartbeat CPU 1 instructions: 10000001 cycles: 4466238 heartbeat IPC: 2.23902 cumulative IPC: 2.23902 (Simulation time: 0 hr 4 min 39 sec) 
Heartbeat CPU 0 instructions: 10000002 cycles: 4470992 heartbeat IPC: 2.23664 cumulative IPC: 2.23664 (Simulation time: 0 hr 4 min 39 sec) 
Heartbeat CPU 7 instructions: 10000003 cycles: 4760280 heartbeat IPC: 2.10072 cumulative IPC: 2.10072 (Simulation time: 0 hr 4 min 58 sec) 
Heartbeat CPU 4 instructions: 10000001 cycles: 4898700 heartbeat IPC: 2.04136 cumulative IPC: 2.04136 (Simulation time: 0 hr 5 min 6 sec) 
Heartbeat CPU 2 instructions: 10000002 cycles: 5118208 heartbeat IPC: 1.95381 cumulative IPC: 1.95381 (Simulation time: 0 hr 5 min 18 sec) 
Heartbeat CPU 3 instructions: 10000001 cycles: 5649178 heartbeat IPC: 1.77017 cumulative IPC: 1.77017 (Simulation time: 0 hr 5 min 47 sec) 
Heartbeat CPU 6 instructions: 20000000 cycles: 6512478 heartbeat IPC: 3.07484 cumulative IPC: 3.07103 (Simulation time: 0 hr 6 min 39 sec) 
Heartbeat CPU 5 instructions: 10000002 cycles: 6837767 heartbeat IPC: 1.46247 cumulative IPC: 1.46247 (Simulation time: 0 hr 6 min 57 sec) 
Heartbeat CPU 0 instructions: 20000000 cycles: 8903305 heartbeat IPC: 2.25616 cumulative IPC: 2.24636 (Simulation time: 0 hr 9 min 8 sec) 
Heartbeat CPU 1 instructions: 20000000 cycles: 8927093 heartbeat IPC: 2.24172 cumulative IPC: 2.24037 (Simulation time: 0 hr 9 min 10 sec) 
Heartbeat CPU 7 instructions: 20000000 cycles: 9266653 heartbeat IPC: 2.21908 cumulative IPC: 2.15828 (Simulation time: 0 hr 9 min 29 sec) 
Heartbeat CPU 6 instructions: 30000003 cycles: 9764622 heartbeat IPC: 3.0749 cumulative IPC: 1.02411 (Simulation time: 0 hr 9 min 57 sec) 
Heartbeat CPU 4 instructions: 20000000 cycles: 9788661 heartbeat IPC: 2.04501 cumulative IPC: 2.04318 (Simulation time: 0 hr 9 min 59 sec) 
Heartbeat CPU 2 instructions: 20000000 cycles: 10235342 heartbeat IPC: 1.95422 cumulative IPC: 1.95401 (Simulation time: 0 hr 10 min 24 sec) 
Heartbeat CPU 3 instructions: 20000000 cycles: 11211466 heartbeat IPC: 1.79782 cumulative IPC: 1.78389 (Simulation time: 0 hr 11 min 23 sec) 
Heartbeat CPU 6 instructions: 40000000 cycles: 13017397 heartbeat IPC: 3.0743 cumulative IPC: 1.53641 (Simulation time: 0 hr 13 min 13 sec) 
Heartbeat CPU 1 instructions: 30000003 cycles: 13388436 heartbeat IPC: 2.24148 cumulative IPC: 0.746913 (Simulation time: 0 hr 13 min 34 sec) 
Heartbeat CPU 5 instructions: 20000000 cycles: 13427416 heartbeat IPC: 1.51753 cumulative IPC: 1.48949 (Simulation time: 0 hr 13 min 37 sec) 

Warmup complete CPU 0 instructions: 29987865 cycles: 13427417 (Simulation time: 0 hr 13 min 37 sec) 
Warmup complete CPU 1 instructions: 30087247 cycles: 13427417 (Simulation time: 0 hr 13 min 37 sec) 
Warmup complete CPU 2 instructions: 26237362 cycles: 13427417 (Simulation time: 0 hr 13 min 37 sec) 
Warmup complete CPU 3 instructions: 24010542 cycles: 13427417 (Simulation time: 0 hr 13 min 37 sec) 
Warmup complete CPU 4 instructions: 27455704 cycles: 13427417 (Simulation time: 0 hr 13 min 37 sec) 
Warmup complete CPU 5 instructions: 20000001 cycles: 13427417 (Simulation time: 0 hr 13 min 37 sec) 
Warmup complete CPU 6 instructions: 41257021 cycles: 13427416 (Simulation time: 0 hr 13 min 37 sec) 
Warmup complete CPU 7 instructions: 29438444 cycles: 13427416 (Simulation time: 0 hr 13 min 37 sec) 

Heartbeat CPU 0 instructions: 30000003 cycles: 13434737 heartbeat IPC: 2.20681 cumulative IPC: 1.6582 (Simulation time: 0 hr 13 min 37 sec) 
Heartbeat CPU 7 instructions: 30000000 cycles: 15248156 heartbeat IPC: 1.67182 cumulative IPC: 0.308422 (Simulation time: 0 hr 14 min 5 sec) 
Heartbeat CPU 2 instructions: 30000000 cycles: 20790761 heartbeat IPC: 0.947381 cumulative IPC: 0.510996 (Simulation time: 0 hr 15 min 38 sec) 
Heartbeat CPU 4 instructions: 30000002 cycles: 20856855 heartbeat IPC: 0.90349 cumulative IPC: 0.342462 (Simulation time: 0 hr 15 min 39 sec) 
Heartbeat CPU 7 instructions: 40000000 cycles: 31151574 heartbeat IPC: 0.628796 cumulative IPC: 0.595885 (Simulation time: 0 hr 18 min 39 sec) 
Heartbeat CPU 3 instructions: 30000003 cycles: 32209038 heartbeat IPC: 0.476246 cumulative IPC: 0.3189 (Simulation time: 0 hr 18 min 58 sec) 
Heartbeat CPU 0 instructions: 40000000 cycles: 32731770 heartbeat IPC: 0.518214 cumulative IPC: 0.518646 (Simulation time: 0 hr 19 min 7 sec) 
Heartbeat CPU 2 instructions: 40000000 cycles: 40153994 heartbeat IPC: 0.516443 cumulative IPC: 0.514942 (Simulation time: 0 hr 21 min 11 sec) 
Heartbeat CPU 6 instructions: 50000001 cycles: 43331928 heartbeat IPC: 0.329875 cumulative IPC: 0.292363 (Simulation time: 0 hr 22 min 3 sec) 
Heartbeat CPU 1 instructions: 40000000 cycles: 45835752 heartbeat IPC: 0.308192 cumulative IPC: 0.30587 (Simulation time: 0 hr 22 min 46 sec) 
Heartbeat CPU 5 instructions: 30000001 cycles: 47156643 heartbeat IPC: 0.296479 cumulative IPC: 0.296479 (Simulation time: 0 hr 23 min 7 sec) 
Heartbeat CPU 4 instructions: 40000000 cycles: 48319999 heartbeat IPC: 0.364124 cumulative IPC: 0.359512 (Simulation time: 0 hr 23 min 25 sec) 
Heartbeat CPU 0 instructions: 50000003 cycles: 52147067 heartbeat IPC: 0.515058 cumulative IPC: 0.516847 (Simulation time: 0 hr 24 min 22 sec) 
Heartbeat CPU 7 instructions: 50000002 cycles: 52233850 heartbeat IPC: 0.474332 cumulative IPC: 0.529849 (Simulation time: 0 hr 24 min 23 sec) 
Heartbeat CPU 3 instructions: 40000000 cycles: 63833947 heartbeat IPC: 0.316206 cumulative IPC: 0.31721 (Simulation time: 0 hr 27 min 12 sec) 
Heartbeat CPU 7 instructions: 60000000 cycles: 71197702 heartbeat IPC: 0.527319 cumulative IPC: 0.529019 (Simulation time: 0 hr 29 min 3 sec) 
Heartbeat CPU 0 instructions: 60000000 cycles: 72876554 heartbeat IPC: 0.482404 cumulative IPC: 0.504837 (Simulation time: 0 hr 29 min 29 sec) 
Heartbeat CPU 2 instructions: 50000003 cycles: 75741514 heartbeat IPC: 0.280997 cumulative IPC: 0.381337 (Simulation time: 0 hr 30 min 13 sec) 
Heartbeat CPU 6 instructions: 60000000 cycles: 76895540 heartbeat IPC: 0.297942 cumulative IPC: 0.295313 (Simulation time: 0 hr 30 min 30 sec) 
Heartbeat CPU 4 instructions: 50000000 cycles: 77568048 heartbeat IPC: 0.341903 cumulative IPC: 0.351482 (Simulation time: 0 hr 30 min 40 sec) 
Heartbeat CPU 1 instructions: 50000000 cycles: 79865135 heartbeat IPC: 0.293864 cumulative IPC: 0.299721 (Simulation time: 0 hr 31 min 14 sec) 
Heartbeat CPU 5 instructions: 40000000 cycles: 80009793 heartbeat IPC: 0.304385 cumulative IPC: 0.30038 (Simulation time: 0 hr 31 min 17 sec) 
Heartbeat CPU 0 instructions: 70000002 cycles: 91700713 heartbeat IPC: 0.531232 cumulative IPC: 0.511185 (Simulation time: 0 hr 34 min 11 sec) 
Heartbeat CPU 7 instructions: 70000000 cycles: 92535135 heartbeat IPC: 0.46866 cumulative IPC: 0.512738 (Simulation time: 0 hr 34 min 24 sec) 
Heartbeat CPU 3 instructions: 50000000 cycles: 95688525 heartbeat IPC: 0.313927 cumulative IPC: 0.315939 (Simulation time: 0 hr 35 min 9 sec) 
Heartbeat CPU 5 instructions: 50000000 cycles: 106214439 heartbeat IPC: 0.381612 cumulative IPC: 0.323321 (Simulation time: 0 hr 38 min 2 sec) 
Heartbeat CPU 4 instructions: 60000000 cycles: 106490325 heartbeat IPC: 0.345754 cumulative IPC: 0.349702 (Simulation time: 0 hr 38 min 7 sec) 
Heartbeat CPU 6 instructions: 70000002 cycles: 109550472 heartbeat IPC: 0.306233 cumulative IPC: 0.299023 (Simulation time: 0 hr 38 min 57 sec) 
Heartbeat CPU 2 instructions: 60000000 cycles: 109866826 heartbeat IPC: 0.293038 cumulative IPC: 0.350092 (Simulation time: 0 hr 39 min 2 sec) 
Heartbeat CPU 7 instructions: 80000000 cycles: 110864301 heartbeat IPC: 0.545579 cumulative IPC: 0.518916 (Simulation time: 0 hr 39 min 17 sec) 
Heartbeat CPU 0 instructions: 80000000 cycles: 111413493 heartbeat IPC: 0.507285 cumulative IPC: 0.5104 (Simulation time: 0 hr 39 min 26 sec) 
Heartbeat CPU 1 instructions: 60000000 cycles: 112918150 heartbeat IPC: 0.302544 cumulative IPC: 0.300659 (Simulation time: 0 hr 39 min 52 sec) 
Heartbeat CPU 3 instructions: 60000000 cycles: 126621536 heartbeat IPC: 0.323279 cumulative IPC: 0.317945 (Simulation time: 0 hr 43 min 36 sec) 
Heartbeat CPU 2 instructions: 70000003 cycles: 129323854 heartbeat IPC: 0.513953 cumulative IPC: 0.377601 (Simulation time: 0 hr 44 min 21 sec) 
Heartbeat CPU 5 instructions: 60000000 cycles: 129543272 heartbeat IPC: 0.428654 cumulative IPC: 0.344484 (Simulation time: 0 hr 44 min 24 sec) 
Heartbeat CPU 7 instructions: 90000003 cycles: 130124698 heartbeat IPC: 0.5192 cumulative IPC: 0.518963 (Simulation time: 0 hr 44 min 33 sec) 
Heartbeat CPU 0 instructions: 90000001 cycles: 131017609 heartbeat IPC: 0.510097 cumulative IPC: 0.51035 (Simulation time: 0 hr 44 min 47 sec) 
Heartbeat CPU 4 instructions: 70000003 cycles: 133832631 heartbeat IPC: 0.365734 cumulative IPC: 0.353343 (Simulation time: 0 hr 45 min 32 sec) 
Heartbeat CPU 6 instructions: 80000000 cycles: 141039707 heartbeat IPC: 0.317569 cumulative IPC: 0.303599 (Simulation time: 0 hr 47 min 32 sec) 
Heartbeat CPU 1 instructions: 70000002 cycles: 145154990 heartbeat IPC: 0.310204 cumulative IPC: 0.302995 (Simulation time: 0 hr 48 min 42 sec) 
Heartbeat CPU 2 instructions: 80000000 cycles: 148972142 heartbeat IPC: 0.50895 cumulative IPC: 0.396641 (Simulation time: 0 hr 49 min 48 sec) 
Heartbeat CPU 7 instructions: 100000000 cycles: 149334333 heartbeat IPC: 0.520572 cumulative IPC: 0.51919 (Simulation time: 0 hr 49 min 54 sec) 
Heartbeat CPU 0 instructions: 100000000 cycles: 149368881 heartbeat IPC: 0.544921 cumulative IPC: 0.515017 (Simulation time: 0 hr 49 min 54 sec) 
Heartbeat CPU 3 instructions: 70000001 cycles: 158253497 heartbeat IPC: 0.316136 cumulative IPC: 0.31755 (Simulation time: 0 hr 52 min 21 sec) 
Heartbeat CPU 4 instructions: 80000000 cycles: 161485379 heartbeat IPC: 0.361628 cumulative IPC: 0.35489 (Simulation time: 0 hr 53 min 15 sec) 
Heartbeat CPU 5 instructions: 70000000 cycles: 165229994 heartbeat IPC: 0.280216 cumulative IPC: 0.329375 (Simulation time: 0 hr 54 min 17 sec) 
Heartbeat CPU 2 instructions: 90000003 cycles: 168573780 heartbeat IPC: 0.510162 cumulative IPC: 0.410984 (Simulation time: 0 hr 55 min 11 sec) 
Heartbeat CPU 7 instructions: 110000000 cycles: 168956326 heartbeat IPC: 0.509632 cumulative IPC: 0.517984 (Simulation time: 0 hr 55 min 18 sec) 
Heartbeat CPU 0 instructions: 110000002 cycles: 168971513 heartbeat IPC: 0.510136 cumulative IPC: 0.514402 (Simulation time: 0 hr 55 min 18 sec) 
Heartbeat CPU 6 instructions: 90000000 cycles: 172909228 heartbeat IPC: 0.313779 cumulative IPC: 0.305633 (Simulation time: 0 hr 56 min 24 sec) 
Heartbeat CPU 1 instructions: 80000000 cycles: 177411082 heartbeat IPC: 0.310019 cumulative IPC: 0.304376 (Simulation time: 0 hr 57 min 36 sec) 
Heartbeat CPU 2 instructions: 100000000 cycles: 188242756 heartbeat IPC: 0.508415 cumulative IPC: 0.421946 (Simulation time: 1 hr 0 min 50 sec) 
Heartbeat CPU 5 instructions: 80000000 cycles: 188781418 heartbeat IPC: 0.424603 cumulative IPC: 0.342165 (Simulation time: 1 hr 1 min 2 sec) 
Heartbeat CPU 4 instructions: 90000000 cycles: 188889915 heartbeat IPC: 0.364903 cumulative IPC: 0.356454 (Simulation time: 1 hr 1 min 5 sec) 
Heartbeat CPU 0 instructions: 120000000 cycles: 189236684 heartbeat IPC: 0.493457 cumulative IPC: 0.511987 (Simulation time: 1 hr 1 min 11 sec) 
Heartbeat CPU 7 instructions: 120000000 cycles: 190281132 heartbeat IPC: 0.468937 cumulative IPC: 0.51207 (Simulation time: 1 hr 1 min 30 sec) 
Heartbeat CPU 3 instructions: 80000000 cycles: 190503175 heartbeat IPC: 0.310081 cumulative IPC: 0.316189 (Simulation time: 1 hr 1 min 34 sec) 
Heartbeat CPU 6 instructions: 100000000 cycles: 203910699 heartbeat IPC: 0.322565 cumulative IPC: 0.308389 (Simulation time: 1 hr 5 min 45 sec) 
Finished CPU 7 instructions: 100000001 cycles: 191884313 cumulative IPC: 0.521147 (Simulation time: 1 hr 6 min 10 sec) 
Heartbeat CPU 7 instructions: 130000000 cycles: 206202853 heartbeat IPC: 0.628073 cumulative IPC: 0.521651 (Simulation time: 1 hr 6 min 27 sec) 
Heartbeat CPU 2 instructions: 110000002 cycles: 207792297 heartbeat IPC: 0.511521 cumulative IPC: 0.430956 (Simulation time: 1 hr 6 min 55 sec) 
Heartbeat CPU 1 instructions: 90000000 cycles: 208483374 heartbeat IPC: 0.32183 cumulative IPC: 0.307157 (Simulation time: 1 hr 7 min 6 sec) 
Finished CPU 0 instructions: 100000003 cycles: 195453080 cumulative IPC: 0.511632 (Simulation time: 1 hr 7 min 13 sec) 
Heartbeat CPU 0 instructions: 130000000 cycles: 208920263 heartbeat IPC: 0.508038 cumulative IPC: 0.51159 (Simulation time: 1 hr 7 min 14 sec) 
Heartbeat CPU 5 instructions: 90000003 cycles: 209251260 heartbeat IPC: 0.488524 cumulative IPC: 0.357464 (Simulation time: 1 hr 7 min 19 sec) 
Heartbeat CPU 4 instructions: 100000000 cycles: 215380118 heartbeat IPC: 0.377498 cumulative IPC: 0.359214 (Simulation time: 1 hr 9 min 4 sec) 
Heartbeat CPU 3 instructions: 90000003 cycles: 221479610 heartbeat IPC: 0.322826 cumulative IPC: 0.317177 (Simulation time: 1 hr 10 min 50 sec) 
Heartbeat CPU 7 instructions: 140000000 cycles: 222125274 heartbeat IPC: 0.628045 cumulative IPC: 0.529769 (Simulation time: 1 hr 11 min 2 sec) 
Heartbeat CPU 0 instructions: 140000000 cycles: 225523259 heartbeat IPC: 0.602301 cumulative IPC: 0.518691 (Simulation time: 1 hr 11 min 54 sec) 
Heartbeat CPU 2 instructions: 120000000 cycles: 234022083 heartbeat IPC: 0.381246 cumulative IPC: 0.425045 (Simulation time: 1 hr 14 min 9 sec) 
Heartbeat CPU 6 instructions: 110000002 cycles: 235409868 heartbeat IPC: 0.317469 cumulative IPC: 0.309678 (Simulation time: 1 hr 14 min 32 sec) 
Heartbeat CPU 7 instructions: 150000001 cycles: 240879111 heartbeat IPC: 0.533224 cumulative IPC: 0.530053 (Simulation time: 1 hr 15 min 50 sec) 
Heartbeat CPU 1 instructions: 100000000 cycles: 241398432 heartbeat IPC: 0.303812 cumulative IPC: 0.306674 (Simulation time: 1 hr 15 min 56 sec) 
Heartbeat CPU 5 instructions: 100000000 cycles: 241509451 heartbeat IPC: 0.309999 cumulative IPC: 0.350751 (Simulation time: 1 hr 15 min 58 sec) 
Heartbeat CPU 4 instructions: 110000002 cycles: 244041852 heartbeat IPC: 0.348897 cumulative IPC: 0.357932 (Simulation time: 1 hr 16 min 32 sec) 
Heartbeat CPU 0 instructions: 150000000 cycles: 246634469 heartbeat IPC: 0.473682 cumulative IPC: 0.514616 (Simulation time: 1 hr 17 min 15 sec) 
Heartbeat CPU 3 instructions: 100000000 cycles: 252666574 heartbeat IPC: 0.320647 cumulative IPC: 0.31763 (Simulation time: 1 hr 18 min 48 sec) 
Finished CPU 2 instructions: 100000001 cycles: 250012866 cumulative IPC: 0.399979 (Simulation time: 1 hr 21 min 39 sec) 
Heartbeat CPU 0 instructions: 160000000 cycles: 267744928 heartbeat IPC: 0.473699 cumulative IPC: 0.51122 (Simulation time: 1 hr 22 min 48 sec) 
Heartbeat CPU 6 instructions: 120000000 cycles: 269264819 heartbeat IPC: 0.295378 cumulative IPC: 0.307785 (Simulation time: 1 hr 23 min 12 sec) 
Heartbeat CPU 7 instructions: 160000000 cycles: 270670889 heartbeat IPC: 0.335663 cumulative IPC: 0.507541 (Simulation time: 1 hr 23 min 35 sec) 
Heartbeat CPU 5 instructions: 110000000 cycles: 271418508 heartbeat IPC: 0.334347 cumulative IPC: 0.348849 (Simulation time: 1 hr 23 min 45 sec) 
Heartbeat CPU 4 instructions: 120000000 cycles: 273040151 heartbeat IPC: 0.344848 cumulative IPC: 0.356471 (Simulation time: 1 hr 24 min 11 sec) 
Heartbeat CPU 1 instructions: 110000002 cycles: 275312661 heartbeat IPC: 0.294862 cumulative IPC: 0.305144 (Simulation time: 1 hr 24 min 53 sec) 
Heartbeat CPU 2 instructions: 130000003 cycles: 277060887 heartbeat IPC: 0.232349 cumulative IPC: 0.393587 (Simulation time: 1 hr 25 min 24 sec) 
Heartbeat CPU 0 instructions: 170000003 cycles: 283320240 heartbeat IPC: 0.642042 cumulative IPC: 0.518769 (Simulation time: 1 hr 27 min 7 sec) 
Heartbeat CPU 3 instructions: 110000000 cycles: 283652506 heartbeat IPC: 0.322727 cumulative IPC: 0.318214 (Simulation time: 1 hr 27 min 13 sec) 
Finished CPU 4 instructions: 100000003 cycles: 280817344 cumulative IPC: 0.356103 (Simulation time: 1 hr 30 min 19 sec) 
Heartbeat CPU 7 instructions: 170000002 cycles: 295271559 heartbeat IPC: 0.406493 cumulative IPC: 0.498721 (Simulation time: 1 hr 30 min 37 sec) 
Heartbeat CPU 0 instructions: 180000000 cycles: 296379892 heartbeat IPC: 0.765717 cumulative IPC: 0.530167 (Simulation time: 1 hr 30 min 57 sec) 
Heartbeat CPU 2 instructions: 140000000 cycles: 296896602 heartbeat IPC: 0.504141 cumulative IPC: 0.401323 (Simulation time: 1 hr 31 min 7 sec) 
Heartbeat CPU 4 instructions: 130000000 cycles: 301085370 heartbeat IPC: 0.356567 cumulative IPC: 0.35648 (Simulation time: 1 hr 32 min 25 sec) 
Heartbeat CPU 6 instructions: 130000003 cycles: 301763535 heartbeat IPC: 0.307705 cumulative IPC: 0.307776 (Simulation time: 1 hr 32 min 38 sec) 
Heartbeat CPU 1 instructions: 120000000 cycles: 308071888 heartbeat IPC: 0.305257 cumulative IPC: 0.305157 (Simulation time: 1 hr 34 min 29 sec) 
Heartbeat CPU 0 instructions: 190000001 cycles: 309034932 heartbeat IPC: 0.790199 cumulative IPC: 0.541299 (Simulation time: 1 hr 34 min 46 sec) 
Heartbeat CPU 5 instructions: 120000000 cycles: 310295550 heartbeat IPC: 0.257221 cumulative IPC: 0.33685 (Simulation time: 1 hr 35 min 9 sec) 
Finished CPU 5 instructions: 100000001 cycles: 296868141 cumulative IPC: 0.33685 (Simulation time: 1 hr 35 min 9 sec) 
Heartbeat CPU 7 instructions: 180000000 cycles: 312859962 heartbeat IPC: 0.568556 cumulative IPC: 0.502823 (Simulation time: 1 hr 35 min 52 sec) 
Heartbeat CPU 3 instructions: 120000000 cycles: 312921938 heartbeat IPC: 0.341653 cumulative IPC: 0.320505 (Simulation time: 1 hr 35 min 53 sec) 
Heartbeat CPU 2 instructions: 150000000 cycles: 316443647 heartbeat IPC: 0.511586 cumulative IPC: 0.408436 (Simulation time: 1 hr 36 min 57 sec) 
Heartbeat CPU 0 instructions: 200000000 cycles: 321942881 heartbeat IPC: 0.774716 cumulative IPC: 0.551065 (Simulation time: 1 hr 38 min 37 sec) 
Finished CPU 3 instructions: 100000000 cycles: 311410942 cumulative IPC: 0.321119 (Simulation time: 1 hr 39 min 29 sec) 
Heartbeat CPU 4 instructions: 140000000 cycles: 327643551 heartbeat IPC: 0.376532 cumulative IPC: 0.358175 (Simulation time: 1 hr 40 min 18 sec) 
Heartbeat CPU 7 instructions: 190000001 cycles: 328629429 heartbeat IPC: 0.634137 cumulative IPC: 0.509393 (Simulation time: 1 hr 40 min 36 sec) 
Heartbeat CPU 6 instructions: 140000000 cycles: 332323257 heartbeat IPC: 0.327228 cumulative IPC: 0.30964 (Simulation time: 1 hr 41 min 38 sec) 
Heartbeat CPU 0 instructions: 210000003 cycles: 335016399 heartbeat IPC: 0.764905 cumulative IPC: 0.559758 (Simulation time: 1 hr 42 min 22 sec) 
Heartbeat CPU 2 instructions: 160000000 cycles: 336041781 heartbeat IPC: 0.510253 cumulative IPC: 0.414621 (Simulation time: 1 hr 42 min 40 sec) 
Finished CPU 6 instructions: 100000001 cycles: 322771368 cumulative IPC: 0.309817 (Simulation time: 1 hr 42 min 43 sec) 
Heartbeat CPU 1 instructions: 130000000 cycles: 339184469 heartbeat IPC: 0.321413 cumulative IPC: 0.306709 (Simulation time: 1 hr 43 min 38 sec) 
Finished CPU 1 instructions: 100000002 cycles: 326040725 cumulative IPC: 0.30671 (Simulation time: 1 hr 43 min 42 sec) 

CPU 0 Branch Prediction Accuracy: 90.1196% MPKI: 11.6911

CPU 1 Branch Prediction Accuracy: 99.975% MPKI: 0.00397866

CPU 2 Branch Prediction Accuracy: 99.9623% MPKI: 0.0280202

CPU 3 Branch Prediction Accuracy: 97.9276% MPKI: 3.62996

CPU 4 Branch Prediction Accuracy: 97.1171% MPKI: 0.485988

CPU 5 Branch Prediction Accuracy: 93.6935% MPKI: 11.4564

CPU 6 Branch Prediction Accuracy: 99.8669% MPKI: 0.190557

CPU 7 Branch Prediction Accuracy: 99.3476% MPKI: 0.337594

ChampSim completed all CPUs

Total Simulation Statistics (not including warmup)

CPU 0 cumulative IPC: 0.562293 instructions: 183330477 cycles: 326040725
L1D TOTAL     ACCESS:   42222418  HIT:   40995762  MISS:    1226656
L1D LOAD      ACCESS:   27127100  HIT:   26058786  MISS:    1068314
L1D RFO       ACCESS:   15095318  HIT:   14936976  MISS:     158342
L1D PREFETCH  ACCESS:          0  HIT:          0  MISS:          0
L1D WRITEBACK ACCESS:          0  HIT:          0  MISS:          0
L1I TOTAL     ACCESS:   36050172  HIT:   36049804  MISS:        368
L1I LOAD      ACCESS:   36050172  HIT:   36049804  MISS:        368
L1I RFO       ACCESS:          0  HIT:          0  MISS:          0
L1I PREFETCH  ACCESS:          0  HIT:          0  MISS:          0
L1I WRITEBACK ACCESS:          0  HIT:          0  MISS:          0
L2C TOTAL     ACCESS:    2028062  HIT:    1356007  MISS:     672055
L2C LOAD      ACCESS:    1068655  HIT:     458628  MISS:     610027
L2C RFO       ACCESS:     158284  HIT:      98627  MISS:      59657
L2C PREFETCH  ACCESS:          0  HIT:          0  MISS:          0
L2C WRITEBACK ACCESS:     801123  HIT:     798752  MISS:       2371
LLC TOTAL     ACCESS:    1134389  HIT:     660439  MISS:     473950
LLC LOAD      ACCESS:     610026  HIT:     190712  MISS:     419314
LLC RFO       ACCESS:      59656  HIT:      20366  MISS:      39290
LLC PREFETCH  ACCESS:          0  HIT:          0  MISS:          0
LLC WRITEBACK ACCESS:     464707  HIT:     449361  MISS:      15346

CPU 1 cumulative IPC: 0.30671 instructions: 100000002 cycles: 326040725
L1D TOTAL     ACCESS:   20607996  HIT:   19284623  MISS:    1323373
L1D LOAD      ACCESS:   13590589  HIT:   12268534  MISS:    1322055
L1D RFO       ACCESS:    7017407  HIT:    7016089  MISS:       1318
L1D PREFETCH  ACCESS:          0  HIT:          0  MISS:          0
L1D WRITEBACK ACCESS:          0  HIT:          0  MISS:          0
L1I TOTAL     ACCESS:   19962772  HIT:   19962772  MISS:          0
L1I LOAD      ACCESS:   19962772  HIT:   19962772  MISS:          0
L1I RFO       ACCESS:          0  HIT:          0  MISS:          0
L1I PREFETCH  ACCESS:          0  HIT:          0  MISS:          0
L1I WRITEBACK ACCESS:          0  HIT:          0  MISS:          0
L2C TOTAL     ACCESS:    2202082  HIT:     929415  MISS:    1272667
L2C LOAD      ACCESS:    1322055  HIT:      50474  MISS:    1271581
L2C RFO       ACCESS:       1318  HIT:        232  MISS:       1086
L2C PREFETCH  ACCESS:          0  HIT:          0  MISS:          0
L2C WRITEBACK ACCESS:     878709  HIT:     878709  MISS:          0
LLC TOTAL     ACCESS:    2150645  HIT:    1271161  MISS:     879484
LLC LOAD      ACCESS:    1271581  HIT:     392124  MISS:     879457
LLC RFO       ACCESS:       1086  HIT:       1086  MISS:          0
LLC PREFETCH  ACCESS:          0  HIT:          0  MISS:          0
LLC WRITEBACK ACCESS:     877978  HIT:     877951  MISS:         27

CPU 2 cumulative IPC: 0.415646 instructions: 135517662 cycles: 326040725
L1D TOTAL     ACCESS:   40230876  HIT:   39275934  MISS:     954942
L1D LOAD      ACCESS:   25233464  HIT:   24604694  MISS:     628770
L1D RFO       ACCESS:   14997412  HIT:   14671240  MISS:     326172
L1D PREFETCH  ACCESS:          0  HIT:          0  MISS:          0
L1D WRITEBACK ACCESS:          0  HIT:          0  MISS:          0
L1I TOTAL     ACCESS:   52916407  HIT:   52916344  MISS:         63
L1I LOAD      ACCESS:   52916407  HIT:   52916344  MISS:         63
L1I RFO       ACCESS:          0  HIT:          0  MISS:          0
L1I PREFETCH  ACCESS:          0  HIT:          0  MISS:          0
L1I WRITEBACK ACCESS:          0  HIT:          0  MISS:          0
L2C TOTAL     ACCESS:    1283239  HIT:     333987  MISS:     949252
L2C LOAD      ACCESS:     628833  HIT:       6156  MISS:     622677
L2C RFO       ACCESS:     326172  HIT:          0  MISS:     326172
L2C PREFETCH  ACCESS:          0  HIT:          0  MISS:          0
L2C WRITEBACK ACCESS:     328234  HIT:     327831  MISS:        403
LLC TOTAL     ACCESS:    1275096  HIT:     298253  MISS:     976843
LLC LOAD      ACCESS:     622677  HIT:          9  MISS:     622668
LLC RFO       ACCESS:     326172  HIT:          0  MISS:     326172
LLC PREFETCH  ACCESS:          0  HIT:          0  MISS:          0
LLC WRITEBACK ACCESS:     326247  HIT:     298244  MISS:      28003

CPU 3 cumulative IPC: 0.321546 instructions: 104837229 cycles: 326040725
L1D TOTAL     ACCESS:   41057458  HIT:   24959135  MISS:   16098323
L1D LOAD      ACCESS:   34282699  HIT:   18484608  MISS:   15798091
L1D RFO       ACCESS:    6774759  HIT:    6474527  MISS:     300232
L1D PREFETCH  ACCESS:          0  HIT:          0  MISS:          0
L1D WRITEBACK ACCESS:          0  HIT:          0  MISS:          0
L1I TOTAL     ACCESS:   37825391  HIT:   37825391  MISS:          0
L1I LOAD      ACCESS:   37825391  HIT:   37825391  MISS:          0
L1I RFO       ACCESS:          0  HIT:          0  MISS:          0
L1I PREFETCH  ACCESS:          0  HIT:          0  MISS:          0
L1I WRITEBACK ACCESS:          0  HIT:          0  MISS:          0
L2C TOTAL     ACCESS:   16473495  HIT:     377247  MISS:   16096248
L2C LOAD      ACCESS:   15798089  HIT:       2425  MISS:   15795664
L2C RFO       ACCESS:     300232  HIT:        633  MISS:     299599
L2C PREFETCH  ACCESS:          0  HIT:          0  MISS:          0
L2C WRITEBACK ACCESS:     375174  HIT:     374189  MISS:        985
LLC TOTAL     ACCESS:   16468611  HIT:   15999123  MISS:     469488
LLC LOAD      ACCESS:   15795664  HIT:   15623919  MISS:     171745
LLC RFO       ACCESS:     299599  HIT:       1930  MISS:     297669
LLC PREFETCH  ACCESS:          0  HIT:          0  MISS:          0
LLC WRITEBACK ACCESS:     373348  HIT:     373274  MISS:         74

CPU 4 cumulative IPC: 0.358636 instructions: 116930073 cycles: 326040725
L1D TOTAL     ACCESS:   33194821  HIT:   24022385  MISS:    9172436
L1D LOAD      ACCESS:   11736937  HIT:   10344792  MISS:    1392145
L1D RFO       ACCESS:   21457884  HIT:   13677593  MISS:    7780291
L1D PREFETCH  ACCESS:          0  HIT:          0  MISS:          0
L1D WRITEBACK ACCESS:          0  HIT:          0  MISS:          0
L1I TOTAL     ACCESS:   28057481  HIT:   28057481  MISS:          0
L1I LOAD      ACCESS:   28057481  HIT:   28057481  MISS:          0
L1I RFO       ACCESS:          0  HIT:          0  MISS:          0
L1I PREFETCH  ACCESS:          0  HIT:          0  MISS:          0
L1I WRITEBACK ACCESS:          0  HIT:          0  MISS:          0
L2C TOTAL     ACCESS:   16952660  HIT:   10053020  MISS:    6899640
L2C LOAD      ACCESS:    1392145  HIT:       1736  MISS:    1390409
L2C RFO       ACCESS:    7780227  HIT:    2273507  MISS:    5506720
L2C PREFETCH  ACCESS:          0  HIT:          0  MISS:          0
L2C WRITEBACK ACCESS:    7780288  HIT:    7777777  MISS:       2511
LLC TOTAL     ACCESS:   12403006  HIT:    6848548  MISS:    5554458
LLC LOAD      ACCESS:    1390409  HIT:       1864  MISS:    1388545
LLC RFO       ACCESS:    5503498  HIT:    1337863  MISS:    4165635
LLC PREFETCH  ACCESS:          0  HIT:          0  MISS:          0
LLC WRITEBACK ACCESS:    5509099  HIT:    5508821  MISS:        278

CPU 5 cumulative IPC: 0.334402 instructions: 109028640 cycles: 326040725
L1D TOTAL     ACCESS:   34603109  HIT:   33470447  MISS:    1132662
L1D LOAD      ACCESS:   21497935  HIT:   20477647  MISS:    1020288
L1D RFO       ACCESS:   13105174  HIT:   12992800  MISS:     112374
L1D PREFETCH  ACCESS:          0  HIT:          0  MISS:          0
L1D WRITEBACK ACCESS:          0  HIT:          0  MISS:          0
L1I TOTAL     ACCESS:   29436365  HIT:   29058453  MISS:     377912
L1I LOAD      ACCESS:   29436365  HIT:   29058453  MISS:     377912
L1I RFO       ACCESS:          0  HIT:          0  MISS:          0
L1I PREFETCH  ACCESS:          0  HIT:          0  MISS:          0
L1I WRITEBACK ACCESS:          0  HIT:          0  MISS:          0
L2C TOTAL     ACCESS:    1771866  HIT:    1143114  MISS:     628752
L2C LOAD      ACCESS:    1398193  HIT:     850673  MISS:     547520
L2C RFO       ACCESS:     112369  HIT:      33046  MISS:      79323
L2C PREFETCH  ACCESS:          0  HIT:          0  MISS:          0
L2C WRITEBACK ACCESS:     261304  HIT:     259395  MISS:       1909
LLC TOTAL     ACCESS:     788676  HIT:     438129  MISS:     350547
LLC LOAD      ACCESS:     547519  HIT:     277440  MISS:     270079
LLC RFO       ACCESS:      79322  HIT:      13148  MISS:      66174
LLC PREFETCH  ACCESS:          0  HIT:          0  MISS:          0
LLC WRITEBACK ACCESS:     161835  HIT:     147541  MISS:      14294

CPU 6 cumulative IPC: 0.310005 instructions: 101074123 cycles: 326040726
L1D TOTAL     ACCESS:    8336183  HIT:    6740803  MISS:    1595380
L1D LOAD      ACCESS:    5746045  HIT:    4150666  MISS:    1595379
L1D RFO       ACCESS:    2590138  HIT:    2590137  MISS:          1
L1D PREFETCH  ACCESS:          0  HIT:          0  MISS:          0
L1D WRITEBACK ACCESS:          0  HIT:          0  MISS:          0
L1I TOTAL     ACCESS:   22502137  HIT:   22502133  MISS:          4
L1I LOAD      ACCESS:   22502137  HIT:   22502133  MISS:          4
L1I RFO       ACCESS:          0  HIT:          0  MISS:          0
L1I PREFETCH  ACCESS:          0  HIT:          0  MISS:          0
L1I WRITEBACK ACCESS:          0  HIT:          0  MISS:          0
L2C TOTAL     ACCESS:    1618874  HIT:      23498  MISS:    1595376
L2C LOAD      ACCESS:    1595383  HIT:         27  MISS:    1595356
L2C RFO       ACCESS:          1  HIT:          0  MISS:          1
L2C PREFETCH  ACCESS:          0  HIT:          0  MISS:          0
L2C WRITEBACK ACCESS:      23490  HIT:      23471  MISS:         19
LLC TOTAL     ACCESS:    1620571  HIT:      25585  MISS:    1594986
LLC LOAD      ACCESS:    1595356  HIT:        374  MISS:    1594982
LLC RFO       ACCESS:          1  HIT:          0  MISS:          1
LLC PREFETCH  ACCESS:          0  HIT:          0  MISS:          0
LLC WRITEBACK ACCESS:      25214  HIT:      25211  MISS:          3

CPU 7 cumulative IPC: 0.50883 instructions: 165899265 cycles: 326040726
L1D TOTAL     ACCESS:   37983849  HIT:   35813293  MISS:    2170556
L1D LOAD      ACCESS:   31894688  HIT:   30207265  MISS:    1687423
L1D RFO       ACCESS:    6089161  HIT:    5606028  MISS:     483133
L1D PREFETCH  ACCESS:          0  HIT:          0  MISS:          0
L1D WRITEBACK ACCESS:          0  HIT:          0  MISS:          0
L1I TOTAL     ACCESS:   47593433  HIT:   47589665  MISS:       3768
L1I LOAD      ACCESS:   47593433  HIT:   47589665  MISS:       3768
L1I RFO       ACCESS:          0  HIT:          0  MISS:          0
L1I PREFETCH  ACCESS:          0  HIT:          0  MISS:          0
L1I WRITEBACK ACCESS:          0  HIT:          0  MISS:          0
L2C TOTAL     ACCESS:    3013180  HIT:    1465325  MISS:    1547855
L2C LOAD      ACCESS:    1691159  HIT:     573556  MISS:    1117603
L2C RFO       ACCESS:     483127  HIT:      55478  MISS:     427649
L2C PREFETCH  ACCESS:          0  HIT:          0  MISS:          0
L2C WRITEBACK ACCESS:     838894  HIT:     836291  MISS:       2603
LLC TOTAL     ACCESS:    2295699  HIT:     972015  MISS:    1323684
LLC LOAD      ACCESS:    1117603  HIT:     168016  MISS:     949587
LLC RFO       ACCESS:     427649  HIT:      57323  MISS:     370326
LLC PREFETCH  ACCESS:          0  HIT:          0  MISS:          0
LLC WRITEBACK ACCESS:     750447  HIT:     746676  MISS:       3771

Region of Interest Statistics

CPU 0 cumulative IPC: 0.511632 instructions: 100000003 cycles: 195453080
L1D TOTAL     ACCESS:   22069860  HIT:   21292834  MISS:     777026
L1D LOAD      ACCESS:   14564992  HIT:   13885034  MISS:     679958
L1D RFO       ACCESS:    7504868  HIT:    7407800  MISS:      97068
L1D PREFETCH  ACCESS:          0  HIT:          0  MISS:          0
L1D WRITEBACK ACCESS:          0  HIT:          0  MISS:          0
L1D PREFETCH  REQUESTED:          0  ISSUED:          0  USEFUL:          0  USELESS:          0
L1I TOTAL     ACCESS:   19486435  HIT:   19486236  MISS:        199
L1I LOAD      ACCESS:   19486435  HIT:   19486236  MISS:        199
L1I RFO       ACCESS:          0  HIT:          0  MISS:          0
L1I PREFETCH  ACCESS:          0  HIT:          0  MISS:          0
L1I WRITEBACK ACCESS:          0  HIT:          0  MISS:          0
L1I PREFETCH  REQUESTED:          0  ISSUED:          0  USEFUL:          0  USELESS:          0
L2C TOTAL     ACCESS:    1271387  HIT:     821240  MISS:     450147
L2C LOAD      ACCESS:     680140  HIT:     267517  MISS:     412623
L2C RFO       ACCESS:      97027  HIT:      61012  MISS:      36015
L2C PREFETCH  ACCESS:          0  HIT:          0  MISS:          0
L2C WRITEBACK ACCESS:     494220  HIT:     492711  MISS:       1509
L2C PREFETCH  REQUESTED:          0  ISSUED:          0  USEFUL:          0  USELESS:          0
LLC TOTAL     ACCESS:     755468  HIT:     444907  MISS:     310561
LLC LOAD      ACCESS:     412622  HIT:     130694  MISS:     281928
LLC RFO       ACCESS:      36014  HIT:      13181  MISS:      22833
LLC PREFETCH  ACCESS:          0  HIT:          0  MISS:          0
LLC WRITEBACK ACCESS:     306832  HIT:     301032  MISS:       5800
LLC PREFETCH  REQUESTED:          0  ISSUED:          0  USEFUL:          0  USELESS:          0
Major fault: 0 Minor fault: 8072

CPU 1 cumulative IPC: 0.30671 instructions: 100000002 cycles: 326040725
L1D TOTAL     ACCESS:   20607996  HIT:   19284623  MISS:    1323373
L1D LOAD      ACCESS:   13590589  HIT:   12268534  MISS:    1322055
L1D RFO       ACCESS:    7017407  HIT:    7016089  MISS:       1318
L1D PREFETCH  ACCESS:          0  HIT:          0  MISS:          0
L1D WRITEBACK ACCESS:          0  HIT:          0  MISS:          0
L1D PREFETCH  REQUESTED:          0  ISSUED:          0  USEFUL:          0  USELESS:          0
L1I TOTAL     ACCESS:   19962772  HIT:   19962772  MISS:          0
L1I LOAD      ACCESS:   19962772  HIT:   19962772  MISS:          0
L1I RFO       ACCESS:          0  HIT:          0  MISS:          0
L1I PREFETCH  ACCESS:          0  HIT:          0  MISS:          0
L1I WRITEBACK ACCESS:          0  HIT:          0  MISS:          0
L1I PREFETCH  REQUESTED:          0  ISSUED:          0  USEFUL:          0  USELESS:          0
L2C TOTAL     ACCESS:    2202082  HIT:     929415  MISS:    1272667
L2C LOAD      ACCESS:    1322055  HIT:      50474  MISS:    1271581
L2C RFO       ACCESS:       1318  HIT:        232  MISS:       1086
L2C PREFETCH  ACCESS:          0  HIT:          0  MISS:          0
L2C WRITEBACK ACCESS:     878709  HIT:     878709  MISS:          0
L2C PREFETCH  REQUESTED:          0  ISSUED:          0  USEFUL:          0  USELESS:          0
LLC TOTAL     ACCESS:    2150645  HIT:    1271161  MISS:     879484
LLC LOAD      ACCESS:    1271581  HIT:     392124  MISS:     879457
LLC RFO       ACCESS:       1086  HIT:       1086  MISS:          0
LLC PREFETCH  ACCESS:          0  HIT:          0  MISS:          0
LLC WRITEBACK ACCESS:     877978  HIT:     877951  MISS:         27
LLC PREFETCH  REQUESTED:          0  ISSUED:          0  USEFUL:          0  USELESS:          0
Major fault: 0 Minor fault: 17900

CPU 2 cumulative IPC: 0.399979 instructions: 100000001 cycles: 250012866
L1D TOTAL     ACCESS:   29668479  HIT:   28850706  MISS:     817773
L1D LOAD      ACCESS:   18802923  HIT:   18262692  MISS:     540231
L1D RFO       ACCESS:   10865556  HIT:   10588014  MISS:     277542
L1D PREFETCH  ACCESS:          0  HIT:          0  MISS:          0
L1D WRITEBACK ACCESS:          0  HIT:          0  MISS:          0
L1D PREFETCH  REQUESTED:          0  ISSUED:          0  USEFUL:          0  USELESS:          0
L1I TOTAL     ACCESS:   38465507  HIT:   38465444  MISS:         63
L1I LOAD      ACCESS:   38465507  HIT:   38465444  MISS:         63
L1I RFO       ACCESS:          0  HIT:          0  MISS:          0
L1I PREFETCH  ACCESS:          0  HIT:          0  MISS:          0
L1I WRITEBACK ACCESS:          0  HIT:          0  MISS:          0
L1I PREFETCH  REQUESTED:          0  ISSUED:          0  USEFUL:          0  USELESS:          0
L2C TOTAL     ACCESS:    1097588  HIT:     285501  MISS:     812087
L2C LOAD      ACCESS:     540294  HIT:       6150  MISS:     534144
L2C RFO       ACCESS:     277542  HIT:          0  MISS:     277542
L2C PREFETCH  ACCESS:          0  HIT:          0  MISS:          0
L2C WRITEBACK ACCESS:     279752  HIT:     279351  MISS:        401
L2C PREFETCH  REQUESTED:          0  ISSUED:          0  USEFUL:          0  USELESS:          0
LLC TOTAL     ACCESS:    1089824  HIT:     258163  MISS:     831661
LLC LOAD      ACCESS:     534144  HIT:          5  MISS:     534139
LLC RFO       ACCESS:     277542  HIT:          0  MISS:     277542
LLC PREFETCH  ACCESS:          0  HIT:          0  MISS:          0
LLC WRITEBACK ACCESS:     278138  HIT:     258158  MISS:      19980
LLC PREFETCH  REQUESTED:          0  ISSUED:          0  USEFUL:          0  USELESS:          0
Major fault: 0 Minor fault: 14160

CPU 3 cumulative IPC: 0.321119 instructions: 100000000 cycles: 311410942
L1D TOTAL     ACCESS:   39154823  HIT:   23786088  MISS:   15368735
L1D LOAD      ACCESS:   32720740  HIT:   17640552  MISS:   15080188
L1D RFO       ACCESS:    6434083  HIT:    6145536  MISS:     288547
L1D PREFETCH  ACCESS:          0  HIT:          0  MISS:          0
L1D WRITEBACK ACCESS:          0  HIT:          0  MISS:          0
L1D PREFETCH  REQUESTED:          0  ISSUED:          0  USEFUL:          0  USELESS:          0
L1I TOTAL     ACCESS:   36075312  HIT:   36075312  MISS:          0
L1I LOAD      ACCESS:   36075312  HIT:   36075312  MISS:          0
L1I RFO       ACCESS:          0  HIT:          0  MISS:          0
L1I PREFETCH  ACCESS:          0  HIT:          0  MISS:          0
L1I WRITEBACK ACCESS:          0  HIT:          0  MISS:          0
L1I PREFETCH  REQUESTED:          0  ISSUED:          0  USEFUL:          0  USELESS:          0
L2C TOTAL     ACCESS:   15726903  HIT:     360044  MISS:   15366859
L2C LOAD      ACCESS:   15080186  HIT:       2213  MISS:   15077973
L2C RFO       ACCESS:     288547  HIT:        607  MISS:     287940
L2C PREFETCH  ACCESS:          0  HIT:          0  MISS:          0
L2C WRITEBACK ACCESS:     358170  HIT:     357224  MISS:        946
L2C PREFETCH  REQUESTED:          0  ISSUED:          0  USEFUL:          0  USELESS:          0
LLC TOTAL     ACCESS:   15722755  HIT:   15272572  MISS:     450183
LLC LOAD      ACCESS:   15077974  HIT:   14913958  MISS:     164016
LLC RFO       ACCESS:     287940  HIT:       1843  MISS:     286097
LLC PREFETCH  ACCESS:          0  HIT:          0  MISS:          0
LLC WRITEBACK ACCESS:     356841  HIT:     356771  MISS:         70
LLC PREFETCH  REQUESTED:          0  ISSUED:          0  USEFUL:          0  USELESS:          0
Major fault: 0 Minor fault: 11706

CPU 4 cumulative IPC: 0.356103 instructions: 100000003 cycles: 280817344
L1D TOTAL     ACCESS:   28381521  HIT:   20543276  MISS:    7838245
L1D LOAD      ACCESS:   10036156  HIT:    8846563  MISS:    1189593
L1D RFO       ACCESS:   18345365  HIT:   11696713  MISS:    6648652
L1D PREFETCH  ACCESS:          0  HIT:          0  MISS:          0
L1D WRITEBACK ACCESS:          0  HIT:          0  MISS:          0
L1D PREFETCH  REQUESTED:          0  ISSUED:          0  USEFUL:          0  USELESS:          0
L1I TOTAL     ACCESS:   23991796  HIT:   23991796  MISS:          0
L1I LOAD      ACCESS:   23991796  HIT:   23991796  MISS:          0
L1I RFO       ACCESS:          0  HIT:          0  MISS:          0
L1I PREFETCH  ACCESS:          0  HIT:          0  MISS:          0
L1I WRITEBACK ACCESS:          0  HIT:          0  MISS:          0
L1I PREFETCH  REQUESTED:          0  ISSUED:          0  USEFUL:          0  USELESS:          0
L2C TOTAL     ACCESS:   14486849  HIT:    8591868  MISS:    5894981
L2C LOAD      ACCESS:    1189593  HIT:       1434  MISS:    1188159
L2C RFO       ACCESS:    6648600  HIT:    1943875  MISS:    4704725
L2C PREFETCH  ACCESS:          0  HIT:          0  MISS:          0
L2C WRITEBACK ACCESS:    6648656  HIT:    6646559  MISS:       2097
L2C PREFETCH  REQUESTED:          0  ISSUED:          0  USEFUL:          0  USELESS:          0
LLC TOTAL     ACCESS:   10596833  HIT:    5850166  MISS:    4746667
LLC LOAD      ACCESS:    1188159  HIT:       1555  MISS:    1186604
LLC RFO       ACCESS:    4702009  HIT:    1142202  MISS:    3559807
LLC PREFETCH  ACCESS:          0  HIT:          0  MISS:          0
LLC WRITEBACK ACCESS:    4706665  HIT:    4706409  MISS:        256
LLC PREFETCH  REQUESTED:          0  ISSUED:          0  USEFUL:          0  USELESS:          0
Major fault: 0 Minor fault: 56562

CPU 5 cumulative IPC: 0.33685 instructions: 100000001 cycles: 296868141
L1D TOTAL     ACCESS:   31568716  HIT:   30595297  MISS:     973419
L1D LOAD      ACCESS:   19547439  HIT:   18677586  MISS:     869853
L1D RFO       ACCESS:   12021277  HIT:   11917711  MISS:     103566
L1D PREFETCH  ACCESS:          0  HIT:          0  MISS:          0
L1D WRITEBACK ACCESS:          0  HIT:          0  MISS:          0
L1D PREFETCH  REQUESTED:          0  ISSUED:          0  USEFUL:          0  USELESS:          0
L1I TOTAL     ACCESS:   26916893  HIT:   26546250  MISS:     370643
L1I LOAD      ACCESS:   26916893  HIT:   26546250  MISS:     370643
L1I RFO       ACCESS:          0  HIT:          0  MISS:          0
L1I PREFETCH  ACCESS:          0  HIT:          0  MISS:          0
L1I WRITEBACK ACCESS:          0  HIT:          0  MISS:          0
L1I PREFETCH  REQUESTED:          0  ISSUED:          0  USEFUL:          0  USELESS:          0
L2C TOTAL     ACCESS:    1578805  HIT:    1034325  MISS:     544480
L2C LOAD      ACCESS:    1240489  HIT:     771154  MISS:     469335
L2C RFO       ACCESS:     103561  HIT:      30171  MISS:      73390
L2C PREFETCH  ACCESS:          0  HIT:          0  MISS:          0
L2C WRITEBACK ACCESS:     234755  HIT:     233000  MISS:       1755
L2C PREFETCH  REQUESTED:          0  ISSUED:          0  USEFUL:          0  USELESS:          0
LLC TOTAL     ACCESS:     691447  HIT:     371289  MISS:     320158
LLC LOAD      ACCESS:     469334  HIT:     224188  MISS:     245146
LLC RFO       ACCESS:      73389  HIT:      12336  MISS:      61053
LLC PREFETCH  ACCESS:          0  HIT:          0  MISS:          0
LLC WRITEBACK ACCESS:     148724  HIT:     134765  MISS:      13959
LLC PREFETCH  REQUESTED:          0  ISSUED:          0  USEFUL:          0  USELESS:          0
Major fault: 0 Minor fault: 4292

CPU 6 cumulative IPC: 0.309817 instructions: 100000001 cycles: 322771368
L1D TOTAL     ACCESS:    8248751  HIT:    6670114  MISS:    1578637
L1D LOAD      ACCESS:    5685398  HIT:    4106762  MISS:    1578636
L1D RFO       ACCESS:    2563353  HIT:    2563352  MISS:          1
L1D PREFETCH  ACCESS:          0  HIT:          0  MISS:          0
L1D WRITEBACK ACCESS:          0  HIT:          0  MISS:          0
L1D PREFETCH  REQUESTED:          0  ISSUED:          0  USEFUL:          0  USELESS:          0
L1I TOTAL     ACCESS:   22263406  HIT:   22263402  MISS:          4
L1I LOAD      ACCESS:   22263406  HIT:   22263402  MISS:          4
L1I RFO       ACCESS:          0  HIT:          0  MISS:          0
L1I PREFETCH  ACCESS:          0  HIT:          0  MISS:          0
L1I WRITEBACK ACCESS:          0  HIT:          0  MISS:          0
L1I PREFETCH  REQUESTED:          0  ISSUED:          0  USEFUL:          0  USELESS:          0
L2C TOTAL     ACCESS:    1602131  HIT:      23498  MISS:    1578633
L2C LOAD      ACCESS:    1578640  HIT:         27  MISS:    1578613
L2C RFO       ACCESS:          1  HIT:          0  MISS:          1
L2C PREFETCH  ACCESS:          0  HIT:          0  MISS:          0
L2C WRITEBACK ACCESS:      23490  HIT:      23471  MISS:         19
L2C PREFETCH  REQUESTED:          0  ISSUED:          0  USEFUL:          0  USELESS:          0
LLC TOTAL     ACCESS:    1603828  HIT:      25581  MISS:    1578247
LLC LOAD      ACCESS:    1578613  HIT:        370  MISS:    1578243
LLC RFO       ACCESS:          1  HIT:          0  MISS:          1
LLC PREFETCH  ACCESS:          0  HIT:          0  MISS:          0
LLC WRITEBACK ACCESS:      25214  HIT:      25211  MISS:          3
LLC PREFETCH  REQUESTED:          0  ISSUED:          0  USEFUL:          0  USELESS:          0
Major fault: 0 Minor fault: 42409

CPU 7 cumulative IPC: 0.521147 instructions: 100000001 cycles: 191884313
L1D TOTAL     ACCESS:   23316180  HIT:   22034215  MISS:    1281965
L1D LOAD      ACCESS:   19955455  HIT:   18930506  MISS:    1024949
L1D RFO       ACCESS:    3360725  HIT:    3103709  MISS:     257016
L1D PREFETCH  ACCESS:          0  HIT:          0  MISS:          0
L1D WRITEBACK ACCESS:          0  HIT:          0  MISS:          0
L1D PREFETCH  REQUESTED:          0  ISSUED:          0  USEFUL:          0  USELESS:          0
L1I TOTAL     ACCESS:   27829996  HIT:   27827843  MISS:       2153
L1I LOAD      ACCESS:   27829996  HIT:   27827843  MISS:       2153
L1I RFO       ACCESS:          0  HIT:          0  MISS:          0
L1I PREFETCH  ACCESS:          0  HIT:          0  MISS:          0
L1I WRITEBACK ACCESS:          0  HIT:          0  MISS:          0
L1I PREFETCH  REQUESTED:          0  ISSUED:          0  USEFUL:          0  USELESS:          0
L2C TOTAL     ACCESS:    1767669  HIT:     863927  MISS:     903742
L2C LOAD      ACCESS:    1027085  HIT:     356329  MISS:     670756
L2C RFO       ACCESS:     257016  HIT:      25732  MISS:     231284
L2C PREFETCH  ACCESS:          0  HIT:          0  MISS:          0
L2C WRITEBACK ACCESS:     483568  HIT:     481866  MISS:       1702
L2C PREFETCH  REQUESTED:          0  ISSUED:          0  USEFUL:          0  USELESS:          0
LLC TOTAL     ACCESS:    1352696  HIT:     641878  MISS:     710818
LLC LOAD      ACCESS:     670756  HIT:     138763  MISS:     531993
LLC RFO       ACCESS:     231284  HIT:      54767  MISS:     176517
LLC PREFETCH  ACCESS:          0  HIT:          0  MISS:          0
LLC WRITEBACK ACCESS:     450656  HIT:     448348  MISS:       2308
LLC PREFETCH  REQUESTED:          0  ISSUED:          0  USEFUL:          0  USELESS:          0
Major fault: 0 Minor fault: 8625

DRAM Statistics
 CHANNEL 0
 RQ ROW_BUFFER_HIT:    1694775  ROW_BUFFER_MISS:    4092108
 DBUS_CONGESTED:   11913001
 WQ ROW_BUFFER_HIT:     261526  ROW_BUFFER_MISS:    3169539  FULL:          0

 CHANNEL 1
 RQ ROW_BUFFER_HIT:    1686571  ROW_BUFFER_MISS:    4088043
 DBUS_CONGESTED:   11913001
 WQ ROW_BUFFER_HIT:     262103  ROW_BUFFER_MISS:    3165863  FULL:          0

 AVG_CONGESTED_CYCLE: 13
