
*** ChampSim Multicore Out-of-Order Simulator ***

Warmup Instructions: 20000000
Simulation Instructions: 100000000
Number of CPUs: 8
LLC sets: 16384
LLC ways: 16
Off-chip DRAM Size: 8192 MB Channels: 2 Width: 64-bit Data Rate: 1600 MT/s

CPU 0 runs /scratch/user/djimenez/champsim-traces/speccpu2017/xz/607.cactuBSSN_s/607.cactuBSSN_s-2421B.champsimtrace.xz
CPU 1 runs /scratch/user/djimenez/champsim-traces/speccpu2017/xz/607.cactuBSSN_s/607.cactuBSSN_s-3477B.champsimtrace.xz
CPU 2 runs /scratch/user/djimenez/champsim-traces/speccpu2017/xz/657.xz_s/657.xz_s-2302B.champsimtrace.xz
CPU 3 runs /scratch/user/djimenez/champsim-traces/speccpu2017/xz/621.wrf_s/621.wrf_s-6673B.champsimtrace.xz
CPU 4 runs /scratch/user/djimenez/champsim-traces/speccpu2017/xz/619.lbm_s/619.lbm_s-2677B.champsimtrace.xz
CPU 5 runs /scratch/user/djimenez/champsim-traces/speccpu2017/xz/619.lbm_s/619.lbm_s-4268B.champsimtrace.xz
CPU 6 runs /scratch/user/djimenez/champsim-traces/speccpu2017/xz/628.pop2_s/628.pop2_s-17B.champsimtrace.xz
CPU 7 runs /scratch/user/djimenez/champsim-traces/speccpu2017/xz/619.lbm_s/619.lbm_s-2676B.champsimtrace.xz
Heartbeat CPU 6 instructions: 10000002 cycles: 4134937 heartbeat IPC: 2.41842 cumulative IPC: 2.41842 (Simulation time: 0 hr 3 min 32 sec) 
Heartbeat CPU 2 instructions: 10000002 cycles: 4470194 heartbeat IPC: 2.23704 cumulative IPC: 2.23704 (Simulation time: 0 hr 3 min 49 sec) 
Heartbeat CPU 7 instructions: 10000000 cycles: 4852228 heartbeat IPC: 2.06091 cumulative IPC: 2.06091 (Simulation time: 0 hr 4 min 9 sec) 
Heartbeat CPU 5 instructions: 10000001 cycles: 4900532 heartbeat IPC: 2.0406 cumulative IPC: 2.0406 (Simulation time: 0 hr 4 min 11 sec) 
Heartbeat CPU 4 instructions: 10000001 cycles: 4921156 heartbeat IPC: 2.03204 cumulative IPC: 2.03204 (Simulation time: 0 hr 4 min 12 sec) 
Heartbeat CPU 3 instructions: 10000001 cycles: 5381636 heartbeat IPC: 1.85817 cumulative IPC: 1.85817 (Simulation time: 0 hr 4 min 36 sec) 
Heartbeat CPU 1 instructions: 10000003 cycles: 5772334 heartbeat IPC: 1.7324 cumulative IPC: 1.7324 (Simulation time: 0 hr 4 min 56 sec) 
Heartbeat CPU 0 instructions: 10000000 cycles: 5804385 heartbeat IPC: 1.72284 cumulative IPC: 1.72284 (Simulation time: 0 hr 4 min 58 sec) 
Heartbeat CPU 6 instructions: 20000000 cycles: 8260035 heartbeat IPC: 2.42418 cumulative IPC: 2.4213 (Simulation time: 0 hr 7 min 5 sec) 
Heartbeat CPU 2 instructions: 20000000 cycles: 8905923 heartbeat IPC: 2.25442 cumulative IPC: 2.2457 (Simulation time: 0 hr 7 min 39 sec) 
Heartbeat CPU 3 instructions: 20000000 cycles: 9468850 heartbeat IPC: 2.44665 cumulative IPC: 2.11219 (Simulation time: 0 hr 8 min 8 sec) 
Heartbeat CPU 7 instructions: 20000000 cycles: 9683330 heartbeat IPC: 2.06992 cumulative IPC: 2.06541 (Simulation time: 0 hr 8 min 20 sec) 
Heartbeat CPU 5 instructions: 20000000 cycles: 9794902 heartbeat IPC: 2.04316 cumulative IPC: 2.04188 (Simulation time: 0 hr 8 min 26 sec) 
Heartbeat CPU 4 instructions: 20000000 cycles: 9811308 heartbeat IPC: 2.04493 cumulative IPC: 2.03846 (Simulation time: 0 hr 8 min 26 sec) 
Heartbeat CPU 1 instructions: 20000000 cycles: 11544367 heartbeat IPC: 1.73249 cumulative IPC: 1.73245 (Simulation time: 0 hr 9 min 56 sec) 
Heartbeat CPU 0 instructions: 20000000 cycles: 11607225 heartbeat IPC: 1.72329 cumulative IPC: 1.72306 (Simulation time: 0 hr 9 min 59 sec) 

Warmup complete CPU 0 instructions: 20000001 cycles: 11607243 (Simulation time: 0 hr 9 min 59 sec) 
Warmup complete CPU 1 instructions: 20109200 cycles: 11607242 (Simulation time: 0 hr 9 min 59 sec) 
Warmup complete CPU 2 instructions: 25924011 cycles: 11607242 (Simulation time: 0 hr 9 min 59 sec) 
Warmup complete CPU 3 instructions: 25638771 cycles: 11607242 (Simulation time: 0 hr 9 min 59 sec) 
Warmup complete CPU 4 instructions: 23677187 cycles: 11607242 (Simulation time: 0 hr 9 min 59 sec) 
Warmup complete CPU 5 instructions: 23736327 cycles: 11607242 (Simulation time: 0 hr 9 min 59 sec) 
Warmup complete CPU 6 instructions: 28119593 cycles: 11607242 (Simulation time: 0 hr 9 min 59 sec) 
Warmup complete CPU 7 instructions: 23976971 cycles: 11607242 (Simulation time: 0 hr 9 min 59 sec) 

Heartbeat CPU 6 instructions: 30000002 cycles: 14616644 heartbeat IPC: 1.57317 cumulative IPC: 0.624845 (Simulation time: 0 hr 10 min 54 sec) 
Heartbeat CPU 2 instructions: 30000003 cycles: 20871996 heartbeat IPC: 0.835696 cumulative IPC: 0.439946 (Simulation time: 0 hr 12 min 52 sec) 
Heartbeat CPU 1 instructions: 30000000 cycles: 24168253 heartbeat IPC: 0.792149 cumulative IPC: 0.787421 (Simulation time: 0 hr 13 min 54 sec) 
Heartbeat CPU 0 instructions: 30000001 cycles: 24380478 heartbeat IPC: 0.782886 cumulative IPC: 0.782887 (Simulation time: 0 hr 13 min 58 sec) 
Heartbeat CPU 3 instructions: 30000003 cycles: 27798215 heartbeat IPC: 0.545573 cumulative IPC: 0.269362 (Simulation time: 0 hr 15 min 3 sec) 
Heartbeat CPU 6 instructions: 40000000 cycles: 29177909 heartbeat IPC: 0.686753 cumulative IPC: 0.67615 (Simulation time: 0 hr 15 min 29 sec) 
Heartbeat CPU 7 instructions: 30000001 cycles: 31950626 heartbeat IPC: 0.449089 cumulative IPC: 0.296068 (Simulation time: 0 hr 16 min 23 sec) 
Heartbeat CPU 5 instructions: 30000002 cycles: 34406697 heartbeat IPC: 0.406309 cumulative IPC: 0.274729 (Simulation time: 0 hr 17 min 9 sec) 
Heartbeat CPU 4 instructions: 30000002 cycles: 35066193 heartbeat IPC: 0.395963 cumulative IPC: 0.269527 (Simulation time: 0 hr 17 min 22 sec) 
Heartbeat CPU 1 instructions: 40000000 cycles: 36645410 heartbeat IPC: 0.801465 cumulative IPC: 0.794419 (Simulation time: 0 hr 17 min 52 sec) 
Heartbeat CPU 0 instructions: 40000000 cycles: 37030688 heartbeat IPC: 0.790501 cumulative IPC: 0.786675 (Simulation time: 0 hr 18 min 0 sec) 
Heartbeat CPU 2 instructions: 40000000 cycles: 43392394 heartbeat IPC: 0.444042 cumulative IPC: 0.442848 (Simulation time: 0 hr 20 min 4 sec) 
Heartbeat CPU 6 instructions: 50000001 cycles: 43605944 heartbeat IPC: 0.693095 cumulative IPC: 0.683791 (Simulation time: 0 hr 20 min 8 sec) 
Heartbeat CPU 0 instructions: 50000003 cycles: 50139258 heartbeat IPC: 0.76286 cumulative IPC: 0.778573 (Simulation time: 0 hr 22 min 11 sec) 
Heartbeat CPU 1 instructions: 50000000 cycles: 50173944 heartbeat IPC: 0.739178 cumulative IPC: 0.775042 (Simulation time: 0 hr 22 min 12 sec) 
Heartbeat CPU 6 instructions: 60000000 cycles: 58655335 heartbeat IPC: 0.664479 cumulative IPC: 0.677613 (Simulation time: 0 hr 24 min 44 sec) 
Heartbeat CPU 1 instructions: 60000000 cycles: 63329974 heartbeat IPC: 0.760108 cumulative IPC: 0.771243 (Simulation time: 0 hr 26 min 10 sec) 
Heartbeat CPU 7 instructions: 40000000 cycles: 66832939 heartbeat IPC: 0.286678 cumulative IPC: 0.290137 (Simulation time: 0 hr 27 min 13 sec) 
Heartbeat CPU 2 instructions: 50000003 cycles: 67842467 heartbeat IPC: 0.408997 cumulative IPC: 0.42813 (Simulation time: 0 hr 27 min 30 sec) 
Heartbeat CPU 0 instructions: 60000000 cycles: 68058653 heartbeat IPC: 0.558054 cumulative IPC: 0.708574 (Simulation time: 0 hr 27 min 34 sec) 
Heartbeat CPU 5 instructions: 40000000 cycles: 73191519 heartbeat IPC: 0.257833 cumulative IPC: 0.264088 (Simulation time: 0 hr 29 min 9 sec) 
Heartbeat CPU 6 instructions: 70000002 cycles: 73451365 heartbeat IPC: 0.675857 cumulative IPC: 0.677193 (Simulation time: 0 hr 29 min 14 sec) 
Heartbeat CPU 4 instructions: 40000000 cycles: 73586946 heartbeat IPC: 0.2596 cumulative IPC: 0.263357 (Simulation time: 0 hr 29 min 17 sec) 
Heartbeat CPU 3 instructions: 40000000 cycles: 74945106 heartbeat IPC: 0.212103 cumulative IPC: 0.22674 (Simulation time: 0 hr 29 min 44 sec) 
Heartbeat CPU 1 instructions: 70000001 cycles: 76481322 heartbeat IPC: 0.760378 cumulative IPC: 0.769041 (Simulation time: 0 hr 30 min 16 sec) 
Heartbeat CPU 0 instructions: 70000000 cycles: 85953849 heartbeat IPC: 0.558809 cumulative IPC: 0.672526 (Simulation time: 0 hr 33 min 9 sec) 
Heartbeat CPU 6 instructions: 80000000 cycles: 86212687 heartbeat IPC: 0.783618 cumulative IPC: 0.695397 (Simulation time: 0 hr 33 min 14 sec) 
Heartbeat CPU 1 instructions: 80000000 cycles: 89689950 heartbeat IPC: 0.757081 cumulative IPC: 0.767017 (Simulation time: 0 hr 34 min 14 sec) 
Heartbeat CPU 2 instructions: 60000000 cycles: 92600957 heartbeat IPC: 0.403902 cumulative IPC: 0.420724 (Simulation time: 0 hr 35 min 6 sec) 
Heartbeat CPU 7 instructions: 50000001 cycles: 100827501 heartbeat IPC: 0.294165 cumulative IPC: 0.291672 (Simulation time: 0 hr 37 min 46 sec) 
Heartbeat CPU 6 instructions: 90000002 cycles: 101701063 heartbeat IPC: 0.645646 cumulative IPC: 0.686844 (Simulation time: 0 hr 38 min 4 sec) 
Heartbeat CPU 1 instructions: 90000002 cycles: 102324410 heartbeat IPC: 0.791486 cumulative IPC: 0.770425 (Simulation time: 0 hr 38 min 16 sec) 
Heartbeat CPU 0 instructions: 80000000 cycles: 102903682 heartbeat IPC: 0.589976 cumulative IPC: 0.6572 (Simulation time: 0 hr 38 min 29 sec) 
Heartbeat CPU 3 instructions: 50000003 cycles: 109715118 heartbeat IPC: 0.287604 cumulative IPC: 0.248311 (Simulation time: 0 hr 40 min 49 sec) 
Heartbeat CPU 5 instructions: 50000000 cycles: 111502022 heartbeat IPC: 0.261025 cumulative IPC: 0.262913 (Simulation time: 0 hr 41 min 25 sec) 
Heartbeat CPU 4 instructions: 50000002 cycles: 112358727 heartbeat IPC: 0.25792 cumulative IPC: 0.261265 (Simulation time: 0 hr 41 min 42 sec) 
Heartbeat CPU 2 instructions: 70000002 cycles: 114477898 heartbeat IPC: 0.457102 cumulative IPC: 0.42846 (Simulation time: 0 hr 42 min 20 sec) 
Heartbeat CPU 1 instructions: 100000000 cycles: 115011782 heartbeat IPC: 0.788185 cumulative IPC: 0.772604 (Simulation time: 0 hr 42 min 29 sec) 
Heartbeat CPU 6 instructions: 100000000 cycles: 116325345 heartbeat IPC: 0.683794 cumulative IPC: 0.686418 (Simulation time: 0 hr 42 min 53 sec) 
Heartbeat CPU 0 instructions: 90000000 cycles: 120143644 heartbeat IPC: 0.580048 cumulative IPC: 0.644945 (Simulation time: 0 hr 44 min 1 sec) 
Heartbeat CPU 1 instructions: 110000001 cycles: 128015024 heartbeat IPC: 0.769039 cumulative IPC: 0.772206 (Simulation time: 0 hr 46 min 26 sec) 
Heartbeat CPU 6 instructions: 110000001 cycles: 130879398 heartbeat IPC: 0.687094 cumulative IPC: 0.686501 (Simulation time: 0 hr 47 min 19 sec) 
Heartbeat CPU 7 instructions: 60000000 cycles: 133862476 heartbeat IPC: 0.302709 cumulative IPC: 0.294654 (Simulation time: 0 hr 48 min 13 sec) 
Heartbeat CPU 0 instructions: 100000000 cycles: 138391302 heartbeat IPC: 0.548016 cumulative IPC: 0.630994 (Simulation time: 0 hr 49 min 28 sec) 
Heartbeat CPU 2 instructions: 80000000 cycles: 138862145 heartbeat IPC: 0.410101 cumulative IPC: 0.424942 (Simulation time: 0 hr 49 min 36 sec) 
Heartbeat CPU 1 instructions: 120000000 cycles: 141321415 heartbeat IPC: 0.751518 cumulative IPC: 0.770084 (Simulation time: 0 hr 50 min 20 sec) 
Finished CPU 1 instructions: 100000003 cycles: 129838382 cumulative IPC: 0.770188 (Simulation time: 0 hr 50 min 22 sec) 
Heartbeat CPU 6 instructions: 120000000 cycles: 144765348 heartbeat IPC: 0.720152 cumulative IPC: 0.69001 (Simulation time: 0 hr 51 min 27 sec) 
Heartbeat CPU 3 instructions: 60000000 cycles: 149211459 heartbeat IPC: 0.253188 cumulative IPC: 0.249711 (Simulation time: 0 hr 52 min 49 sec) 
Heartbeat CPU 5 instructions: 60000000 cycles: 150883583 heartbeat IPC: 0.253926 cumulative IPC: 0.260372 (Simulation time: 0 hr 53 min 19 sec) 
Heartbeat CPU 4 instructions: 60000000 cycles: 151450933 heartbeat IPC: 0.255805 cumulative IPC: 0.259739 (Simulation time: 0 hr 53 min 29 sec) 
Heartbeat CPU 1 instructions: 130000001 cycles: 154002806 heartbeat IPC: 0.788557 cumulative IPC: 0.771729 (Simulation time: 0 hr 54 min 15 sec) 
Finished CPU 6 instructions: 100000001 cycles: 142604291 cumulative IPC: 0.701241 (Simulation time: 0 hr 54 min 18 sec) 
Heartbeat CPU 0 instructions: 110000003 cycles: 155402270 heartbeat IPC: 0.587856 cumulative IPC: 0.625891 (Simulation time: 0 hr 54 min 39 sec) 
Heartbeat CPU 6 instructions: 130000001 cycles: 157023121 heartbeat IPC: 0.815809 cumulative IPC: 0.700614 (Simulation time: 0 hr 55 min 9 sec) 
Heartbeat CPU 2 instructions: 90000001 cycles: 163306512 heartbeat IPC: 0.409092 cumulative IPC: 0.422388 (Simulation time: 0 hr 57 min 2 sec) 
Heartbeat CPU 7 instructions: 70000002 cycles: 165549111 heartbeat IPC: 0.315591 cumulative IPC: 0.298964 (Simulation time: 0 hr 57 min 46 sec) 
Heartbeat CPU 1 instructions: 140000000 cycles: 167036619 heartbeat IPC: 0.767235 cumulative IPC: 0.771352 (Simulation time: 0 hr 58 min 14 sec) 
Heartbeat CPU 6 instructions: 140000000 cycles: 167380956 heartbeat IPC: 0.965453 cumulative IPC: 0.718224 (Simulation time: 0 hr 58 min 20 sec) 
Heartbeat CPU 0 instructions: 120000000 cycles: 172807371 heartbeat IPC: 0.574544 cumulative IPC: 0.620347 (Simulation time: 0 hr 59 min 59 sec) 
Finished CPU 0 instructions: 100000000 cycles: 161200136 cumulative IPC: 0.620347 (Simulation time: 0 hr 59 min 59 sec) 
Heartbeat CPU 6 instructions: 150000001 cycles: 178500510 heartbeat IPC: 0.899317 cumulative IPC: 0.73029 (Simulation time: 1 hr 1 min 37 sec) 
Heartbeat CPU 1 instructions: 150000001 cycles: 180050518 heartbeat IPC: 0.768409 cumulative IPC: 0.771125 (Simulation time: 1 hr 2 min 5 sec) 
Heartbeat CPU 2 instructions: 100000000 cycles: 185073599 heartbeat IPC: 0.459409 cumulative IPC: 0.427034 (Simulation time: 1 hr 3 min 30 sec) 
Heartbeat CPU 6 instructions: 160000000 cycles: 189656403 heartbeat IPC: 0.896387 cumulative IPC: 0.740697 (Simulation time: 1 hr 4 min 50 sec) 
Heartbeat CPU 5 instructions: 70000003 cycles: 189760828 heartbeat IPC: 0.25722 cumulative IPC: 0.259684 (Simulation time: 1 hr 4 min 52 sec) 
Heartbeat CPU 4 instructions: 70000001 cycles: 190009013 heartbeat IPC: 0.259349 cumulative IPC: 0.259654 (Simulation time: 1 hr 4 min 56 sec) 
Heartbeat CPU 0 instructions: 130000001 cycles: 190794210 heartbeat IPC: 0.555962 cumulative IPC: 0.613884 (Simulation time: 1 hr 5 min 11 sec) 
Heartbeat CPU 1 instructions: 160000000 cycles: 193327965 heartbeat IPC: 0.753157 cumulative IPC: 0.769812 (Simulation time: 1 hr 5 min 56 sec) 
Heartbeat CPU 3 instructions: 70000003 cycles: 194564192 heartbeat IPC: 0.220494 cumulative IPC: 0.242468 (Simulation time: 1 hr 6 min 18 sec) 
Heartbeat CPU 7 instructions: 80000000 cycles: 195793272 heartbeat IPC: 0.330642 cumulative IPC: 0.304165 (Simulation time: 1 hr 6 min 39 sec) 
Heartbeat CPU 6 instructions: 170000001 cycles: 204412679 heartbeat IPC: 0.677678 cumulative IPC: 0.735873 (Simulation time: 1 hr 9 min 8 sec) 
Heartbeat CPU 1 instructions: 170000001 cycles: 206037795 heartbeat IPC: 0.786793 cumulative IPC: 0.770922 (Simulation time: 1 hr 9 min 37 sec) 
Heartbeat CPU 0 instructions: 140000000 cycles: 207648686 heartbeat IPC: 0.593314 cumulative IPC: 0.612115 (Simulation time: 1 hr 10 min 6 sec) 
Heartbeat CPU 2 instructions: 110000002 cycles: 209177840 heartbeat IPC: 0.414865 cumulative IPC: 0.425549 (Simulation time: 1 hr 10 min 33 sec) 
Heartbeat CPU 1 instructions: 180000000 cycles: 218713542 heartbeat IPC: 0.788908 cumulative IPC: 0.772023 (Simulation time: 1 hr 13 min 23 sec) 
Heartbeat CPU 6 instructions: 180000000 cycles: 221067612 heartbeat IPC: 0.600423 cumulative IPC: 0.725103 (Simulation time: 1 hr 14 min 6 sec) 
Heartbeat CPU 0 instructions: 150000002 cycles: 224573140 heartbeat IPC: 0.590861 cumulative IPC: 0.610426 (Simulation time: 1 hr 15 min 11 sec) 
Heartbeat CPU 7 instructions: 90000000 cycles: 224859737 heartbeat IPC: 0.344039 cumulative IPC: 0.3096 (Simulation time: 1 hr 15 min 16 sec) 
Heartbeat CPU 5 instructions: 80000000 cycles: 226576793 heartbeat IPC: 0.271621 cumulative IPC: 0.261729 (Simulation time: 1 hr 15 min 47 sec) 
Heartbeat CPU 4 instructions: 80000000 cycles: 227133865 heartbeat IPC: 0.269361 cumulative IPC: 0.261326 (Simulation time: 1 hr 15 min 57 sec) 
Heartbeat CPU 1 instructions: 190000003 cycles: 231345701 heartbeat IPC: 0.791631 cumulative IPC: 0.77315 (Simulation time: 1 hr 17 min 13 sec) 
Heartbeat CPU 3 instructions: 80000000 cycles: 232865969 heartbeat IPC: 0.261084 cumulative IPC: 0.245691 (Simulation time: 1 hr 17 min 40 sec) 
Heartbeat CPU 2 instructions: 120000000 cycles: 233870017 heartbeat IPC: 0.404987 cumulative IPC: 0.423265 (Simulation time: 1 hr 17 min 59 sec) 
Heartbeat CPU 6 instructions: 190000002 cycles: 235872033 heartbeat IPC: 0.675474 cumulative IPC: 0.721827 (Simulation time: 1 hr 18 min 35 sec) 
Heartbeat CPU 0 instructions: 160000000 cycles: 241475118 heartbeat IPC: 0.591647 cumulative IPC: 0.609046 (Simulation time: 1 hr 20 min 15 sec) 
Heartbeat CPU 1 instructions: 200000000 cycles: 244619272 heartbeat IPC: 0.753377 cumulative IPC: 0.772024 (Simulation time: 1 hr 21 min 8 sec) 
Finished CPU 2 instructions: 100000001 cycles: 237885832 cumulative IPC: 0.42037 (Simulation time: 1 hr 22 min 33 sec) 
Heartbeat CPU 6 instructions: 200000000 cycles: 250767608 heartbeat IPC: 0.67134 cumulative IPC: 0.718683 (Simulation time: 1 hr 22 min 56 sec) 
Heartbeat CPU 7 instructions: 100000000 cycles: 253038614 heartbeat IPC: 0.354876 cumulative IPC: 0.314885 (Simulation time: 1 hr 23 min 38 sec) 
Heartbeat CPU 1 instructions: 210000000 cycles: 257323743 heartbeat IPC: 0.787124 cumulative IPC: 0.772804 (Simulation time: 1 hr 25 min 1 sec) 
Heartbeat CPU 0 instructions: 170000003 cycles: 258314936 heartbeat IPC: 0.593831 cumulative IPC: 0.608007 (Simulation time: 1 hr 25 min 19 sec) 
Heartbeat CPU 2 instructions: 130000000 cycles: 258862081 heartbeat IPC: 0.400127 cumulative IPC: 0.420926 (Simulation time: 1 hr 25 min 29 sec) 
Heartbeat CPU 5 instructions: 90000000 cycles: 263759586 heartbeat IPC: 0.268942 cumulative IPC: 0.262792 (Simulation time: 1 hr 27 min 2 sec) 
Heartbeat CPU 4 instructions: 90000001 cycles: 264800226 heartbeat IPC: 0.265489 cumulative IPC: 0.261946 (Simulation time: 1 hr 27 min 22 sec) 
Heartbeat CPU 6 instructions: 210000001 cycles: 265575113 heartbeat IPC: 0.675333 cumulative IPC: 0.716155 (Simulation time: 1 hr 27 min 36 sec) 
Heartbeat CPU 1 instructions: 220000000 cycles: 270028986 heartbeat IPC: 0.787077 cumulative IPC: 0.773506 (Simulation time: 1 hr 29 min 0 sec) 
Heartbeat CPU 3 instructions: 90000002 cycles: 271000695 heartbeat IPC: 0.262228 cumulative IPC: 0.248122 (Simulation time: 1 hr 29 min 18 sec) 
Heartbeat CPU 0 instructions: 180000000 cycles: 275005546 heartbeat IPC: 0.599139 cumulative IPC: 0.607445 (Simulation time: 1 hr 30 min 34 sec) 
Heartbeat CPU 2 instructions: 140000000 cycles: 278666852 heartbeat IPC: 0.504929 cumulative IPC: 0.427156 (Simulation time: 1 hr 31 min 44 sec) 
Heartbeat CPU 6 instructions: 220000000 cycles: 280353694 heartbeat IPC: 0.676655 cumulative IPC: 0.713983 (Simulation time: 1 hr 32 min 15 sec) 
Heartbeat CPU 7 instructions: 110000002 cycles: 280505892 heartbeat IPC: 0.36407 cumulative IPC: 0.319909 (Simulation time: 1 hr 32 min 18 sec) 
Heartbeat CPU 1 instructions: 230000003 cycles: 282697322 heartbeat IPC: 0.78937 cumulative IPC: 0.774247 (Simulation time: 1 hr 32 min 57 sec) 
Heartbeat CPU 0 instructions: 190000002 cycles: 292046513 heartbeat IPC: 0.586821 cumulative IPC: 0.606192 (Simulation time: 1 hr 35 min 41 sec) 
Heartbeat CPU 6 instructions: 230000003 cycles: 295350929 heartbeat IPC: 0.66679 cumulative IPC: 0.711489 (Simulation time: 1 hr 36 min 38 sec) 
Heartbeat CPU 1 instructions: 240000000 cycles: 295566640 heartbeat IPC: 0.777042 cumulative IPC: 0.774374 (Simulation time: 1 hr 36 min 42 sec) 
Heartbeat CPU 5 instructions: 100000000 cycles: 300675361 heartbeat IPC: 0.270887 cumulative IPC: 0.263826 (Simulation time: 1 hr 38 min 10 sec) 
Heartbeat CPU 4 instructions: 100000000 cycles: 302687784 heartbeat IPC: 0.263939 cumulative IPC: 0.262205 (Simulation time: 1 hr 38 min 45 sec) 
Heartbeat CPU 2 instructions: 150000000 cycles: 303531247 heartbeat IPC: 0.402182 cumulative IPC: 0.425028 (Simulation time: 1 hr 38 min 59 sec) 
Heartbeat CPU 7 instructions: 120000000 cycles: 308164705 heartbeat IPC: 0.361548 cumulative IPC: 0.323792 (Simulation time: 1 hr 40 min 22 sec) 
Heartbeat CPU 1 instructions: 250000002 cycles: 308486108 heartbeat IPC: 0.774026 cumulative IPC: 0.774359 (Simulation time: 1 hr 40 min 27 sec) 
Heartbeat CPU 0 instructions: 200000000 cycles: 309353871 heartbeat IPC: 0.577789 cumulative IPC: 0.604541 (Simulation time: 1 hr 40 min 44 sec) 
Heartbeat CPU 6 instructions: 240000000 cycles: 310319462 heartbeat IPC: 0.668068 cumulative IPC: 0.709313 (Simulation time: 1 hr 41 min 2 sec) 
Finished CPU 7 instructions: 100000000 cycles: 307644156 cumulative IPC: 0.325051 (Simulation time: 1 hr 43 min 38 sec) 
Heartbeat CPU 1 instructions: 260000000 cycles: 321386562 heartbeat IPC: 0.775166 cumulative IPC: 0.774393 (Simulation time: 1 hr 44 min 14 sec) 
Heartbeat CPU 6 instructions: 250000003 cycles: 324691607 heartbeat IPC: 0.695791 cumulative IPC: 0.708692 (Simulation time: 1 hr 45 min 13 sec) 
Heartbeat CPU 3 instructions: 100000000 cycles: 326283165 heartbeat IPC: 0.180889 cumulative IPC: 0.236311 (Simulation time: 1 hr 45 min 42 sec) 
Heartbeat CPU 0 instructions: 210000000 cycles: 326900174 heartbeat IPC: 0.569921 cumulative IPC: 0.602614 (Simulation time: 1 hr 45 min 53 sec) 
Heartbeat CPU 2 instructions: 160000000 cycles: 328717411 heartbeat IPC: 0.397043 cumulative IPC: 0.422806 (Simulation time: 1 hr 46 min 29 sec) 
Heartbeat CPU 1 instructions: 270000000 cycles: 334320132 heartbeat IPC: 0.773182 cumulative IPC: 0.774344 (Simulation time: 1 hr 48 min 15 sec) 
Heartbeat CPU 7 instructions: 130000001 cycles: 335336000 heartbeat IPC: 0.368035 cumulative IPC: 0.327506 (Simulation time: 1 hr 48 min 34 sec) 
Heartbeat CPU 6 instructions: 260000000 cycles: 338572136 heartbeat IPC: 0.720433 cumulative IPC: 0.709191 (Simulation time: 1 hr 49 min 32 sec) 
Heartbeat CPU 5 instructions: 110000002 cycles: 338831608 heartbeat IPC: 0.26208 cumulative IPC: 0.263622 (Simulation time: 1 hr 49 min 36 sec) 
Heartbeat CPU 4 instructions: 110000000 cycles: 341345280 heartbeat IPC: 0.258682 cumulative IPC: 0.261792 (Simulation time: 1 hr 50 min 22 sec) 
Heartbeat CPU 0 instructions: 220000000 cycles: 343748951 heartbeat IPC: 0.593515 cumulative IPC: 0.602153 (Simulation time: 1 hr 51 min 7 sec) 
Heartbeat CPU 2 instructions: 170000003 cycles: 345861046 heartbeat IPC: 0.583307 cumulative IPC: 0.431038 (Simulation time: 1 hr 51 min 50 sec) 
Heartbeat CPU 3 instructions: 110000001 cycles: 346630237 heartbeat IPC: 0.491471 cumulative IPC: 0.251807 (Simulation time: 1 hr 52 min 5 sec) 
Heartbeat CPU 1 instructions: 280000000 cycles: 346911280 heartbeat IPC: 0.794209 cumulative IPC: 0.77509 (Simulation time: 1 hr 52 min 11 sec) 
Heartbeat CPU 6 instructions: 270000001 cycles: 352819655 heartbeat IPC: 0.701877 cumulative IPC: 0.708885 (Simulation time: 1 hr 54 min 7 sec) 
Heartbeat CPU 1 instructions: 290000003 cycles: 359327153 heartbeat IPC: 0.805421 cumulative IPC: 0.776173 (Simulation time: 1 hr 56 min 10 sec) 
Heartbeat CPU 2 instructions: 180000000 cycles: 359507436 heartbeat IPC: 0.732794 cumulative IPC: 0.442874 (Simulation time: 1 hr 56 min 13 sec) 
Heartbeat CPU 0 instructions: 230000001 cycles: 360038716 heartbeat IPC: 0.613882 cumulative IPC: 0.602701 (Simulation time: 1 hr 56 min 23 sec) 
Heartbeat CPU 7 instructions: 140000000 cycles: 361157812 heartbeat IPC: 0.387269 cumulative IPC: 0.331921 (Simulation time: 1 hr 56 min 44 sec) 
Heartbeat CPU 6 instructions: 280000000 cycles: 368433328 heartbeat IPC: 0.640464 cumulative IPC: 0.705891 (Simulation time: 1 hr 59 min 0 sec) 
Heartbeat CPU 1 instructions: 300000000 cycles: 372407095 heartbeat IPC: 0.764529 cumulative IPC: 0.775751 (Simulation time: 2 hr 0 min 15 sec) 
Heartbeat CPU 3 instructions: 120000000 cycles: 372542132 heartbeat IPC: 0.385923 cumulative IPC: 0.261436 (Simulation time: 2 hr 0 min 18 sec) 
Heartbeat CPU 2 instructions: 190000001 cycles: 373287842 heartbeat IPC: 0.725668 cumulative IPC: 0.453649 (Simulation time: 2 hr 0 min 32 sec) 
Heartbeat CPU 5 instructions: 120000000 cycles: 376427456 heartbeat IPC: 0.265987 cumulative IPC: 0.263866 (Simulation time: 2 hr 1 min 29 sec) 
Heartbeat CPU 0 instructions: 240000000 cycles: 377952291 heartbeat IPC: 0.558236 cumulative IPC: 0.600527 (Simulation time: 2 hr 1 min 59 sec) 
Heartbeat CPU 4 instructions: 120000000 cycles: 378743333 heartbeat IPC: 0.267394 cumulative IPC: 0.262363 (Simulation time: 2 hr 2 min 15 sec) 
Heartbeat CPU 6 instructions: 290000000 cycles: 383070840 heartbeat IPC: 0.683176 cumulative IPC: 0.704996 (Simulation time: 2 hr 3 min 40 sec) 
Finished CPU 3 instructions: 100000001 cycles: 372057226 cumulative IPC: 0.268776 (Simulation time: 2 hr 3 min 52 sec) 
Heartbeat CPU 1 instructions: 310000003 cycles: 385513291 heartbeat IPC: 0.762998 cumulative IPC: 0.775304 (Simulation time: 2 hr 4 min 28 sec) 
Heartbeat CPU 2 instructions: 200000000 cycles: 387366967 heartbeat IPC: 0.710271 cumulative IPC: 0.463264 (Simulation time: 2 hr 5 min 3 sec) 
Heartbeat CPU 7 instructions: 150000001 cycles: 387838614 heartbeat IPC: 0.374801 cumulative IPC: 0.334962 (Simulation time: 2 hr 5 min 11 sec) 
Finished CPU 5 instructions: 100000001 cycles: 378611829 cumulative IPC: 0.264123 (Simulation time: 2 hr 5 min 54 sec) 
Finished CPU 4 instructions: 100000000 cycles: 381261737 cumulative IPC: 0.262287 (Simulation time: 2 hr 6 min 42 sec) 

CPU 0 Branch Prediction Accuracy: 99.7229% MPKI: 0.0056569

CPU 1 Branch Prediction Accuracy: 99.9789% MPKI: 0.00141362

CPU 2 Branch Prediction Accuracy: 90.0765% MPKI: 12.0646

CPU 3 Branch Prediction Accuracy: 99.2136% MPKI: 0.364274

CPU 4 Branch Prediction Accuracy: 97.0792% MPKI: 0.506987

CPU 5 Branch Prediction Accuracy: 97.1134% MPKI: 0.498684

CPU 6 Branch Prediction Accuracy: 97.7276% MPKI: 3.0615

CPU 7 Branch Prediction Accuracy: 98.4403% MPKI: 0.206386

ChampSim completed all CPUs

Total Simulation Statistics (not including warmup)

CPU 0 cumulative IPC: 0.59951 instructions: 228570417 cycles: 381261736
L1D TOTAL     ACCESS:   70068515  HIT:   44750872  MISS:   25317643
L1D LOAD      ACCESS:   45291814  HIT:   21788478  MISS:   23503336
L1D RFO       ACCESS:   24776701  HIT:   22962394  MISS:    1814307
L1D PREFETCH  ACCESS:          0  HIT:          0  MISS:          0
L1D WRITEBACK ACCESS:          0  HIT:          0  MISS:          0
L1I TOTAL     ACCESS:   57081864  HIT:   56252236  MISS:     829628
L1I LOAD      ACCESS:   57081864  HIT:   56252236  MISS:     829628
L1I RFO       ACCESS:          0  HIT:          0  MISS:          0
L1I PREFETCH  ACCESS:          0  HIT:          0  MISS:          0
L1I WRITEBACK ACCESS:          0  HIT:          0  MISS:          0
L2C TOTAL     ACCESS:   28096162  HIT:   21628739  MISS:    6467423
L2C LOAD      ACCESS:   24234493  HIT:   18789307  MISS:    5445186
L2C RFO       ACCESS:    1813086  HIT:     790910  MISS:    1022176
L2C PREFETCH  ACCESS:          0  HIT:          0  MISS:          0
L2C WRITEBACK ACCESS:    2048583  HIT:    2048522  MISS:         61
LLC TOTAL     ACCESS:    7442272  HIT:    5843805  MISS:    1598467
LLC LOAD      ACCESS:    5445014  HIT:    3865861  MISS:    1579153
LLC RFO       ACCESS:     911419  HIT:     892661  MISS:      18758
LLC PREFETCH  ACCESS:          0  HIT:          0  MISS:          0
LLC WRITEBACK ACCESS:    1085839  HIT:    1085283  MISS:        556

CPU 1 cumulative IPC: 0.775281 instructions: 295584860 cycles: 381261737
L1D TOTAL     ACCESS:  117726781  HIT:   94221178  MISS:   23505603
L1D LOAD      ACCESS:   94411958  HIT:   72853931  MISS:   21558027
L1D RFO       ACCESS:   23314823  HIT:   21367247  MISS:    1947576
L1D PREFETCH  ACCESS:          0  HIT:          0  MISS:          0
L1D WRITEBACK ACCESS:          0  HIT:          0  MISS:          0
L1I TOTAL     ACCESS:   68999683  HIT:   60477402  MISS:    8522281
L1I LOAD      ACCESS:   68999683  HIT:   60477402  MISS:    8522281
L1I RFO       ACCESS:          0  HIT:          0  MISS:          0
L1I PREFETCH  ACCESS:          0  HIT:          0  MISS:          0
L1I WRITEBACK ACCESS:          0  HIT:          0  MISS:          0
L2C TOTAL     ACCESS:   34194342  HIT:   31416245  MISS:    2778097
L2C LOAD      ACCESS:   30078970  HIT:   27575788  MISS:    2503182
L2C RFO       ACCESS:    1946387  HIT:    1672473  MISS:     273914
L2C PREFETCH  ACCESS:          0  HIT:          0  MISS:          0
L2C WRITEBACK ACCESS:    2168985  HIT:    2167984  MISS:       1001
LLC TOTAL     ACCESS:    3029714  HIT:    2241768  MISS:     787946
LLC LOAD      ACCESS:    2503162  HIT:    1889403  MISS:     613759
LLC RFO       ACCESS:     251152  HIT:      78115  MISS:     173037
LLC PREFETCH  ACCESS:          0  HIT:          0  MISS:          0
LLC WRITEBACK ACCESS:     275400  HIT:     274250  MISS:       1150

CPU 2 cumulative IPC: 0.466243 instructions: 177760681 cycles: 381261737
L1D TOTAL     ACCESS:   40676218  HIT:   39465022  MISS:    1211196
L1D LOAD      ACCESS:   26200903  HIT:   25145384  MISS:    1055519
L1D RFO       ACCESS:   14475315  HIT:   14319638  MISS:     155677
L1D PREFETCH  ACCESS:          0  HIT:          0  MISS:          0
L1D WRITEBACK ACCESS:          0  HIT:          0  MISS:          0
L1I TOTAL     ACCESS:   34881046  HIT:   34880698  MISS:        348
L1I LOAD      ACCESS:   34881046  HIT:   34880698  MISS:        348
L1I RFO       ACCESS:          0  HIT:          0  MISS:          0
L1I PREFETCH  ACCESS:          0  HIT:          0  MISS:          0
L1I WRITEBACK ACCESS:          0  HIT:          0  MISS:          0
L2C TOTAL     ACCESS:    1998975  HIT:    1322313  MISS:     676662
L2C LOAD      ACCESS:    1055838  HIT:     441538  MISS:     614300
L2C RFO       ACCESS:     155612  HIT:      95903  MISS:      59709
L2C PREFETCH  ACCESS:          0  HIT:          0  MISS:          0
L2C WRITEBACK ACCESS:     787525  HIT:     784872  MISS:       2653
LLC TOTAL     ACCESS:    1138580  HIT:     582881  MISS:     555699
LLC LOAD      ACCESS:     614300  HIT:     134859  MISS:     479441
LLC RFO       ACCESS:      59707  HIT:      17064  MISS:      42643
LLC PREFETCH  ACCESS:          0  HIT:          0  MISS:          0
LLC WRITEBACK ACCESS:     464573  HIT:     430958  MISS:      33615

CPU 3 cumulative IPC: 0.272515 instructions: 103899547 cycles: 381261737
L1D TOTAL     ACCESS:   26301470  HIT:   23449248  MISS:    2852222
L1D LOAD      ACCESS:   21196630  HIT:   18821153  MISS:    2375477
L1D RFO       ACCESS:    5104840  HIT:    4628095  MISS:     476745
L1D PREFETCH  ACCESS:          0  HIT:          0  MISS:          0
L1D WRITEBACK ACCESS:          0  HIT:          0  MISS:          0
L1I TOTAL     ACCESS:   25496446  HIT:   25491960  MISS:       4486
L1I LOAD      ACCESS:   25496446  HIT:   25491960  MISS:       4486
L1I RFO       ACCESS:          0  HIT:          0  MISS:          0
L1I PREFETCH  ACCESS:          0  HIT:          0  MISS:          0
L1I WRITEBACK ACCESS:          0  HIT:          0  MISS:          0
L2C TOTAL     ACCESS:    3924994  HIT:    1815926  MISS:    2109068
L2C LOAD      ACCESS:    2379915  HIT:     604340  MISS:    1775575
L2C RFO       ACCESS:     476745  HIT:     144370  MISS:     332375
L2C PREFETCH  ACCESS:          0  HIT:          0  MISS:          0
L2C WRITEBACK ACCESS:    1068334  HIT:    1067216  MISS:       1118
LLC TOTAL     ACCESS:    2928541  HIT:     965747  MISS:    1962794
LLC LOAD      ACCESS:    1775574  HIT:     129797  MISS:    1645777
LLC RFO       ACCESS:     332375  HIT:      19254  MISS:     313121
LLC PREFETCH  ACCESS:          0  HIT:          0  MISS:          0
LLC WRITEBACK ACCESS:     820592  HIT:     816696  MISS:       3896

CPU 4 cumulative IPC: 0.262287 instructions: 100000000 cycles: 381261737
L1D TOTAL     ACCESS:   28515155  HIT:   20636212  MISS:    7878943
L1D LOAD      ACCESS:   10140339  HIT:    8945756  MISS:    1194583
L1D RFO       ACCESS:   18374816  HIT:   11690456  MISS:    6684360
L1D PREFETCH  ACCESS:          0  HIT:          0  MISS:          0
L1D WRITEBACK ACCESS:          0  HIT:          0  MISS:          0
L1I TOTAL     ACCESS:   23945285  HIT:   23945285  MISS:          0
L1I LOAD      ACCESS:   23945285  HIT:   23945285  MISS:          0
L1I RFO       ACCESS:          0  HIT:          0  MISS:          0
L1I PREFETCH  ACCESS:          0  HIT:          0  MISS:          0
L1I WRITEBACK ACCESS:          0  HIT:          0  MISS:          0
L2C TOTAL     ACCESS:   14563291  HIT:    8662920  MISS:    5900371
L2C LOAD      ACCESS:    1194583  HIT:        521  MISS:    1194062
L2C RFO       ACCESS:    6684350  HIT:    1979687  MISS:    4704663
L2C PREFETCH  ACCESS:          0  HIT:          0  MISS:          0
L2C WRITEBACK ACCESS:    6684358  HIT:    6682712  MISS:       1646
LLC TOTAL     ACCESS:   10602328  HIT:    5829276  MISS:    4773052
LLC LOAD      ACCESS:    1194062  HIT:        875  MISS:    1193187
LLC RFO       ACCESS:    4701977  HIT:    1122489  MISS:    3579488
LLC PREFETCH  ACCESS:          0  HIT:          0  MISS:          0
LLC WRITEBACK ACCESS:    4706289  HIT:    4705912  MISS:        377

CPU 5 cumulative IPC: 0.264119 instructions: 100698610 cycles: 381261737
L1D TOTAL     ACCESS:   28552621  HIT:   20663109  MISS:    7889512
L1D LOAD      ACCESS:   10087287  HIT:    8889919  MISS:    1197368
L1D RFO       ACCESS:   18465334  HIT:   11773190  MISS:    6692144
L1D PREFETCH  ACCESS:          0  HIT:          0  MISS:          0
L1D WRITEBACK ACCESS:          0  HIT:          0  MISS:          0
L1I TOTAL     ACCESS:   24107732  HIT:   24107732  MISS:          0
L1I LOAD      ACCESS:   24107732  HIT:   24107732  MISS:          0
L1I RFO       ACCESS:          0  HIT:          0  MISS:          0
L1I PREFETCH  ACCESS:          0  HIT:          0  MISS:          0
L1I WRITEBACK ACCESS:          0  HIT:          0  MISS:          0
L2C TOTAL     ACCESS:   14581602  HIT:    8684692  MISS:    5896910
L2C LOAD      ACCESS:    1197368  HIT:       1629  MISS:    1195739
L2C RFO       ACCESS:    6692090  HIT:    1992892  MISS:    4699198
L2C PREFETCH  ACCESS:          0  HIT:          0  MISS:          0
L2C WRITEBACK ACCESS:    6692144  HIT:    6690171  MISS:       1973
LLC TOTAL     ACCESS:   10593208  HIT:    5815377  MISS:    4777831
LLC LOAD      ACCESS:    1195739  HIT:       1369  MISS:    1194370
LLC RFO       ACCESS:    4696427  HIT:    1113319  MISS:    3583108
LLC PREFETCH  ACCESS:          0  HIT:          0  MISS:          0
LLC WRITEBACK ACCESS:    4701042  HIT:    4700689  MISS:        353

CPU 6 cumulative IPC: 0.701819 instructions: 267576540 cycles: 381261737
L1D TOTAL     ACCESS:   49292558  HIT:   44452142  MISS:    4840416
L1D LOAD      ACCESS:   35097819  HIT:   31918075  MISS:    3179744
L1D RFO       ACCESS:   14194739  HIT:   12534067  MISS:    1660672
L1D PREFETCH  ACCESS:          0  HIT:          0  MISS:          0
L1D WRITEBACK ACCESS:          0  HIT:          0  MISS:          0
L1I TOTAL     ACCESS:   64052359  HIT:   63910527  MISS:     141832
L1I LOAD      ACCESS:   64052359  HIT:   63910527  MISS:     141832
L1I RFO       ACCESS:          0  HIT:          0  MISS:          0
L1I PREFETCH  ACCESS:          0  HIT:          0  MISS:          0
L1I WRITEBACK ACCESS:          0  HIT:          0  MISS:          0
L2C TOTAL     ACCESS:    7080108  HIT:    4873780  MISS:    2206328
L2C LOAD      ACCESS:    3321451  HIT:    1858018  MISS:    1463433
L2C RFO       ACCESS:    1660628  HIT:     919246  MISS:     741382
L2C PREFETCH  ACCESS:          0  HIT:          0  MISS:          0
L2C WRITEBACK ACCESS:    2098029  HIT:    2096516  MISS:       1513
LLC TOTAL     ACCESS:    3242594  HIT:    2182617  MISS:    1059977
LLC LOAD      ACCESS:    1463430  HIT:     787120  MISS:     676310
LLC RFO       ACCESS:     741382  HIT:     374812  MISS:     366570
LLC PREFETCH  ACCESS:          0  HIT:          0  MISS:          0
LLC WRITEBACK ACCESS:    1037782  HIT:    1020685  MISS:      17097

CPU 7 cumulative IPC: 0.335788 instructions: 128023115 cycles: 381261737
L1D TOTAL     ACCESS:   33504853  HIT:   26718707  MISS:    6786146
L1D LOAD      ACCESS:   12649287  HIT:   11620876  MISS:    1028411
L1D RFO       ACCESS:   20855566  HIT:   15097831  MISS:    5757735
L1D PREFETCH  ACCESS:          0  HIT:          0  MISS:          0
L1D WRITEBACK ACCESS:          0  HIT:          0  MISS:          0
L1I TOTAL     ACCESS:   30088061  HIT:   30088061  MISS:          0
L1I LOAD      ACCESS:   30088061  HIT:   30088061  MISS:          0
L1I RFO       ACCESS:          0  HIT:          0  MISS:          0
L1I PREFETCH  ACCESS:          0  HIT:          0  MISS:          0
L1I WRITEBACK ACCESS:          0  HIT:          0  MISS:          0
L2C TOTAL     ACCESS:   12543881  HIT:    7405240  MISS:    5138641
L2C LOAD      ACCESS:    1028411  HIT:        118  MISS:    1028293
L2C RFO       ACCESS:    5757735  HIT:    1647834  MISS:    4109901
L2C PREFETCH  ACCESS:          0  HIT:          0  MISS:          0
L2C WRITEBACK ACCESS:    5757735  HIT:    5757288  MISS:        447
LLC TOTAL     ACCESS:    9245945  HIT:    5133487  MISS:    4112458
LLC LOAD      ACCESS:    1028293  HIT:        173  MISS:    1028120
LLC RFO       ACCESS:    4107429  HIT:    1023249  MISS:    3084180
LLC PREFETCH  ACCESS:          0  HIT:          0  MISS:          0
LLC WRITEBACK ACCESS:    4110223  HIT:    4110065  MISS:        158

Region of Interest Statistics

CPU 0 cumulative IPC: 0.620347 instructions: 100000000 cycles: 161200136
L1D TOTAL     ACCESS:   32593212  HIT:   22169067  MISS:   10424145
L1D LOAD      ACCESS:   22350226  HIT:   12690506  MISS:    9659720
L1D RFO       ACCESS:   10242986  HIT:    9478561  MISS:     764425
L1D PREFETCH  ACCESS:          0  HIT:          0  MISS:          0
L1D WRITEBACK ACCESS:          0  HIT:          0  MISS:          0
L1D PREFETCH  REQUESTED:          0  ISSUED:          0  USEFUL:          0  USELESS:          0
L1I TOTAL     ACCESS:   24747388  HIT:   23917760  MISS:     829628
L1I LOAD      ACCESS:   24747388  HIT:   23917760  MISS:     829628
L1I RFO       ACCESS:          0  HIT:          0  MISS:          0
L1I PREFETCH  ACCESS:          0  HIT:          0  MISS:          0
L1I WRITEBACK ACCESS:          0  HIT:          0  MISS:          0
L1I PREFETCH  REQUESTED:          0  ISSUED:          0  USEFUL:          0  USELESS:          0
L2C TOTAL     ACCESS:   12080143  HIT:    9627619  MISS:    2452524
L2C LOAD      ACCESS:   10455100  HIT:    8380971  MISS:    2074129
L2C RFO       ACCESS:     763927  HIT:     385593  MISS:     378334
L2C PREFETCH  ACCESS:          0  HIT:          0  MISS:          0
L2C WRITEBACK ACCESS:     861116  HIT:     861055  MISS:         61
L2C PREFETCH  REQUESTED:          0  ISSUED:          0  USEFUL:          0  USELESS:          0
LLC TOTAL     ACCESS:    2808782  HIT:    2199990  MISS:     608792
LLC LOAD      ACCESS:    2074074  HIT:    1484392  MISS:     589682
LLC RFO       ACCESS:     335033  HIT:     316275  MISS:      18758
LLC PREFETCH  ACCESS:          0  HIT:          0  MISS:          0
LLC WRITEBACK ACCESS:     399675  HIT:     399323  MISS:        352
LLC PREFETCH  REQUESTED:          0  ISSUED:          0  USEFUL:          0  USELESS:          0
Major fault: 0 Minor fault: 17101

CPU 1 cumulative IPC: 0.770188 instructions: 100000003 cycles: 129838382
L1D TOTAL     ACCESS:   39830153  HIT:   31877607  MISS:    7952546
L1D LOAD      ACCESS:   31942328  HIT:   24648554  MISS:    7293774
L1D RFO       ACCESS:    7887825  HIT:    7229053  MISS:     658772
L1D PREFETCH  ACCESS:          0  HIT:          0  MISS:          0
L1D WRITEBACK ACCESS:          0  HIT:          0  MISS:          0
L1D PREFETCH  REQUESTED:          0  ISSUED:          0  USEFUL:          0  USELESS:          0
L1I TOTAL     ACCESS:   23350907  HIT:   20467337  MISS:    2883570
L1I LOAD      ACCESS:   23350907  HIT:   20467337  MISS:    2883570
L1I RFO       ACCESS:          0  HIT:          0  MISS:          0
L1I PREFETCH  ACCESS:          0  HIT:          0  MISS:          0
L1I WRITEBACK ACCESS:          0  HIT:          0  MISS:          0
L1I PREFETCH  REQUESTED:          0  ISSUED:          0  USEFUL:          0  USELESS:          0
L2C TOTAL     ACCESS:   11568966  HIT:   10645691  MISS:     923275
L2C LOAD      ACCESS:   10176911  HIT:    9342884  MISS:     834027
L2C RFO       ACCESS:     658376  HIT:     569457  MISS:      88919
L2C PREFETCH  ACCESS:          0  HIT:          0  MISS:          0
L2C WRITEBACK ACCESS:     733679  HIT:     733350  MISS:        329
L2C PREFETCH  REQUESTED:          0  ISSUED:          0  USEFUL:          0  USELESS:          0
LLC TOTAL     ACCESS:    1005763  HIT:     737461  MISS:     268302
LLC LOAD      ACCESS:     834021  HIT:     624596  MISS:     209425
LLC RFO       ACCESS:      82408  HIT:      23883  MISS:      58525
LLC PREFETCH  ACCESS:          0  HIT:          0  MISS:          0
LLC WRITEBACK ACCESS:      89334  HIT:      88982  MISS:        352
LLC PREFETCH  REQUESTED:          0  ISSUED:          0  USEFUL:          0  USELESS:          0
Major fault: 0 Minor fault: 9603

CPU 2 cumulative IPC: 0.42037 instructions: 100000001 cycles: 237885832
L1D TOTAL     ACCESS:   22183018  HIT:   21406450  MISS:     776568
L1D LOAD      ACCESS:   14634744  HIT:   13953747  MISS:     680997
L1D RFO       ACCESS:    7548274  HIT:    7452703  MISS:      95571
L1D PREFETCH  ACCESS:          0  HIT:          0  MISS:          0
L1D WRITEBACK ACCESS:          0  HIT:          0  MISS:          0
L1D PREFETCH  REQUESTED:          0  ISSUED:          0  USEFUL:          0  USELESS:          0
L1I TOTAL     ACCESS:   19532061  HIT:   19531878  MISS:        183
L1I LOAD      ACCESS:   19532061  HIT:   19531878  MISS:        183
L1I RFO       ACCESS:          0  HIT:          0  MISS:          0
L1I PREFETCH  ACCESS:          0  HIT:          0  MISS:          0
L1I WRITEBACK ACCESS:          0  HIT:          0  MISS:          0
L1I PREFETCH  REQUESTED:          0  ISSUED:          0  USEFUL:          0  USELESS:          0
L2C TOTAL     ACCESS:    1269808  HIT:     819506  MISS:     450302
L2C LOAD      ACCESS:     681164  HIT:     267797  MISS:     413367
L2C RFO       ACCESS:      95529  HIT:      60152  MISS:      35377
L2C PREFETCH  ACCESS:          0  HIT:          0  MISS:          0
L2C WRITEBACK ACCESS:     493115  HIT:     491557  MISS:       1558
L2C PREFETCH  REQUESTED:          0  ISSUED:          0  USEFUL:          0  USELESS:          0
LLC TOTAL     ACCESS:     755283  HIT:     391063  MISS:     364220
LLC LOAD      ACCESS:     413367  HIT:      90458  MISS:     322909
LLC RFO       ACCESS:      35375  HIT:      10833  MISS:      24542
LLC PREFETCH  ACCESS:          0  HIT:          0  MISS:          0
LLC WRITEBACK ACCESS:     306541  HIT:     289772  MISS:      16769
LLC PREFETCH  REQUESTED:          0  ISSUED:          0  USEFUL:          0  USELESS:          0
Major fault: 0 Minor fault: 8042

CPU 3 cumulative IPC: 0.268776 instructions: 100000001 cycles: 372057226
L1D TOTAL     ACCESS:   25385256  HIT:   22554899  MISS:    2830357
L1D LOAD      ACCESS:   20400777  HIT:   18046965  MISS:    2353812
L1D RFO       ACCESS:    4984479  HIT:    4507934  MISS:     476545
L1D PREFETCH  ACCESS:          0  HIT:          0  MISS:          0
L1D WRITEBACK ACCESS:          0  HIT:          0  MISS:          0
L1D PREFETCH  REQUESTED:          0  ISSUED:          0  USEFUL:          0  USELESS:          0
L1I TOTAL     ACCESS:   24531202  HIT:   24526745  MISS:       4457
L1I LOAD      ACCESS:   24531202  HIT:   24526745  MISS:       4457
L1I RFO       ACCESS:          0  HIT:          0  MISS:          0
L1I PREFETCH  ACCESS:          0  HIT:          0  MISS:          0
L1I WRITEBACK ACCESS:          0  HIT:          0  MISS:          0
L1I PREFETCH  REQUESTED:          0  ISSUED:          0  USEFUL:          0  USELESS:          0
L2C TOTAL     ACCESS:    3895716  HIT:    1807872  MISS:    2087844
L2C LOAD      ACCESS:    2358221  HIT:     603558  MISS:    1754663
L2C RFO       ACCESS:     476545  HIT:     144300  MISS:     332245
L2C PREFETCH  ACCESS:          0  HIT:          0  MISS:          0
L2C WRITEBACK ACCESS:    1060950  HIT:    1060014  MISS:        936
L2C PREFETCH  REQUESTED:          0  ISSUED:          0  USEFUL:          0  USELESS:          0
LLC TOTAL     ACCESS:    2900331  HIT:     958744  MISS:    1941587
LLC LOAD      ACCESS:    1754662  HIT:     129785  MISS:    1624877
LLC RFO       ACCESS:     332245  HIT:      19254  MISS:     312991
LLC PREFETCH  ACCESS:          0  HIT:          0  MISS:          0
LLC WRITEBACK ACCESS:     813424  HIT:     809705  MISS:       3719
LLC PREFETCH  REQUESTED:          0  ISSUED:          0  USEFUL:          0  USELESS:          0
Major fault: 0 Minor fault: 8569

CPU 4 cumulative IPC: 0.262287 instructions: 100000000 cycles: 381261737
L1D TOTAL     ACCESS:   28515155  HIT:   20636212  MISS:    7878943
L1D LOAD      ACCESS:   10140339  HIT:    8945756  MISS:    1194583
L1D RFO       ACCESS:   18374816  HIT:   11690456  MISS:    6684360
L1D PREFETCH  ACCESS:          0  HIT:          0  MISS:          0
L1D WRITEBACK ACCESS:          0  HIT:          0  MISS:          0
L1D PREFETCH  REQUESTED:          0  ISSUED:          0  USEFUL:          0  USELESS:          0
L1I TOTAL     ACCESS:   23945285  HIT:   23945285  MISS:          0
L1I LOAD      ACCESS:   23945285  HIT:   23945285  MISS:          0
L1I RFO       ACCESS:          0  HIT:          0  MISS:          0
L1I PREFETCH  ACCESS:          0  HIT:          0  MISS:          0
L1I WRITEBACK ACCESS:          0  HIT:          0  MISS:          0
L1I PREFETCH  REQUESTED:          0  ISSUED:          0  USEFUL:          0  USELESS:          0
L2C TOTAL     ACCESS:   14563291  HIT:    8662920  MISS:    5900371
L2C LOAD      ACCESS:    1194583  HIT:        521  MISS:    1194062
L2C RFO       ACCESS:    6684350  HIT:    1979687  MISS:    4704663
L2C PREFETCH  ACCESS:          0  HIT:          0  MISS:          0
L2C WRITEBACK ACCESS:    6684358  HIT:    6682712  MISS:       1646
L2C PREFETCH  REQUESTED:          0  ISSUED:          0  USEFUL:          0  USELESS:          0
LLC TOTAL     ACCESS:   10602328  HIT:    5829276  MISS:    4773052
LLC LOAD      ACCESS:    1194062  HIT:        875  MISS:    1193187
LLC RFO       ACCESS:    4701977  HIT:    1122489  MISS:    3579488
LLC PREFETCH  ACCESS:          0  HIT:          0  MISS:          0
LLC WRITEBACK ACCESS:    4706289  HIT:    4705912  MISS:        377
LLC PREFETCH  REQUESTED:          0  ISSUED:          0  USEFUL:          0  USELESS:          0
Major fault: 0 Minor fault: 49088

CPU 5 cumulative IPC: 0.264123 instructions: 100000001 cycles: 378611829
L1D TOTAL     ACCESS:   28353087  HIT:   20520028  MISS:    7833059
L1D LOAD      ACCESS:   10017369  HIT:    8828565  MISS:    1188804
L1D RFO       ACCESS:   18335718  HIT:   11691463  MISS:    6644255
L1D PREFETCH  ACCESS:          0  HIT:          0  MISS:          0
L1D WRITEBACK ACCESS:          0  HIT:          0  MISS:          0
L1D PREFETCH  REQUESTED:          0  ISSUED:          0  USEFUL:          0  USELESS:          0
L1I TOTAL     ACCESS:   23940384  HIT:   23940384  MISS:          0
L1I LOAD      ACCESS:   23940384  HIT:   23940384  MISS:          0
L1I RFO       ACCESS:          0  HIT:          0  MISS:          0
L1I PREFETCH  ACCESS:          0  HIT:          0  MISS:          0
L1I WRITEBACK ACCESS:          0  HIT:          0  MISS:          0
L1I PREFETCH  REQUESTED:          0  ISSUED:          0  USEFUL:          0  USELESS:          0
L2C TOTAL     ACCESS:   14477256  HIT:    8622352  MISS:    5854904
L2C LOAD      ACCESS:    1188804  HIT:       1618  MISS:    1187186
L2C RFO       ACCESS:    6644201  HIT:    1978445  MISS:    4665756
L2C PREFETCH  ACCESS:          0  HIT:          0  MISS:          0
L2C WRITEBACK ACCESS:    6644251  HIT:    6642289  MISS:       1962
L2C PREFETCH  REQUESTED:          0  ISSUED:          0  USEFUL:          0  USELESS:          0
LLC TOTAL     ACCESS:   10517716  HIT:    5774080  MISS:    4743636
LLC LOAD      ACCESS:    1187186  HIT:       1364  MISS:    1185822
LLC RFO       ACCESS:    4662996  HIT:    1105533  MISS:    3557463
LLC PREFETCH  ACCESS:          0  HIT:          0  MISS:          0
LLC WRITEBACK ACCESS:    4667534  HIT:    4667183  MISS:        351
LLC PREFETCH  REQUESTED:          0  ISSUED:          0  USEFUL:          0  USELESS:          0
Major fault: 0 Minor fault: 49111

CPU 6 cumulative IPC: 0.701241 instructions: 100000001 cycles: 142604291
L1D TOTAL     ACCESS:   18684471  HIT:   16777381  MISS:    1907090
L1D LOAD      ACCESS:   13509831  HIT:   12286995  MISS:    1222836
L1D RFO       ACCESS:    5174640  HIT:    4490386  MISS:     684254
L1D PREFETCH  ACCESS:          0  HIT:          0  MISS:          0
L1D WRITEBACK ACCESS:          0  HIT:          0  MISS:          0
L1D PREFETCH  REQUESTED:          0  ISSUED:          0  USEFUL:          0  USELESS:          0
L1I TOTAL     ACCESS:   23399696  HIT:   23348127  MISS:      51569
L1I LOAD      ACCESS:   23399696  HIT:   23348127  MISS:      51569
L1I RFO       ACCESS:          0  HIT:          0  MISS:          0
L1I PREFETCH  ACCESS:          0  HIT:          0  MISS:          0
L1I WRITEBACK ACCESS:          0  HIT:          0  MISS:          0
L1I PREFETCH  REQUESTED:          0  ISSUED:          0  USEFUL:          0  USELESS:          0
L2C TOTAL     ACCESS:    2805849  HIT:    1976084  MISS:     829765
L2C LOAD      ACCESS:    1274345  HIT:     727277  MISS:     547068
L2C RFO       ACCESS:     684226  HIT:     402013  MISS:     282213
L2C PREFETCH  ACCESS:          0  HIT:          0  MISS:          0
L2C WRITEBACK ACCESS:     847278  HIT:     846794  MISS:        484
L2C PREFETCH  REQUESTED:          0  ISSUED:          0  USEFUL:          0  USELESS:          0
LLC TOTAL     ACCESS:    1218629  HIT:     810529  MISS:     408100
LLC LOAD      ACCESS:     547065  HIT:     286290  MISS:     260775
LLC RFO       ACCESS:     282213  HIT:     140697  MISS:     141516
LLC PREFETCH  ACCESS:          0  HIT:          0  MISS:          0
LLC WRITEBACK ACCESS:     389351  HIT:     383542  MISS:       5809
LLC PREFETCH  REQUESTED:          0  ISSUED:          0  USEFUL:          0  USELESS:          0
Major fault: 0 Minor fault: 11459

CPU 7 cumulative IPC: 0.325051 instructions: 100000000 cycles: 307644156
L1D TOTAL     ACCESS:   26380069  HIT:   20787356  MISS:    5592713
L1D LOAD      ACCESS:    9852657  HIT:    9005071  MISS:     847586
L1D RFO       ACCESS:   16527412  HIT:   11782285  MISS:    4745127
L1D PREFETCH  ACCESS:          0  HIT:          0  MISS:          0
L1D WRITEBACK ACCESS:          0  HIT:          0  MISS:          0
L1D PREFETCH  REQUESTED:          0  ISSUED:          0  USEFUL:          0  USELESS:          0
L1I TOTAL     ACCESS:   23544616  HIT:   23544616  MISS:          0
L1I LOAD      ACCESS:   23544616  HIT:   23544616  MISS:          0
L1I RFO       ACCESS:          0  HIT:          0  MISS:          0
L1I PREFETCH  ACCESS:          0  HIT:          0  MISS:          0
L1I WRITEBACK ACCESS:          0  HIT:          0  MISS:          0
L1I PREFETCH  REQUESTED:          0  ISSUED:          0  USEFUL:          0  USELESS:          0
L2C TOTAL     ACCESS:   10337842  HIT:    6103748  MISS:    4234094
L2C LOAD      ACCESS:     847586  HIT:        118  MISS:     847468
L2C RFO       ACCESS:    4745127  HIT:    1358937  MISS:    3386190
L2C PREFETCH  ACCESS:          0  HIT:          0  MISS:          0
L2C WRITEBACK ACCESS:    4745129  HIT:    4744693  MISS:        436
L2C PREFETCH  REQUESTED:          0  ISSUED:          0  USEFUL:          0  USELESS:          0
LLC TOTAL     ACCESS:    7618061  HIT:    4228902  MISS:    3389159
LLC LOAD      ACCESS:     847468  HIT:        172  MISS:     847296
LLC RFO       ACCESS:    3384071  HIT:     842356  MISS:    2541715
LLC PREFETCH  ACCESS:          0  HIT:          0  MISS:          0
LLC WRITEBACK ACCESS:    3386522  HIT:    3386374  MISS:        148
LLC PREFETCH  REQUESTED:          0  ISSUED:          0  USEFUL:          0  USELESS:          0
Major fault: 0 Minor fault: 43573

DRAM Statistics
 CHANNEL 0
 RQ ROW_BUFFER_HIT:    2289307  ROW_BUFFER_MISS:    7497012
 DBUS_CONGESTED:   26183009
 WQ ROW_BUFFER_HIT:     615875  ROW_BUFFER_MISS:    5530212  FULL:          0

 CHANNEL 1
 RQ ROW_BUFFER_HIT:    2287842  ROW_BUFFER_MISS:    7496775
 DBUS_CONGESTED:   26183009
 WQ ROW_BUFFER_HIT:     617881  ROW_BUFFER_MISS:    5524365  FULL:          0

 AVG_CONGESTED_CYCLE: 14
