
*** ChampSim Multicore Out-of-Order Simulator ***

Warmup Instructions: 20000000
Simulation Instructions: 100000000
Number of CPUs: 8
LLC sets: 16384
LLC ways: 16
Off-chip DRAM Size: 8192 MB Channels: 2 Width: 64-bit Data Rate: 1600 MT/s

CPU 0 runs /scratch/user/djimenez/champsim-traces/speccpu2017/xz/623.xalancbmk_s/623.xalancbmk_s-592B.champsimtrace.xz
CPU 1 runs /scratch/user/djimenez/champsim-traces/speccpu2017/xz/602.gcc_s/602.gcc_s-1850B.champsimtrace.xz
CPU 2 runs /scratch/user/djimenez/champsim-traces/speccpu2017/xz/605.mcf_s/605.mcf_s-994B.champsimtrace.xz
CPU 3 runs /scratch/user/djimenez/champsim-traces/speccpu2017/xz/605.mcf_s/605.mcf_s-1536B.champsimtrace.xz
CPU 4 runs /scratch/user/djimenez/champsim-traces/speccpu2017/xz/603.bwaves_s/603.bwaves_s-2609B.champsimtrace.xz
CPU 5 runs /scratch/user/djimenez/champsim-traces/speccpu2017/xz/654.roms_s/654.roms_s-1390B.champsimtrace.xz
CPU 6 runs /scratch/user/djimenez/champsim-traces/speccpu2017/xz/649.fotonik3d_s/649.fotonik3d_s-10881B.champsimtrace.xz
CPU 7 runs /scratch/user/djimenez/champsim-traces/speccpu2017/xz/619.lbm_s/619.lbm_s-3766B.champsimtrace.xz
Heartbeat CPU 3 instructions: 10000002 cycles: 3669631 heartbeat IPC: 2.72507 cumulative IPC: 2.72507 (Simulation time: 0 hr 3 min 42 sec) 
Heartbeat CPU 7 instructions: 10000000 cycles: 4266920 heartbeat IPC: 2.34361 cumulative IPC: 2.34361 (Simulation time: 0 hr 4 min 22 sec) 
Heartbeat CPU 0 instructions: 10000002 cycles: 5038252 heartbeat IPC: 1.98482 cumulative IPC: 1.98482 (Simulation time: 0 hr 5 min 9 sec) 
Heartbeat CPU 4 instructions: 10000001 cycles: 5287690 heartbeat IPC: 1.89119 cumulative IPC: 1.89119 (Simulation time: 0 hr 5 min 23 sec) 
Heartbeat CPU 2 instructions: 10000000 cycles: 5611348 heartbeat IPC: 1.7821 cumulative IPC: 1.7821 (Simulation time: 0 hr 5 min 41 sec) 
Heartbeat CPU 1 instructions: 10000001 cycles: 5673497 heartbeat IPC: 1.76258 cumulative IPC: 1.76258 (Simulation time: 0 hr 5 min 44 sec) 
Heartbeat CPU 5 instructions: 10000001 cycles: 6741450 heartbeat IPC: 1.48336 cumulative IPC: 1.48336 (Simulation time: 0 hr 6 min 43 sec) 
Heartbeat CPU 3 instructions: 20000000 cycles: 7332805 heartbeat IPC: 2.72987 cumulative IPC: 2.72747 (Simulation time: 0 hr 7 min 15 sec) 
Heartbeat CPU 6 instructions: 10000001 cycles: 8416490 heartbeat IPC: 1.18814 cumulative IPC: 1.18814 (Simulation time: 0 hr 8 min 20 sec) 
Heartbeat CPU 7 instructions: 20000000 cycles: 8542596 heartbeat IPC: 2.33881 cumulative IPC: 2.34121 (Simulation time: 0 hr 8 min 27 sec) 
Heartbeat CPU 0 instructions: 20000000 cycles: 10148970 heartbeat IPC: 1.95667 cumulative IPC: 1.97064 (Simulation time: 0 hr 9 min 54 sec) 
Heartbeat CPU 4 instructions: 20000000 cycles: 10576621 heartbeat IPC: 1.89074 cumulative IPC: 1.89096 (Simulation time: 0 hr 10 min 18 sec) 
Heartbeat CPU 3 instructions: 30000002 cycles: 11011499 heartbeat IPC: 2.71836 cumulative IPC: 0.908142 (Simulation time: 0 hr 10 min 42 sec) 
Heartbeat CPU 2 instructions: 20000000 cycles: 11285941 heartbeat IPC: 1.76224 cumulative IPC: 1.77212 (Simulation time: 0 hr 10 min 57 sec) 
Heartbeat CPU 1 instructions: 20000000 cycles: 11353338 heartbeat IPC: 1.76061 cumulative IPC: 1.7616 (Simulation time: 0 hr 11 min 1 sec) 
Heartbeat CPU 5 instructions: 20000000 cycles: 11854265 heartbeat IPC: 1.95587 cumulative IPC: 1.68716 (Simulation time: 0 hr 11 min 28 sec) 
Heartbeat CPU 7 instructions: 30000001 cycles: 12809959 heartbeat IPC: 2.34337 cumulative IPC: 0.780643 (Simulation time: 0 hr 12 min 18 sec) 
Heartbeat CPU 3 instructions: 40000000 cycles: 14693453 heartbeat IPC: 2.71595 cumulative IPC: 1.36115 (Simulation time: 0 hr 13 min 55 sec) 
Heartbeat CPU 4 instructions: 30000000 cycles: 15863548 heartbeat IPC: 1.89146 cumulative IPC: 0.630376 (Simulation time: 0 hr 14 min 55 sec) 
Heartbeat CPU 0 instructions: 30000003 cycles: 16134323 heartbeat IPC: 1.67075 cumulative IPC: 0.619797 (Simulation time: 0 hr 15 min 9 sec) 
Heartbeat CPU 5 instructions: 30000003 cycles: 16364512 heartbeat IPC: 2.21717 cumulative IPC: 0.611079 (Simulation time: 0 hr 15 min 21 sec) 
Heartbeat CPU 6 instructions: 20000000 cycles: 16801359 heartbeat IPC: 1.19262 cumulative IPC: 1.19038 (Simulation time: 0 hr 15 min 43 sec) 

Warmup complete CPU 0 instructions: 30990080 cycles: 16801378 (Simulation time: 0 hr 15 min 43 sec) 
Warmup complete CPU 1 instructions: 29590327 cycles: 16801378 (Simulation time: 0 hr 15 min 43 sec) 
Warmup complete CPU 2 instructions: 29643847 cycles: 16801378 (Simulation time: 0 hr 15 min 43 sec) 
Warmup complete CPU 3 instructions: 45728286 cycles: 16801378 (Simulation time: 0 hr 15 min 43 sec) 
Warmup complete CPU 4 instructions: 31773744 cycles: 16801378 (Simulation time: 0 hr 15 min 43 sec) 
Warmup complete CPU 5 instructions: 31034723 cycles: 16801378 (Simulation time: 0 hr 15 min 43 sec) 
Warmup complete CPU 6 instructions: 20000001 cycles: 16801378 (Simulation time: 0 hr 15 min 43 sec) 
Warmup complete CPU 7 instructions: 39332668 cycles: 16801377 (Simulation time: 0 hr 15 min 43 sec) 

Heartbeat CPU 7 instructions: 40000000 cycles: 18024642 heartbeat IPC: 1.91766 cumulative IPC: 0.545533 (Simulation time: 0 hr 16 min 0 sec) 
Heartbeat CPU 2 instructions: 30000000 cycles: 18250162 heartbeat IPC: 1.43591 cumulative IPC: 0.245829 (Simulation time: 0 hr 16 min 3 sec) 
Heartbeat CPU 1 instructions: 30000003 cycles: 19813871 heartbeat IPC: 1.18196 cumulative IPC: 0.135992 (Simulation time: 0 hr 16 min 25 sec) 
Heartbeat CPU 4 instructions: 40000000 cycles: 34785555 heartbeat IPC: 0.528485 cumulative IPC: 0.457416 (Simulation time: 0 hr 19 min 46 sec) 
Heartbeat CPU 7 instructions: 50000003 cycles: 36592832 heartbeat IPC: 0.538556 cumulative IPC: 0.538987 (Simulation time: 0 hr 20 min 10 sec) 
Heartbeat CPU 3 instructions: 50000003 cycles: 43462736 heartbeat IPC: 0.347593 cumulative IPC: 0.160221 (Simulation time: 0 hr 21 min 46 sec) 
Heartbeat CPU 0 instructions: 40000000 cycles: 44615887 heartbeat IPC: 0.351104 cumulative IPC: 0.323929 (Simulation time: 0 hr 22 min 1 sec) 
Heartbeat CPU 6 instructions: 30000000 cycles: 49972499 heartbeat IPC: 0.301467 cumulative IPC: 0.301467 (Simulation time: 0 hr 23 min 17 sec) 
Heartbeat CPU 2 instructions: 40000000 cycles: 52984772 heartbeat IPC: 0.287897 cumulative IPC: 0.286213 (Simulation time: 0 hr 24 min 4 sec) 
Heartbeat CPU 7 instructions: 60000000 cycles: 55119848 heartbeat IPC: 0.539752 cumulative IPC: 0.539357 (Simulation time: 0 hr 24 min 37 sec) 
Heartbeat CPU 4 instructions: 50000001 cycles: 56742609 heartbeat IPC: 0.455435 cumulative IPC: 0.456327 (Simulation time: 0 hr 25 min 0 sec) 
Heartbeat CPU 5 instructions: 40000000 cycles: 65204445 heartbeat IPC: 0.20475 cumulative IPC: 0.185221 (Simulation time: 0 hr 27 min 3 sec) 
Heartbeat CPU 0 instructions: 50000002 cycles: 72915886 heartbeat IPC: 0.353357 cumulative IPC: 0.33877 (Simulation time: 0 hr 28 min 50 sec) 
Heartbeat CPU 7 instructions: 70000003 cycles: 74205378 heartbeat IPC: 0.523957 cumulative IPC: 0.534237 (Simulation time: 0 hr 29 min 8 sec) 
Heartbeat CPU 4 instructions: 60000000 cycles: 78862467 heartbeat IPC: 0.452082 cumulative IPC: 0.454814 (Simulation time: 0 hr 30 min 14 sec) 
Heartbeat CPU 6 instructions: 40000000 cycles: 83864954 heartbeat IPC: 0.295051 cumulative IPC: 0.298224 (Simulation time: 0 hr 31 min 24 sec) 
Heartbeat CPU 7 instructions: 80000000 cycles: 93181238 heartbeat IPC: 0.526985 cumulative IPC: 0.532435 (Simulation time: 0 hr 33 min 35 sec) 
Heartbeat CPU 1 instructions: 40000000 cycles: 94511685 heartbeat IPC: 0.133873 cumulative IPC: 0.133955 (Simulation time: 0 hr 33 min 53 sec) 
Heartbeat CPU 0 instructions: 60000000 cycles: 99478089 heartbeat IPC: 0.376475 cumulative IPC: 0.350884 (Simulation time: 0 hr 35 min 3 sec) 
Heartbeat CPU 4 instructions: 70000003 cycles: 101014474 heartbeat IPC: 0.451427 cumulative IPC: 0.453923 (Simulation time: 0 hr 35 min 24 sec) 
Heartbeat CPU 5 instructions: 50000003 cycles: 107595795 heartbeat IPC: 0.235897 cumulative IPC: 0.208882 (Simulation time: 0 hr 37 min 0 sec) 
Heartbeat CPU 3 instructions: 60000000 cycles: 107769964 heartbeat IPC: 0.155503 cumulative IPC: 0.156886 (Simulation time: 0 hr 37 min 2 sec) 
Heartbeat CPU 7 instructions: 90000000 cycles: 112418972 heartbeat IPC: 0.519812 cumulative IPC: 0.529895 (Simulation time: 0 hr 38 min 11 sec) 
Heartbeat CPU 6 instructions: 50000001 cycles: 118093959 heartbeat IPC: 0.29215 cumulative IPC: 0.296172 (Simulation time: 0 hr 39 min 40 sec) 
Heartbeat CPU 4 instructions: 80000000 cycles: 122942674 heartbeat IPC: 0.456034 cumulative IPC: 0.454359 (Simulation time: 0 hr 40 min 55 sec) 
Heartbeat CPU 0 instructions: 70000001 cycles: 124803913 heartbeat IPC: 0.394854 cumulative IPC: 0.361194 (Simulation time: 0 hr 41 min 22 sec) 
Heartbeat CPU 7 instructions: 100000000 cycles: 130597788 heartbeat IPC: 0.550091 cumulative IPC: 0.533122 (Simulation time: 0 hr 42 min 41 sec) 
Heartbeat CPU 5 instructions: 60000000 cycles: 132491572 heartbeat IPC: 0.401674 cumulative IPC: 0.250369 (Simulation time: 0 hr 43 min 7 sec) 
Heartbeat CPU 0 instructions: 80000000 cycles: 143735753 heartbeat IPC: 0.528211 cumulative IPC: 0.386104 (Simulation time: 0 hr 45 min 49 sec) 
Heartbeat CPU 4 instructions: 90000002 cycles: 144263409 heartbeat IPC: 0.469027 cumulative IPC: 0.456813 (Simulation time: 0 hr 45 min 57 sec) 
Heartbeat CPU 7 instructions: 110000001 cycles: 149072426 heartbeat IPC: 0.541283 cumulative IPC: 0.534262 (Simulation time: 0 hr 47 min 8 sec) 
Heartbeat CPU 6 instructions: 60000000 cycles: 150243960 heartbeat IPC: 0.311042 cumulative IPC: 0.299754 (Simulation time: 0 hr 47 min 25 sec) 
Heartbeat CPU 5 instructions: 70000002 cycles: 155622636 heartbeat IPC: 0.432319 cumulative IPC: 0.280687 (Simulation time: 0 hr 48 min 43 sec) 
Heartbeat CPU 2 instructions: 50000000 cycles: 158210763 heartbeat IPC: 0.0950336 cumulative IPC: 0.143952 (Simulation time: 0 hr 49 min 21 sec) 
Heartbeat CPU 0 instructions: 90000000 cycles: 161324895 heartbeat IPC: 0.568533 cumulative IPC: 0.408307 (Simulation time: 0 hr 50 min 7 sec) 
Heartbeat CPU 4 instructions: 100000000 cycles: 165605131 heartbeat IPC: 0.468566 cumulative IPC: 0.458498 (Simulation time: 0 hr 51 min 8 sec) 
Heartbeat CPU 1 instructions: 50000003 cycles: 167109864 heartbeat IPC: 0.137745 cumulative IPC: 0.135785 (Simulation time: 0 hr 51 min 30 sec) 
Heartbeat CPU 7 instructions: 120000000 cycles: 167844767 heartbeat IPC: 0.532699 cumulative IPC: 0.534067 (Simulation time: 0 hr 51 min 40 sec) 
Heartbeat CPU 3 instructions: 70000000 cycles: 169779751 heartbeat IPC: 0.161265 cumulative IPC: 0.158661 (Simulation time: 0 hr 52 min 8 sec) 
Heartbeat CPU 5 instructions: 80000000 cycles: 178811157 heartbeat IPC: 0.431248 cumulative IPC: 0.302237 (Simulation time: 0 hr 54 min 16 sec) 
Heartbeat CPU 0 instructions: 100000000 cycles: 181928002 heartbeat IPC: 0.485364 cumulative IPC: 0.417921 (Simulation time: 0 hr 55 min 0 sec) 
Heartbeat CPU 6 instructions: 70000001 cycles: 182735535 heartbeat IPC: 0.307772 cumulative IPC: 0.301324 (Simulation time: 0 hr 55 min 11 sec) 
Heartbeat CPU 4 instructions: 110000002 cycles: 187112010 heartbeat IPC: 0.464968 cumulative IPC: 0.459315 (Simulation time: 0 hr 56 min 12 sec) 
Heartbeat CPU 7 instructions: 130000000 cycles: 188715342 heartbeat IPC: 0.479143 cumulative IPC: 0.527399 (Simulation time: 0 hr 56 min 36 sec) 
Heartbeat CPU 2 instructions: 60000000 cycles: 208362649 heartbeat IPC: 0.199394 cumulative IPC: 0.158467 (Simulation time: 1 hr 1 min 13 sec) 
Heartbeat CPU 4 instructions: 120000000 cycles: 209253066 heartbeat IPC: 0.45165 cumulative IPC: 0.458433 (Simulation time: 1 hr 1 min 26 sec) 
Finished CPU 7 instructions: 100000000 cycles: 193117178 cumulative IPC: 0.51782 (Simulation time: 1 hr 1 min 35 sec) 
Heartbeat CPU 7 instructions: 140000000 cycles: 211569709 heartbeat IPC: 0.437553 cumulative IPC: 0.516857 (Simulation time: 1 hr 1 min 57 sec) 
Heartbeat CPU 0 instructions: 110000000 cycles: 211576524 heartbeat IPC: 0.337285 cumulative IPC: 0.405647 (Simulation time: 1 hr 1 min 57 sec) 
Heartbeat CPU 5 instructions: 90000002 cycles: 214871319 heartbeat IPC: 0.277314 cumulative IPC: 0.297699 (Simulation time: 1 hr 2 min 38 sec) 
Heartbeat CPU 6 instructions: 80000000 cycles: 216102895 heartbeat IPC: 0.299694 cumulative IPC: 0.301051 (Simulation time: 1 hr 2 min 54 sec) 
Heartbeat CPU 4 instructions: 130000002 cycles: 231717365 heartbeat IPC: 0.445151 cumulative IPC: 0.457045 (Simulation time: 1 hr 6 min 12 sec) 
Heartbeat CPU 3 instructions: 80000000 cycles: 233893097 heartbeat IPC: 0.155974 cumulative IPC: 0.157867 (Simulation time: 1 hr 6 min 39 sec) 
Finished CPU 4 instructions: 100000003 cycles: 218975021 cumulative IPC: 0.456673 (Simulation time: 1 hr 7 min 2 sec) 
Heartbeat CPU 7 instructions: 150000001 cycles: 237041101 heartbeat IPC: 0.392597 cumulative IPC: 0.502486 (Simulation time: 1 hr 7 min 18 sec) 
Heartbeat CPU 1 instructions: 60000000 cycles: 241925242 heartbeat IPC: 0.133662 cumulative IPC: 0.13508 (Simulation time: 1 hr 8 min 19 sec) 
Heartbeat CPU 0 instructions: 120000000 cycles: 242246769 heartbeat IPC: 0.326049 cumulative IPC: 0.394818 (Simulation time: 1 hr 8 min 23 sec) 
Heartbeat CPU 6 instructions: 90000000 cycles: 250616820 heartbeat IPC: 0.289738 cumulative IPC: 0.299381 (Simulation time: 1 hr 10 min 11 sec) 
Heartbeat CPU 5 instructions: 100000000 cycles: 252132071 heartbeat IPC: 0.268379 cumulative IPC: 0.293057 (Simulation time: 1 hr 10 min 32 sec) 
Heartbeat CPU 4 instructions: 140000000 cycles: 254369810 heartbeat IPC: 0.441453 cumulative IPC: 0.455558 (Simulation time: 1 hr 11 min 2 sec) 
Heartbeat CPU 7 instructions: 160000000 cycles: 266040596 heartbeat IPC: 0.344834 cumulative IPC: 0.484143 (Simulation time: 1 hr 13 min 36 sec) 
Heartbeat CPU 2 instructions: 70000001 cycles: 269505229 heartbeat IPC: 0.163552 cumulative IPC: 0.159697 (Simulation time: 1 hr 14 min 20 sec) 
Heartbeat CPU 0 instructions: 130000002 cycles: 270243431 heartbeat IPC: 0.357186 cumulative IPC: 0.390661 (Simulation time: 1 hr 14 min 30 sec) 
Finished CPU 0 instructions: 100000000 cycles: 256138701 cumulative IPC: 0.390413 (Simulation time: 1 hr 15 min 4 sec) 
Heartbeat CPU 4 instructions: 150000002 cycles: 277277319 heartbeat IPC: 0.436538 cumulative IPC: 0.453886 (Simulation time: 1 hr 16 min 1 sec) 
Heartbeat CPU 6 instructions: 100000000 cycles: 285561732 heartbeat IPC: 0.286165 cumulative IPC: 0.297663 (Simulation time: 1 hr 17 min 48 sec) 
Heartbeat CPU 5 instructions: 110000000 cycles: 290259694 heartbeat IPC: 0.262277 cumulative IPC: 0.288765 (Simulation time: 1 hr 18 min 44 sec) 
Heartbeat CPU 0 instructions: 140000000 cycles: 296679046 heartbeat IPC: 0.378277 cumulative IPC: 0.389491 (Simulation time: 1 hr 20 min 5 sec) 
Heartbeat CPU 3 instructions: 90000003 cycles: 299569457 heartbeat IPC: 0.152262 cumulative IPC: 0.156565 (Simulation time: 1 hr 20 min 42 sec) 
Heartbeat CPU 7 instructions: 170000002 cycles: 299742795 heartbeat IPC: 0.296717 cumulative IPC: 0.461818 (Simulation time: 1 hr 20 min 44 sec) 
Heartbeat CPU 4 instructions: 160000000 cycles: 299978796 heartbeat IPC: 0.4405 cumulative IPC: 0.452812 (Simulation time: 1 hr 20 min 47 sec) 
Heartbeat CPU 2 instructions: 80000000 cycles: 307323305 heartbeat IPC: 0.264424 cumulative IPC: 0.17333 (Simulation time: 1 hr 22 min 18 sec) 
Heartbeat CPU 0 instructions: 150000000 cycles: 318845422 heartbeat IPC: 0.451134 cumulative IPC: 0.394015 (Simulation time: 1 hr 24 min 51 sec) 
Heartbeat CPU 1 instructions: 70000001 cycles: 319179071 heartbeat IPC: 0.129443 cumulative IPC: 0.13364 (Simulation time: 1 hr 24 min 55 sec) 
Heartbeat CPU 6 instructions: 110000002 cycles: 319999194 heartbeat IPC: 0.290381 cumulative IPC: 0.296836 (Simulation time: 1 hr 25 min 6 sec) 
Heartbeat CPU 4 instructions: 170000002 cycles: 322665640 heartbeat IPC: 0.440784 cumulative IPC: 0.45192 (Simulation time: 1 hr 25 min 41 sec) 
Heartbeat CPU 5 instructions: 120000000 cycles: 328123398 heartbeat IPC: 0.264105 cumulative IPC: 0.285766 (Simulation time: 1 hr 26 min 54 sec) 
Heartbeat CPU 7 instructions: 180000000 cycles: 335278955 heartbeat IPC: 0.281403 cumulative IPC: 0.441687 (Simulation time: 1 hr 28 min 26 sec) 
Heartbeat CPU 0 instructions: 160000000 cycles: 336927725 heartbeat IPC: 0.553027 cumulative IPC: 0.402997 (Simulation time: 1 hr 28 min 47 sec) 
Heartbeat CPU 4 instructions: 180000000 cycles: 345458167 heartbeat IPC: 0.43874 cumulative IPC: 0.451006 (Simulation time: 1 hr 30 min 44 sec) 
Heartbeat CPU 2 instructions: 90000000 cycles: 345997833 heartbeat IPC: 0.258568 cumulative IPC: 0.183344 (Simulation time: 1 hr 30 min 51 sec) 
Heartbeat CPU 6 instructions: 120000000 cycles: 355085313 heartbeat IPC: 0.285013 cumulative IPC: 0.29561 (Simulation time: 1 hr 32 min 52 sec) 
Finished CPU 6 instructions: 100000000 cycles: 338283965 cumulative IPC: 0.29561 (Simulation time: 1 hr 32 min 52 sec) 
Heartbeat CPU 0 instructions: 170000000 cycles: 358785459 heartbeat IPC: 0.457504 cumulative IPC: 0.406481 (Simulation time: 1 hr 33 min 39 sec) 
Heartbeat CPU 5 instructions: 130000003 cycles: 363155267 heartbeat IPC: 0.285454 cumulative IPC: 0.285735 (Simulation time: 1 hr 34 min 36 sec) 
Heartbeat CPU 3 instructions: 100000000 cycles: 365619997 heartbeat IPC: 0.151399 cumulative IPC: 0.155587 (Simulation time: 1 hr 35 min 8 sec) 
Heartbeat CPU 4 instructions: 190000000 cycles: 368226285 heartbeat IPC: 0.439211 cumulative IPC: 0.450242 (Simulation time: 1 hr 35 min 39 sec) 
Finished CPU 5 instructions: 100000002 cycles: 351508429 cumulative IPC: 0.284488 (Simulation time: 1 hr 35 min 40 sec) 
Heartbeat CPU 7 instructions: 190000000 cycles: 372177431 heartbeat IPC: 0.271014 cumulative IPC: 0.423966 (Simulation time: 1 hr 36 min 30 sec) 
Heartbeat CPU 2 instructions: 100000000 cycles: 380931193 heartbeat IPC: 0.286259 cumulative IPC: 0.193217 (Simulation time: 1 hr 38 min 18 sec) 
Heartbeat CPU 0 instructions: 180000000 cycles: 390383534 heartbeat IPC: 0.316475 cumulative IPC: 0.398868 (Simulation time: 1 hr 40 min 13 sec) 
Heartbeat CPU 6 instructions: 130000000 cycles: 390471938 heartbeat IPC: 0.282593 cumulative IPC: 0.294377 (Simulation time: 1 hr 40 min 14 sec) 
Heartbeat CPU 4 instructions: 200000000 cycles: 391307586 heartbeat IPC: 0.433251 cumulative IPC: 0.449195 (Simulation time: 1 hr 40 min 25 sec) 
Heartbeat CPU 1 instructions: 80000000 cycles: 397587544 heartbeat IPC: 0.127537 cumulative IPC: 0.132383 (Simulation time: 1 hr 41 min 47 sec) 
Heartbeat CPU 7 instructions: 200000000 cycles: 406986504 heartbeat IPC: 0.287281 cumulative IPC: 0.411772 (Simulation time: 1 hr 43 min 59 sec) 
Heartbeat CPU 5 instructions: 140000000 cycles: 412188877 heartbeat IPC: 0.203942 cumulative IPC: 0.275591 (Simulation time: 1 hr 45 min 4 sec) 
Heartbeat CPU 4 instructions: 210000002 cycles: 414196764 heartbeat IPC: 0.436888 cumulative IPC: 0.448486 (Simulation time: 1 hr 45 min 29 sec) 
Heartbeat CPU 0 instructions: 190000000 cycles: 419766470 heartbeat IPC: 0.340334 cumulative IPC: 0.3946 (Simulation time: 1 hr 46 min 39 sec) 
Heartbeat CPU 6 instructions: 140000000 cycles: 425487690 heartbeat IPC: 0.285586 cumulative IPC: 0.293624 (Simulation time: 1 hr 47 min 54 sec) 
Heartbeat CPU 3 instructions: 110000001 cycles: 431837403 heartbeat IPC: 0.151018 cumulative IPC: 0.154858 (Simulation time: 1 hr 49 min 14 sec) 
Heartbeat CPU 4 instructions: 220000000 cycles: 437490343 heartbeat IPC: 0.429303 cumulative IPC: 0.447424 (Simulation time: 1 hr 50 min 25 sec) 
Heartbeat CPU 7 instructions: 210000002 cycles: 440203015 heartbeat IPC: 0.301055 cumulative IPC: 0.403086 (Simulation time: 1 hr 51 min 2 sec) 
Heartbeat CPU 0 instructions: 200000000 cycles: 443611723 heartbeat IPC: 0.419371 cumulative IPC: 0.395984 (Simulation time: 1 hr 51 min 47 sec) 
Heartbeat CPU 2 instructions: 110000000 cycles: 450128918 heartbeat IPC: 0.144513 cumulative IPC: 0.18544 (Simulation time: 1 hr 53 min 10 sec) 
Heartbeat CPU 5 instructions: 150000003 cycles: 456923130 heartbeat IPC: 0.223542 cumulative IPC: 0.270301 (Simulation time: 1 hr 54 min 36 sec) 
Heartbeat CPU 4 instructions: 230000001 cycles: 459947184 heartbeat IPC: 0.445299 cumulative IPC: 0.447316 (Simulation time: 1 hr 55 min 15 sec) 
Heartbeat CPU 6 instructions: 150000001 cycles: 460251414 heartbeat IPC: 0.287656 cumulative IPC: 0.293156 (Simulation time: 1 hr 55 min 20 sec) 
Heartbeat CPU 7 instructions: 220000000 cycles: 470323068 heartbeat IPC: 0.332005 cumulative IPC: 0.398365 (Simulation time: 1 hr 57 min 35 sec) 
Heartbeat CPU 1 instructions: 90000000 cycles: 474894518 heartbeat IPC: 0.129354 cumulative IPC: 0.131872 (Simulation time: 1 hr 58 min 35 sec) 
Heartbeat CPU 0 instructions: 210000000 cycles: 476950791 heartbeat IPC: 0.299948 cumulative IPC: 0.389026 (Simulation time: 1 hr 59 min 2 sec) 
Heartbeat CPU 4 instructions: 240000000 cycles: 482315509 heartbeat IPC: 0.447061 cumulative IPC: 0.447304 (Simulation time: 2 hr 0 min 9 sec) 
Heartbeat CPU 6 instructions: 160000000 cycles: 494307681 heartbeat IPC: 0.293632 cumulative IPC: 0.29319 (Simulation time: 2 hr 2 min 38 sec) 
Heartbeat CPU 3 instructions: 120000000 cycles: 497692478 heartbeat IPC: 0.151849 cumulative IPC: 0.154446 (Simulation time: 2 hr 3 min 22 sec) 
Heartbeat CPU 2 instructions: 120000000 cycles: 499214355 heartbeat IPC: 0.203726 cumulative IPC: 0.1873 (Simulation time: 2 hr 3 min 43 sec) 
Heartbeat CPU 7 instructions: 230000003 cycles: 500405704 heartbeat IPC: 0.332418 cumulative IPC: 0.394263 (Simulation time: 2 hr 4 min 0 sec) 
Heartbeat CPU 5 instructions: 160000000 cycles: 501236230 heartbeat IPC: 0.225667 cumulative IPC: 0.266218 (Simulation time: 2 hr 4 min 12 sec) 
Heartbeat CPU 4 instructions: 250000001 cycles: 504891963 heartbeat IPC: 0.442939 cumulative IPC: 0.447102 (Simulation time: 2 hr 5 min 1 sec) 
Heartbeat CPU 0 instructions: 220000000 cycles: 507805251 heartbeat IPC: 0.324102 cumulative IPC: 0.384946 (Simulation time: 2 hr 5 min 38 sec) 
Heartbeat CPU 4 instructions: 260000000 cycles: 527437445 heartbeat IPC: 0.443548 cumulative IPC: 0.446945 (Simulation time: 2 hr 10 min 0 sec) 
Heartbeat CPU 6 instructions: 170000000 cycles: 528315538 heartbeat IPC: 0.29405 cumulative IPC: 0.293247 (Simulation time: 2 hr 10 min 11 sec) 
Heartbeat CPU 7 instructions: 240000000 cycles: 529454701 heartbeat IPC: 0.344246 cumulative IPC: 0.391429 (Simulation time: 2 hr 10 min 26 sec) 
Heartbeat CPU 0 instructions: 230000000 cycles: 536220648 heartbeat IPC: 0.351922 cumulative IPC: 0.383139 (Simulation time: 2 hr 11 min 51 sec) 
Finished CPU 2 instructions: 100000000 cycles: 525439116 cumulative IPC: 0.190317 (Simulation time: 2 hr 13 min 9 sec) 
Heartbeat CPU 2 instructions: 130000001 cycles: 542978144 heartbeat IPC: 0.228499 cumulative IPC: 0.190727 (Simulation time: 2 hr 13 min 19 sec) 
Heartbeat CPU 5 instructions: 170000003 cycles: 543185953 heartbeat IPC: 0.238381 cumulative IPC: 0.264 (Simulation time: 2 hr 13 min 22 sec) 
Heartbeat CPU 4 instructions: 270000003 cycles: 549815164 heartbeat IPC: 0.446873 cumulative IPC: 0.446942 (Simulation time: 2 hr 14 min 51 sec) 
Heartbeat CPU 1 instructions: 100000000 cycles: 551254406 heartbeat IPC: 0.130959 cumulative IPC: 0.131742 (Simulation time: 2 hr 15 min 11 sec) 
Heartbeat CPU 7 instructions: 250000001 cycles: 558168297 heartbeat IPC: 0.348267 cumulative IPC: 0.38914 (Simulation time: 2 hr 16 min 44 sec) 
Heartbeat CPU 6 instructions: 180000000 cycles: 562375681 heartbeat IPC: 0.293598 cumulative IPC: 0.293269 (Simulation time: 2 hr 17 min 40 sec) 
Heartbeat CPU 3 instructions: 130000002 cycles: 562669310 heartbeat IPC: 0.153901 cumulative IPC: 0.154381 (Simulation time: 2 hr 17 min 44 sec) 
Heartbeat CPU 0 instructions: 240000000 cycles: 562820341 heartbeat IPC: 0.375944 cumulative IPC: 0.382789 (Simulation time: 2 hr 17 min 46 sec) 
Heartbeat CPU 4 instructions: 280000000 cycles: 572249834 heartbeat IPC: 0.445739 cumulative IPC: 0.446893 (Simulation time: 2 hr 19 min 46 sec) 
Heartbeat CPU 5 instructions: 180000000 cycles: 584953507 heartbeat IPC: 0.23942 cumulative IPC: 0.262193 (Simulation time: 2 hr 22 min 23 sec) 
Heartbeat CPU 7 instructions: 260000000 cycles: 587207897 heartbeat IPC: 0.344357 cumulative IPC: 0.38686 (Simulation time: 2 hr 22 min 50 sec) 
Heartbeat CPU 0 instructions: 250000003 cycles: 588199014 heartbeat IPC: 0.394032 cumulative IPC: 0.383288 (Simulation time: 2 hr 23 min 2 sec) 
Heartbeat CPU 4 instructions: 290000003 cycles: 594609485 heartbeat IPC: 0.447234 cumulative IPC: 0.446907 (Simulation time: 2 hr 24 min 19 sec) 
Heartbeat CPU 6 instructions: 190000000 cycles: 596768886 heartbeat IPC: 0.290755 cumulative IPC: 0.29312 (Simulation time: 2 hr 24 min 45 sec) 
Heartbeat CPU 2 instructions: 140000000 cycles: 598519230 heartbeat IPC: 0.180047 cumulative IPC: 0.189707 (Simulation time: 2 hr 25 min 6 sec) 
Heartbeat CPU 0 instructions: 260000000 cycles: 612596880 heartbeat IPC: 0.409872 cumulative IPC: 0.384377 (Simulation time: 2 hr 27 min 56 sec) 
Heartbeat CPU 7 instructions: 270000000 cycles: 615588302 heartbeat IPC: 0.352356 cumulative IPC: 0.385224 (Simulation time: 2 hr 28 min 32 sec) 
Heartbeat CPU 4 instructions: 300000000 cycles: 616947327 heartbeat IPC: 0.447671 cumulative IPC: 0.446935 (Simulation time: 2 hr 28 min 49 sec) 
Heartbeat CPU 1 instructions: 110000002 cycles: 627840146 heartbeat IPC: 0.130573 cumulative IPC: 0.131595 (Simulation time: 2 hr 31 min 3 sec) 
Heartbeat CPU 3 instructions: 140000000 cycles: 628490439 heartbeat IPC: 0.151927 cumulative IPC: 0.154117 (Simulation time: 2 hr 31 min 11 sec) 
Heartbeat CPU 5 instructions: 190000000 cycles: 631198981 heartbeat IPC: 0.216237 cumulative IPC: 0.258734 (Simulation time: 2 hr 31 min 45 sec) 
Heartbeat CPU 6 instructions: 200000000 cycles: 631309703 heartbeat IPC: 0.289513 cumulative IPC: 0.292917 (Simulation time: 2 hr 31 min 46 sec) 
Heartbeat CPU 0 instructions: 270000000 cycles: 636238244 heartbeat IPC: 0.422987 cumulative IPC: 0.38585 (Simulation time: 2 hr 32 min 47 sec) 
Heartbeat CPU 4 instructions: 310000001 cycles: 639352110 heartbeat IPC: 0.446333 cumulative IPC: 0.446913 (Simulation time: 2 hr 33 min 25 sec) 
Heartbeat CPU 7 instructions: 280000000 cycles: 644073162 heartbeat IPC: 0.351064 cumulative IPC: 0.383673 (Simulation time: 2 hr 34 min 23 sec) 
Heartbeat CPU 0 instructions: 280000000 cycles: 659386045 heartbeat IPC: 0.432006 cumulative IPC: 0.387513 (Simulation time: 2 hr 37 min 27 sec) 
Heartbeat CPU 4 instructions: 320000000 cycles: 662109652 heartbeat IPC: 0.439415 cumulative IPC: 0.446649 (Simulation time: 2 hr 38 min 0 sec) 
Heartbeat CPU 6 instructions: 210000002 cycles: 666017561 heartbeat IPC: 0.288119 cumulative IPC: 0.292661 (Simulation time: 2 hr 38 min 47 sec) 
Finished CPU 3 instructions: 100000001 cycles: 649735574 cumulative IPC: 0.153909 (Simulation time: 2 hr 38 min 53 sec) 
Heartbeat CPU 7 instructions: 290000002 cycles: 673451521 heartbeat IPC: 0.340387 cumulative IPC: 0.381737 (Simulation time: 2 hr 40 min 19 sec) 
Heartbeat CPU 0 instructions: 290000002 cycles: 676910217 heartbeat IPC: 0.570641 cumulative IPC: 0.392375 (Simulation time: 2 hr 41 min 4 sec) 
Heartbeat CPU 5 instructions: 200000000 cycles: 679311404 heartbeat IPC: 0.207847 cumulative IPC: 0.255038 (Simulation time: 2 hr 41 min 36 sec) 
Heartbeat CPU 4 instructions: 330000002 cycles: 684753603 heartbeat IPC: 0.441619 cumulative IPC: 0.446478 (Simulation time: 2 hr 42 min 50 sec) 
Heartbeat CPU 2 instructions: 150000002 cycles: 686479566 heartbeat IPC: 0.113688 cumulative IPC: 0.179722 (Simulation time: 2 hr 43 min 14 sec) 
Heartbeat CPU 0 instructions: 300000000 cycles: 691990580 heartbeat IPC: 0.663114 cumulative IPC: 0.398422 (Simulation time: 2 hr 44 min 27 sec) 
Heartbeat CPU 3 instructions: 150000000 cycles: 694629284 heartbeat IPC: 0.151197 cumulative IPC: 0.153832 (Simulation time: 2 hr 45 min 0 sec) 
Heartbeat CPU 6 instructions: 220000000 cycles: 699973008 heartbeat IPC: 0.294504 cumulative IPC: 0.292752 (Simulation time: 2 hr 46 min 9 sec) 
Heartbeat CPU 7 instructions: 300000000 cycles: 702355291 heartbeat IPC: 0.345976 cumulative IPC: 0.380229 (Simulation time: 2 hr 46 min 39 sec) 
Heartbeat CPU 1 instructions: 120000000 cycles: 704442719 heartbeat IPC: 0.130544 cumulative IPC: 0.131478 (Simulation time: 2 hr 47 min 8 sec) 
Heartbeat CPU 4 instructions: 340000000 cycles: 706887524 heartbeat IPC: 0.451795 cumulative IPC: 0.446649 (Simulation time: 2 hr 47 min 41 sec) 
Heartbeat CPU 0 instructions: 310000003 cycles: 707771798 heartbeat IPC: 0.633665 cumulative IPC: 0.403794 (Simulation time: 2 hr 47 min 52 sec) 
Heartbeat CPU 5 instructions: 210000000 cycles: 723939522 heartbeat IPC: 0.224074 cumulative IPC: 0.253084 (Simulation time: 2 hr 51 min 24 sec) 
Heartbeat CPU 0 instructions: 320000000 cycles: 724561759 heartbeat IPC: 0.595594 cumulative IPC: 0.408344 (Simulation time: 2 hr 51 min 32 sec) 
Heartbeat CPU 2 instructions: 160000000 cycles: 725936654 heartbeat IPC: 0.25344 cumulative IPC: 0.183824 (Simulation time: 2 hr 51 min 51 sec) 
Heartbeat CPU 4 instructions: 350000000 cycles: 729024446 heartbeat IPC: 0.451734 cumulative IPC: 0.446807 (Simulation time: 2 hr 52 min 33 sec) 
Heartbeat CPU 7 instructions: 310000002 cycles: 731710012 heartbeat IPC: 0.340661 cumulative IPC: 0.378604 (Simulation time: 2 hr 53 min 6 sec) 
Heartbeat CPU 6 instructions: 230000002 cycles: 733697471 heartbeat IPC: 0.296521 cumulative IPC: 0.292929 (Simulation time: 2 hr 53 min 33 sec) 
Heartbeat CPU 0 instructions: 330000001 cycles: 742764961 heartbeat IPC: 0.549354 cumulative IPC: 0.41188 (Simulation time: 2 hr 55 min 29 sec) 
Heartbeat CPU 4 instructions: 360000000 cycles: 751192946 heartbeat IPC: 0.451091 cumulative IPC: 0.446936 (Simulation time: 2 hr 57 min 19 sec) 
Heartbeat CPU 2 instructions: 170000000 cycles: 754616968 heartbeat IPC: 0.348671 cumulative IPC: 0.190232 (Simulation time: 2 hr 58 min 2 sec) 
Heartbeat CPU 3 instructions: 160000000 cycles: 760117031 heartbeat IPC: 0.1527 cumulative IPC: 0.153732 (Simulation time: 2 hr 59 min 11 sec) 
Heartbeat CPU 7 instructions: 320000000 cycles: 761672268 heartbeat IPC: 0.333753 cumulative IPC: 0.3768 (Simulation time: 2 hr 59 min 29 sec) 
Heartbeat CPU 0 instructions: 340000000 cycles: 762909293 heartbeat IPC: 0.496417 cumulative IPC: 0.414162 (Simulation time: 2 hr 59 min 42 sec) 
Heartbeat CPU 5 instructions: 220000000 cycles: 767903167 heartbeat IPC: 0.227461 cumulative IPC: 0.251584 (Simulation time: 3 hr 0 min 38 sec) 
Heartbeat CPU 6 instructions: 240000000 cycles: 768245982 heartbeat IPC: 0.289448 cumulative IPC: 0.292769 (Simulation time: 3 hr 0 min 42 sec) 
Heartbeat CPU 4 instructions: 370000000 cycles: 774133815 heartbeat IPC: 0.435903 cumulative IPC: 0.446602 (Simulation time: 3 hr 1 min 47 sec) 
Finished CPU 1 instructions: 100000002 cycles: 760677222 cumulative IPC: 0.131462 (Simulation time: 3 hr 2 min 24 sec) 

CPU 0 Branch Prediction Accuracy: 99.3684% MPKI: 1.67096

CPU 1 Branch Prediction Accuracy: 96.2919% MPKI: 7.94471

CPU 2 Branch Prediction Accuracy: 92.5107% MPKI: 13.0506

CPU 3 Branch Prediction Accuracy: 99.9802% MPKI: 0.018068

CPU 4 Branch Prediction Accuracy: 99.9707% MPKI: 0.00706728

CPU 5 Branch Prediction Accuracy: 99.7496% MPKI: 0.088331

CPU 6 Branch Prediction Accuracy: 99.9931% MPKI: 0.000830879

CPU 7 Branch Prediction Accuracy: 97.5108% MPKI: 0.372606

ChampSim completed all CPUs

Total Simulation Statistics (not including warmup)

CPU 0 cumulative IPC: 0.414659 instructions: 315421571 cycles: 760677222
L1D TOTAL     ACCESS:   67848955  HIT:   51279241  MISS:   16569714
L1D LOAD      ACCESS:   49721127  HIT:   33796396  MISS:   15924731
L1D RFO       ACCESS:   18127828  HIT:   17482845  MISS:     644983
L1D PREFETCH  ACCESS:          0  HIT:          0  MISS:          0
L1D WRITEBACK ACCESS:          0  HIT:          0  MISS:          0
L1I TOTAL     ACCESS:  140403345  HIT:  139757700  MISS:     645645
L1I LOAD      ACCESS:  140403345  HIT:  139757700  MISS:     645645
L1I RFO       ACCESS:          0  HIT:          0  MISS:          0
L1I PREFETCH  ACCESS:          0  HIT:          0  MISS:          0
L1I WRITEBACK ACCESS:          0  HIT:          0  MISS:          0
L2C TOTAL     ACCESS:   18229657  HIT:   12066210  MISS:    6163447
L2C LOAD      ACCESS:   16570290  HIT:   10926091  MISS:    5644199
L2C RFO       ACCESS:     644970  HIT:     125925  MISS:     519045
L2C PREFETCH  ACCESS:          0  HIT:          0  MISS:          0
L2C WRITEBACK ACCESS:    1014397  HIT:    1014194  MISS:        203
LLC TOTAL     ACCESS:    6824795  HIT:    6188348  MISS:     636447
LLC LOAD      ACCESS:    5644186  HIT:    5514221  MISS:     129965
LLC RFO       ACCESS:     519042  HIT:      29043  MISS:     489999
LLC PREFETCH  ACCESS:          0  HIT:          0  MISS:          0
LLC WRITEBACK ACCESS:     661567  HIT:     645084  MISS:      16483

CPU 1 cumulative IPC: 0.131462 instructions: 100000002 cycles: 760677222
L1D TOTAL     ACCESS:   30161462  HIT:   27445432  MISS:    2716030
L1D LOAD      ACCESS:   20459733  HIT:   17744494  MISS:    2715239
L1D RFO       ACCESS:    9701729  HIT:    9700938  MISS:        791
L1D PREFETCH  ACCESS:          0  HIT:          0  MISS:          0
L1D WRITEBACK ACCESS:          0  HIT:          0  MISS:          0
L1I TOTAL     ACCESS:   24851248  HIT:   24851248  MISS:          0
L1I LOAD      ACCESS:   24851248  HIT:   24851248  MISS:          0
L1I RFO       ACCESS:          0  HIT:          0  MISS:          0
L1I PREFETCH  ACCESS:          0  HIT:          0  MISS:          0
L1I WRITEBACK ACCESS:          0  HIT:          0  MISS:          0
L2C TOTAL     ACCESS:    2722479  HIT:     945012  MISS:    1777467
L2C LOAD      ACCESS:    2715238  HIT:     938562  MISS:    1776676
L2C RFO       ACCESS:        791  HIT:          0  MISS:        791
L2C PREFETCH  ACCESS:          0  HIT:          0  MISS:          0
L2C WRITEBACK ACCESS:       6450  HIT:       6450  MISS:          0
LLC TOTAL     ACCESS:    1779900  HIT:       2858  MISS:    1777042
LLC LOAD      ACCESS:    1776676  HIT:        434  MISS:    1776242
LLC RFO       ACCESS:        791  HIT:          0  MISS:        791
LLC PREFETCH  ACCESS:          0  HIT:          0  MISS:          0
LLC WRITEBACK ACCESS:       2433  HIT:       2424  MISS:          9

CPU 2 cumulative IPC: 0.188563 instructions: 143435636 cycles: 760677222
L1D TOTAL     ACCESS:   59031100  HIT:   53603047  MISS:    5428053
L1D LOAD      ACCESS:   44592394  HIT:   39216164  MISS:    5376230
L1D RFO       ACCESS:   14438706  HIT:   14386883  MISS:      51823
L1D PREFETCH  ACCESS:          0  HIT:          0  MISS:          0
L1D WRITEBACK ACCESS:          0  HIT:          0  MISS:          0
L1I TOTAL     ACCESS:   31084441  HIT:   31084441  MISS:          0
L1I LOAD      ACCESS:   31084441  HIT:   31084441  MISS:          0
L1I RFO       ACCESS:          0  HIT:          0  MISS:          0
L1I PREFETCH  ACCESS:          0  HIT:          0  MISS:          0
L1I WRITEBACK ACCESS:          0  HIT:          0  MISS:          0
L2C TOTAL     ACCESS:    5813524  HIT:    2101135  MISS:    3712389
L2C LOAD      ACCESS:    5376220  HIT:    1674584  MISS:    3701636
L2C RFO       ACCESS:      51818  HIT:      42011  MISS:       9807
L2C PREFETCH  ACCESS:          0  HIT:          0  MISS:          0
L2C WRITEBACK ACCESS:     385486  HIT:     384540  MISS:        946
LLC TOTAL     ACCESS:    3959611  HIT:    1516318  MISS:    2443293
LLC LOAD      ACCESS:    3701633  HIT:    1261327  MISS:    2440306
LLC RFO       ACCESS:       9807  HIT:       7237  MISS:       2570
LLC PREFETCH  ACCESS:          0  HIT:          0  MISS:          0
LLC WRITEBACK ACCESS:     248171  HIT:     247754  MISS:        417

CPU 3 cumulative IPC: 0.153606 instructions: 116844449 cycles: 760677222
L1D TOTAL     ACCESS:   23008983  HIT:   16529953  MISS:    6479030
L1D LOAD      ACCESS:   17827725  HIT:   11672614  MISS:    6155111
L1D RFO       ACCESS:    5181258  HIT:    4857339  MISS:     323919
L1D PREFETCH  ACCESS:          0  HIT:          0  MISS:          0
L1D WRITEBACK ACCESS:          0  HIT:          0  MISS:          0
L1I TOTAL     ACCESS:   29607492  HIT:   29607492  MISS:          0
L1I LOAD      ACCESS:   29607492  HIT:   29607492  MISS:          0
L1I RFO       ACCESS:          0  HIT:          0  MISS:          0
L1I PREFETCH  ACCESS:          0  HIT:          0  MISS:          0
L1I WRITEBACK ACCESS:          0  HIT:          0  MISS:          0
L2C TOTAL     ACCESS:    9069658  HIT:    4880897  MISS:    4188761
L2C LOAD      ACCESS:    6155111  HIT:    2227318  MISS:    3927793
L2C RFO       ACCESS:     323919  HIT:      62953  MISS:     260966
L2C PREFETCH  ACCESS:          0  HIT:          0  MISS:          0
L2C WRITEBACK ACCESS:    2590628  HIT:    2590626  MISS:          2
LLC TOTAL     ACCESS:    6779797  HIT:    3795321  MISS:    2984476
LLC LOAD      ACCESS:    3927793  HIT:     943342  MISS:    2984451
LLC RFO       ACCESS:     260966  HIT:     260964  MISS:          2
LLC PREFETCH  ACCESS:          0  HIT:          0  MISS:          0
LLC WRITEBACK ACCESS:    2591038  HIT:    2591015  MISS:         23

CPU 4 cumulative IPC: 0.446583 instructions: 339705290 cycles: 760677222
L1D TOTAL     ACCESS:  128566671  HIT:  121506426  MISS:    7060245
L1D LOAD      ACCESS:  109620419  HIT:  102781653  MISS:    6838766
L1D RFO       ACCESS:   18946252  HIT:   18724773  MISS:     221479
L1D PREFETCH  ACCESS:          0  HIT:          0  MISS:          0
L1D WRITEBACK ACCESS:          0  HIT:          0  MISS:          0
L1I TOTAL     ACCESS:   86517720  HIT:   86517720  MISS:          0
L1I LOAD      ACCESS:   86517720  HIT:   86517720  MISS:          0
L1I RFO       ACCESS:          0  HIT:          0  MISS:          0
L1I PREFETCH  ACCESS:          0  HIT:          0  MISS:          0
L1I WRITEBACK ACCESS:          0  HIT:          0  MISS:          0
L2C TOTAL     ACCESS:    7295447  HIT:     817327  MISS:    6478120
L2C LOAD      ACCESS:    6837243  HIT:     526279  MISS:    6310964
L2C RFO       ACCESS:     217539  HIT:      52020  MISS:     165519
L2C PREFETCH  ACCESS:          0  HIT:          0  MISS:          0
L2C WRITEBACK ACCESS:     240665  HIT:     239028  MISS:       1637
LLC TOTAL     ACCESS:    6643851  HIT:     188034  MISS:    6455817
LLC LOAD      ACCESS:    6310964  HIT:      21109  MISS:    6289855
LLC RFO       ACCESS:     165519  HIT:          0  MISS:     165519
LLC PREFETCH  ACCESS:          0  HIT:          0  MISS:          0
LLC WRITEBACK ACCESS:     167368  HIT:     166925  MISS:        443

CPU 5 cumulative IPC: 0.250721 instructions: 190717688 cycles: 760677222
L1D TOTAL     ACCESS:   52913960  HIT:   46556616  MISS:    6357344
L1D LOAD      ACCESS:   45851298  HIT:   40691954  MISS:    5159344
L1D RFO       ACCESS:    7062662  HIT:    5864662  MISS:    1198000
L1D PREFETCH  ACCESS:          0  HIT:          0  MISS:          0
L1D WRITEBACK ACCESS:          0  HIT:          0  MISS:          0
L1I TOTAL     ACCESS:   47186517  HIT:   47185772  MISS:        745
L1I LOAD      ACCESS:   47186517  HIT:   47185772  MISS:        745
L1I RFO       ACCESS:          0  HIT:          0  MISS:          0
L1I PREFETCH  ACCESS:          0  HIT:          0  MISS:          0
L1I WRITEBACK ACCESS:          0  HIT:          0  MISS:          0
L2C TOTAL     ACCESS:    7906457  HIT:    2867311  MISS:    5039146
L2C LOAD      ACCESS:    5159913  HIT:    1319140  MISS:    3840773
L2C RFO       ACCESS:    1197999  HIT:         23  MISS:    1197976
L2C PREFETCH  ACCESS:          0  HIT:          0  MISS:          0
L2C WRITEBACK ACCESS:    1548545  HIT:    1548148  MISS:        397
LLC TOTAL     ACCESS:    6576278  HIT:    1539769  MISS:    5036509
LLC LOAD      ACCESS:    3840773  HIT:       2377  MISS:    3838396
LLC RFO       ACCESS:    1197976  HIT:         33  MISS:    1197943
LLC PREFETCH  ACCESS:          0  HIT:          0  MISS:          0
LLC WRITEBACK ACCESS:    1537529  HIT:    1537359  MISS:        170

CPU 6 cumulative IPC: 0.292707 instructions: 222655761 cycles: 760677222
L1D TOTAL     ACCESS:  124752983  HIT:  120469031  MISS:    4283952
L1D LOAD      ACCESS:  110477830  HIT:  106193878  MISS:    4283952
L1D RFO       ACCESS:   14275153  HIT:   14275153  MISS:          0
L1D PREFETCH  ACCESS:          0  HIT:          0  MISS:          0
L1D WRITEBACK ACCESS:          0  HIT:          0  MISS:          0
L1I TOTAL     ACCESS:   68757678  HIT:   68757678  MISS:          0
L1I LOAD      ACCESS:   68757678  HIT:   68757678  MISS:          0
L1I RFO       ACCESS:          0  HIT:          0  MISS:          0
L1I PREFETCH  ACCESS:          0  HIT:          0  MISS:          0
L1I WRITEBACK ACCESS:          0  HIT:          0  MISS:          0
L2C TOTAL     ACCESS:    6447023  HIT:    2163073  MISS:    4283950
L2C LOAD      ACCESS:    4283952  HIT:          2  MISS:    4283950
L2C RFO       ACCESS:          0  HIT:          0  MISS:          0
L2C PREFETCH  ACCESS:          0  HIT:          0  MISS:          0
L2C WRITEBACK ACCESS:    2163071  HIT:    2163071  MISS:          0
LLC TOTAL     ACCESS:    6446978  HIT:    2911287  MISS:    3535691
LLC LOAD      ACCESS:    4283950  HIT:     748259  MISS:    3535691
LLC RFO       ACCESS:          0  HIT:          0  MISS:          0
LLC PREFETCH  ACCESS:          0  HIT:          0  MISS:          0
LLC WRITEBACK ACCESS:    2163028  HIT:    2163028  MISS:          0

CPU 7 cumulative IPC: 0.375724 instructions: 285804711 cycles: 760677223
L1D TOTAL     ACCESS:   79192829  HIT:   60081051  MISS:   19111778
L1D LOAD      ACCESS:   29432786  HIT:   26535097  MISS:    2897689
L1D RFO       ACCESS:   49760043  HIT:   33545954  MISS:   16214089
L1D PREFETCH  ACCESS:          0  HIT:          0  MISS:          0
L1D WRITEBACK ACCESS:          0  HIT:          0  MISS:          0
L1I TOTAL     ACCESS:   68210627  HIT:   68210627  MISS:          0
L1I LOAD      ACCESS:   68210627  HIT:   68210627  MISS:          0
L1I RFO       ACCESS:          0  HIT:          0  MISS:          0
L1I PREFETCH  ACCESS:          0  HIT:          0  MISS:          0
L1I WRITEBACK ACCESS:          0  HIT:          0  MISS:          0
L2C TOTAL     ACCESS:   35325849  HIT:   20908612  MISS:   14417237
L2C LOAD      ACCESS:    2897689  HIT:       1776  MISS:    2895913
L2C RFO       ACCESS:   16214076  HIT:    4696295  MISS:   11517781
L2C PREFETCH  ACCESS:          0  HIT:          0  MISS:          0
L2C WRITEBACK ACCESS:   16214084  HIT:   16210541  MISS:       3543
LLC TOTAL     ACCESS:   25928160  HIT:   14351114  MISS:   11577046
LLC LOAD      ACCESS:    2895913  HIT:       1740  MISS:    2894173
LLC RFO       ACCESS:   11511137  HIT:    2828724  MISS:    8682413
LLC PREFETCH  ACCESS:          0  HIT:          0  MISS:          0
LLC WRITEBACK ACCESS:   11521110  HIT:   11520650  MISS:        460

Region of Interest Statistics

CPU 0 cumulative IPC: 0.390413 instructions: 100000000 cycles: 256138701
L1D TOTAL     ACCESS:   24093227  HIT:   19142938  MISS:    4950289
L1D LOAD      ACCESS:   17146315  HIT:   12411328  MISS:    4734987
L1D RFO       ACCESS:    6946912  HIT:    6731610  MISS:     215302
L1D PREFETCH  ACCESS:          0  HIT:          0  MISS:          0
L1D WRITEBACK ACCESS:          0  HIT:          0  MISS:          0
L1D PREFETCH  REQUESTED:          0  ISSUED:          0  USEFUL:          0  USELESS:          0
L1I TOTAL     ACCESS:   43553516  HIT:   43299196  MISS:     254320
L1I LOAD      ACCESS:   43553516  HIT:   43299196  MISS:     254320
L1I RFO       ACCESS:          0  HIT:          0  MISS:          0
L1I PREFETCH  ACCESS:          0  HIT:          0  MISS:          0
L1I WRITEBACK ACCESS:          0  HIT:          0  MISS:          0
L1I PREFETCH  REQUESTED:          0  ISSUED:          0  USEFUL:          0  USELESS:          0
L2C TOTAL     ACCESS:    5532176  HIT:    3493411  MISS:    2038765
L2C LOAD      ACCESS:    4989268  HIT:    3130220  MISS:    1859048
L2C RFO       ACCESS:     215297  HIT:      35648  MISS:     179649
L2C PREFETCH  ACCESS:          0  HIT:          0  MISS:          0
L2C WRITEBACK ACCESS:     327611  HIT:     327543  MISS:         68
L2C PREFETCH  REQUESTED:          0  ISSUED:          0  USEFUL:          0  USELESS:          0
LLC TOTAL     ACCESS:    2266414  HIT:    2053657  MISS:     212757
LLC LOAD      ACCESS:    1859047  HIT:    1819701  MISS:      39346
LLC RFO       ACCESS:     179648  HIT:      11098  MISS:     168550
LLC PREFETCH  ACCESS:          0  HIT:          0  MISS:          0
LLC WRITEBACK ACCESS:     227719  HIT:     222858  MISS:       4861
LLC PREFETCH  REQUESTED:          0  ISSUED:          0  USEFUL:          0  USELESS:          0
Major fault: 0 Minor fault: 6513

CPU 1 cumulative IPC: 0.131462 instructions: 100000002 cycles: 760677222
L1D TOTAL     ACCESS:   30161462  HIT:   27445432  MISS:    2716030
L1D LOAD      ACCESS:   20459733  HIT:   17744494  MISS:    2715239
L1D RFO       ACCESS:    9701729  HIT:    9700938  MISS:        791
L1D PREFETCH  ACCESS:          0  HIT:          0  MISS:          0
L1D WRITEBACK ACCESS:          0  HIT:          0  MISS:          0
L1D PREFETCH  REQUESTED:          0  ISSUED:          0  USEFUL:          0  USELESS:          0
L1I TOTAL     ACCESS:   24851248  HIT:   24851248  MISS:          0
L1I LOAD      ACCESS:   24851248  HIT:   24851248  MISS:          0
L1I RFO       ACCESS:          0  HIT:          0  MISS:          0
L1I PREFETCH  ACCESS:          0  HIT:          0  MISS:          0
L1I WRITEBACK ACCESS:          0  HIT:          0  MISS:          0
L1I PREFETCH  REQUESTED:          0  ISSUED:          0  USEFUL:          0  USELESS:          0
L2C TOTAL     ACCESS:    2722479  HIT:     945012  MISS:    1777467
L2C LOAD      ACCESS:    2715238  HIT:     938562  MISS:    1776676
L2C RFO       ACCESS:        791  HIT:          0  MISS:        791
L2C PREFETCH  ACCESS:          0  HIT:          0  MISS:          0
L2C WRITEBACK ACCESS:       6450  HIT:       6450  MISS:          0
L2C PREFETCH  REQUESTED:          0  ISSUED:          0  USEFUL:          0  USELESS:          0
LLC TOTAL     ACCESS:    1779900  HIT:       2858  MISS:    1777042
LLC LOAD      ACCESS:    1776676  HIT:        434  MISS:    1776242
LLC RFO       ACCESS:        791  HIT:          0  MISS:        791
LLC PREFETCH  ACCESS:          0  HIT:          0  MISS:          0
LLC WRITEBACK ACCESS:       2433  HIT:       2424  MISS:          9
LLC PREFETCH  REQUESTED:          0  ISSUED:          0  USEFUL:          0  USELESS:          0
Major fault: 0 Minor fault: 39322

CPU 2 cumulative IPC: 0.190317 instructions: 100000000 cycles: 525439116
L1D TOTAL     ACCESS:   41115558  HIT:   37350671  MISS:    3764887
L1D LOAD      ACCESS:   31019096  HIT:   27290273  MISS:    3728823
L1D RFO       ACCESS:   10096462  HIT:   10060398  MISS:      36064
L1D PREFETCH  ACCESS:          0  HIT:          0  MISS:          0
L1D WRITEBACK ACCESS:          0  HIT:          0  MISS:          0
L1D PREFETCH  REQUESTED:          0  ISSUED:          0  USEFUL:          0  USELESS:          0
L1I TOTAL     ACCESS:   21587108  HIT:   21587108  MISS:          0
L1I LOAD      ACCESS:   21587108  HIT:   21587108  MISS:          0
L1I RFO       ACCESS:          0  HIT:          0  MISS:          0
L1I PREFETCH  ACCESS:          0  HIT:          0  MISS:          0
L1I WRITEBACK ACCESS:          0  HIT:          0  MISS:          0
L1I PREFETCH  REQUESTED:          0  ISSUED:          0  USEFUL:          0  USELESS:          0
L2C TOTAL     ACCESS:    4033859  HIT:    1478041  MISS:    2555818
L2C LOAD      ACCESS:    3728820  HIT:    1180537  MISS:    2548283
L2C RFO       ACCESS:      36061  HIT:      29204  MISS:       6857
L2C PREFETCH  ACCESS:          0  HIT:          0  MISS:          0
L2C WRITEBACK ACCESS:     268978  HIT:     268300  MISS:        678
L2C PREFETCH  REQUESTED:          0  ISSUED:          0  USEFUL:          0  USELESS:          0
LLC TOTAL     ACCESS:    2726953  HIT:    1070739  MISS:    1656214
LLC LOAD      ACCESS:    2548280  HIT:     894466  MISS:    1653814
LLC RFO       ACCESS:       6857  HIT:       4799  MISS:       2058
LLC PREFETCH  ACCESS:          0  HIT:          0  MISS:          0
LLC WRITEBACK ACCESS:     171816  HIT:     171474  MISS:        342
LLC PREFETCH  REQUESTED:          0  ISSUED:          0  USEFUL:          0  USELESS:          0
Major fault: 0 Minor fault: 166291

CPU 3 cumulative IPC: 0.153909 instructions: 100000001 cycles: 649735574
L1D TOTAL     ACCESS:   19690583  HIT:   14145471  MISS:    5545112
L1D LOAD      ACCESS:   15256245  HIT:    9988375  MISS:    5267870
L1D RFO       ACCESS:    4434338  HIT:    4157096  MISS:     277242
L1D PREFETCH  ACCESS:          0  HIT:          0  MISS:          0
L1D WRITEBACK ACCESS:          0  HIT:          0  MISS:          0
L1D PREFETCH  REQUESTED:          0  ISSUED:          0  USEFUL:          0  USELESS:          0
L1I TOTAL     ACCESS:   25336444  HIT:   25336444  MISS:          0
L1I LOAD      ACCESS:   25336444  HIT:   25336444  MISS:          0
L1I RFO       ACCESS:          0  HIT:          0  MISS:          0
L1I PREFETCH  ACCESS:          0  HIT:          0  MISS:          0
L1I WRITEBACK ACCESS:          0  HIT:          0  MISS:          0
L1I PREFETCH  REQUESTED:          0  ISSUED:          0  USEFUL:          0  USELESS:          0
L2C TOTAL     ACCESS:    7762282  HIT:    4248861  MISS:    3513421
L2C LOAD      ACCESS:    5267870  HIT:    1975255  MISS:    3292615
L2C RFO       ACCESS:     277242  HIT:      56438  MISS:     220804
L2C PREFETCH  ACCESS:          0  HIT:          0  MISS:          0
L2C WRITEBACK ACCESS:    2217170  HIT:    2217168  MISS:          2
L2C PREFETCH  REQUESTED:          0  ISSUED:          0  USEFUL:          0  USELESS:          0
LLC TOTAL     ACCESS:    5730916  HIT:    3173924  MISS:    2556992
LLC LOAD      ACCESS:    3292615  HIT:     735642  MISS:    2556973
LLC RFO       ACCESS:     220804  HIT:     220802  MISS:          2
LLC PREFETCH  ACCESS:          0  HIT:          0  MISS:          0
LLC WRITEBACK ACCESS:    2217497  HIT:    2217480  MISS:         17
LLC PREFETCH  REQUESTED:          0  ISSUED:          0  USEFUL:          0  USELESS:          0
Major fault: 0 Minor fault: 66645

CPU 4 cumulative IPC: 0.456673 instructions: 100000003 cycles: 218975021
L1D TOTAL     ACCESS:   37849564  HIT:   35771235  MISS:    2078329
L1D LOAD      ACCESS:   32269695  HIT:   30256564  MISS:    2013131
L1D RFO       ACCESS:    5579869  HIT:    5514671  MISS:      65198
L1D PREFETCH  ACCESS:          0  HIT:          0  MISS:          0
L1D WRITEBACK ACCESS:          0  HIT:          0  MISS:          0
L1D PREFETCH  REQUESTED:          0  ISSUED:          0  USEFUL:          0  USELESS:          0
L1I TOTAL     ACCESS:   25466304  HIT:   25466304  MISS:          0
L1I LOAD      ACCESS:   25466304  HIT:   25466304  MISS:          0
L1I RFO       ACCESS:          0  HIT:          0  MISS:          0
L1I PREFETCH  ACCESS:          0  HIT:          0  MISS:          0
L1I WRITEBACK ACCESS:          0  HIT:          0  MISS:          0
L1I PREFETCH  REQUESTED:          0  ISSUED:          0  USEFUL:          0  USELESS:          0
L2C TOTAL     ACCESS:    2147568  HIT:     239747  MISS:    1907821
L2C LOAD      ACCESS:    2012705  HIT:     154061  MISS:    1858644
L2C RFO       ACCESS:      64058  HIT:      15334  MISS:      48724
L2C PREFETCH  ACCESS:          0  HIT:          0  MISS:          0
L2C WRITEBACK ACCESS:      70805  HIT:      70352  MISS:        453
L2C PREFETCH  REQUESTED:          0  ISSUED:          0  USEFUL:          0  USELESS:          0
LLC TOTAL     ACCESS:    1956602  HIT:      56192  MISS:    1900410
LLC LOAD      ACCESS:    1858644  HIT:       7082  MISS:    1851562
LLC RFO       ACCESS:      48724  HIT:          0  MISS:      48724
LLC PREFETCH  ACCESS:          0  HIT:          0  MISS:          0
LLC WRITEBACK ACCESS:      49234  HIT:      49110  MISS:        124
LLC PREFETCH  REQUESTED:          0  ISSUED:          0  USEFUL:          0  USELESS:          0
Major fault: 0 Minor fault: 104931

CPU 5 cumulative IPC: 0.284488 instructions: 100000002 cycles: 351508429
L1D TOTAL     ACCESS:   21275305  HIT:   18217167  MISS:    3058138
L1D LOAD      ACCESS:   17607966  HIT:   15313738  MISS:    2294228
L1D RFO       ACCESS:    3667339  HIT:    2903429  MISS:     763910
L1D PREFETCH  ACCESS:          0  HIT:          0  MISS:          0
L1D WRITEBACK ACCESS:          0  HIT:          0  MISS:          0
L1D PREFETCH  REQUESTED:          0  ISSUED:          0  USEFUL:          0  USELESS:          0
L1I TOTAL     ACCESS:   24180679  HIT:   24180392  MISS:        287
L1I LOAD      ACCESS:   24180679  HIT:   24180392  MISS:        287
L1I RFO       ACCESS:          0  HIT:          0  MISS:          0
L1I PREFETCH  ACCESS:          0  HIT:          0  MISS:          0
L1I WRITEBACK ACCESS:          0  HIT:          0  MISS:          0
L1I PREFETCH  REQUESTED:          0  ISSUED:          0  USEFUL:          0  USELESS:          0
L2C TOTAL     ACCESS:    3917021  HIT:    1568063  MISS:    2348958
L2C LOAD      ACCESS:    2294502  HIT:     709533  MISS:    1584969
L2C RFO       ACCESS:     763910  HIT:          7  MISS:     763903
L2C PREFETCH  ACCESS:          0  HIT:          0  MISS:          0
L2C WRITEBACK ACCESS:     858609  HIT:     858523  MISS:         86
L2C PREFETCH  REQUESTED:          0  ISSUED:          0  USEFUL:          0  USELESS:          0
LLC TOTAL     ACCESS:    3201174  HIT:     854362  MISS:    2346812
LLC LOAD      ACCESS:    1584969  HIT:       2088  MISS:    1582881
LLC RFO       ACCESS:     763903  HIT:         31  MISS:     763872
LLC PREFETCH  ACCESS:          0  HIT:          0  MISS:          0
LLC WRITEBACK ACCESS:     852302  HIT:     852243  MISS:         59
LLC PREFETCH  REQUESTED:          0  ISSUED:          0  USEFUL:          0  USELESS:          0
Major fault: 0 Minor fault: 54229

CPU 6 cumulative IPC: 0.29561 instructions: 100000000 cycles: 338283965
L1D TOTAL     ACCESS:   56022996  HIT:   54098977  MISS:    1924019
L1D LOAD      ACCESS:   49611688  HIT:   47687669  MISS:    1924019
L1D RFO       ACCESS:    6411308  HIT:    6411308  MISS:          0
L1D PREFETCH  ACCESS:          0  HIT:          0  MISS:          0
L1D WRITEBACK ACCESS:          0  HIT:          0  MISS:          0
L1D PREFETCH  REQUESTED:          0  ISSUED:          0  USEFUL:          0  USELESS:          0
L1I TOTAL     ACCESS:   30871793  HIT:   30871793  MISS:          0
L1I LOAD      ACCESS:   30871793  HIT:   30871793  MISS:          0
L1I RFO       ACCESS:          0  HIT:          0  MISS:          0
L1I PREFETCH  ACCESS:          0  HIT:          0  MISS:          0
L1I WRITEBACK ACCESS:          0  HIT:          0  MISS:          0
L1I PREFETCH  REQUESTED:          0  ISSUED:          0  USEFUL:          0  USELESS:          0
L2C TOTAL     ACCESS:    2895500  HIT:     971481  MISS:    1924019
L2C LOAD      ACCESS:    1924019  HIT:          0  MISS:    1924019
L2C RFO       ACCESS:          0  HIT:          0  MISS:          0
L2C PREFETCH  ACCESS:          0  HIT:          0  MISS:          0
L2C WRITEBACK ACCESS:     971481  HIT:     971481  MISS:          0
L2C PREFETCH  REQUESTED:          0  ISSUED:          0  USEFUL:          0  USELESS:          0
LLC TOTAL     ACCESS:    2895454  HIT:    1316746  MISS:    1578708
LLC LOAD      ACCESS:    1924019  HIT:     345311  MISS:    1578708
LLC RFO       ACCESS:          0  HIT:          0  MISS:          0
LLC PREFETCH  ACCESS:          0  HIT:          0  MISS:          0
LLC WRITEBACK ACCESS:     971435  HIT:     971435  MISS:          0
LLC PREFETCH  REQUESTED:          0  ISSUED:          0  USEFUL:          0  USELESS:          0
Major fault: 0 Minor fault: 621156

CPU 7 cumulative IPC: 0.51782 instructions: 100000000 cycles: 193117178
L1D TOTAL     ACCESS:   25774412  HIT:   21895563  MISS:    3878849
L1D LOAD      ACCESS:   10638798  HIT:   10051082  MISS:     587716
L1D RFO       ACCESS:   15135614  HIT:   11844481  MISS:    3291133
L1D PREFETCH  ACCESS:          0  HIT:          0  MISS:          0
L1D WRITEBACK ACCESS:          0  HIT:          0  MISS:          0
L1D PREFETCH  REQUESTED:          0  ISSUED:          0  USEFUL:          0  USELESS:          0
L1I TOTAL     ACCESS:   23511889  HIT:   23511889  MISS:          0
L1I LOAD      ACCESS:   23511889  HIT:   23511889  MISS:          0
L1I RFO       ACCESS:          0  HIT:          0  MISS:          0
L1I PREFETCH  ACCESS:          0  HIT:          0  MISS:          0
L1I WRITEBACK ACCESS:          0  HIT:          0  MISS:          0
L1I PREFETCH  REQUESTED:          0  ISSUED:          0  USEFUL:          0  USELESS:          0
L2C TOTAL     ACCESS:    7169985  HIT:    4237833  MISS:    2932152
L2C LOAD      ACCESS:     587716  HIT:          0  MISS:     587716
L2C RFO       ACCESS:    3291133  HIT:     946747  MISS:    2344386
L2C PREFETCH  ACCESS:          0  HIT:          0  MISS:          0
L2C WRITEBACK ACCESS:    3291136  HIT:    3291086  MISS:         50
L2C PREFETCH  REQUESTED:          0  ISSUED:          0  USEFUL:          0  USELESS:          0
LLC TOTAL     ACCESS:    5274981  HIT:    2924147  MISS:    2350834
LLC LOAD      ACCESS:     587716  HIT:          3  MISS:     587713
LLC RFO       ACCESS:    2342820  HIT:     579735  MISS:    1763085
LLC PREFETCH  ACCESS:          0  HIT:          0  MISS:          0
LLC WRITEBACK ACCESS:    2344445  HIT:    2344409  MISS:         36
LLC PREFETCH  REQUESTED:          0  ISSUED:          0  USEFUL:          0  USELESS:          0
Major fault: 0 Minor fault: 100215

DRAM Statistics
 CHANNEL 0
 RQ ROW_BUFFER_HIT:    4527422  ROW_BUFFER_MISS:   12687706
 DBUS_CONGESTED:   34110129
 WQ ROW_BUFFER_HIT:     847143  ROW_BUFFER_MISS:    7090367  FULL:          0

 CHANNEL 1
 RQ ROW_BUFFER_HIT:    4486764  ROW_BUFFER_MISS:   12726393
 DBUS_CONGESTED:   34110129
 WQ ROW_BUFFER_HIT:     845873  ROW_BUFFER_MISS:    7091605  FULL:          0

 AVG_CONGESTED_CYCLE: 13
