
*** ChampSim Multicore Out-of-Order Simulator ***

Warmup Instructions: 20000000
Simulation Instructions: 100000000
Number of CPUs: 8
LLC sets: 16384
LLC ways: 16
Off-chip DRAM Size: 8192 MB Channels: 2 Width: 64-bit Data Rate: 1600 MT/s

CPU 0 runs /scratch/user/djimenez/champsim-traces/speccpu2017/xz/623.xalancbmk_s/623.xalancbmk_s-700B.champsimtrace.xz
CPU 1 runs /scratch/user/djimenez/champsim-traces/speccpu2017/xz/619.lbm_s/619.lbm_s-2677B.champsimtrace.xz
CPU 2 runs /scratch/user/djimenez/champsim-traces/speccpu2017/xz/657.xz_s/657.xz_s-2302B.champsimtrace.xz
CPU 3 runs /scratch/user/djimenez/champsim-traces/speccpu2017/xz/654.roms_s/654.roms_s-293B.champsimtrace.xz
CPU 4 runs /scratch/user/djimenez/champsim-traces/speccpu2017/xz/628.pop2_s/628.pop2_s-17B.champsimtrace.xz
CPU 5 runs /scratch/user/djimenez/champsim-traces/speccpu2017/xz/603.bwaves_s/603.bwaves_s-1740B.champsimtrace.xz
CPU 6 runs /scratch/user/djimenez/champsim-traces/speccpu2017/xz/654.roms_s/654.roms_s-1070B.champsimtrace.xz
CPU 7 runs /scratch/user/djimenez/champsim-traces/speccpu2017/xz/605.mcf_s/605.mcf_s-1554B.champsimtrace.xz
Heartbeat CPU 4 instructions: 10000002 cycles: 4133779 heartbeat IPC: 2.41909 cumulative IPC: 2.41909 (Simulation time: 0 hr 4 min 0 sec) 
Heartbeat CPU 2 instructions: 10000002 cycles: 4470955 heartbeat IPC: 2.23666 cumulative IPC: 2.23666 (Simulation time: 0 hr 4 min 20 sec) 
Heartbeat CPU 3 instructions: 10000002 cycles: 4478924 heartbeat IPC: 2.23268 cumulative IPC: 2.23268 (Simulation time: 0 hr 4 min 21 sec) 
Heartbeat CPU 1 instructions: 10000001 cycles: 4918202 heartbeat IPC: 2.03326 cumulative IPC: 2.03326 (Simulation time: 0 hr 4 min 45 sec) 
Heartbeat CPU 6 instructions: 10000001 cycles: 4928393 heartbeat IPC: 2.02906 cumulative IPC: 2.02906 (Simulation time: 0 hr 4 min 45 sec) 
Heartbeat CPU 5 instructions: 10000001 cycles: 5294773 heartbeat IPC: 1.88866 cumulative IPC: 1.88866 (Simulation time: 0 hr 5 min 7 sec) 
Heartbeat CPU 7 instructions: 10000001 cycles: 5691092 heartbeat IPC: 1.75713 cumulative IPC: 1.75713 (Simulation time: 0 hr 5 min 30 sec) 
Heartbeat CPU 0 instructions: 10000001 cycles: 6002434 heartbeat IPC: 1.66599 cumulative IPC: 1.66599 (Simulation time: 0 hr 5 min 53 sec) 
Heartbeat CPU 4 instructions: 20000000 cycles: 8258221 heartbeat IPC: 2.42457 cumulative IPC: 2.42183 (Simulation time: 0 hr 8 min 14 sec) 
Heartbeat CPU 2 instructions: 20000000 cycles: 8907922 heartbeat IPC: 2.25379 cumulative IPC: 2.24519 (Simulation time: 0 hr 8 min 54 sec) 
Heartbeat CPU 3 instructions: 20000000 cycles: 9118428 heartbeat IPC: 2.1554 cumulative IPC: 2.19336 (Simulation time: 0 hr 9 min 6 sec) 
Heartbeat CPU 1 instructions: 20000000 cycles: 9804893 heartbeat IPC: 2.04637 cumulative IPC: 2.0398 (Simulation time: 0 hr 9 min 46 sec) 
Heartbeat CPU 6 instructions: 20000000 cycles: 9996561 heartbeat IPC: 1.9731 cumulative IPC: 2.00069 (Simulation time: 0 hr 9 min 58 sec) 
Heartbeat CPU 5 instructions: 20000000 cycles: 10590898 heartbeat IPC: 1.88817 cumulative IPC: 1.88841 (Simulation time: 0 hr 10 min 32 sec) 
Heartbeat CPU 0 instructions: 20000000 cycles: 10900046 heartbeat IPC: 2.04181 cumulative IPC: 1.83485 (Simulation time: 0 hr 10 min 53 sec) 
Heartbeat CPU 7 instructions: 20000000 cycles: 11333016 heartbeat IPC: 1.77244 cumulative IPC: 1.76476 (Simulation time: 0 hr 11 min 20 sec) 

Warmup complete CPU 0 instructions: 20863736 cycles: 11333026 (Simulation time: 0 hr 11 min 20 sec) 
Warmup complete CPU 1 instructions: 23128359 cycles: 11333026 (Simulation time: 0 hr 11 min 20 sec) 
Warmup complete CPU 2 instructions: 25312792 cycles: 11333026 (Simulation time: 0 hr 11 min 20 sec) 
Warmup complete CPU 3 instructions: 24900097 cycles: 11333026 (Simulation time: 0 hr 11 min 20 sec) 
Warmup complete CPU 4 instructions: 27456568 cycles: 11333026 (Simulation time: 0 hr 11 min 20 sec) 
Warmup complete CPU 5 instructions: 21400363 cycles: 11333026 (Simulation time: 0 hr 11 min 20 sec) 
Warmup complete CPU 6 instructions: 22641666 cycles: 11333026 (Simulation time: 0 hr 11 min 20 sec) 
Warmup complete CPU 7 instructions: 20000001 cycles: 11333026 (Simulation time: 0 hr 11 min 20 sec) 

Heartbeat CPU 4 instructions: 30000002 cycles: 14665702 heartbeat IPC: 1.56068 cumulative IPC: 0.763181 (Simulation time: 0 hr 12 min 29 sec) 
Heartbeat CPU 3 instructions: 30000003 cycles: 17296357 heartbeat IPC: 1.2228 cumulative IPC: 0.855211 (Simulation time: 0 hr 13 min 27 sec) 
Heartbeat CPU 2 instructions: 30000003 cycles: 20522290 heartbeat IPC: 0.861003 cumulative IPC: 0.510075 (Simulation time: 0 hr 14 min 30 sec) 
Heartbeat CPU 4 instructions: 40000000 cycles: 27587422 heartbeat IPC: 0.773891 cumulative IPC: 0.771695 (Simulation time: 0 hr 16 min 52 sec) 
Heartbeat CPU 5 instructions: 30000003 cycles: 30420171 heartbeat IPC: 0.504305 cumulative IPC: 0.450546 (Simulation time: 0 hr 17 min 46 sec) 
Heartbeat CPU 1 instructions: 30000002 cycles: 31421882 heartbeat IPC: 0.462599 cumulative IPC: 0.342062 (Simulation time: 0 hr 18 min 3 sec) 
Heartbeat CPU 3 instructions: 40000000 cycles: 33999932 heartbeat IPC: 0.598674 cumulative IPC: 0.666165 (Simulation time: 0 hr 18 min 49 sec) 
Heartbeat CPU 6 instructions: 30000000 cycles: 36900951 heartbeat IPC: 0.371687 cumulative IPC: 0.287796 (Simulation time: 0 hr 19 min 46 sec) 
Heartbeat CPU 2 instructions: 40000000 cycles: 40591329 heartbeat IPC: 0.49828 cumulative IPC: 0.501984 (Simulation time: 0 hr 20 min 53 sec) 
Heartbeat CPU 4 instructions: 50000001 cycles: 40595258 heartbeat IPC: 0.768767 cumulative IPC: 0.770393 (Simulation time: 0 hr 20 min 53 sec) 
Heartbeat CPU 0 instructions: 30000001 cycles: 41591434 heartbeat IPC: 0.325824 cumulative IPC: 0.301941 (Simulation time: 0 hr 21 min 10 sec) 
Heartbeat CPU 7 instructions: 30000003 cycles: 42544250 heartbeat IPC: 0.320398 cumulative IPC: 0.320398 (Simulation time: 0 hr 21 min 26 sec) 
Heartbeat CPU 3 instructions: 50000003 cycles: 47092801 heartbeat IPC: 0.763775 cumulative IPC: 0.701903 (Simulation time: 0 hr 22 min 54 sec) 
Heartbeat CPU 5 instructions: 40000000 cycles: 53143342 heartbeat IPC: 0.440079 cumulative IPC: 0.444858 (Simulation time: 0 hr 24 min 42 sec) 
Heartbeat CPU 4 instructions: 60000000 cycles: 53543946 heartbeat IPC: 0.772279 cumulative IPC: 0.770972 (Simulation time: 0 hr 24 min 49 sec) 
Heartbeat CPU 1 instructions: 40000000 cycles: 60752241 heartbeat IPC: 0.340944 cumulative IPC: 0.341398 (Simulation time: 0 hr 27 min 7 sec) 
Heartbeat CPU 2 instructions: 50000003 cycles: 60970419 heartbeat IPC: 0.490699 cumulative IPC: 0.497351 (Simulation time: 0 hr 27 min 10 sec) 
Heartbeat CPU 3 instructions: 60000000 cycles: 63209119 heartbeat IPC: 0.620489 cumulative IPC: 0.67661 (Simulation time: 0 hr 27 min 52 sec) 
Heartbeat CPU 4 instructions: 70000002 cycles: 66122886 heartbeat IPC: 0.79498 cumulative IPC: 0.776484 (Simulation time: 0 hr 28 min 49 sec) 
Heartbeat CPU 0 instructions: 40000000 cycles: 70746773 heartbeat IPC: 0.34299 cumulative IPC: 0.322085 (Simulation time: 0 hr 30 min 17 sec) 
Heartbeat CPU 6 instructions: 40000000 cycles: 72611561 heartbeat IPC: 0.280029 cumulative IPC: 0.283269 (Simulation time: 0 hr 30 min 50 sec) 
Heartbeat CPU 7 instructions: 40000000 cycles: 74109607 heartbeat IPC: 0.316803 cumulative IPC: 0.31859 (Simulation time: 0 hr 31 min 21 sec) 
Heartbeat CPU 5 instructions: 50000003 cycles: 75528845 heartbeat IPC: 0.446718 cumulative IPC: 0.445506 (Simulation time: 0 hr 31 min 48 sec) 
Heartbeat CPU 3 instructions: 70000001 cycles: 76119423 heartbeat IPC: 0.774575 cumulative IPC: 0.696132 (Simulation time: 0 hr 31 min 59 sec) 
Heartbeat CPU 4 instructions: 80000000 cycles: 76548167 heartbeat IPC: 0.959207 cumulative IPC: 0.805694 (Simulation time: 0 hr 32 min 8 sec) 
Heartbeat CPU 2 instructions: 60000000 cycles: 81466502 heartbeat IPC: 0.487898 cumulative IPC: 0.494588 (Simulation time: 0 hr 33 min 31 sec) 
Heartbeat CPU 1 instructions: 50000002 cycles: 89588795 heartbeat IPC: 0.346782 cumulative IPC: 0.343382 (Simulation time: 0 hr 36 min 10 sec) 
Heartbeat CPU 4 instructions: 90000002 cycles: 89982405 heartbeat IPC: 0.744367 cumulative IPC: 0.795218 (Simulation time: 0 hr 36 min 17 sec) 
Heartbeat CPU 3 instructions: 80000000 cycles: 91566632 heartbeat IPC: 0.647366 cumulative IPC: 0.686743 (Simulation time: 0 hr 36 min 44 sec) 
Heartbeat CPU 5 instructions: 60000000 cycles: 97605411 heartbeat IPC: 0.452969 cumulative IPC: 0.447416 (Simulation time: 0 hr 38 min 38 sec) 
Heartbeat CPU 0 instructions: 50000001 cycles: 97796029 heartbeat IPC: 0.369696 cumulative IPC: 0.33698 (Simulation time: 0 hr 38 min 41 sec) 
Heartbeat CPU 2 instructions: 70000002 cycles: 100279304 heartbeat IPC: 0.531553 cumulative IPC: 0.502407 (Simulation time: 0 hr 39 min 24 sec) 
Heartbeat CPU 4 instructions: 100000000 cycles: 102655885 heartbeat IPC: 0.789049 cumulative IPC: 0.794362 (Simulation time: 0 hr 40 min 5 sec) 
Heartbeat CPU 3 instructions: 90000002 cycles: 104895250 heartbeat IPC: 0.750265 cumulative IPC: 0.695793 (Simulation time: 0 hr 40 min 45 sec) 
Heartbeat CPU 6 instructions: 50000000 cycles: 105019475 heartbeat IPC: 0.308567 cumulative IPC: 0.29202 (Simulation time: 0 hr 40 min 47 sec) 
Heartbeat CPU 7 instructions: 50000000 cycles: 105883604 heartbeat IPC: 0.314723 cumulative IPC: 0.31729 (Simulation time: 0 hr 41 min 4 sec) 
Heartbeat CPU 4 instructions: 110000001 cycles: 113814021 heartbeat IPC: 0.896207 cumulative IPC: 0.805451 (Simulation time: 0 hr 43 min 32 sec) 
Heartbeat CPU 0 instructions: 60000000 cycles: 118086016 heartbeat IPC: 0.492854 cumulative IPC: 0.366606 (Simulation time: 0 hr 44 min 52 sec) 
Heartbeat CPU 1 instructions: 60000000 cycles: 119520179 heartbeat IPC: 0.334097 cumulative IPC: 0.340813 (Simulation time: 0 hr 45 min 16 sec) 
Heartbeat CPU 3 instructions: 100000000 cycles: 120567171 heartbeat IPC: 0.638084 cumulative IPC: 0.687513 (Simulation time: 0 hr 45 min 31 sec) 
Heartbeat CPU 5 instructions: 70000001 cycles: 120939723 heartbeat IPC: 0.428553 cumulative IPC: 0.4434 (Simulation time: 0 hr 45 min 37 sec) 
Heartbeat CPU 2 instructions: 80000000 cycles: 121095016 heartbeat IPC: 0.480406 cumulative IPC: 0.498234 (Simulation time: 0 hr 45 min 39 sec) 
Heartbeat CPU 4 instructions: 120000000 cycles: 126417678 heartbeat IPC: 0.79342 cumulative IPC: 0.804134 (Simulation time: 0 hr 47 min 21 sec) 
Finished CPU 4 instructions: 100000000 cycles: 122975720 cumulative IPC: 0.813169 (Simulation time: 0 hr 49 min 47 sec) 
Heartbeat CPU 3 instructions: 110000000 cycles: 135637818 heartbeat IPC: 0.663541 cumulative IPC: 0.684607 (Simulation time: 0 hr 50 min 12 sec) 
Heartbeat CPU 7 instructions: 60000000 cycles: 137461763 heartbeat IPC: 0.316675 cumulative IPC: 0.317136 (Simulation time: 0 hr 50 min 48 sec) 
Heartbeat CPU 4 instructions: 130000001 cycles: 137599211 heartbeat IPC: 0.894332 cumulative IPC: 0.812121 (Simulation time: 0 hr 50 min 51 sec) 
Heartbeat CPU 0 instructions: 70000001 cycles: 141945526 heartbeat IPC: 0.41912 cumulative IPC: 0.376199 (Simulation time: 0 hr 52 min 3 sec) 
Heartbeat CPU 2 instructions: 90000001 cycles: 142081485 heartbeat IPC: 0.476498 cumulative IPC: 0.494745 (Simulation time: 0 hr 52 min 6 sec) 
Heartbeat CPU 5 instructions: 80000000 cycles: 143978658 heartbeat IPC: 0.434048 cumulative IPC: 0.441776 (Simulation time: 0 hr 52 min 40 sec) 
Heartbeat CPU 6 instructions: 60000000 cycles: 145509930 heartbeat IPC: 0.246972 cumulative IPC: 0.278426 (Simulation time: 0 hr 53 min 18 sec) 
Heartbeat CPU 4 instructions: 140000000 cycles: 146956839 heartbeat IPC: 1.06865 cumulative IPC: 0.829821 (Simulation time: 0 hr 53 min 49 sec) 
Heartbeat CPU 1 instructions: 70000001 cycles: 149294089 heartbeat IPC: 0.335865 cumulative IPC: 0.339745 (Simulation time: 0 hr 54 min 39 sec) 
Heartbeat CPU 3 instructions: 120000000 cycles: 149484778 heartbeat IPC: 0.72218 cumulative IPC: 0.688373 (Simulation time: 0 hr 54 min 42 sec) 
Finished CPU 3 instructions: 100000000 cycles: 145389679 cumulative IPC: 0.687807 (Simulation time: 0 hr 56 min 49 sec) 
Heartbeat CPU 4 instructions: 150000001 cycles: 156780081 heartbeat IPC: 1.01799 cumulative IPC: 0.842529 (Simulation time: 0 hr 56 min 50 sec) 
Heartbeat CPU 2 instructions: 100000000 cycles: 160661253 heartbeat IPC: 0.53822 cumulative IPC: 0.500155 (Simulation time: 0 hr 58 min 2 sec) 
Heartbeat CPU 5 instructions: 90000000 cycles: 166334343 heartbeat IPC: 0.447314 cumulative IPC: 0.442575 (Simulation time: 0 hr 59 min 49 sec) 
Heartbeat CPU 4 instructions: 160000000 cycles: 166765507 heartbeat IPC: 1.00146 cumulative IPC: 0.85274 (Simulation time: 0 hr 59 min 57 sec) 
Heartbeat CPU 3 instructions: 130000003 cycles: 167707507 heartbeat IPC: 0.548765 cumulative IPC: 0.672104 (Simulation time: 1 hr 0 min 16 sec) 
Heartbeat CPU 7 instructions: 70000001 cycles: 169267771 heartbeat IPC: 0.314406 cumulative IPC: 0.316586 (Simulation time: 1 hr 0 min 44 sec) 
Heartbeat CPU 0 instructions: 80000000 cycles: 176952503 heartbeat IPC: 0.285657 cumulative IPC: 0.357061 (Simulation time: 1 hr 2 min 58 sec) 
Heartbeat CPU 1 instructions: 80000000 cycles: 177604600 heartbeat IPC: 0.353226 cumulative IPC: 0.342041 (Simulation time: 1 hr 3 min 9 sec) 
Heartbeat CPU 6 instructions: 70000001 cycles: 179065529 heartbeat IPC: 0.298013 cumulative IPC: 0.282344 (Simulation time: 1 hr 3 min 33 sec) 
Heartbeat CPU 4 instructions: 170000001 cycles: 179690665 heartbeat IPC: 0.773685 cumulative IPC: 0.84667 (Simulation time: 1 hr 3 min 43 sec) 
Heartbeat CPU 2 instructions: 110000002 cycles: 180714365 heartbeat IPC: 0.498676 cumulative IPC: 0.49998 (Simulation time: 1 hr 4 min 1 sec) 
Heartbeat CPU 5 instructions: 100000000 cycles: 187739876 heartbeat IPC: 0.467169 cumulative IPC: 0.445559 (Simulation time: 1 hr 6 min 7 sec) 
Heartbeat CPU 3 instructions: 140000000 cycles: 193318240 heartbeat IPC: 0.390461 cumulative IPC: 0.632468 (Simulation time: 1 hr 7 min 52 sec) 
Heartbeat CPU 4 instructions: 180000000 cycles: 193970782 heartbeat IPC: 0.700274 cumulative IPC: 0.835224 (Simulation time: 1 hr 8 min 3 sec) 
Heartbeat CPU 2 instructions: 120000000 cycles: 201185911 heartbeat IPC: 0.488483 cumulative IPC: 0.49874 (Simulation time: 1 hr 10 min 15 sec) 
Heartbeat CPU 7 instructions: 80000000 cycles: 201204517 heartbeat IPC: 0.313119 cumulative IPC: 0.316003 (Simulation time: 1 hr 10 min 16 sec) 
Heartbeat CPU 1 instructions: 90000001 cycles: 205382936 heartbeat IPC: 0.359993 cumulative IPC: 0.344611 (Simulation time: 1 hr 11 min 33 sec) 
Heartbeat CPU 0 instructions: 90000001 cycles: 206525722 heartbeat IPC: 0.338144 cumulative IPC: 0.354195 (Simulation time: 1 hr 11 min 51 sec) 
Heartbeat CPU 4 instructions: 190000002 cycles: 206720311 heartbeat IPC: 0.784343 cumulative IPC: 0.831904 (Simulation time: 1 hr 11 min 54 sec) 
Heartbeat CPU 5 instructions: 110000000 cycles: 209270393 heartbeat IPC: 0.464457 cumulative IPC: 0.447615 (Simulation time: 1 hr 12 min 34 sec) 
Finished CPU 2 instructions: 100000001 cycles: 201448650 cumulative IPC: 0.496404 (Simulation time: 1 hr 13 min 29 sec) 
Heartbeat CPU 6 instructions: 80000000 cycles: 215230781 heartbeat IPC: 0.276508 cumulative IPC: 0.281309 (Simulation time: 1 hr 14 min 10 sec) 
Heartbeat CPU 3 instructions: 150000003 cycles: 219451346 heartbeat IPC: 0.382657 cumulative IPC: 0.6011 (Simulation time: 1 hr 15 min 27 sec) 
Heartbeat CPU 4 instructions: 200000000 cycles: 219603713 heartbeat IPC: 0.776192 cumulative IPC: 0.828458 (Simulation time: 1 hr 15 min 30 sec) 
Heartbeat CPU 2 instructions: 130000000 cycles: 222079156 heartbeat IPC: 0.478624 cumulative IPC: 0.496746 (Simulation time: 1 hr 16 min 16 sec) 
Heartbeat CPU 5 instructions: 120000000 cycles: 231282045 heartbeat IPC: 0.454305 cumulative IPC: 0.448284 (Simulation time: 1 hr 18 min 55 sec) 
Heartbeat CPU 7 instructions: 90000003 cycles: 232377918 heartbeat IPC: 0.320786 cumulative IPC: 0.316678 (Simulation time: 1 hr 19 min 14 sec) 
Heartbeat CPU 4 instructions: 210000001 cycles: 232444924 heartbeat IPC: 0.778743 cumulative IPC: 0.82557 (Simulation time: 1 hr 19 min 15 sec) 
Heartbeat CPU 1 instructions: 100000000 cycles: 234049783 heartbeat IPC: 0.348835 cumulative IPC: 0.345154 (Simulation time: 1 hr 19 min 48 sec) 
Finished CPU 5 instructions: 100000000 cycles: 222966314 cumulative IPC: 0.448498 (Simulation time: 1 hr 19 min 52 sec) 
Heartbeat CPU 2 instructions: 140000000 cycles: 239216392 heartbeat IPC: 0.583525 cumulative IPC: 0.503272 (Simulation time: 1 hr 21 min 25 sec) 
Heartbeat CPU 0 instructions: 100000000 cycles: 241546647 heartbeat IPC: 0.285544 cumulative IPC: 0.343751 (Simulation time: 1 hr 22 min 11 sec) 
Heartbeat CPU 4 instructions: 220000000 cycles: 245190298 heartbeat IPC: 0.784598 cumulative IPC: 0.823337 (Simulation time: 1 hr 23 min 17 sec) 
Heartbeat CPU 3 instructions: 160000000 cycles: 245250010 heartbeat IPC: 0.387617 cumulative IPC: 0.577555 (Simulation time: 1 hr 23 min 18 sec) 
Heartbeat CPU 6 instructions: 90000002 cycles: 248165099 heartbeat IPC: 0.303635 cumulative IPC: 0.284414 (Simulation time: 1 hr 24 min 8 sec) 
Heartbeat CPU 5 instructions: 130000003 cycles: 252534282 heartbeat IPC: 0.470539 cumulative IPC: 0.450245 (Simulation time: 1 hr 25 min 23 sec) 
Heartbeat CPU 4 instructions: 230000003 cycles: 257856612 heartbeat IPC: 0.789496 cumulative IPC: 0.821599 (Simulation time: 1 hr 26 min 54 sec) 
Heartbeat CPU 2 instructions: 150000000 cycles: 259499800 heartbeat IPC: 0.493014 cumulative IPC: 0.502433 (Simulation time: 1 hr 27 min 22 sec) 
Heartbeat CPU 1 instructions: 110000000 cycles: 261924969 heartbeat IPC: 0.358742 cumulative IPC: 0.346666 (Simulation time: 1 hr 28 min 3 sec) 
Heartbeat CPU 7 instructions: 100000000 cycles: 263120520 heartbeat IPC: 0.325281 cumulative IPC: 0.317728 (Simulation time: 1 hr 28 min 23 sec) 
Heartbeat CPU 4 instructions: 240000000 cycles: 270477011 heartbeat IPC: 0.792368 cumulative IPC: 0.820175 (Simulation time: 1 hr 30 min 29 sec) 
Heartbeat CPU 3 instructions: 170000001 cycles: 270945763 heartbeat IPC: 0.389169 cumulative IPC: 0.558909 (Simulation time: 1 hr 30 min 37 sec) 
Heartbeat CPU 0 instructions: 110000002 cycles: 271412588 heartbeat IPC: 0.33483 cumulative IPC: 0.342727 (Simulation time: 1 hr 30 min 45 sec) 
Heartbeat CPU 5 instructions: 140000000 cycles: 273823646 heartbeat IPC: 0.469718 cumulative IPC: 0.451824 (Simulation time: 1 hr 31 min 27 sec) 
Heartbeat CPU 6 instructions: 100000000 cycles: 278497400 heartbeat IPC: 0.329681 cumulative IPC: 0.289553 (Simulation time: 1 hr 32 min 57 sec) 
Heartbeat CPU 2 instructions: 160000000 cycles: 279925864 heartbeat IPC: 0.489571 cumulative IPC: 0.501455 (Simulation time: 1 hr 33 min 25 sec) 
Heartbeat CPU 4 instructions: 250000003 cycles: 282708672 heartbeat IPC: 0.817551 cumulative IPC: 0.820057 (Simulation time: 1 hr 34 min 21 sec) 
Heartbeat CPU 1 instructions: 120000000 cycles: 289837579 heartbeat IPC: 0.358261 cumulative IPC: 0.347828 (Simulation time: 1 hr 36 min 31 sec) 
Heartbeat CPU 7 instructions: 110000000 cycles: 293913995 heartbeat IPC: 0.324744 cumulative IPC: 0.318493 (Simulation time: 1 hr 37 min 41 sec) 
Heartbeat CPU 4 instructions: 260000000 cycles: 294617725 heartbeat IPC: 0.839697 cumulative IPC: 0.820882 (Simulation time: 1 hr 37 min 53 sec) 
Heartbeat CPU 2 instructions: 170000003 cycles: 295581323 heartbeat IPC: 0.638755 cumulative IPC: 0.509017 (Simulation time: 1 hr 38 min 13 sec) 
Heartbeat CPU 5 instructions: 150000001 cycles: 295710874 heartbeat IPC: 0.456888 cumulative IPC: 0.452214 (Simulation time: 1 hr 38 min 16 sec) 
Heartbeat CPU 3 instructions: 180000000 cycles: 297058465 heartbeat IPC: 0.382955 cumulative IPC: 0.542828 (Simulation time: 1 hr 38 min 42 sec) 
Finished CPU 1 instructions: 100000003 cycles: 287248930 cumulative IPC: 0.34813 (Simulation time: 1 hr 39 min 9 sec) 
Heartbeat CPU 0 instructions: 120000000 cycles: 298874241 heartbeat IPC: 0.364144 cumulative IPC: 0.344772 (Simulation time: 1 hr 39 min 15 sec) 
Finished CPU 0 instructions: 100000000 cycles: 289854748 cumulative IPC: 0.345 (Simulation time: 1 hr 39 min 59 sec) 
Heartbeat CPU 4 instructions: 270000001 cycles: 307439798 heartbeat IPC: 0.779905 cumulative IPC: 0.819108 (Simulation time: 1 hr 41 min 53 sec) 
Heartbeat CPU 2 instructions: 180000000 cycles: 308436181 heartbeat IPC: 0.777916 cumulative IPC: 0.520652 (Simulation time: 1 hr 42 min 11 sec) 
Heartbeat CPU 6 instructions: 110000001 cycles: 315902782 heartbeat IPC: 0.267341 cumulative IPC: 0.286825 (Simulation time: 1 hr 44 min 31 sec) 
Heartbeat CPU 5 instructions: 160000000 cycles: 317177659 heartbeat IPC: 0.465836 cumulative IPC: 0.45317 (Simulation time: 1 hr 44 min 57 sec) 
Heartbeat CPU 1 instructions: 130000000 cycles: 317859377 heartbeat IPC: 0.356865 cumulative IPC: 0.348654 (Simulation time: 1 hr 45 min 9 sec) 
Heartbeat CPU 0 instructions: 130000001 cycles: 320191325 heartbeat IPC: 0.469107 cumulative IPC: 0.353354 (Simulation time: 1 hr 45 min 51 sec) 
Heartbeat CPU 4 instructions: 280000000 cycles: 320315250 heartbeat IPC: 0.776672 cumulative IPC: 0.81734 (Simulation time: 1 hr 45 min 54 sec) 
Heartbeat CPU 2 instructions: 190000001 cycles: 321275192 heartbeat IPC: 0.778876 cumulative IPC: 0.531348 (Simulation time: 1 hr 46 min 11 sec) 
Heartbeat CPU 3 instructions: 190000002 cycles: 322948875 heartbeat IPC: 0.386243 cumulative IPC: 0.529819 (Simulation time: 1 hr 46 min 40 sec) 
Heartbeat CPU 7 instructions: 120000000 cycles: 323018543 heartbeat IPC: 0.343589 cumulative IPC: 0.320836 (Simulation time: 1 hr 46 min 41 sec) 
Finished CPU 7 instructions: 100000000 cycles: 311685525 cumulative IPC: 0.320836 (Simulation time: 1 hr 46 min 41 sec) 
Heartbeat CPU 4 instructions: 290000000 cycles: 331459298 heartbeat IPC: 0.89734 cumulative IPC: 0.820125 (Simulation time: 1 hr 49 min 16 sec) 
Heartbeat CPU 2 instructions: 200000000 cycles: 334538179 heartbeat IPC: 0.753978 cumulative IPC: 0.540484 (Simulation time: 1 hr 50 min 13 sec) 
Heartbeat CPU 5 instructions: 170000000 cycles: 339228785 heartbeat IPC: 0.453492 cumulative IPC: 0.453192 (Simulation time: 1 hr 51 min 33 sec) 
Heartbeat CPU 6 instructions: 120000000 cycles: 342678574 heartbeat IPC: 0.373472 cumulative IPC: 0.293827 (Simulation time: 1 hr 52 min 35 sec) 
Heartbeat CPU 4 instructions: 300000000 cycles: 343613455 heartbeat IPC: 0.822764 cumulative IPC: 0.820221 (Simulation time: 1 hr 52 min 51 sec) 
Heartbeat CPU 0 instructions: 140000000 cycles: 344036833 heartbeat IPC: 0.419366 cumulative IPC: 0.358085 (Simulation time: 1 hr 52 min 59 sec) 
Heartbeat CPU 1 instructions: 140000000 cycles: 346150258 heartbeat IPC: 0.353471 cumulative IPC: 0.349061 (Simulation time: 1 hr 53 min 37 sec) 
Heartbeat CPU 2 instructions: 210000003 cycles: 347844223 heartbeat IPC: 0.751538 cumulative IPC: 0.548829 (Simulation time: 1 hr 54 min 7 sec) 
Heartbeat CPU 3 instructions: 200000000 cycles: 348799608 heartbeat IPC: 0.386836 cumulative IPC: 0.518866 (Simulation time: 1 hr 54 min 23 sec) 
Finished CPU 6 instructions: 100000001 cycles: 338126647 cumulative IPC: 0.295747 (Simulation time: 1 hr 54 min 35 sec) 

CPU 0 Branch Prediction Accuracy: 99.2294% MPKI: 1.88087

CPU 1 Branch Prediction Accuracy: 97.0896% MPKI: 0.510426

CPU 2 Branch Prediction Accuracy: 90.0986% MPKI: 12.0332

CPU 3 Branch Prediction Accuracy: 99.8923% MPKI: 0.0292414

CPU 4 Branch Prediction Accuracy: 97.749% MPKI: 3.11294

CPU 5 Branch Prediction Accuracy: 99.9705% MPKI: 0.00730818

CPU 6 Branch Prediction Accuracy: 99.8824% MPKI: 0.0607161

CPU 7 Branch Prediction Accuracy: 97.9322% MPKI: 3.76184

ChampSim completed all CPUs

Total Simulation Statistics (not including warmup)

CPU 0 cumulative IPC: 0.356479 instructions: 120535198 cycles: 338126647
L1D TOTAL     ACCESS:   30992276  HIT:   24583611  MISS:    6408665
L1D LOAD      ACCESS:   22273638  HIT:   16041295  MISS:    6232343
L1D RFO       ACCESS:    8718638  HIT:    8542316  MISS:     176322
L1D PREFETCH  ACCESS:          0  HIT:          0  MISS:          0
L1D WRITEBACK ACCESS:          0  HIT:          0  MISS:          0
L1I TOTAL     ACCESS:   52030980  HIT:   51717832  MISS:     313148
L1I LOAD      ACCESS:   52030980  HIT:   51717832  MISS:     313148
L1I RFO       ACCESS:          0  HIT:          0  MISS:          0
L1I PREFETCH  ACCESS:          0  HIT:          0  MISS:          0
L1I WRITEBACK ACCESS:          0  HIT:          0  MISS:          0
L2C TOTAL     ACCESS:    7020366  HIT:    4568014  MISS:    2452352
L2C LOAD      ACCESS:    6545474  HIT:    4236457  MISS:    2309017
L2C RFO       ACCESS:     176317  HIT:      32996  MISS:     143321
L2C PREFETCH  ACCESS:          0  HIT:          0  MISS:          0
L2C WRITEBACK ACCESS:     298575  HIT:     298561  MISS:         14
LLC TOTAL     ACCESS:    2658993  HIT:    2417969  MISS:     241024
LLC LOAD      ACCESS:    2309012  HIT:    2210692  MISS:      98320
LLC RFO       ACCESS:     143321  HIT:      14042  MISS:     129279
LLC PREFETCH  ACCESS:          0  HIT:          0  MISS:          0
LLC WRITEBACK ACCESS:     206660  HIT:     193235  MISS:      13425

CPU 1 cumulative IPC: 0.349062 instructions: 118027197 cycles: 338126647
L1D TOTAL     ACCESS:   33687771  HIT:   24383458  MISS:    9304313
L1D LOAD      ACCESS:   11989890  HIT:   10579202  MISS:    1410688
L1D RFO       ACCESS:   21697881  HIT:   13804256  MISS:    7893625
L1D PREFETCH  ACCESS:          0  HIT:          0  MISS:          0
L1D WRITEBACK ACCESS:          0  HIT:          0  MISS:          0
L1I TOTAL     ACCESS:   28330578  HIT:   28330578  MISS:          0
L1I LOAD      ACCESS:   28330578  HIT:   28330578  MISS:          0
L1I RFO       ACCESS:          0  HIT:          0  MISS:          0
L1I PREFETCH  ACCESS:          0  HIT:          0  MISS:          0
L1I WRITEBACK ACCESS:          0  HIT:          0  MISS:          0
L2C TOTAL     ACCESS:   17197922  HIT:   10221293  MISS:    6976629
L2C LOAD      ACCESS:    1410688  HIT:        634  MISS:    1410054
L2C RFO       ACCESS:    7893612  HIT:    2328963  MISS:    5564649
L2C PREFETCH  ACCESS:          0  HIT:          0  MISS:          0
L2C WRITEBACK ACCESS:    7893622  HIT:    7891696  MISS:       1926
LLC TOTAL     ACCESS:   12538236  HIT:    6901853  MISS:    5636383
LLC LOAD      ACCESS:    1410054  HIT:       1030  MISS:    1409024
LLC RFO       ACCESS:    5561690  HIT:    1334658  MISS:    4227032
LLC PREFETCH  ACCESS:          0  HIT:          0  MISS:          0
LLC WRITEBACK ACCESS:    5566492  HIT:    5566165  MISS:        327

CPU 2 cumulative IPC: 0.549871 instructions: 185925908 cycles: 338126647
L1D TOTAL     ACCESS:   42762503  HIT:   41512892  MISS:    1249611
L1D LOAD      ACCESS:   27491951  HIT:   26403075  MISS:    1088876
L1D RFO       ACCESS:   15270552  HIT:   15109817  MISS:     160735
L1D PREFETCH  ACCESS:          0  HIT:          0  MISS:          0
L1D WRITEBACK ACCESS:          0  HIT:          0  MISS:          0
L1I TOTAL     ACCESS:   36544045  HIT:   36543697  MISS:        348
L1I LOAD      ACCESS:   36544045  HIT:   36543697  MISS:        348
L1I RFO       ACCESS:          0  HIT:          0  MISS:          0
L1I PREFETCH  ACCESS:          0  HIT:          0  MISS:          0
L1I WRITEBACK ACCESS:          0  HIT:          0  MISS:          0
L2C TOTAL     ACCESS:    2064829  HIT:    1377151  MISS:     687678
L2C LOAD      ACCESS:    1089196  HIT:     464655  MISS:     624541
L2C RFO       ACCESS:     160673  HIT:      99862  MISS:      60811
L2C PREFETCH  ACCESS:          0  HIT:          0  MISS:          0
L2C WRITEBACK ACCESS:     814960  HIT:     812634  MISS:       2326
LLC TOTAL     ACCESS:    1159585  HIT:     628206  MISS:     531379
LLC LOAD      ACCESS:     624540  HIT:     160073  MISS:     464467
LLC RFO       ACCESS:      60809  HIT:      18973  MISS:      41836
LLC PREFETCH  ACCESS:          0  HIT:          0  MISS:          0
LLC WRITEBACK ACCESS:     474236  HIT:     449160  MISS:      25076

CPU 3 cumulative IPC: 0.518615 instructions: 175357726 cycles: 338126647
L1D TOTAL     ACCESS:   52347930  HIT:   49758082  MISS:    2589848
L1D LOAD      ACCESS:   41299847  HIT:   39237782  MISS:    2062065
L1D RFO       ACCESS:   11048083  HIT:   10520300  MISS:     527783
L1D PREFETCH  ACCESS:          0  HIT:          0  MISS:          0
L1D WRITEBACK ACCESS:          0  HIT:          0  MISS:          0
L1I TOTAL     ACCESS:   45555229  HIT:   45555056  MISS:        173
L1I LOAD      ACCESS:   45555229  HIT:   45555056  MISS:        173
L1I RFO       ACCESS:          0  HIT:          0  MISS:          0
L1I PREFETCH  ACCESS:          0  HIT:          0  MISS:          0
L1I WRITEBACK ACCESS:          0  HIT:          0  MISS:          0
L2C TOTAL     ACCESS:    3392950  HIT:    1425360  MISS:    1967590
L2C LOAD      ACCESS:    2062238  HIT:     624278  MISS:    1437960
L2C RFO       ACCESS:     527783  HIT:          7  MISS:     527776
L2C PREFETCH  ACCESS:          0  HIT:          0  MISS:          0
L2C WRITEBACK ACCESS:     802929  HIT:     801075  MISS:       1854
LLC TOTAL     ACCESS:    2493985  HIT:     963223  MISS:    1530762
LLC LOAD      ACCESS:    1437960  HIT:     308612  MISS:    1129348
LLC RFO       ACCESS:     527776  HIT:     128205  MISS:     399571
LLC PREFETCH  ACCESS:          0  HIT:          0  MISS:          0
LLC WRITEBACK ACCESS:     528249  HIT:     526406  MISS:       1843

CPU 4 cumulative IPC: 0.821646 instructions: 277820353 cycles: 338126647
L1D TOTAL     ACCESS:   50875565  HIT:   45959800  MISS:    4915765
L1D LOAD      ACCESS:   36314766  HIT:   33101279  MISS:    3213487
L1D RFO       ACCESS:   14560799  HIT:   12858521  MISS:    1702278
L1D PREFETCH  ACCESS:          0  HIT:          0  MISS:          0
L1D WRITEBACK ACCESS:          0  HIT:          0  MISS:          0
L1I TOTAL     ACCESS:   66563393  HIT:   66420774  MISS:     142619
L1I LOAD      ACCESS:   66563393  HIT:   66420774  MISS:     142619
L1I RFO       ACCESS:          0  HIT:          0  MISS:          0
L1I PREFETCH  ACCESS:          0  HIT:          0  MISS:          0
L1I WRITEBACK ACCESS:          0  HIT:          0  MISS:          0
L2C TOTAL     ACCESS:    7204385  HIT:    4952143  MISS:    2252242
L2C LOAD      ACCESS:    3355977  HIT:    1873933  MISS:    1482044
L2C RFO       ACCESS:    1702237  HIT:     933525  MISS:     768712
L2C PREFETCH  ACCESS:          0  HIT:          0  MISS:          0
L2C WRITEBACK ACCESS:    2146171  HIT:    2144685  MISS:       1486
LLC TOTAL     ACCESS:    3314406  HIT:    2263226  MISS:    1051180
LLC LOAD      ACCESS:    1482039  HIT:     820027  MISS:     662012
LLC RFO       ACCESS:     768709  HIT:     394534  MISS:     374175
LLC PREFETCH  ACCESS:          0  HIT:          0  MISS:          0
LLC WRITEBACK ACCESS:    1063658  HIT:    1048665  MISS:      14993

CPU 5 cumulative IPC: 0.453956 instructions: 153494538 cycles: 338126647
L1D TOTAL     ACCESS:   58050890  HIT:   54860626  MISS:    3190264
L1D LOAD      ACCESS:   49483973  HIT:   46393670  MISS:    3090303
L1D RFO       ACCESS:    8566917  HIT:    8466956  MISS:      99961
L1D PREFETCH  ACCESS:          0  HIT:          0  MISS:          0
L1D WRITEBACK ACCESS:          0  HIT:          0  MISS:          0
L1I TOTAL     ACCESS:   39107857  HIT:   39107857  MISS:          0
L1I LOAD      ACCESS:   39107857  HIT:   39107857  MISS:          0
L1I RFO       ACCESS:          0  HIT:          0  MISS:          0
L1I PREFETCH  ACCESS:          0  HIT:          0  MISS:          0
L1I WRITEBACK ACCESS:          0  HIT:          0  MISS:          0
L2C TOTAL     ACCESS:    3296510  HIT:     371013  MISS:    2925497
L2C LOAD      ACCESS:    3089615  HIT:     239616  MISS:    2849999
L2C RFO       ACCESS:      98243  HIT:      23454  MISS:      74789
L2C PREFETCH  ACCESS:          0  HIT:          0  MISS:          0
L2C WRITEBACK ACCESS:     108652  HIT:     107943  MISS:        709
LLC TOTAL     ACCESS:    3000352  HIT:      83306  MISS:    2917046
LLC LOAD      ACCESS:    2849999  HIT:       7952  MISS:    2842047
LLC RFO       ACCESS:      74789  HIT:          0  MISS:      74789
LLC PREFETCH  ACCESS:          0  HIT:          0  MISS:          0
LLC WRITEBACK ACCESS:      75564  HIT:      75354  MISS:        210

CPU 6 cumulative IPC: 0.295747 instructions: 100000001 cycles: 338126647
L1D TOTAL     ACCESS:   25598060  HIT:   23416235  MISS:    2181825
L1D LOAD      ACCESS:   22673815  HIT:   21160359  MISS:    1513456
L1D RFO       ACCESS:    2924245  HIT:    2255876  MISS:     668369
L1D PREFETCH  ACCESS:          0  HIT:          0  MISS:          0
L1D WRITEBACK ACCESS:          0  HIT:          0  MISS:          0
L1I TOTAL     ACCESS:   29385826  HIT:   29385826  MISS:          0
L1I LOAD      ACCESS:   29385826  HIT:   29385826  MISS:          0
L1I RFO       ACCESS:          0  HIT:          0  MISS:          0
L1I PREFETCH  ACCESS:          0  HIT:          0  MISS:          0
L1I WRITEBACK ACCESS:          0  HIT:          0  MISS:          0
L2C TOTAL     ACCESS:    2854435  HIT:     689559  MISS:    2164876
L2C LOAD      ACCESS:    1513456  HIT:      16953  MISS:    1496503
L2C RFO       ACCESS:     668369  HIT:          0  MISS:     668369
L2C PREFETCH  ACCESS:          0  HIT:          0  MISS:          0
L2C WRITEBACK ACCESS:     672610  HIT:     672606  MISS:          4
LLC TOTAL     ACCESS:    2833163  HIT:     668289  MISS:    2164874
LLC LOAD      ACCESS:    1496503  HIT:         14  MISS:    1496489
LLC RFO       ACCESS:     668369  HIT:          0  MISS:     668369
LLC PREFETCH  ACCESS:          0  HIT:          0  MISS:          0
LLC WRITEBACK ACCESS:     668291  HIT:     668275  MISS:         16

CPU 7 cumulative IPC: 0.321784 instructions: 108803598 cycles: 338126647
L1D TOTAL     ACCESS:   42589743  HIT:   25872655  MISS:   16717088
L1D LOAD      ACCESS:   35586270  HIT:   19179767  MISS:   16406503
L1D RFO       ACCESS:    7003473  HIT:    6692888  MISS:     310585
L1D PREFETCH  ACCESS:          0  HIT:          0  MISS:          0
L1D WRITEBACK ACCESS:          0  HIT:          0  MISS:          0
L1I TOTAL     ACCESS:   39258939  HIT:   39258939  MISS:          0
L1I LOAD      ACCESS:   39258939  HIT:   39258939  MISS:          0
L1I RFO       ACCESS:          0  HIT:          0  MISS:          0
L1I PREFETCH  ACCESS:          0  HIT:          0  MISS:          0
L1I WRITEBACK ACCESS:          0  HIT:          0  MISS:          0
L2C TOTAL     ACCESS:   17104645  HIT:     389674  MISS:   16714971
L2C LOAD      ACCESS:   16406503  HIT:       2478  MISS:   16404025
L2C RFO       ACCESS:     310585  HIT:        671  MISS:     309914
L2C PREFETCH  ACCESS:          0  HIT:          0  MISS:          0
L2C WRITEBACK ACCESS:     387557  HIT:     386525  MISS:       1032
LLC TOTAL     ACCESS:   17099826  HIT:   16614382  MISS:     485444
LLC LOAD      ACCESS:   16404025  HIT:   16226579  MISS:     177446
LLC RFO       ACCESS:     309914  HIT:       1997  MISS:     307917
LLC PREFETCH  ACCESS:          0  HIT:          0  MISS:          0
LLC WRITEBACK ACCESS:     385887  HIT:     385806  MISS:         81

Region of Interest Statistics

CPU 0 cumulative IPC: 0.345 instructions: 100000000 cycles: 289854748
L1D TOTAL     ACCESS:   27443437  HIT:   22152899  MISS:    5290538
L1D LOAD      ACCESS:   19175869  HIT:   14053658  MISS:    5122211
L1D RFO       ACCESS:    8267568  HIT:    8099241  MISS:     168327
L1D PREFETCH  ACCESS:          0  HIT:          0  MISS:          0
L1D WRITEBACK ACCESS:          0  HIT:          0  MISS:          0
L1D PREFETCH  REQUESTED:          0  ISSUED:          0  USEFUL:          0  USELESS:          0
L1I TOTAL     ACCESS:   42660716  HIT:   42354655  MISS:     306061
L1I LOAD      ACCESS:   42660716  HIT:   42354655  MISS:     306061
L1I RFO       ACCESS:          0  HIT:          0  MISS:          0
L1I PREFETCH  ACCESS:          0  HIT:          0  MISS:          0
L1I WRITEBACK ACCESS:          0  HIT:          0  MISS:          0
L1I PREFETCH  REQUESTED:          0  ISSUED:          0  USEFUL:          0  USELESS:          0
L2C TOTAL     ACCESS:    5869654  HIT:    3804287  MISS:    2065367
L2C LOAD      ACCESS:    5428255  HIT:    3500991  MISS:    1927264
L2C RFO       ACCESS:     168322  HIT:      30232  MISS:     138090
L2C PREFETCH  ACCESS:          0  HIT:          0  MISS:          0
L2C WRITEBACK ACCESS:     273077  HIT:     273064  MISS:         13
L2C PREFETCH  REQUESTED:          0  ISSUED:          0  USEFUL:          0  USELESS:          0
LLC TOTAL     ACCESS:    2255228  HIT:    2040711  MISS:     214517
LLC LOAD      ACCESS:    1927259  HIT:    1848463  MISS:      78796
LLC RFO       ACCESS:     138090  HIT:      13417  MISS:     124673
LLC PREFETCH  ACCESS:          0  HIT:          0  MISS:          0
LLC WRITEBACK ACCESS:     189879  HIT:     178831  MISS:      11048
LLC PREFETCH  REQUESTED:          0  ISSUED:          0  USEFUL:          0  USELESS:          0
Major fault: 0 Minor fault: 3609

CPU 1 cumulative IPC: 0.34813 instructions: 100000003 cycles: 287248930
L1D TOTAL     ACCESS:   28532650  HIT:   20664718  MISS:    7867932
L1D LOAD      ACCESS:   10160918  HIT:    8968013  MISS:    1192905
L1D RFO       ACCESS:   18371732  HIT:   11696705  MISS:    6675027
L1D PREFETCH  ACCESS:          0  HIT:          0  MISS:          0
L1D WRITEBACK ACCESS:          0  HIT:          0  MISS:          0
L1D PREFETCH  REQUESTED:          0  ISSUED:          0  USEFUL:          0  USELESS:          0
L1I TOTAL     ACCESS:   23998390  HIT:   23998390  MISS:          0
L1I LOAD      ACCESS:   23998390  HIT:   23998390  MISS:          0
L1I RFO       ACCESS:          0  HIT:          0  MISS:          0
L1I PREFETCH  ACCESS:          0  HIT:          0  MISS:          0
L1I WRITEBACK ACCESS:          0  HIT:          0  MISS:          0
L1I PREFETCH  REQUESTED:          0  ISSUED:          0  USEFUL:          0  USELESS:          0
L2C TOTAL     ACCESS:   14542940  HIT:    8649823  MISS:    5893117
L2C LOAD      ACCESS:    1192905  HIT:        522  MISS:    1192383
L2C RFO       ACCESS:    6675015  HIT:    1975929  MISS:    4699086
L2C PREFETCH  ACCESS:          0  HIT:          0  MISS:          0
L2C WRITEBACK ACCESS:    6675020  HIT:    6673372  MISS:       1648
L2C PREFETCH  REQUESTED:          0  ISSUED:          0  USEFUL:          0  USELESS:          0
LLC TOTAL     ACCESS:   10589603  HIT:    5823324  MISS:    4766279
LLC LOAD      ACCESS:    1192383  HIT:        876  MISS:    1191507
LLC RFO       ACCESS:    4696548  HIT:    1122063  MISS:    3574485
LLC PREFETCH  ACCESS:          0  HIT:          0  MISS:          0
LLC WRITEBACK ACCESS:    4700672  HIT:    4700385  MISS:        287
LLC PREFETCH  REQUESTED:          0  ISSUED:          0  USEFUL:          0  USELESS:          0
Major fault: 0 Minor fault: 55640

CPU 2 cumulative IPC: 0.496404 instructions: 100000001 cycles: 201448650
L1D TOTAL     ACCESS:   22221032  HIT:   21447403  MISS:     773629
L1D LOAD      ACCESS:   14653834  HIT:   13975156  MISS:     678678
L1D RFO       ACCESS:    7567198  HIT:    7472247  MISS:      94951
L1D PREFETCH  ACCESS:          0  HIT:          0  MISS:          0
L1D WRITEBACK ACCESS:          0  HIT:          0  MISS:          0
L1D PREFETCH  REQUESTED:          0  ISSUED:          0  USEFUL:          0  USELESS:          0
L1I TOTAL     ACCESS:   19552982  HIT:   19552799  MISS:        183
L1I LOAD      ACCESS:   19552982  HIT:   19552799  MISS:        183
L1I RFO       ACCESS:          0  HIT:          0  MISS:          0
L1I PREFETCH  ACCESS:          0  HIT:          0  MISS:          0
L1I WRITEBACK ACCESS:          0  HIT:          0  MISS:          0
L1I PREFETCH  REQUESTED:          0  ISSUED:          0  USEFUL:          0  USELESS:          0
L2C TOTAL     ACCESS:    1264838  HIT:     818763  MISS:     446075
L2C LOAD      ACCESS:     678845  HIT:     268467  MISS:     410378
L2C RFO       ACCESS:      94913  HIT:      60618  MISS:      34295
L2C PREFETCH  ACCESS:          0  HIT:          0  MISS:          0
L2C WRITEBACK ACCESS:     491080  HIT:     489678  MISS:       1402
L2C PREFETCH  REQUESTED:          0  ISSUED:          0  USEFUL:          0  USELESS:          0
LLC TOTAL     ACCESS:     747888  HIT:     408759  MISS:     339129
LLC LOAD      ACCESS:     410377  HIT:     104939  MISS:     305438
LLC RFO       ACCESS:      34293  HIT:      11072  MISS:      23221
LLC PREFETCH  ACCESS:          0  HIT:          0  MISS:          0
LLC WRITEBACK ACCESS:     303218  HIT:     292748  MISS:      10470
LLC PREFETCH  REQUESTED:          0  ISSUED:          0  USEFUL:          0  USELESS:          0
Major fault: 0 Minor fault: 8063

CPU 3 cumulative IPC: 0.687807 instructions: 100000000 cycles: 145389679
L1D TOTAL     ACCESS:   29583512  HIT:   28397363  MISS:    1186149
L1D LOAD      ACCESS:   21188260  HIT:   20504965  MISS:     683295
L1D RFO       ACCESS:    8395252  HIT:    7892398  MISS:     502854
L1D PREFETCH  ACCESS:          0  HIT:          0  MISS:          0
L1D WRITEBACK ACCESS:          0  HIT:          0  MISS:          0
L1D PREFETCH  REQUESTED:          0  ISSUED:          0  USEFUL:          0  USELESS:          0
L1I TOTAL     ACCESS:   25183220  HIT:   25183220  MISS:          0
L1I LOAD      ACCESS:   25183220  HIT:   25183220  MISS:          0
L1I RFO       ACCESS:          0  HIT:          0  MISS:          0
L1I PREFETCH  ACCESS:          0  HIT:          0  MISS:          0
L1I WRITEBACK ACCESS:          0  HIT:          0  MISS:          0
L1I PREFETCH  REQUESTED:          0  ISSUED:          0  USEFUL:          0  USELESS:          0
L2C TOTAL     ACCESS:    1690470  HIT:     693370  MISS:     997100
L2C LOAD      ACCESS:     683295  HIT:     190770  MISS:     492525
L2C RFO       ACCESS:     502854  HIT:          6  MISS:     502848
L2C PREFETCH  ACCESS:          0  HIT:          0  MISS:          0
L2C WRITEBACK ACCESS:     504321  HIT:     502594  MISS:       1727
L2C PREFETCH  REQUESTED:          0  ISSUED:          0  USEFUL:          0  USELESS:          0
LLC TOTAL     ACCESS:    1495657  HIT:     782211  MISS:     713446
LLC LOAD      ACCESS:     492525  HIT:     156249  MISS:     336276
LLC RFO       ACCESS:     502848  HIT:     125741  MISS:     377107
LLC PREFETCH  ACCESS:          0  HIT:          0  MISS:          0
LLC WRITEBACK ACCESS:     500284  HIT:     500221  MISS:         63
LLC PREFETCH  REQUESTED:          0  ISSUED:          0  USEFUL:          0  USELESS:          0
Major fault: 0 Minor fault: 36456

CPU 4 cumulative IPC: 0.813169 instructions: 100000000 cycles: 122975720
L1D TOTAL     ACCESS:   18751616  HIT:   16839225  MISS:    1912391
L1D LOAD      ACCESS:   13547664  HIT:   12318512  MISS:    1229152
L1D RFO       ACCESS:    5203952  HIT:    4520713  MISS:     683239
L1D PREFETCH  ACCESS:          0  HIT:          0  MISS:          0
L1D WRITEBACK ACCESS:          0  HIT:          0  MISS:          0
L1D PREFETCH  REQUESTED:          0  ISSUED:          0  USEFUL:          0  USELESS:          0
L1I TOTAL     ACCESS:   23411821  HIT:   23359616  MISS:      52205
L1I LOAD      ACCESS:   23411821  HIT:   23359616  MISS:      52205
L1I RFO       ACCESS:          0  HIT:          0  MISS:          0
L1I PREFETCH  ACCESS:          0  HIT:          0  MISS:          0
L1I WRITEBACK ACCESS:          0  HIT:          0  MISS:          0
L1I PREFETCH  REQUESTED:          0  ISSUED:          0  USEFUL:          0  USELESS:          0
L2C TOTAL     ACCESS:    2812103  HIT:    1969668  MISS:     842435
L2C LOAD      ACCESS:    1281292  HIT:     726082  MISS:     555210
L2C RFO       ACCESS:     683212  HIT:     396526  MISS:     286686
L2C PREFETCH  ACCESS:          0  HIT:          0  MISS:          0
L2C WRITEBACK ACCESS:     847599  HIT:     847060  MISS:        539
L2C PREFETCH  REQUESTED:          0  ISSUED:          0  USEFUL:          0  USELESS:          0
LLC TOTAL     ACCESS:    1235115  HIT:     844704  MISS:     390411
LLC LOAD      ACCESS:     555210  HIT:     305641  MISS:     249569
LLC RFO       ACCESS:     286683  HIT:     150499  MISS:     136184
LLC PREFETCH  ACCESS:          0  HIT:          0  MISS:          0
LLC WRITEBACK ACCESS:     393222  HIT:     388564  MISS:       4658
LLC PREFETCH  REQUESTED:          0  ISSUED:          0  USEFUL:          0  USELESS:          0
Major fault: 0 Minor fault: 11555

CPU 5 cumulative IPC: 0.448498 instructions: 100000000 cycles: 222966314
L1D TOTAL     ACCESS:   37818640  HIT:   35740297  MISS:    2078343
L1D LOAD      ACCESS:   32238491  HIT:   30225264  MISS:    2013227
L1D RFO       ACCESS:    5580149  HIT:    5515033  MISS:      65116
L1D PREFETCH  ACCESS:          0  HIT:          0  MISS:          0
L1D WRITEBACK ACCESS:          0  HIT:          0  MISS:          0
L1D PREFETCH  REQUESTED:          0  ISSUED:          0  USEFUL:          0  USELESS:          0
L1I TOTAL     ACCESS:   25476669  HIT:   25476669  MISS:          0
L1I LOAD      ACCESS:   25476669  HIT:   25476669  MISS:          0
L1I RFO       ACCESS:          0  HIT:          0  MISS:          0
L1I PREFETCH  ACCESS:          0  HIT:          0  MISS:          0
L1I WRITEBACK ACCESS:          0  HIT:          0  MISS:          0
L1I PREFETCH  REQUESTED:          0  ISSUED:          0  USEFUL:          0  USELESS:          0
L2C TOTAL     ACCESS:    2147577  HIT:     242065  MISS:    1905512
L2C LOAD      ACCESS:    2012781  HIT:     156444  MISS:    1856337
L2C RFO       ACCESS:      64007  HIT:      15283  MISS:      48724
L2C PREFETCH  ACCESS:          0  HIT:          0  MISS:          0
L2C WRITEBACK ACCESS:      70789  HIT:      70338  MISS:        451
L2C PREFETCH  REQUESTED:          0  ISSUED:          0  USEFUL:          0  USELESS:          0
LLC TOTAL     ACCESS:    1954257  HIT:      53838  MISS:    1900419
LLC LOAD      ACCESS:    1856337  HIT:       4777  MISS:    1851560
LLC RFO       ACCESS:      48724  HIT:          0  MISS:      48724
LLC PREFETCH  ACCESS:          0  HIT:          0  MISS:          0
LLC WRITEBACK ACCESS:      49196  HIT:      49061  MISS:        135
LLC PREFETCH  REQUESTED:          0  ISSUED:          0  USEFUL:          0  USELESS:          0
Major fault: 0 Minor fault: 49557

CPU 6 cumulative IPC: 0.295747 instructions: 100000001 cycles: 338126647
L1D TOTAL     ACCESS:   25598060  HIT:   23416235  MISS:    2181825
L1D LOAD      ACCESS:   22673815  HIT:   21160359  MISS:    1513456
L1D RFO       ACCESS:    2924245  HIT:    2255876  MISS:     668369
L1D PREFETCH  ACCESS:          0  HIT:          0  MISS:          0
L1D WRITEBACK ACCESS:          0  HIT:          0  MISS:          0
L1D PREFETCH  REQUESTED:          0  ISSUED:          0  USEFUL:          0  USELESS:          0
L1I TOTAL     ACCESS:   29385826  HIT:   29385826  MISS:          0
L1I LOAD      ACCESS:   29385826  HIT:   29385826  MISS:          0
L1I RFO       ACCESS:          0  HIT:          0  MISS:          0
L1I PREFETCH  ACCESS:          0  HIT:          0  MISS:          0
L1I WRITEBACK ACCESS:          0  HIT:          0  MISS:          0
L1I PREFETCH  REQUESTED:          0  ISSUED:          0  USEFUL:          0  USELESS:          0
L2C TOTAL     ACCESS:    2854435  HIT:     689559  MISS:    2164876
L2C LOAD      ACCESS:    1513456  HIT:      16953  MISS:    1496503
L2C RFO       ACCESS:     668369  HIT:          0  MISS:     668369
L2C PREFETCH  ACCESS:          0  HIT:          0  MISS:          0
L2C WRITEBACK ACCESS:     672610  HIT:     672606  MISS:          4
L2C PREFETCH  REQUESTED:          0  ISSUED:          0  USEFUL:          0  USELESS:          0
LLC TOTAL     ACCESS:    2833163  HIT:     668289  MISS:    2164874
LLC LOAD      ACCESS:    1496503  HIT:         14  MISS:    1496489
LLC RFO       ACCESS:     668369  HIT:          0  MISS:     668369
LLC PREFETCH  ACCESS:          0  HIT:          0  MISS:          0
LLC WRITEBACK ACCESS:     668291  HIT:     668275  MISS:         16
LLC PREFETCH  REQUESTED:          0  ISSUED:          0  USEFUL:          0  USELESS:          0
Major fault: 0 Minor fault: 26602

CPU 7 cumulative IPC: 0.320836 instructions: 100000000 cycles: 311685525
L1D TOTAL     ACCESS:   39140986  HIT:   23778453  MISS:   15362533
L1D LOAD      ACCESS:   32707858  HIT:   17635893  MISS:   15071965
L1D RFO       ACCESS:    6433128  HIT:    6142560  MISS:     290568
L1D PREFETCH  ACCESS:          0  HIT:          0  MISS:          0
L1D WRITEBACK ACCESS:          0  HIT:          0  MISS:          0
L1D PREFETCH  REQUESTED:          0  ISSUED:          0  USEFUL:          0  USELESS:          0
L1I TOTAL     ACCESS:   36027961  HIT:   36027961  MISS:          0
L1I LOAD      ACCESS:   36027961  HIT:   36027961  MISS:          0
L1I RFO       ACCESS:          0  HIT:          0  MISS:          0
L1I PREFETCH  ACCESS:          0  HIT:          0  MISS:          0
L1I WRITEBACK ACCESS:          0  HIT:          0  MISS:          0
L1I PREFETCH  REQUESTED:          0  ISSUED:          0  USEFUL:          0  USELESS:          0
L2C TOTAL     ACCESS:   15722896  HIT:     362262  MISS:   15360634
L2C LOAD      ACCESS:   15071964  HIT:       2245  MISS:   15069719
L2C RFO       ACCESS:     290568  HIT:        621  MISS:     289947
L2C PREFETCH  ACCESS:          0  HIT:          0  MISS:          0
L2C WRITEBACK ACCESS:     360364  HIT:     359396  MISS:        968
L2C PREFETCH  REQUESTED:          0  ISSUED:          0  USEFUL:          0  USELESS:          0
LLC TOTAL     ACCESS:   15718507  HIT:   15265250  MISS:     453257
LLC LOAD      ACCESS:   15069719  HIT:   14904639  MISS:     165080
LLC RFO       ACCESS:     289947  HIT:       1845  MISS:     288102
LLC PREFETCH  ACCESS:          0  HIT:          0  MISS:          0
LLC WRITEBACK ACCESS:     358841  HIT:     358766  MISS:         75
LLC PREFETCH  REQUESTED:          0  ISSUED:          0  USEFUL:          0  USELESS:          0
Major fault: 0 Minor fault: 11690

DRAM Statistics
 CHANNEL 0
 RQ ROW_BUFFER_HIT:    2410147  ROW_BUFFER_MISS:    4846478
 DBUS_CONGESTED:   14145259
 WQ ROW_BUFFER_HIT:     339214  ROW_BUFFER_MISS:    3114704  FULL:          0

 CHANNEL 1
 RQ ROW_BUFFER_HIT:    2402687  ROW_BUFFER_MISS:    4842557
 DBUS_CONGESTED:   14145259
 WQ ROW_BUFFER_HIT:     340128  ROW_BUFFER_MISS:    3109945  FULL:          0

 AVG_CONGESTED_CYCLE: 13
