
*** ChampSim Multicore Out-of-Order Simulator ***

Warmup Instructions: 20000000
Simulation Instructions: 100000000
Number of CPUs: 4
LLC sets: 8192
LLC ways: 16
Off-chip DRAM Size: 8192 MB Channels: 2 Width: 64-bit Data Rate: 1600 MT/s

CPU 0 runs /scratch/user/eshanbhatia22/THESIS/cloudsuite_traces/nutch_phase0_core0.trace.gz
CPU 1 runs /scratch/user/eshanbhatia22/THESIS/cloudsuite_traces/nutch_phase0_core1.trace.gz
CPU 2 runs /scratch/user/eshanbhatia22/THESIS/cloudsuite_traces/nutch_phase0_core2.trace.gz
CPU 3 runs /scratch/user/eshanbhatia22/THESIS/cloudsuite_traces/nutch_phase0_core3.trace.gz
L2C DA-AMPM prefetcher
L2C DA-AMPM prefetcher
L2C DA-AMPM prefetcher
L2C DA-AMPM prefetcher
Heartbeat CPU 0 instructions: 10000000 cycles: 4074972 heartbeat IPC: 2.454 cumulative IPC: 2.454 (Simulation time: 0 hr 1 min 11 sec) 
Heartbeat CPU 3 instructions: 10000001 cycles: 4108934 heartbeat IPC: 2.43372 cumulative IPC: 2.43372 (Simulation time: 0 hr 1 min 11 sec) 
Heartbeat CPU 2 instructions: 10000001 cycles: 4227307 heartbeat IPC: 2.36557 cumulative IPC: 2.36557 (Simulation time: 0 hr 1 min 14 sec) 
Heartbeat CPU 1 instructions: 10000001 cycles: 4338898 heartbeat IPC: 2.30473 cumulative IPC: 2.30473 (Simulation time: 0 hr 1 min 16 sec) 
Heartbeat CPU 0 instructions: 20000000 cycles: 8181467 heartbeat IPC: 2.43517 cumulative IPC: 2.44455 (Simulation time: 0 hr 2 min 23 sec) 
Heartbeat CPU 3 instructions: 20000000 cycles: 8253958 heartbeat IPC: 2.41253 cumulative IPC: 2.42308 (Simulation time: 0 hr 2 min 24 sec) 
Heartbeat CPU 2 instructions: 20000000 cycles: 8272473 heartbeat IPC: 2.47209 cumulative IPC: 2.41766 (Simulation time: 0 hr 2 min 24 sec) 
Heartbeat CPU 1 instructions: 20000000 cycles: 8375134 heartbeat IPC: 2.47756 cumulative IPC: 2.38802 (Simulation time: 0 hr 2 min 26 sec) 

Warmup complete CPU 0 instructions: 20492788 cycles: 8375138 (Simulation time: 0 hr 2 min 26 sec) 
Warmup complete CPU 1 instructions: 20000002 cycles: 8375138 (Simulation time: 0 hr 2 min 26 sec) 
Warmup complete CPU 2 instructions: 20278571 cycles: 8375137 (Simulation time: 0 hr 2 min 26 sec) 
Warmup complete CPU 3 instructions: 20330496 cycles: 8375137 (Simulation time: 0 hr 2 min 26 sec) 

Heartbeat CPU 2 instructions: 30000000 cycles: 41169843 heartbeat IPC: 0.303976 cumulative IPC: 0.296433 (Simulation time: 0 hr 3 min 56 sec) 
Heartbeat CPU 3 instructions: 30000002 cycles: 44679890 heartbeat IPC: 0.27453 cumulative IPC: 0.266343 (Simulation time: 0 hr 4 min 7 sec) 
Heartbeat CPU 0 instructions: 30000002 cycles: 44849520 heartbeat IPC: 0.272717 cumulative IPC: 0.260655 (Simulation time: 0 hr 4 min 7 sec) 
Heartbeat CPU 1 instructions: 30000002 cycles: 45462836 heartbeat IPC: 0.269631 cumulative IPC: 0.269631 (Simulation time: 0 hr 4 min 9 sec) 
Heartbeat CPU 2 instructions: 40000000 cycles: 78301915 heartbeat IPC: 0.269309 cumulative IPC: 0.28203 (Simulation time: 0 hr 5 min 40 sec) 
Heartbeat CPU 0 instructions: 40000000 cycles: 79525253 heartbeat IPC: 0.288386 cumulative IPC: 0.27417 (Simulation time: 0 hr 5 min 43 sec) 
Heartbeat CPU 3 instructions: 40000000 cycles: 80266837 heartbeat IPC: 0.281002 cumulative IPC: 0.273599 (Simulation time: 0 hr 5 min 45 sec) 
Heartbeat CPU 1 instructions: 40000000 cycles: 81595492 heartbeat IPC: 0.276758 cumulative IPC: 0.273148 (Simulation time: 0 hr 5 min 49 sec) 
Heartbeat CPU 3 instructions: 50000001 cycles: 111122540 heartbeat IPC: 0.324089 cumulative IPC: 0.288762 (Simulation time: 0 hr 7 min 14 sec) 
Heartbeat CPU 1 instructions: 50000002 cycles: 114021614 heartbeat IPC: 0.308393 cumulative IPC: 0.283966 (Simulation time: 0 hr 7 min 22 sec) 
Heartbeat CPU 0 instructions: 50000003 cycles: 117406506 heartbeat IPC: 0.263983 cumulative IPC: 0.270631 (Simulation time: 0 hr 7 min 31 sec) 
Heartbeat CPU 2 instructions: 50000001 cycles: 118854865 heartbeat IPC: 0.246591 cumulative IPC: 0.269022 (Simulation time: 0 hr 7 min 34 sec) 
Heartbeat CPU 3 instructions: 60000000 cycles: 144779927 heartbeat IPC: 0.297112 cumulative IPC: 0.290822 (Simulation time: 0 hr 8 min 44 sec) 
Heartbeat CPU 1 instructions: 60000000 cycles: 150161007 heartbeat IPC: 0.276706 cumulative IPC: 0.282116 (Simulation time: 0 hr 8 min 59 sec) 
Heartbeat CPU 2 instructions: 60000000 cycles: 156875209 heartbeat IPC: 0.263017 cumulative IPC: 0.267484 (Simulation time: 0 hr 9 min 19 sec) 
Heartbeat CPU 0 instructions: 60000000 cycles: 158511334 heartbeat IPC: 0.24328 cumulative IPC: 0.263142 (Simulation time: 0 hr 9 min 23 sec) 
Heartbeat CPU 3 instructions: 70000001 cycles: 182966151 heartbeat IPC: 0.261875 cumulative IPC: 0.284491 (Simulation time: 0 hr 10 min 29 sec) 
Heartbeat CPU 1 instructions: 70000000 cycles: 188392630 heartbeat IPC: 0.261564 cumulative IPC: 0.277751 (Simulation time: 0 hr 10 min 44 sec) 
Heartbeat CPU 2 instructions: 70000002 cycles: 191210931 heartbeat IPC: 0.291242 cumulative IPC: 0.271946 (Simulation time: 0 hr 10 min 52 sec) 
Heartbeat CPU 0 instructions: 70000001 cycles: 195008216 heartbeat IPC: 0.273996 cumulative IPC: 0.265265 (Simulation time: 0 hr 11 min 3 sec) 
Heartbeat CPU 3 instructions: 80000000 cycles: 217334472 heartbeat IPC: 0.290966 cumulative IPC: 0.285556 (Simulation time: 0 hr 12 min 5 sec) 
Heartbeat CPU 1 instructions: 80000000 cycles: 223957210 heartbeat IPC: 0.281179 cumulative IPC: 0.278316 (Simulation time: 0 hr 12 min 23 sec) 
Heartbeat CPU 2 instructions: 80000000 cycles: 228595960 heartbeat IPC: 0.267487 cumulative IPC: 0.271189 (Simulation time: 0 hr 12 min 37 sec) 
Heartbeat CPU 0 instructions: 80000000 cycles: 232364435 heartbeat IPC: 0.267693 cumulative IPC: 0.26567 (Simulation time: 0 hr 12 min 48 sec) 
Heartbeat CPU 3 instructions: 90000003 cycles: 251610228 heartbeat IPC: 0.291752 cumulative IPC: 0.286429 (Simulation time: 0 hr 13 min 47 sec) 
Heartbeat CPU 1 instructions: 90000000 cycles: 255293684 heartbeat IPC: 0.319117 cumulative IPC: 0.283494 (Simulation time: 0 hr 13 min 59 sec) 
Heartbeat CPU 2 instructions: 90000002 cycles: 263451075 heartbeat IPC: 0.286902 cumulative IPC: 0.273336 (Simulation time: 0 hr 14 min 21 sec) 
Heartbeat CPU 0 instructions: 90000003 cycles: 266664235 heartbeat IPC: 0.291547 cumulative IPC: 0.269106 (Simulation time: 0 hr 14 min 31 sec) 
*** Reached end of trace for Core: 3 Repeating trace: /scratch/user/eshanbhatia22/THESIS/cloudsuite_traces/nutch_phase0_core3.trace.gz
Heartbeat CPU 3 instructions: 100000000 cycles: 288967009 heartbeat IPC: 0.267689 cumulative IPC: 0.283934 (Simulation time: 0 hr 15 min 33 sec) 
*** Reached end of trace for Core: 1 Repeating trace: /scratch/user/eshanbhatia22/THESIS/cloudsuite_traces/nutch_phase0_core1.trace.gz
Heartbeat CPU 1 instructions: 100000000 cycles: 289800823 heartbeat IPC: 0.289795 cumulative IPC: 0.284267 (Simulation time: 0 hr 15 min 35 sec) 
*** Reached end of trace for Core: 2 Repeating trace: /scratch/user/eshanbhatia22/THESIS/cloudsuite_traces/nutch_phase0_core2.trace.gz
Heartbeat CPU 2 instructions: 100000000 cycles: 297156020 heartbeat IPC: 0.296692 cumulative IPC: 0.276062 (Simulation time: 0 hr 15 min 57 sec) 
*** Reached end of trace for Core: 0 Repeating trace: /scratch/user/eshanbhatia22/THESIS/cloudsuite_traces/nutch_phase0_core0.trace.gz
Heartbeat CPU 0 instructions: 100000000 cycles: 303275811 heartbeat IPC: 0.273138 cumulative IPC: 0.269607 (Simulation time: 0 hr 16 min 13 sec) 
Heartbeat CPU 1 instructions: 110000002 cycles: 319563735 heartbeat IPC: 0.335989 cumulative IPC: 0.289214 (Simulation time: 0 hr 17 min 5 sec) 
Heartbeat CPU 3 instructions: 110000002 cycles: 319671162 heartbeat IPC: 0.325689 cumulative IPC: 0.288052 (Simulation time: 0 hr 17 min 5 sec) 
Heartbeat CPU 2 instructions: 110000002 cycles: 334478615 heartbeat IPC: 0.267934 cumulative IPC: 0.275132 (Simulation time: 0 hr 17 min 53 sec) 
Heartbeat CPU 0 instructions: 110000000 cycles: 339238273 heartbeat IPC: 0.278068 cumulative IPC: 0.270526 (Simulation time: 0 hr 18 min 8 sec) 
Heartbeat CPU 3 instructions: 120000000 cycles: 345253225 heartbeat IPC: 0.390899 cumulative IPC: 0.295862 (Simulation time: 0 hr 18 min 28 sec) 
Finished CPU 3 instructions: 100000000 cycles: 338082433 cumulative IPC: 0.295786 (Simulation time: 0 hr 18 min 31 sec) 
Heartbeat CPU 1 instructions: 120000000 cycles: 350813552 heartbeat IPC: 0.320002 cumulative IPC: 0.292023 (Simulation time: 0 hr 18 min 45 sec) 
Finished CPU 1 instructions: 100000002 cycles: 342438422 cumulative IPC: 0.292023 (Simulation time: 0 hr 18 min 45 sec) 
Heartbeat CPU 2 instructions: 120000000 cycles: 367408012 heartbeat IPC: 0.30368 cumulative IPC: 0.27775 (Simulation time: 0 hr 19 min 31 sec) 
Finished CPU 2 instructions: 100000000 cycles: 360149014 cumulative IPC: 0.277663 (Simulation time: 0 hr 19 min 34 sec) 
Heartbeat CPU 0 instructions: 120000000 cycles: 373728426 heartbeat IPC: 0.289938 cumulative IPC: 0.272359 (Simulation time: 0 hr 19 min 50 sec) 
Finished CPU 0 instructions: 100000002 cycles: 367041472 cumulative IPC: 0.272449 (Simulation time: 0 hr 19 min 54 sec) 

CPU 0 Branch Prediction Accuracy: 95.9049% MPKI: 6.82385

CPU 1 Branch Prediction Accuracy: 96.1773% MPKI: 6.36245

CPU 2 Branch Prediction Accuracy: 96.2996% MPKI: 6.19406

CPU 3 Branch Prediction Accuracy: 95.7507% MPKI: 7.13442

ChampSim completed all CPUs

Total Simulation Statistics (not including warmup)

CPU 0 cumulative IPC: 0.272449 instructions: 100000002 cycles: 367041472
L1D TOTAL     ACCESS:   20152521  HIT:   19471550  MISS:     680971
L1D LOAD      ACCESS:   10987195  HIT:   10458399  MISS:     528796
L1D RFO       ACCESS:    9165326  HIT:    9013151  MISS:     152175
L1D PREFETCH  ACCESS:          0  HIT:          0  MISS:          0
L1D WRITEBACK ACCESS:          0  HIT:          0  MISS:          0
L1I TOTAL     ACCESS:   20798179  HIT:   20092721  MISS:     705458
L1I LOAD      ACCESS:   20798179  HIT:   20092721  MISS:     705458
L1I RFO       ACCESS:          0  HIT:          0  MISS:          0
L1I PREFETCH  ACCESS:          0  HIT:          0  MISS:          0
L1I WRITEBACK ACCESS:          0  HIT:          0  MISS:          0
L2C TOTAL     ACCESS:    2100214  HIT:    1615475  MISS:     484739
L2C LOAD      ACCESS:    1234216  HIT:    1070634  MISS:     163582
L2C RFO       ACCESS:     152093  HIT:     114904  MISS:      37189
L2C PREFETCH  ACCESS:     330836  HIT:      50192  MISS:     280644
L2C WRITEBACK ACCESS:     383069  HIT:     379745  MISS:       3324

L2C DA-AMPM prefetcher final stats
LLC TOTAL     ACCESS:     705710  HIT:     393237  MISS:     312473
LLC LOAD      ACCESS:     154440  HIT:      95038  MISS:      59402
LLC RFO       ACCESS:      37187  HIT:       6977  MISS:      30210
LLC PREFETCH  ACCESS:     289784  HIT:      67007  MISS:     222777
LLC WRITEBACK ACCESS:     224299  HIT:     224215  MISS:         84

CPU 1 cumulative IPC: 0.289307 instructions: 106187788 cycles: 367041472
L1D TOTAL     ACCESS:   20824101  HIT:   20098033  MISS:     726068
L1D LOAD      ACCESS:   11297881  HIT:   10762232  MISS:     535649
L1D RFO       ACCESS:    9526220  HIT:    9335801  MISS:     190419
L1D PREFETCH  ACCESS:          0  HIT:          0  MISS:          0
L1D WRITEBACK ACCESS:          0  HIT:          0  MISS:          0
L1I TOTAL     ACCESS:   22308322  HIT:   21767055  MISS:     541267
L1I LOAD      ACCESS:   22308322  HIT:   21767055  MISS:     541267
L1I RFO       ACCESS:          0  HIT:          0  MISS:          0
L1I PREFETCH  ACCESS:          0  HIT:          0  MISS:          0
L1I WRITEBACK ACCESS:          0  HIT:          0  MISS:          0
L2C TOTAL     ACCESS:    2034904  HIT:    1535778  MISS:     499126
L2C LOAD      ACCESS:    1076904  HIT:     927037  MISS:     149867
L2C RFO       ACCESS:     190029  HIT:     142370  MISS:      47659
L2C PREFETCH  ACCESS:     332227  HIT:      33157  MISS:     299070
L2C WRITEBACK ACCESS:     435744  HIT:     433214  MISS:       2530

L2C DA-AMPM prefetcher final stats
LLC TOTAL     ACCESS:     752000  HIT:     416745  MISS:     335255
LLC LOAD      ACCESS:     138844  HIT:      87155  MISS:      51689
LLC RFO       ACCESS:      47655  HIT:      10993  MISS:      36662
LLC PREFETCH  ACCESS:     310094  HIT:      63206  MISS:     246888
LLC WRITEBACK ACCESS:     255407  HIT:     255391  MISS:         16

CPU 2 cumulative IPC: 0.277213 instructions: 101748493 cycles: 367041473
L1D TOTAL     ACCESS:   20163704  HIT:   19546290  MISS:     617414
L1D LOAD      ACCESS:   10903538  HIT:   10419600  MISS:     483938
L1D RFO       ACCESS:    9260166  HIT:    9126690  MISS:     133476
L1D PREFETCH  ACCESS:          0  HIT:          0  MISS:          0
L1D WRITEBACK ACCESS:          0  HIT:          0  MISS:          0
L1I TOTAL     ACCESS:   21331703  HIT:   20953671  MISS:     378032
L1I LOAD      ACCESS:   21331703  HIT:   20953671  MISS:     378032
L1I RFO       ACCESS:          0  HIT:          0  MISS:          0
L1I PREFETCH  ACCESS:          0  HIT:          0  MISS:          0
L1I WRITEBACK ACCESS:          0  HIT:          0  MISS:          0
L2C TOTAL     ACCESS:    1701352  HIT:    1215968  MISS:     485384
L2C LOAD      ACCESS:     861950  HIT:     713782  MISS:     148168
L2C RFO       ACCESS:     133373  HIT:      93723  MISS:      39650
L2C PREFETCH  ACCESS:     329174  HIT:      33639  MISS:     295535
L2C WRITEBACK ACCESS:     376855  HIT:     374824  MISS:       2031

L2C DA-AMPM prefetcher final stats
LLC TOTAL     ACCESS:     744103  HIT:     408253  MISS:     335850
LLC LOAD      ACCESS:     140523  HIT:      84438  MISS:      56085
LLC RFO       ACCESS:      39648  HIT:       6108  MISS:      33540
LLC PREFETCH  ACCESS:     303177  HIT:      57008  MISS:     246169
LLC WRITEBACK ACCESS:     260755  HIT:     260699  MISS:         56

CPU 3 cumulative IPC: 0.292805 instructions: 107471658 cycles: 367041473
L1D TOTAL     ACCESS:   21659302  HIT:   20971230  MISS:     688072
L1D LOAD      ACCESS:   12135813  HIT:   11603889  MISS:     531924
L1D RFO       ACCESS:    9523489  HIT:    9367341  MISS:     156148
L1D PREFETCH  ACCESS:          0  HIT:          0  MISS:          0
L1D WRITEBACK ACCESS:          0  HIT:          0  MISS:          0
L1I TOTAL     ACCESS:   22361420  HIT:   21692681  MISS:     668739
L1I LOAD      ACCESS:   22361420  HIT:   21692681  MISS:     668739
L1I RFO       ACCESS:          0  HIT:          0  MISS:          0
L1I PREFETCH  ACCESS:          0  HIT:          0  MISS:          0
L1I WRITEBACK ACCESS:          0  HIT:          0  MISS:          0
L2C TOTAL     ACCESS:    2097879  HIT:    1594058  MISS:     503821
L2C LOAD      ACCESS:    1200614  HIT:    1027978  MISS:     172636
L2C RFO       ACCESS:     156062  HIT:     118739  MISS:      37323
L2C PREFETCH  ACCESS:     351946  HIT:      61410  MISS:     290536
L2C WRITEBACK ACCESS:     389257  HIT:     385931  MISS:       3326

L2C DA-AMPM prefetcher final stats
LLC TOTAL     ACCESS:     724193  HIT:     408807  MISS:     315386
LLC LOAD      ACCESS:     163111  HIT:     100395  MISS:      62716
LLC RFO       ACCESS:      37308  HIT:       8872  MISS:      28436
LLC PREFETCH  ACCESS:     300071  HIT:      75929  MISS:     224142
LLC WRITEBACK ACCESS:     223703  HIT:     223611  MISS:         92

Region of Interest Statistics

CPU 0 cumulative IPC: 0.272449 instructions: 100000002 cycles: 367041472
L1D TOTAL     ACCESS:   20152521  HIT:   19471550  MISS:     680971
L1D LOAD      ACCESS:   10987195  HIT:   10458399  MISS:     528796
L1D RFO       ACCESS:    9165326  HIT:    9013151  MISS:     152175
L1D PREFETCH  ACCESS:          0  HIT:          0  MISS:          0
L1D WRITEBACK ACCESS:          0  HIT:          0  MISS:          0
L1D PREFETCH  REQUESTED:          0  ISSUED:          0  USEFUL:          0  USELESS:          0
L1I TOTAL     ACCESS:   20798179  HIT:   20092721  MISS:     705458
L1I LOAD      ACCESS:   20798179  HIT:   20092721  MISS:     705458
L1I RFO       ACCESS:          0  HIT:          0  MISS:          0
L1I PREFETCH  ACCESS:          0  HIT:          0  MISS:          0
L1I WRITEBACK ACCESS:          0  HIT:          0  MISS:          0
L1I PREFETCH  REQUESTED:          0  ISSUED:          0  USEFUL:          0  USELESS:          0
L2C TOTAL     ACCESS:    2100214  HIT:    1615475  MISS:     484739
L2C LOAD      ACCESS:    1234216  HIT:    1070634  MISS:     163582
L2C RFO       ACCESS:     152093  HIT:     114904  MISS:      37189
L2C PREFETCH  ACCESS:     330836  HIT:      50192  MISS:     280644
L2C WRITEBACK ACCESS:     383069  HIT:     379745  MISS:       3324
L2C PREFETCH  REQUESTED:     436191  ISSUED:     436191  USEFUL:     269313  USELESS:      77141
LLC TOTAL     ACCESS:     705710  HIT:     393237  MISS:     312473
LLC LOAD      ACCESS:     154440  HIT:      95038  MISS:      59402
LLC RFO       ACCESS:      37187  HIT:       6977  MISS:      30210
LLC PREFETCH  ACCESS:     289784  HIT:      67007  MISS:     222777
LLC WRITEBACK ACCESS:     224299  HIT:     224215  MISS:         84
LLC PREFETCH  REQUESTED:          0  ISSUED:          0  USEFUL:     122413  USELESS:     900670
Major fault: 0 Minor fault: 6846

CPU 1 cumulative IPC: 0.292023 instructions: 100000002 cycles: 342438422
L1D TOTAL     ACCESS:   19516677  HIT:   18817566  MISS:     699111
L1D LOAD      ACCESS:   10611397  HIT:   10101086  MISS:     510311
L1D RFO       ACCESS:    8905280  HIT:    8716480  MISS:     188800
L1D PREFETCH  ACCESS:          0  HIT:          0  MISS:          0
L1D WRITEBACK ACCESS:          0  HIT:          0  MISS:          0
L1D PREFETCH  REQUESTED:          0  ISSUED:          0  USEFUL:          0  USELESS:          0
L1I TOTAL     ACCESS:   21042271  HIT:   20505408  MISS:     536863
L1I LOAD      ACCESS:   21042271  HIT:   20505408  MISS:     536863
L1I RFO       ACCESS:          0  HIT:          0  MISS:          0
L1I PREFETCH  ACCESS:          0  HIT:          0  MISS:          0
L1I WRITEBACK ACCESS:          0  HIT:          0  MISS:          0
L1I PREFETCH  REQUESTED:          0  ISSUED:          0  USEFUL:          0  USELESS:          0
L2C TOTAL     ACCESS:    1962845  HIT:    1494227  MISS:     468618
L2C LOAD      ACCESS:    1047162  HIT:     906153  MISS:     141009
L2C RFO       ACCESS:     188410  HIT:     141806  MISS:      46604
L2C PREFETCH  ACCESS:     310733  HIT:      32185  MISS:     278548
L2C WRITEBACK ACCESS:     416540  HIT:     414083  MISS:       2457
L2C PREFETCH  REQUESTED:     423967  ISSUED:     423967  USEFUL:     282653  USELESS:      67908
LLC TOTAL     ACCESS:     702829  HIT:     389167  MISS:     313662
LLC LOAD      ACCESS:     130140  HIT:      81700  MISS:      48440
LLC RFO       ACCESS:      46600  HIT:      10814  MISS:      35786
LLC PREFETCH  ACCESS:     289418  HIT:      59998  MISS:     229420
LLC WRITEBACK ACCESS:     236671  HIT:     236655  MISS:         16
LLC PREFETCH  REQUESTED:          0  ISSUED:          0  USEFUL:     122413  USELESS:     900670
Major fault: 0 Minor fault: 6867

CPU 2 cumulative IPC: 0.277663 instructions: 100000000 cycles: 360149014
L1D TOTAL     ACCESS:   19802778  HIT:   19190686  MISS:     612092
L1D LOAD      ACCESS:   10715419  HIT:   10236415  MISS:     479004
L1D RFO       ACCESS:    9087359  HIT:    8954271  MISS:     133088
L1D PREFETCH  ACCESS:          0  HIT:          0  MISS:          0
L1D WRITEBACK ACCESS:          0  HIT:          0  MISS:          0
L1D PREFETCH  REQUESTED:          0  ISSUED:          0  USEFUL:          0  USELESS:          0
L1I TOTAL     ACCESS:   20974989  HIT:   20596993  MISS:     377996
L1I LOAD      ACCESS:   20974989  HIT:   20596993  MISS:     377996
L1I RFO       ACCESS:          0  HIT:          0  MISS:          0
L1I PREFETCH  ACCESS:          0  HIT:          0  MISS:          0
L1I WRITEBACK ACCESS:          0  HIT:          0  MISS:          0
L1I PREFETCH  REQUESTED:          0  ISSUED:          0  USEFUL:          0  USELESS:          0
L2C TOTAL     ACCESS:    1686606  HIT:    1206263  MISS:     480343
L2C LOAD      ACCESS:     856978  HIT:     709324  MISS:     147654
L2C RFO       ACCESS:     132985  HIT:      93584  MISS:      39401
L2C PREFETCH  ACCESS:     324764  HIT:      33504  MISS:     291260
L2C WRITEBACK ACCESS:     371879  HIT:     369851  MISS:       2028
L2C PREFETCH  REQUESTED:     428638  ISSUED:     428632  USEFUL:     295483  USELESS:      63732
LLC TOTAL     ACCESS:     734265  HIT:     403147  MISS:     331118
LLC LOAD      ACCESS:     140012  HIT:      84322  MISS:      55690
LLC RFO       ACCESS:      39399  HIT:       6073  MISS:      33326
LLC PREFETCH  ACCESS:     298899  HIT:      56853  MISS:     242046
LLC WRITEBACK ACCESS:     255955  HIT:     255899  MISS:         56
LLC PREFETCH  REQUESTED:          0  ISSUED:          0  USEFUL:     122413  USELESS:     900670
Major fault: 0 Minor fault: 7459

CPU 3 cumulative IPC: 0.295786 instructions: 100000000 cycles: 338082433
L1D TOTAL     ACCESS:   20111592  HIT:   19462077  MISS:     649515
L1D LOAD      ACCESS:   11289244  HIT:   10791404  MISS:     497840
L1D RFO       ACCESS:    8822348  HIT:    8670673  MISS:     151675
L1D PREFETCH  ACCESS:          0  HIT:          0  MISS:          0
L1D WRITEBACK ACCESS:          0  HIT:          0  MISS:          0
L1D PREFETCH  REQUESTED:          0  ISSUED:          0  USEFUL:          0  USELESS:          0
L1I TOTAL     ACCESS:   20827448  HIT:   20187518  MISS:     639930
L1I LOAD      ACCESS:   20827448  HIT:   20187518  MISS:     639930
L1I RFO       ACCESS:          0  HIT:          0  MISS:          0
L1I PREFETCH  ACCESS:          0  HIT:          0  MISS:          0
L1I WRITEBACK ACCESS:          0  HIT:          0  MISS:          0
L1I PREFETCH  REQUESTED:          0  ISSUED:          0  USEFUL:          0  USELESS:          0
L2C TOTAL     ACCESS:    1979460  HIT:    1513749  MISS:     465711
L2C LOAD      ACCESS:    1137721  HIT:     978559  MISS:     159162
L2C RFO       ACCESS:     151592  HIT:     115796  MISS:      35796
L2C PREFETCH  ACCESS:     324188  HIT:      56567  MISS:     267621
L2C WRITEBACK ACCESS:     365959  HIT:     362827  MISS:       3132
L2C PREFETCH  REQUESTED:     441570  ISSUED:     441570  USEFUL:     245187  USELESS:      88308
LLC TOTAL     ACCESS:     665185  HIT:     376732  MISS:     288453
LLC LOAD      ACCESS:     150015  HIT:      93595  MISS:      56420
LLC RFO       ACCESS:      35784  HIT:       8527  MISS:      27257
LLC PREFETCH  ACCESS:     276775  HIT:      72084  MISS:     204691
LLC WRITEBACK ACCESS:     202611  HIT:     202526  MISS:         85
LLC PREFETCH  REQUESTED:          0  ISSUED:          0  USEFUL:     122413  USELESS:     900670
Major fault: 0 Minor fault: 6100

L2C DA-AMPM prefetcher final stats

L2C DA-AMPM prefetcher final stats

L2C DA-AMPM prefetcher final stats

L2C DA-AMPM prefetcher final stats

DRAM Statistics
 CHANNEL 0
 RQ ROW_BUFFER_HIT:     342662  ROW_BUFFER_MISS:     306882
 DBUS_CONGESTED:    1046993
 WQ ROW_BUFFER_HIT:      65964  ROW_BUFFER_MISS:     382507  FULL:          0

 CHANNEL 1
 RQ ROW_BUFFER_HIT:     340490  ROW_BUFFER_MISS:     308669
 DBUS_CONGESTED:    1046993
 WQ ROW_BUFFER_HIT:      64921  ROW_BUFFER_MISS:     383525  FULL:          0

 AVG_CONGESTED_CYCLE: 14
