Initialize SIGNATURE TABLE
ST_SET: 1
ST_WAY: 256
ST_TAG_BIT: 16
ST_TAG_MASK: ffff

Initialize PATTERN TABLE
PT_SET: 512
PT_WAY: 4
SIG_DELTA_BIT: 7
C_SIG_BIT: 4
C_DELTA_BIT: 4

Initialize PREFETCH FILTER
FILTER_SET: 1024

*** ChampSim Multicore Out-of-Order Simulator ***

Warmup Instructions: 20000000
Simulation Instructions: 100000000
Number of CPUs: 8
LLC sets: 16384
LLC ways: 16
Off-chip DRAM Size: 8192 MB Channels: 2 Width: 64-bit Data Rate: 1600 MT/s

CPU 0 runs /scratch/user/djimenez/champsim-traces/speccpu2006/xz/459.GemsFDTD-765B.champsimtrace.xz
CPU 1 runs /scratch/user/djimenez/champsim-traces/speccpu2006/xz/444.namd-166B.champsimtrace.xz
CPU 2 runs /scratch/user/djimenez/champsim-traces/speccpu2006/xz/445.gobmk-30B.champsimtrace.xz
CPU 3 runs /scratch/user/djimenez/champsim-traces/speccpu2006/xz/459.GemsFDTD-1418B.champsimtrace.xz
CPU 4 runs /scratch/user/djimenez/champsim-traces/speccpu2006/xz/410.bwaves-1963B.champsimtrace.xz
CPU 5 runs /scratch/user/djimenez/champsim-traces/speccpu2006/xz/482.sphinx3-417B.champsimtrace.xz
CPU 6 runs /scratch/user/djimenez/champsim-traces/speccpu2006/xz/403.gcc-48B.champsimtrace.xz
CPU 7 runs /scratch/user/djimenez/champsim-traces/speccpu2006/xz/437.leslie3d-149B.champsimtrace.xz
Heartbeat CPU 5 instructions: 10000000 cycles: 4119383 heartbeat IPC: 2.42755 cumulative IPC: 2.42755 (Simulation time: 0 hr 3 min 15 sec) 
Heartbeat CPU 1 instructions: 10000001 cycles: 4868823 heartbeat IPC: 2.05388 cumulative IPC: 2.05388 (Simulation time: 0 hr 3 min 50 sec) 
Heartbeat CPU 7 instructions: 10000000 cycles: 5005038 heartbeat IPC: 1.99799 cumulative IPC: 1.99799 (Simulation time: 0 hr 3 min 56 sec) 
Heartbeat CPU 6 instructions: 10000001 cycles: 5486185 heartbeat IPC: 1.82276 cumulative IPC: 1.82276 (Simulation time: 0 hr 4 min 19 sec) 
Heartbeat CPU 2 instructions: 10000003 cycles: 6366062 heartbeat IPC: 1.57083 cumulative IPC: 1.57083 (Simulation time: 0 hr 5 min 0 sec) 
Heartbeat CPU 4 instructions: 10000002 cycles: 6624228 heartbeat IPC: 1.50961 cumulative IPC: 1.50961 (Simulation time: 0 hr 5 min 12 sec) 
Heartbeat CPU 3 instructions: 10000003 cycles: 7881847 heartbeat IPC: 1.26874 cumulative IPC: 1.26874 (Simulation time: 0 hr 6 min 12 sec) 
Heartbeat CPU 0 instructions: 10000001 cycles: 8130272 heartbeat IPC: 1.22997 cumulative IPC: 1.22997 (Simulation time: 0 hr 6 min 23 sec) 
Heartbeat CPU 5 instructions: 20000000 cycles: 8143779 heartbeat IPC: 2.48484 cumulative IPC: 2.45586 (Simulation time: 0 hr 6 min 24 sec) 
Heartbeat CPU 1 instructions: 20000000 cycles: 9781065 heartbeat IPC: 2.03573 cumulative IPC: 2.04477 (Simulation time: 0 hr 7 min 43 sec) 
Heartbeat CPU 7 instructions: 20000000 cycles: 9996497 heartbeat IPC: 2.00342 cumulative IPC: 2.0007 (Simulation time: 0 hr 7 min 54 sec) 
Heartbeat CPU 6 instructions: 20000000 cycles: 10965507 heartbeat IPC: 1.82504 cumulative IPC: 1.8239 (Simulation time: 0 hr 8 min 43 sec) 
Heartbeat CPU 5 instructions: 30000001 cycles: 12006144 heartbeat IPC: 2.58909 cumulative IPC: 0.832907 (Simulation time: 0 hr 9 min 36 sec) 
Heartbeat CPU 2 instructions: 20000000 cycles: 12699760 heartbeat IPC: 1.57886 cumulative IPC: 1.57483 (Simulation time: 0 hr 10 min 11 sec) 
Heartbeat CPU 4 instructions: 20000000 cycles: 13247563 heartbeat IPC: 1.50981 cumulative IPC: 1.50971 (Simulation time: 0 hr 10 min 38 sec) 
Heartbeat CPU 1 instructions: 30000003 cycles: 14055916 heartbeat IPC: 2.33926 cumulative IPC: 0.711444 (Simulation time: 0 hr 11 min 19 sec) 
Heartbeat CPU 7 instructions: 30000003 cycles: 14994113 heartbeat IPC: 2.00095 cumulative IPC: 0.666929 (Simulation time: 0 hr 12 min 7 sec) 
Heartbeat CPU 3 instructions: 20000000 cycles: 15762335 heartbeat IPC: 1.26896 cumulative IPC: 1.26885 (Simulation time: 0 hr 12 min 45 sec) 
Heartbeat CPU 5 instructions: 40000000 cycles: 15852227 heartbeat IPC: 2.60005 cumulative IPC: 1.26165 (Simulation time: 0 hr 12 min 50 sec) 
Heartbeat CPU 0 instructions: 20000000 cycles: 16259764 heartbeat IPC: 1.23009 cumulative IPC: 1.23003 (Simulation time: 0 hr 13 min 10 sec) 

Warmup complete CPU 0 instructions: 20000001 cycles: 16259765 (Simulation time: 0 hr 13 min 10 sec) 
Warmup complete CPU 1 instructions: 34704469 cycles: 16259764 (Simulation time: 0 hr 13 min 10 sec) 
Warmup complete CPU 2 instructions: 25786058 cycles: 16259764 (Simulation time: 0 hr 13 min 10 sec) 
Warmup complete CPU 3 instructions: 20631396 cycles: 16259764 (Simulation time: 0 hr 13 min 10 sec) 
Warmup complete CPU 4 instructions: 24547911 cycles: 16259764 (Simulation time: 0 hr 13 min 10 sec) 
Warmup complete CPU 5 instructions: 41061487 cycles: 16259764 (Simulation time: 0 hr 13 min 10 sec) 
Warmup complete CPU 6 instructions: 29668816 cycles: 16259764 (Simulation time: 0 hr 13 min 10 sec) 
Warmup complete CPU 7 instructions: 32529053 cycles: 16259764 (Simulation time: 0 hr 13 min 10 sec) 

Heartbeat CPU 6 instructions: 30000001 cycles: 16741310 heartbeat IPC: 1.73136 cumulative IPC: 0.687754 (Simulation time: 0 hr 13 min 26 sec) 
Heartbeat CPU 1 instructions: 40000000 cycles: 21218333 heartbeat IPC: 1.39618 cumulative IPC: 1.06796 (Simulation time: 0 hr 16 min 9 sec) 
Heartbeat CPU 4 instructions: 30000000 cycles: 21262601 heartbeat IPC: 1.24765 cumulative IPC: 1.0898 (Simulation time: 0 hr 16 min 11 sec) 
Heartbeat CPU 7 instructions: 40000000 cycles: 23312059 heartbeat IPC: 1.20222 cumulative IPC: 1.05936 (Simulation time: 0 hr 17 min 27 sec) 
Heartbeat CPU 5 instructions: 50000001 cycles: 24869983 heartbeat IPC: 1.10892 cumulative IPC: 1.03813 (Simulation time: 0 hr 18 min 21 sec) 
Heartbeat CPU 2 instructions: 30000002 cycles: 25939329 heartbeat IPC: 0.755312 cumulative IPC: 0.435344 (Simulation time: 0 hr 19 min 3 sec) 
Heartbeat CPU 1 instructions: 50000002 cycles: 28397512 heartbeat IPC: 1.39292 cumulative IPC: 1.26016 (Simulation time: 0 hr 20 min 25 sec) 
Heartbeat CPU 3 instructions: 30000002 cycles: 29306650 heartbeat IPC: 0.738317 cumulative IPC: 0.718072 (Simulation time: 0 hr 21 min 0 sec) 
Heartbeat CPU 4 instructions: 40000000 cycles: 30394487 heartbeat IPC: 1.09506 cumulative IPC: 1.0932 (Simulation time: 0 hr 21 min 37 sec) 
Heartbeat CPU 6 instructions: 40000000 cycles: 31453804 heartbeat IPC: 0.679694 cumulative IPC: 0.67995 (Simulation time: 0 hr 22 min 12 sec) 
Heartbeat CPU 7 instructions: 50000000 cycles: 32760859 heartbeat IPC: 1.05834 cumulative IPC: 1.05878 (Simulation time: 0 hr 22 min 51 sec) 
Heartbeat CPU 0 instructions: 30000001 cycles: 33173207 heartbeat IPC: 0.591246 cumulative IPC: 0.591246 (Simulation time: 0 hr 23 min 3 sec) 
Heartbeat CPU 5 instructions: 60000000 cycles: 37337621 heartbeat IPC: 0.802076 cumulative IPC: 0.898503 (Simulation time: 0 hr 25 min 9 sec) 
Heartbeat CPU 1 instructions: 60000000 cycles: 37488113 heartbeat IPC: 1.10004 cumulative IPC: 1.19159 (Simulation time: 0 hr 25 min 13 sec) 
Heartbeat CPU 4 instructions: 50000001 cycles: 39585176 heartbeat IPC: 1.08806 cumulative IPC: 1.09117 (Simulation time: 0 hr 26 min 12 sec) 
Heartbeat CPU 3 instructions: 40000000 cycles: 43361871 heartbeat IPC: 0.711479 cumulative IPC: 0.714653 (Simulation time: 0 hr 28 min 6 sec) 
Heartbeat CPU 7 instructions: 60000000 cycles: 43465957 heartbeat IPC: 0.934134 cumulative IPC: 1.00973 (Simulation time: 0 hr 28 min 9 sec) 
Heartbeat CPU 6 instructions: 50000003 cycles: 46164883 heartbeat IPC: 0.67976 cumulative IPC: 0.679856 (Simulation time: 0 hr 29 min 25 sec) 
Heartbeat CPU 1 instructions: 70000000 cycles: 46446559 heartbeat IPC: 1.11627 cumulative IPC: 1.16924 (Simulation time: 0 hr 29 min 33 sec) 
Heartbeat CPU 2 instructions: 40000000 cycles: 47661158 heartbeat IPC: 0.460366 cumulative IPC: 0.452653 (Simulation time: 0 hr 30 min 7 sec) 
Heartbeat CPU 4 instructions: 60000000 cycles: 48917200 heartbeat IPC: 1.07158 cumulative IPC: 1.08557 (Simulation time: 0 hr 30 min 43 sec) 
Heartbeat CPU 0 instructions: 40000000 cycles: 50364371 heartbeat IPC: 0.581694 cumulative IPC: 0.586431 (Simulation time: 0 hr 31 min 27 sec) 
Heartbeat CPU 5 instructions: 70000002 cycles: 52052069 heartbeat IPC: 0.679604 cumulative IPC: 0.808512 (Simulation time: 0 hr 32 min 21 sec) 
Heartbeat CPU 1 instructions: 80000000 cycles: 54270052 heartbeat IPC: 1.2782 cumulative IPC: 1.19167 (Simulation time: 0 hr 33 min 31 sec) 
Heartbeat CPU 7 instructions: 70000003 cycles: 55489966 heartbeat IPC: 0.83167 cumulative IPC: 0.955156 (Simulation time: 0 hr 34 min 10 sec) 
Heartbeat CPU 3 instructions: 50000002 cycles: 57600206 heartbeat IPC: 0.702329 cumulative IPC: 0.710409 (Simulation time: 0 hr 35 min 15 sec) 
Heartbeat CPU 4 instructions: 70000003 cycles: 58266794 heartbeat IPC: 1.06957 cumulative IPC: 1.08201 (Simulation time: 0 hr 35 min 41 sec) 
Heartbeat CPU 6 instructions: 60000000 cycles: 60895587 heartbeat IPC: 0.678854 cumulative IPC: 0.679526 (Simulation time: 0 hr 36 min 58 sec) 
Heartbeat CPU 1 instructions: 90000003 cycles: 62610937 heartbeat IPC: 1.19891 cumulative IPC: 1.19297 (Simulation time: 0 hr 37 min 46 sec) 
Heartbeat CPU 4 instructions: 80000000 cycles: 67652656 heartbeat IPC: 1.06543 cumulative IPC: 1.07898 (Simulation time: 0 hr 39 min 58 sec) 
Heartbeat CPU 7 instructions: 80000000 cycles: 67800302 heartbeat IPC: 0.812325 cumulative IPC: 0.921041 (Simulation time: 0 hr 40 min 3 sec) 
Heartbeat CPU 5 instructions: 80000000 cycles: 68641140 heartbeat IPC: 0.602806 cumulative IPC: 0.743366 (Simulation time: 0 hr 40 min 27 sec) 
Heartbeat CPU 2 instructions: 50000001 cycles: 70597740 heartbeat IPC: 0.435985 cumulative IPC: 0.445617 (Simulation time: 0 hr 41 min 19 sec) 
Heartbeat CPU 1 instructions: 100000000 cycles: 70708542 heartbeat IPC: 1.23493 cumulative IPC: 1.19921 (Simulation time: 0 hr 41 min 22 sec) 
Heartbeat CPU 3 instructions: 60000000 cycles: 71847042 heartbeat IPC: 0.70191 cumulative IPC: 0.70823 (Simulation time: 0 hr 41 min 52 sec) 
Heartbeat CPU 6 instructions: 70000001 cycles: 75726761 heartbeat IPC: 0.674256 cumulative IPC: 0.678211 (Simulation time: 0 hr 43 min 46 sec) 
Heartbeat CPU 4 instructions: 90000000 cycles: 77129834 heartbeat IPC: 1.05517 cumulative IPC: 1.07528 (Simulation time: 0 hr 44 min 22 sec) 
Heartbeat CPU 1 instructions: 110000003 cycles: 79325765 heartbeat IPC: 1.16047 cumulative IPC: 1.19392 (Simulation time: 0 hr 45 min 22 sec) 
Heartbeat CPU 0 instructions: 50000000 cycles: 80554917 heartbeat IPC: 0.33123 cumulative IPC: 0.466598 (Simulation time: 0 hr 46 min 13 sec) 
Heartbeat CPU 7 instructions: 90000003 cycles: 80643263 heartbeat IPC: 0.778637 cumulative IPC: 0.892635 (Simulation time: 0 hr 46 min 17 sec) 
Heartbeat CPU 3 instructions: 70000001 cycles: 86198453 heartbeat IPC: 0.696796 cumulative IPC: 0.705884 (Simulation time: 0 hr 48 min 54 sec) 
Heartbeat CPU 4 instructions: 100000000 cycles: 86636069 heartbeat IPC: 1.05194 cumulative IPC: 1.07212 (Simulation time: 0 hr 49 min 5 sec) 
Heartbeat CPU 5 instructions: 90000001 cycles: 87894328 heartbeat IPC: 0.519395 cumulative IPC: 0.683169 (Simulation time: 0 hr 49 min 36 sec) 
Heartbeat CPU 1 instructions: 120000000 cycles: 88473494 heartbeat IPC: 1.09317 cumulative IPC: 1.18115 (Simulation time: 0 hr 49 min 52 sec) 
Heartbeat CPU 6 instructions: 80000000 cycles: 90517964 heartbeat IPC: 0.676077 cumulative IPC: 0.677786 (Simulation time: 0 hr 50 min 47 sec) 
Heartbeat CPU 2 instructions: 60000000 cycles: 92867717 heartbeat IPC: 0.449035 cumulative IPC: 0.446611 (Simulation time: 0 hr 51 min 45 sec) 
Heartbeat CPU 7 instructions: 100000000 cycles: 93346765 heartbeat IPC: 0.787184 cumulative IPC: 0.875257 (Simulation time: 0 hr 51 min 57 sec) 
Heartbeat CPU 4 instructions: 110000000 cycles: 96252372 heartbeat IPC: 1.0399 cumulative IPC: 1.06825 (Simulation time: 0 hr 53 min 8 sec) 
Heartbeat CPU 1 instructions: 130000003 cycles: 96438848 heartbeat IPC: 1.25544 cumulative IPC: 1.18853 (Simulation time: 0 hr 53 min 12 sec) 
Finished CPU 1 instructions: 100000001 cycles: 83689019 cumulative IPC: 1.1949 (Simulation time: 0 hr 54 min 40 sec) 
Heartbeat CPU 3 instructions: 80000000 cycles: 100567413 heartbeat IPC: 0.695945 cumulative IPC: 0.70419 (Simulation time: 0 hr 54 min 58 sec) 
Heartbeat CPU 5 instructions: 100000000 cycles: 104590824 heartbeat IPC: 0.598928 cumulative IPC: 0.667246 (Simulation time: 0 hr 56 min 53 sec) 
Heartbeat CPU 1 instructions: 140000000 cycles: 104694043 heartbeat IPC: 1.21136 cumulative IPC: 1.19066 (Simulation time: 0 hr 56 min 56 sec) 
Heartbeat CPU 6 instructions: 90000001 cycles: 105367424 heartbeat IPC: 0.673425 cumulative IPC: 0.677059 (Simulation time: 0 hr 57 min 13 sec) 
Heartbeat CPU 7 instructions: 110000000 cycles: 105618160 heartbeat IPC: 0.814903 cumulative IPC: 0.866969 (Simulation time: 0 hr 57 min 19 sec) 
Heartbeat CPU 4 instructions: 120000000 cycles: 105930941 heartbeat IPC: 1.03321 cumulative IPC: 1.06447 (Simulation time: 0 hr 57 min 28 sec) 
Finished CPU 4 instructions: 100000001 cycles: 94062700 cumulative IPC: 1.06312 (Simulation time: 0 hr 59 min 19 sec) 
Heartbeat CPU 1 instructions: 150000001 cycles: 112954245 heartbeat IPC: 1.21062 cumulative IPC: 1.19237 (Simulation time: 1 hr 0 min 31 sec) 
Heartbeat CPU 3 instructions: 90000003 cycles: 114877705 heartbeat IPC: 0.698798 cumulative IPC: 0.703408 (Simulation time: 1 hr 1 min 21 sec) 
Heartbeat CPU 7 instructions: 120000000 cycles: 114916123 heartbeat IPC: 1.0755 cumulative IPC: 0.886622 (Simulation time: 1 hr 1 min 22 sec) 
Heartbeat CPU 4 instructions: 130000001 cycles: 115564660 heartbeat IPC: 1.03802 cumulative IPC: 1.0619 (Simulation time: 1 hr 1 min 38 sec) 
Heartbeat CPU 2 instructions: 70000000 cycles: 116164012 heartbeat IPC: 0.429253 cumulative IPC: 0.442563 (Simulation time: 1 hr 1 min 54 sec) 
Heartbeat CPU 6 instructions: 100000000 cycles: 120175666 heartbeat IPC: 0.6753 cumulative IPC: 0.676809 (Simulation time: 1 hr 3 min 35 sec) 
Heartbeat CPU 1 instructions: 160000000 cycles: 121250140 heartbeat IPC: 1.20542 cumulative IPC: 1.1934 (Simulation time: 1 hr 4 min 4 sec) 
Heartbeat CPU 5 instructions: 110000002 cycles: 121762989 heartbeat IPC: 0.582338 cumulative IPC: 0.653426 (Simulation time: 1 hr 4 min 19 sec) 
Heartbeat CPU 7 instructions: 130000003 cycles: 124354946 heartbeat IPC: 1.05945 cumulative IPC: 0.901714 (Simulation time: 1 hr 5 min 31 sec) 
Heartbeat CPU 4 instructions: 140000000 cycles: 124969752 heartbeat IPC: 1.06325 cumulative IPC: 1.06202 (Simulation time: 1 hr 5 min 48 sec) 
Finished CPU 7 instructions: 100000001 cycles: 110473662 cumulative IPC: 0.905193 (Simulation time: 1 hr 6 min 37 sec) 
Heartbeat CPU 0 instructions: 60000000 cycles: 126925955 heartbeat IPC: 0.215652 cumulative IPC: 0.361447 (Simulation time: 1 hr 6 min 43 sec) 
Heartbeat CPU 3 instructions: 100000000 cycles: 129095966 heartbeat IPC: 0.703321 cumulative IPC: 0.703397 (Simulation time: 1 hr 7 min 44 sec) 
Heartbeat CPU 1 instructions: 170000002 cycles: 129295137 heartbeat IPC: 1.24301 cumulative IPC: 1.19693 (Simulation time: 1 hr 7 min 50 sec) 
Heartbeat CPU 7 instructions: 140000000 cycles: 133750557 heartbeat IPC: 1.06433 cumulative IPC: 0.914718 (Simulation time: 1 hr 9 min 53 sec) 
Heartbeat CPU 4 instructions: 150000002 cycles: 134246375 heartbeat IPC: 1.07798 cumulative IPC: 1.06327 (Simulation time: 1 hr 10 min 7 sec) 
Heartbeat CPU 6 instructions: 110000002 cycles: 134851424 heartbeat IPC: 0.681396 cumulative IPC: 0.677376 (Simulation time: 1 hr 10 min 24 sec) 
Heartbeat CPU 1 instructions: 180000000 cycles: 137845359 heartbeat IPC: 1.16956 cumulative IPC: 1.19501 (Simulation time: 1 hr 11 min 47 sec) 
Heartbeat CPU 2 instructions: 80000000 cycles: 138094290 heartbeat IPC: 0.455991 cumulative IPC: 0.44498 (Simulation time: 1 hr 11 min 54 sec) 
Heartbeat CPU 5 instructions: 120000000 cycles: 138189990 heartbeat IPC: 0.608754 cumulative IPC: 0.647407 (Simulation time: 1 hr 11 min 57 sec) 
Heartbeat CPU 7 instructions: 150000003 cycles: 143148991 heartbeat IPC: 1.06401 cumulative IPC: 0.925776 (Simulation time: 1 hr 16 min 1 sec) 
Heartbeat CPU 3 instructions: 110000003 cycles: 143348469 heartbeat IPC: 0.701631 cumulative IPC: 0.703199 (Simulation time: 1 hr 16 min 7 sec) 
Heartbeat CPU 4 instructions: 160000000 cycles: 143537750 heartbeat IPC: 1.07627 cumulative IPC: 1.06422 (Simulation time: 1 hr 16 min 13 sec) 
Heartbeat CPU 0 instructions: 70000001 cycles: 143979406 heartbeat IPC: 0.586392 cumulative IPC: 0.391482 (Simulation time: 1 hr 16 min 25 sec) 
Heartbeat CPU 1 instructions: 190000000 cycles: 145342525 heartbeat IPC: 1.33384 cumulative IPC: 1.20307 (Simulation time: 1 hr 17 min 3 sec) 
Heartbeat CPU 6 instructions: 120000000 cycles: 149644545 heartbeat IPC: 0.67599 cumulative IPC: 0.677223 (Simulation time: 1 hr 19 min 7 sec) 
Heartbeat CPU 7 instructions: 160000000 cycles: 152574934 heartbeat IPC: 1.0609 cumulative IPC: 0.935119 (Simulation time: 1 hr 20 min 28 sec) 
Heartbeat CPU 4 instructions: 170000000 cycles: 152800471 heartbeat IPC: 1.0796 cumulative IPC: 1.06527 (Simulation time: 1 hr 20 min 35 sec) 
Heartbeat CPU 5 instructions: 130000001 cycles: 153896523 heartbeat IPC: 0.636678 cumulative IPC: 0.646183 (Simulation time: 1 hr 21 min 7 sec) 
Heartbeat CPU 1 instructions: 200000000 cycles: 154971959 heartbeat IPC: 1.03848 cumulative IPC: 1.19164 (Simulation time: 1 hr 21 min 40 sec) 
Heartbeat CPU 3 instructions: 120000000 cycles: 157470676 heartbeat IPC: 0.708104 cumulative IPC: 0.703689 (Simulation time: 1 hr 22 min 58 sec) 
Finished CPU 3 instructions: 100000002 cycles: 142100571 cumulative IPC: 0.703727 (Simulation time: 1 hr 23 min 23 sec) 
Heartbeat CPU 2 instructions: 90000002 cycles: 160841395 heartbeat IPC: 0.439616 cumulative IPC: 0.444136 (Simulation time: 1 hr 24 min 32 sec) 
Heartbeat CPU 0 instructions: 80000000 cycles: 161109517 heartbeat IPC: 0.583767 cumulative IPC: 0.414222 (Simulation time: 1 hr 24 min 40 sec) 
Heartbeat CPU 7 instructions: 170000001 cycles: 161983743 heartbeat IPC: 1.06283 cumulative IPC: 0.943365 (Simulation time: 1 hr 25 min 4 sec) 
Heartbeat CPU 4 instructions: 180000000 cycles: 162095988 heartbeat IPC: 1.07579 cumulative IPC: 1.06594 (Simulation time: 1 hr 25 min 8 sec) 
Heartbeat CPU 1 instructions: 210000000 cycles: 163704337 heartbeat IPC: 1.14516 cumulative IPC: 1.18889 (Simulation time: 1 hr 25 min 53 sec) 
Finished CPU 6 instructions: 100000000 cycles: 147682703 cumulative IPC: 0.677127 (Simulation time: 1 hr 25 min 59 sec) 
Heartbeat CPU 6 instructions: 130000003 cycles: 164433461 heartbeat IPC: 0.676182 cumulative IPC: 0.677119 (Simulation time: 1 hr 26 min 12 sec) 
Heartbeat CPU 5 instructions: 140000000 cycles: 169453926 heartbeat IPC: 0.642781 cumulative IPC: 0.645837 (Simulation time: 1 hr 28 min 24 sec) 
Finished CPU 5 instructions: 100000001 cycles: 154072172 cumulative IPC: 0.649046 (Simulation time: 1 hr 28 min 49 sec) 
Heartbeat CPU 4 instructions: 190000003 cycles: 171377092 heartbeat IPC: 1.07746 cumulative IPC: 1.06663 (Simulation time: 1 hr 29 min 19 sec) 
Heartbeat CPU 7 instructions: 180000000 cycles: 171385367 heartbeat IPC: 1.06365 cumulative IPC: 0.950655 (Simulation time: 1 hr 29 min 19 sec) 
Heartbeat CPU 3 instructions: 130000003 cycles: 171669855 heartbeat IPC: 0.704266 cumulative IPC: 0.703742 (Simulation time: 1 hr 29 min 27 sec) 
Heartbeat CPU 1 instructions: 220000000 cycles: 172088186 heartbeat IPC: 1.19277 cumulative IPC: 1.1891 (Simulation time: 1 hr 29 min 39 sec) 
Heartbeat CPU 0 instructions: 90000003 cycles: 178237900 heartbeat IPC: 0.583826 cumulative IPC: 0.432157 (Simulation time: 1 hr 32 min 25 sec) 
Heartbeat CPU 6 instructions: 140000000 cycles: 179228527 heartbeat IPC: 0.675901 cumulative IPC: 0.677008 (Simulation time: 1 hr 32 min 54 sec) 
Heartbeat CPU 1 instructions: 230000001 cycles: 180081258 heartbeat IPC: 1.25108 cumulative IPC: 1.19212 (Simulation time: 1 hr 33 min 16 sec) 
Heartbeat CPU 4 instructions: 200000000 cycles: 180757206 heartbeat IPC: 1.06608 cumulative IPC: 1.06659 (Simulation time: 1 hr 33 min 34 sec) 
Heartbeat CPU 7 instructions: 190000000 cycles: 180839072 heartbeat IPC: 1.05779 cumulative IPC: 0.956809 (Simulation time: 1 hr 33 min 36 sec) 
Heartbeat CPU 2 instructions: 100000000 cycles: 183504043 heartbeat IPC: 0.441255 cumulative IPC: 0.443746 (Simulation time: 1 hr 34 min 46 sec) 
Heartbeat CPU 3 instructions: 140000000 cycles: 183936890 heartbeat IPC: 0.815193 cumulative IPC: 0.711896 (Simulation time: 1 hr 34 min 58 sec) 
Heartbeat CPU 5 instructions: 150000001 cycles: 185300340 heartbeat IPC: 0.631058 cumulative IPC: 0.644452 (Simulation time: 1 hr 35 min 34 sec) 
Heartbeat CPU 1 instructions: 240000000 cycles: 188205386 heartbeat IPC: 1.2309 cumulative IPC: 1.19396 (Simulation time: 1 hr 36 min 56 sec) 
Heartbeat CPU 4 instructions: 210000001 cycles: 190278364 heartbeat IPC: 1.05029 cumulative IPC: 1.0657 (Simulation time: 1 hr 37 min 51 sec) 
Heartbeat CPU 7 instructions: 200000000 cycles: 190459073 heartbeat IPC: 1.0395 cumulative IPC: 0.961375 (Simulation time: 1 hr 37 min 55 sec) 
Heartbeat CPU 6 instructions: 150000001 cycles: 194018293 heartbeat IPC: 0.676143 cumulative IPC: 0.676936 (Simulation time: 1 hr 39 min 29 sec) 
Heartbeat CPU 0 instructions: 100000000 cycles: 195723022 heartbeat IPC: 0.571915 cumulative IPC: 0.445774 (Simulation time: 1 hr 40 min 15 sec) 
Heartbeat CPU 1 instructions: 250000001 cycles: 196895023 heartbeat IPC: 1.1508 cumulative IPC: 1.19188 (Simulation time: 1 hr 40 min 46 sec) 
Heartbeat CPU 3 instructions: 150000003 cycles: 197323760 heartbeat IPC: 0.747001 cumulative IPC: 0.714491 (Simulation time: 1 hr 40 min 57 sec) 
Heartbeat CPU 4 instructions: 220000000 cycles: 199731689 heartbeat IPC: 1.05783 cumulative IPC: 1.0653 (Simulation time: 1 hr 41 min 58 sec) 
Heartbeat CPU 7 instructions: 210000003 cycles: 200032938 heartbeat IPC: 1.04451 cumulative IPC: 0.965707 (Simulation time: 1 hr 42 min 6 sec) 
Heartbeat CPU 5 instructions: 160000000 cycles: 201962037 heartbeat IPC: 0.600179 cumulative IPC: 0.64048 (Simulation time: 1 hr 42 min 54 sec) 
Heartbeat CPU 1 instructions: 260000000 cycles: 206087787 heartbeat IPC: 1.08781 cumulative IPC: 1.18684 (Simulation time: 1 hr 44 min 43 sec) 
Heartbeat CPU 2 instructions: 110000002 cycles: 206346437 heartbeat IPC: 0.437783 cumulative IPC: 0.443029 (Simulation time: 1 hr 44 min 50 sec) 
Heartbeat CPU 6 instructions: 160000000 cycles: 208777787 heartbeat IPC: 0.67753 cumulative IPC: 0.676982 (Simulation time: 1 hr 45 min 52 sec) 
Heartbeat CPU 4 instructions: 230000002 cycles: 209044006 heartbeat IPC: 1.07385 cumulative IPC: 1.06571 (Simulation time: 1 hr 45 min 59 sec) 
Heartbeat CPU 7 instructions: 220000000 cycles: 211194769 heartbeat IPC: 0.89591 cumulative IPC: 0.96171 (Simulation time: 1 hr 46 min 57 sec) 
Heartbeat CPU 3 instructions: 160000000 cycles: 211485939 heartbeat IPC: 0.706106 cumulative IPC: 0.713883 (Simulation time: 1 hr 47 min 5 sec) 
Heartbeat CPU 0 instructions: 110000003 cycles: 212998089 heartbeat IPC: 0.578869 cumulative IPC: 0.45746 (Simulation time: 1 hr 47 min 46 sec) 
Heartbeat CPU 1 instructions: 270000002 cycles: 213753928 heartbeat IPC: 1.30444 cumulative IPC: 1.1914 (Simulation time: 1 hr 48 min 5 sec) 
Heartbeat CPU 5 instructions: 170000003 cycles: 217628333 heartbeat IPC: 0.638313 cumulative IPC: 0.640311 (Simulation time: 1 hr 49 min 45 sec) 
Heartbeat CPU 4 instructions: 240000000 cycles: 218289741 heartbeat IPC: 1.08158 cumulative IPC: 1.06644 (Simulation time: 1 hr 50 min 2 sec) 
Heartbeat CPU 1 instructions: 280000000 cycles: 222384804 heartbeat IPC: 1.15863 cumulative IPC: 1.19003 (Simulation time: 1 hr 51 min 50 sec) 
Heartbeat CPU 7 instructions: 230000000 cycles: 222783561 heartbeat IPC: 0.862903 cumulative IPC: 0.956166 (Simulation time: 1 hr 52 min 0 sec) 
Heartbeat CPU 6 instructions: 170000002 cycles: 223489133 heartbeat IPC: 0.679748 cumulative IPC: 0.677178 (Simulation time: 1 hr 52 min 18 sec) 
Heartbeat CPU 3 instructions: 170000003 cycles: 225642737 heartbeat IPC: 0.706375 cumulative IPC: 0.713375 (Simulation time: 1 hr 53 min 13 sec) 
Heartbeat CPU 4 instructions: 250000001 cycles: 227529000 heartbeat IPC: 1.08234 cumulative IPC: 1.06713 (Simulation time: 1 hr 54 min 5 sec) 
Heartbeat CPU 2 instructions: 120000000 cycles: 229589741 heartbeat IPC: 0.430231 cumulative IPC: 0.441635 (Simulation time: 1 hr 54 min 58 sec) 
Heartbeat CPU 0 instructions: 120000000 cycles: 230150377 heartbeat IPC: 0.583012 cumulative IPC: 0.467529 (Simulation time: 1 hr 55 min 12 sec) 
Finished CPU 0 instructions: 100000001 cycles: 213890621 cumulative IPC: 0.467529 (Simulation time: 1 hr 55 min 12 sec) 
Heartbeat CPU 1 instructions: 290000001 cycles: 230310066 heartbeat IPC: 1.26179 cumulative IPC: 1.19269 (Simulation time: 1 hr 55 min 16 sec) 
Heartbeat CPU 5 instructions: 180000000 cycles: 232832233 heartbeat IPC: 0.657726 cumulative IPC: 0.641534 (Simulation time: 1 hr 56 min 21 sec) 
Heartbeat CPU 7 instructions: 240000000 cycles: 234397798 heartbeat IPC: 0.861012 cumulative IPC: 0.951099 (Simulation time: 1 hr 57 min 3 sec) 
Heartbeat CPU 4 instructions: 260000000 cycles: 236772097 heartbeat IPC: 1.08189 cumulative IPC: 1.06775 (Simulation time: 1 hr 58 min 4 sec) 
Heartbeat CPU 6 instructions: 180000000 cycles: 238211705 heartbeat IPC: 0.679229 cumulative IPC: 0.677314 (Simulation time: 1 hr 58 min 41 sec) 
Heartbeat CPU 1 instructions: 300000000 cycles: 239050434 heartbeat IPC: 1.14412 cumulative IPC: 1.19078 (Simulation time: 1 hr 59 min 2 sec) 
Heartbeat CPU 3 instructions: 180000000 cycles: 239674217 heartbeat IPC: 0.712683 cumulative IPC: 0.713332 (Simulation time: 1 hr 59 min 17 sec) 
Finished CPU 2 instructions: 100000000 cycles: 226472368 cumulative IPC: 0.441555 (Simulation time: 2 hr 0 min 40 sec) 

CPU 0 Branch Prediction Accuracy: 99.8911% MPKI: 0.00645622

CPU 1 Branch Prediction Accuracy: 96.8028% MPKI: 1.7817

CPU 2 Branch Prediction Accuracy: 84.4285% MPKI: 23.1394

CPU 3 Branch Prediction Accuracy: 99.5207% MPKI: 0.0262059

CPU 4 Branch Prediction Accuracy: 97.2574% MPKI: 0.750513

CPU 5 Branch Prediction Accuracy: 97.0129% MPKI: 2.49015

CPU 6 Branch Prediction Accuracy: 99.8186% MPKI: 0.328008

CPU 7 Branch Prediction Accuracy: 99.1724% MPKI: 0.217562

ChampSim completed all CPUs

Total Simulation Statistics (not including warmup)

CPU 0 cumulative IPC: 0.473957 instructions: 107338270 cycles: 226472367
L1D TOTAL     ACCESS:   63086255  HIT:   61481852  MISS:    1604403
L1D LOAD      ACCESS:   55292705  HIT:   53688368  MISS:    1604337
L1D RFO       ACCESS:    7793550  HIT:    7793484  MISS:         66
L1D PREFETCH  ACCESS:          0  HIT:          0  MISS:          0
L1D WRITEBACK ACCESS:          0  HIT:          0  MISS:          0
L1I TOTAL     ACCESS:   30488622  HIT:   30488513  MISS:        109
L1I LOAD      ACCESS:   30488622  HIT:   30488513  MISS:        109
L1I RFO       ACCESS:          0  HIT:          0  MISS:          0
L1I PREFETCH  ACCESS:          0  HIT:          0  MISS:          0
L1I WRITEBACK ACCESS:          0  HIT:          0  MISS:          0
L2C TOTAL     ACCESS:    2747289  HIT:    1288689  MISS:    1458600
L2C LOAD      ACCESS:    1604289  HIT:     350834  MISS:    1253455
L2C RFO       ACCESS:         50  HIT:         39  MISS:         11
L2C PREFETCH  ACCESS:     403860  HIT:     198780  MISS:     205080
L2C WRITEBACK ACCESS:     739090  HIT:     739036  MISS:         54
LLC TOTAL     ACCESS:    4647757  HIT:    2823894  MISS:    1823863
LLC LOAD      ACCESS:    1251687  HIT:     652917  MISS:     598770
LLC RFO       ACCESS:         11  HIT:          1  MISS:         10
LLC PREFETCH  ACCESS:    2658354  HIT:    1433296  MISS:    1225058
LLC WRITEBACK ACCESS:     737705  HIT:     737680  MISS:         25

CPU 1 cumulative IPC: 1.19148 instructions: 269837498 cycles: 226472368
L1D TOTAL     ACCESS:   57110638  HIT:   55588948  MISS:    1521690
L1D LOAD      ACCESS:   47034038  HIT:   45583349  MISS:    1450689
L1D RFO       ACCESS:   10076600  HIT:   10005599  MISS:      71001
L1D PREFETCH  ACCESS:          0  HIT:          0  MISS:          0
L1D WRITEBACK ACCESS:          0  HIT:          0  MISS:          0
L1I TOTAL     ACCESS:   69166725  HIT:   69166725  MISS:          0
L1I LOAD      ACCESS:   69166725  HIT:   69166725  MISS:          0
L1I RFO       ACCESS:          0  HIT:          0  MISS:          0
L1I PREFETCH  ACCESS:          0  HIT:          0  MISS:          0
L1I WRITEBACK ACCESS:          0  HIT:          0  MISS:          0
L2C TOTAL     ACCESS:    3575723  HIT:    3528997  MISS:      46726
L2C LOAD      ACCESS:    1450608  HIT:    1409957  MISS:      40651
L2C RFO       ACCESS:      70980  HIT:      70646  MISS:        334
L2C PREFETCH  ACCESS:    1786541  HIT:    1780809  MISS:       5732
L2C WRITEBACK ACCESS:     267594  HIT:     267585  MISS:          9
LLC TOTAL     ACCESS:     187057  HIT:     119670  MISS:      67387
LLC LOAD      ACCESS:      36825  HIT:      17514  MISS:      19311
LLC RFO       ACCESS:        334  HIT:        257  MISS:         77
LLC PREFETCH  ACCESS:     140720  HIT:     101020  MISS:      39700
LLC WRITEBACK ACCESS:       9178  HIT:        879  MISS:       8299

CPU 2 cumulative IPC: 0.441555 instructions: 100000000 cycles: 226472368
L1D TOTAL     ACCESS:   32975892  HIT:   32763850  MISS:     212042
L1D LOAD      ACCESS:   18814933  HIT:   18706419  MISS:     108514
L1D RFO       ACCESS:   14160959  HIT:   14057431  MISS:     103528
L1D PREFETCH  ACCESS:          0  HIT:          0  MISS:          0
L1D WRITEBACK ACCESS:          0  HIT:          0  MISS:          0
L1I TOTAL     ACCESS:   22232422  HIT:   21863191  MISS:     369231
L1I LOAD      ACCESS:   22232422  HIT:   21863191  MISS:     369231
L1I RFO       ACCESS:          0  HIT:          0  MISS:          0
L1I PREFETCH  ACCESS:          0  HIT:          0  MISS:          0
L1I WRITEBACK ACCESS:          0  HIT:          0  MISS:          0
L2C TOTAL     ACCESS:    1119040  HIT:    1055485  MISS:      63555
L2C LOAD      ACCESS:     477742  HIT:     429835  MISS:      47907
L2C RFO       ACCESS:     103524  HIT:      90729  MISS:      12795
L2C PREFETCH  ACCESS:     390566  HIT:     388197  MISS:       2369
L2C WRITEBACK ACCESS:     147208  HIT:     146724  MISS:        484
LLC TOTAL     ACCESS:     184152  HIT:      69964  MISS:     114188
LLC LOAD      ACCESS:      47484  HIT:      12021  MISS:      35463
LLC RFO       ACCESS:      12795  HIT:       5229  MISS:       7566
LLC PREFETCH  ACCESS:      87646  HIT:      43937  MISS:      43709
LLC WRITEBACK ACCESS:      36227  HIT:       8777  MISS:      27450

CPU 3 cumulative IPC: 0.713314 instructions: 161545867 cycles: 226472368
L1D TOTAL     ACCESS:   94213608  HIT:   92852097  MISS:    1361511
L1D LOAD      ACCESS:   84958320  HIT:   83596912  MISS:    1361408
L1D RFO       ACCESS:    9255288  HIT:    9255185  MISS:        103
L1D PREFETCH  ACCESS:          0  HIT:          0  MISS:          0
L1D WRITEBACK ACCESS:          0  HIT:          0  MISS:          0
L1I TOTAL     ACCESS:   44783203  HIT:   44783075  MISS:        128
L1I LOAD      ACCESS:   44783203  HIT:   44783075  MISS:        128
L1I RFO       ACCESS:          0  HIT:          0  MISS:          0
L1I PREFETCH  ACCESS:          0  HIT:          0  MISS:          0
L1I WRITEBACK ACCESS:          0  HIT:          0  MISS:          0
L2C TOTAL     ACCESS:    3229722  HIT:    2089952  MISS:    1139770
L2C LOAD      ACCESS:    1361349  HIT:     816012  MISS:     545337
L2C RFO       ACCESS:         93  HIT:         79  MISS:         14
L2C PREFETCH  ACCESS:    1260739  HIT:     666365  MISS:     594374
L2C WRITEBACK ACCESS:     607541  HIT:     607496  MISS:         45
LLC TOTAL     ACCESS:    6090848  HIT:    4915436  MISS:    1175412
LLC LOAD      ACCESS:     545255  HIT:     511505  MISS:      33750
LLC RFO       ACCESS:         14  HIT:          4  MISS:         10
LLC PREFETCH  ACCESS:    4944057  HIT:    3802436  MISS:    1141621
LLC WRITEBACK ACCESS:     601522  HIT:     601491  MISS:         31

CPU 4 cumulative IPC: 1.06817 instructions: 241910201 cycles: 226472368
L1D TOTAL     ACCESS:  119739454  HIT:  114832770  MISS:    4906684
L1D LOAD      ACCESS:  101803124  HIT:   97019381  MISS:    4783743
L1D RFO       ACCESS:   17936330  HIT:   17813389  MISS:     122941
L1D PREFETCH  ACCESS:          0  HIT:          0  MISS:          0
L1D WRITEBACK ACCESS:          0  HIT:          0  MISS:          0
L1I TOTAL     ACCESS:   56909612  HIT:   56909612  MISS:          0
L1I LOAD      ACCESS:   56909612  HIT:   56909612  MISS:          0
L1I RFO       ACCESS:          0  HIT:          0  MISS:          0
L1I PREFETCH  ACCESS:          0  HIT:          0  MISS:          0
L1I WRITEBACK ACCESS:          0  HIT:          0  MISS:          0
L2C TOTAL     ACCESS:    7271471  HIT:    2830477  MISS:    4440994
L2C LOAD      ACCESS:    4782327  HIT:    1839322  MISS:    2943005
L2C RFO       ACCESS:     122149  HIT:       8321  MISS:     113828
L2C PREFETCH  ACCESS:    2216575  HIT:     833585  MISS:    1382990
L2C WRITEBACK ACCESS:     150420  HIT:     149249  MISS:       1171
LLC TOTAL     ACCESS:   14567507  HIT:   10207204  MISS:    4360303
LLC LOAD      ACCESS:    2646342  HIT:    2458923  MISS:     187419
LLC RFO       ACCESS:     113828  HIT:          0  MISS:     113828
LLC PREFETCH  ACCESS:   11692296  HIT:    7633413  MISS:    4058883
LLC WRITEBACK ACCESS:     115041  HIT:     114868  MISS:        173

CPU 5 cumulative IPC: 0.646742 instructions: 146469157 cycles: 226472368
L1D TOTAL     ACCESS:   27132684  HIT:   24224779  MISS:    2907905
L1D LOAD      ACCESS:   23127298  HIT:   20373214  MISS:    2754084
L1D RFO       ACCESS:    4005386  HIT:    3851565  MISS:     153821
L1D PREFETCH  ACCESS:          0  HIT:          0  MISS:          0
L1D WRITEBACK ACCESS:          0  HIT:          0  MISS:          0
L1I TOTAL     ACCESS:   38389818  HIT:   38389662  MISS:        156
L1I LOAD      ACCESS:   38389818  HIT:   38389662  MISS:        156
L1I RFO       ACCESS:          0  HIT:          0  MISS:          0
L1I PREFETCH  ACCESS:          0  HIT:          0  MISS:          0
L1I WRITEBACK ACCESS:          0  HIT:          0  MISS:          0
L2C TOTAL     ACCESS:    4381634  HIT:    2200251  MISS:    2181383
L2C LOAD      ACCESS:    2754238  HIT:    1271860  MISS:    1482378
L2C RFO       ACCESS:     153801  HIT:      32498  MISS:     121303
L2C PREFETCH  ACCESS:    1196801  HIT:     619499  MISS:     577302
L2C WRITEBACK ACCESS:     276794  HIT:     276394  MISS:        400
LLC TOTAL     ACCESS:    7085232  HIT:    4790617  MISS:    2294615
LLC LOAD      ACCESS:    1420132  HIT:     890425  MISS:     529707
LLC RFO       ACCESS:     121299  HIT:      34889  MISS:      86410
LLC PREFETCH  ACCESS:    5319431  HIT:    3642273  MISS:    1677158
LLC WRITEBACK ACCESS:     224370  HIT:     223030  MISS:       1340

CPU 6 cumulative IPC: 0.677401 instructions: 153412669 cycles: 226472368
L1D TOTAL     ACCESS:   56556989  HIT:   55217583  MISS:    1339406
L1D LOAD      ACCESS:   28685771  HIT:   27352661  MISS:    1333110
L1D RFO       ACCESS:   27871218  HIT:   27864922  MISS:       6296
L1D PREFETCH  ACCESS:          0  HIT:          0  MISS:          0
L1D WRITEBACK ACCESS:          0  HIT:          0  MISS:          0
L1I TOTAL     ACCESS:   57486879  HIT:   57486877  MISS:          2
L1I LOAD      ACCESS:   57486879  HIT:   57486877  MISS:          2
L1I RFO       ACCESS:          0  HIT:          0  MISS:          0
L1I PREFETCH  ACCESS:          0  HIT:          0  MISS:          0
L1I WRITEBACK ACCESS:          0  HIT:          0  MISS:          0
L2C TOTAL     ACCESS:    2270568  HIT:    2233009  MISS:      37559
L2C LOAD      ACCESS:    1333112  HIT:    1300943  MISS:      32169
L2C RFO       ACCESS:       6296  HIT:       1609  MISS:       4687
L2C PREFETCH  ACCESS:     893050  HIT:     892354  MISS:        696
L2C WRITEBACK ACCESS:      38110  HIT:      38103  MISS:          7
LLC TOTAL     ACCESS:     319842  HIT:     251456  MISS:      68386
LLC LOAD      ACCESS:      32169  HIT:       4099  MISS:      28070
LLC RFO       ACCESS:       4686  HIT:         73  MISS:       4613
LLC PREFETCH  ACCESS:     271460  HIT:     247170  MISS:      24290
LLC WRITEBACK ACCESS:      11527  HIT:        114  MISS:      11413

CPU 7 cumulative IPC: 0.947726 instructions: 214633742 cycles: 226472368
L1D TOTAL     ACCESS:   62886510  HIT:   60728837  MISS:    2157673
L1D LOAD      ACCESS:   57537665  HIT:   56040637  MISS:    1497028
L1D RFO       ACCESS:    5348845  HIT:    4688200  MISS:     660645
L1D PREFETCH  ACCESS:          0  HIT:          0  MISS:          0
L1D WRITEBACK ACCESS:          0  HIT:          0  MISS:          0
L1I TOTAL     ACCESS:   47639388  HIT:   47639075  MISS:        313
L1I LOAD      ACCESS:   47639388  HIT:   47639075  MISS:        313
L1I RFO       ACCESS:          0  HIT:          0  MISS:          0
L1I PREFETCH  ACCESS:          0  HIT:          0  MISS:          0
L1I WRITEBACK ACCESS:          0  HIT:          0  MISS:          0
L2C TOTAL     ACCESS:    4023319  HIT:    2034291  MISS:    1989028
L2C LOAD      ACCESS:    1497341  HIT:     824142  MISS:     673199
L2C RFO       ACCESS:     660585  HIT:      50186  MISS:     610399
L2C PREFETCH  ACCESS:    1026539  HIT:     321759  MISS:     704780
L2C WRITEBACK ACCESS:     838854  HIT:     838204  MISS:        650
LLC TOTAL     ACCESS:    7409499  HIT:    5528655  MISS:    1880844
LLC LOAD      ACCESS:     633248  HIT:     576141  MISS:      57107
LLC RFO       ACCESS:     610397  HIT:      43861  MISS:     566536
LLC PREFETCH  ACCESS:    5384305  HIT:    4127612  MISS:    1256693
LLC WRITEBACK ACCESS:     781549  HIT:     781041  MISS:        508

Region of Interest Statistics

CPU 0 cumulative IPC: 0.467529 instructions: 100000001 cycles: 213890621
L1D TOTAL     ACCESS:   58775488  HIT:   57239312  MISS:    1536176
L1D LOAD      ACCESS:   51544664  HIT:   50008546  MISS:    1536118
L1D RFO       ACCESS:    7230824  HIT:    7230766  MISS:         58
L1D PREFETCH  ACCESS:          0  HIT:          0  MISS:          0
L1D WRITEBACK ACCESS:          0  HIT:          0  MISS:          0
L1D PREFETCH  REQUESTED:          0  ISSUED:          0  USEFUL:          0  USELESS:          0
L1I TOTAL     ACCESS:   28382947  HIT:   28382838  MISS:        109
L1I LOAD      ACCESS:   28382947  HIT:   28382838  MISS:        109
L1I RFO       ACCESS:          0  HIT:          0  MISS:          0
L1I PREFETCH  ACCESS:          0  HIT:          0  MISS:          0
L1I WRITEBACK ACCESS:          0  HIT:          0  MISS:          0
L1I PREFETCH  REQUESTED:          0  ISSUED:          0  USEFUL:          0  USELESS:          0
L2C TOTAL     ACCESS:    2629582  HIT:    1238202  MISS:    1391380
L2C LOAD      ACCESS:    1536088  HIT:     336715  MISS:    1199373
L2C RFO       ACCESS:         43  HIT:         32  MISS:         11
L2C PREFETCH  ACCESS:     388066  HIT:     196124  MISS:     191942
L2C WRITEBACK ACCESS:     705385  HIT:     705331  MISS:         54
L2C PREFETCH  REQUESTED:    3326052  ISSUED:    3326052  USEFUL:     225977  USELESS:      18641
LLC TOTAL     ACCESS:    4412157  HIT:    2661561  MISS:    1750596
LLC LOAD      ACCESS:    1197619  HIT:     616014  MISS:     581605
LLC RFO       ACCESS:         11  HIT:          1  MISS:         10
LLC PREFETCH  ACCESS:    2510448  HIT:    1341492  MISS:    1168956
LLC WRITEBACK ACCESS:     704079  HIT:     704054  MISS:         25
LLC PREFETCH  REQUESTED:          0  ISSUED:          0  USEFUL:    5114486  USELESS:    5215192
Major fault: 0 Minor fault: 155453

CPU 1 cumulative IPC: 1.1949 instructions: 100000001 cycles: 83689019
L1D TOTAL     ACCESS:   21110539  HIT:   20567371  MISS:     543168
L1D LOAD      ACCESS:   17344014  HIT:   16827891  MISS:     516123
L1D RFO       ACCESS:    3766525  HIT:    3739480  MISS:      27045
L1D PREFETCH  ACCESS:          0  HIT:          0  MISS:          0
L1D WRITEBACK ACCESS:          0  HIT:          0  MISS:          0
L1D PREFETCH  REQUESTED:          0  ISSUED:          0  USEFUL:          0  USELESS:          0
L1I TOTAL     ACCESS:   25664588  HIT:   25664588  MISS:          0
L1I LOAD      ACCESS:   25664588  HIT:   25664588  MISS:          0
L1I RFO       ACCESS:          0  HIT:          0  MISS:          0
L1I PREFETCH  ACCESS:          0  HIT:          0  MISS:          0
L1I WRITEBACK ACCESS:          0  HIT:          0  MISS:          0
L1I PREFETCH  REQUESTED:          0  ISSUED:          0  USEFUL:          0  USELESS:          0
L2C TOTAL     ACCESS:    1288311  HIT:    1271580  MISS:      16731
L2C LOAD      ACCESS:     516085  HIT:     501697  MISS:      14388
L2C RFO       ACCESS:      27037  HIT:      26929  MISS:        108
L2C PREFETCH  ACCESS:     646547  HIT:     644314  MISS:       2233
L2C WRITEBACK ACCESS:      98642  HIT:      98640  MISS:          2
L2C PREFETCH  REQUESTED:    2715548  ISSUED:    2715548  USEFUL:       6733  USELESS:        727
LLC TOTAL     ACCESS:      64055  HIT:      40426  MISS:      23629
LLC LOAD      ACCESS:      13078  HIT:       6597  MISS:       6481
LLC RFO       ACCESS:        108  HIT:         91  MISS:         17
LLC PREFETCH  ACCESS:      47468  HIT:      33417  MISS:      14051
LLC WRITEBACK ACCESS:       3401  HIT:        321  MISS:       3080
LLC PREFETCH  REQUESTED:          0  ISSUED:          0  USEFUL:    5114486  USELESS:    5215192
Major fault: 0 Minor fault: 610

CPU 2 cumulative IPC: 0.441555 instructions: 100000000 cycles: 226472368
L1D TOTAL     ACCESS:   32975892  HIT:   32763850  MISS:     212042
L1D LOAD      ACCESS:   18814933  HIT:   18706419  MISS:     108514
L1D RFO       ACCESS:   14160959  HIT:   14057431  MISS:     103528
L1D PREFETCH  ACCESS:          0  HIT:          0  MISS:          0
L1D WRITEBACK ACCESS:          0  HIT:          0  MISS:          0
L1D PREFETCH  REQUESTED:          0  ISSUED:          0  USEFUL:          0  USELESS:          0
L1I TOTAL     ACCESS:   22232422  HIT:   21863191  MISS:     369231
L1I LOAD      ACCESS:   22232422  HIT:   21863191  MISS:     369231
L1I RFO       ACCESS:          0  HIT:          0  MISS:          0
L1I PREFETCH  ACCESS:          0  HIT:          0  MISS:          0
L1I WRITEBACK ACCESS:          0  HIT:          0  MISS:          0
L1I PREFETCH  REQUESTED:          0  ISSUED:          0  USEFUL:          0  USELESS:          0
L2C TOTAL     ACCESS:    1119040  HIT:    1055485  MISS:      63555
L2C LOAD      ACCESS:     477742  HIT:     429835  MISS:      47907
L2C RFO       ACCESS:     103524  HIT:      90729  MISS:      12795
L2C PREFETCH  ACCESS:     390566  HIT:     388197  MISS:       2369
L2C WRITEBACK ACCESS:     147208  HIT:     146724  MISS:        484
L2C PREFETCH  REQUESTED:     698756  ISSUED:     698756  USEFUL:       3230  USELESS:       1227
LLC TOTAL     ACCESS:     184152  HIT:      69964  MISS:     114188
LLC LOAD      ACCESS:      47484  HIT:      12021  MISS:      35463
LLC RFO       ACCESS:      12795  HIT:       5229  MISS:       7566
LLC PREFETCH  ACCESS:      87646  HIT:      43937  MISS:      43709
LLC WRITEBACK ACCESS:      36227  HIT:       8777  MISS:      27450
LLC PREFETCH  REQUESTED:          0  ISSUED:          0  USEFUL:    5114486  USELESS:    5215192
Major fault: 0 Minor fault: 3144

CPU 3 cumulative IPC: 0.703727 instructions: 100000002 cycles: 142100571
L1D TOTAL     ACCESS:   58750668  HIT:   57899860  MISS:     850808
L1D LOAD      ACCESS:   52844258  HIT:   51993522  MISS:     850736
L1D RFO       ACCESS:    5906410  HIT:    5906338  MISS:         72
L1D PREFETCH  ACCESS:          0  HIT:          0  MISS:          0
L1D WRITEBACK ACCESS:          0  HIT:          0  MISS:          0
L1D PREFETCH  REQUESTED:          0  ISSUED:          0  USEFUL:          0  USELESS:          0
L1I TOTAL     ACCESS:   28049219  HIT:   28049163  MISS:         56
L1I LOAD      ACCESS:   28049219  HIT:   28049163  MISS:         56
L1I RFO       ACCESS:          0  HIT:          0  MISS:          0
L1I PREFETCH  ACCESS:          0  HIT:          0  MISS:          0
L1I WRITEBACK ACCESS:          0  HIT:          0  MISS:          0
L1I PREFETCH  REQUESTED:          0  ISSUED:          0  USEFUL:          0  USELESS:          0
L2C TOTAL     ACCESS:    2054121  HIT:    1361665  MISS:     692456
L2C LOAD      ACCESS:     850695  HIT:     512382  MISS:     338313
L2C RFO       ACCESS:         68  HIT:         63  MISS:          5
L2C PREFETCH  ACCESS:     826415  HIT:     472287  MISS:     354128
L2C WRITEBACK ACCESS:     376943  HIT:     376933  MISS:         10
L2C PREFETCH  REQUESTED:    6285106  ISSUED:    6284986  USEFUL:     638429  USELESS:      20411
LLC TOTAL     ACCESS:    3635711  HIT:    2919824  MISS:     715887
LLC LOAD      ACCESS:     338307  HIT:     316853  MISS:      21454
LLC RFO       ACCESS:          5  HIT:          3  MISS:          2
LLC PREFETCH  ACCESS:    2924112  HIT:    2229692  MISS:     694420
LLC WRITEBACK ACCESS:     373287  HIT:     373276  MISS:         11
LLC PREFETCH  REQUESTED:          0  ISSUED:          0  USEFUL:    5114486  USELESS:    5215192
Major fault: 0 Minor fault: 17893

CPU 4 cumulative IPC: 1.06312 instructions: 100000001 cycles: 94062700
L1D TOTAL     ACCESS:   49485565  HIT:   47457376  MISS:    2028189
L1D LOAD      ACCESS:   42078437  HIT:   40101067  MISS:    1977370
L1D RFO       ACCESS:    7407128  HIT:    7356309  MISS:      50819
L1D PREFETCH  ACCESS:          0  HIT:          0  MISS:          0
L1D WRITEBACK ACCESS:          0  HIT:          0  MISS:          0
L1D PREFETCH  REQUESTED:          0  ISSUED:          0  USEFUL:          0  USELESS:          0
L1I TOTAL     ACCESS:   23523035  HIT:   23523035  MISS:          0
L1I LOAD      ACCESS:   23523035  HIT:   23523035  MISS:          0
L1I RFO       ACCESS:          0  HIT:          0  MISS:          0
L1I PREFETCH  ACCESS:          0  HIT:          0  MISS:          0
L1I WRITEBACK ACCESS:          0  HIT:          0  MISS:          0
L1I PREFETCH  REQUESTED:          0  ISSUED:          0  USEFUL:          0  USELESS:          0
L2C TOTAL     ACCESS:    3010051  HIT:    1174154  MISS:    1835897
L2C LOAD      ACCESS:    1976765  HIT:     770778  MISS:    1205987
L2C RFO       ACCESS:      50474  HIT:       3420  MISS:      47054
L2C PREFETCH  ACCESS:     920607  HIT:     338291  MISS:     582316
L2C WRITEBACK ACCESS:      62205  HIT:      61665  MISS:        540
L2C PREFETCH  REQUESTED:   23003765  ISSUED:   18164488  USEFUL:    1640510  USELESS:        116
LLC TOTAL     ACCESS:    5842286  HIT:    4030484  MISS:    1811802
LLC LOAD      ACCESS:    1075565  HIT:     998901  MISS:      76664
LLC RFO       ACCESS:      47054  HIT:          0  MISS:      47054
LLC PREFETCH  ACCESS:    4672044  HIT:    2984036  MISS:    1688008
LLC WRITEBACK ACCESS:      47623  HIT:      47547  MISS:         76
LLC PREFETCH  REQUESTED:          0  ISSUED:          0  USEFUL:    5114486  USELESS:    5215192
Major fault: 0 Minor fault: 72578

CPU 5 cumulative IPC: 0.649046 instructions: 100000001 cycles: 154072172
L1D TOTAL     ACCESS:   18530886  HIT:   16565622  MISS:    1965264
L1D LOAD      ACCESS:   15762429  HIT:   13902293  MISS:    1860136
L1D RFO       ACCESS:    2768457  HIT:    2663329  MISS:     105128
L1D PREFETCH  ACCESS:          0  HIT:          0  MISS:          0
L1D WRITEBACK ACCESS:          0  HIT:          0  MISS:          0
L1D PREFETCH  REQUESTED:          0  ISSUED:          0  USEFUL:          0  USELESS:          0
L1I TOTAL     ACCESS:   26184878  HIT:   26184722  MISS:        156
L1I LOAD      ACCESS:   26184878  HIT:   26184722  MISS:        156
L1I RFO       ACCESS:          0  HIT:          0  MISS:          0
L1I PREFETCH  ACCESS:          0  HIT:          0  MISS:          0
L1I WRITEBACK ACCESS:          0  HIT:          0  MISS:          0
L1I PREFETCH  REQUESTED:          0  ISSUED:          0  USEFUL:          0  USELESS:          0
L2C TOTAL     ACCESS:    2959377  HIT:    1482382  MISS:    1476995
L2C LOAD      ACCESS:    1860292  HIT:     853138  MISS:    1007154
L2C RFO       ACCESS:     105114  HIT:      22900  MISS:      82214
L2C PREFETCH  ACCESS:     808295  HIT:     420942  MISS:     387353
L2C WRITEBACK ACCESS:     185676  HIT:     185402  MISS:        274
L2C PREFETCH  REQUESTED:    8950341  ISSUED:    8950341  USEFUL:     728945  USELESS:      37152
LLC TOTAL     ACCESS:    4774631  HIT:    3274678  MISS:    1499953
LLC LOAD      ACCESS:     965138  HIT:     616953  MISS:     348185
LLC RFO       ACCESS:      82212  HIT:      26343  MISS:      55869
LLC PREFETCH  ACCESS:    3577175  HIT:    2482172  MISS:    1095003
LLC WRITEBACK ACCESS:     150106  HIT:     149210  MISS:        896
LLC PREFETCH  REQUESTED:          0  ISSUED:          0  USEFUL:    5114486  USELESS:    5215192
Major fault: 0 Minor fault: 4256

CPU 6 cumulative IPC: 0.677127 instructions: 100000000 cycles: 147682703
L1D TOTAL     ACCESS:   36883795  HIT:   36011065  MISS:     872730
L1D LOAD      ACCESS:   18708425  HIT:   17839924  MISS:     868501
L1D RFO       ACCESS:   18175370  HIT:   18171141  MISS:       4229
L1D PREFETCH  ACCESS:          0  HIT:          0  MISS:          0
L1D WRITEBACK ACCESS:          0  HIT:          0  MISS:          0
L1D PREFETCH  REQUESTED:          0  ISSUED:          0  USEFUL:          0  USELESS:          0
L1I TOTAL     ACCESS:   37400280  HIT:   37400278  MISS:          2
L1I LOAD      ACCESS:   37400280  HIT:   37400278  MISS:          2
L1I RFO       ACCESS:          0  HIT:          0  MISS:          0
L1I PREFETCH  ACCESS:          0  HIT:          0  MISS:          0
L1I WRITEBACK ACCESS:          0  HIT:          0  MISS:          0
L1I PREFETCH  REQUESTED:          0  ISSUED:          0  USEFUL:          0  USELESS:          0
L2C TOTAL     ACCESS:    1470479  HIT:    1445737  MISS:      24742
L2C LOAD      ACCESS:     868503  HIT:     847406  MISS:      21097
L2C RFO       ACCESS:       4229  HIT:       1078  MISS:       3151
L2C PREFETCH  ACCESS:     573363  HIT:     572872  MISS:        491
L2C WRITEBACK ACCESS:      24384  HIT:      24381  MISS:          3
L2C PREFETCH  REQUESTED:    1404488  ISSUED:    1404488  USEFUL:        233  USELESS:        472
LLC TOTAL     ACCESS:     222103  HIT:     177110  MISS:      44993
LLC LOAD      ACCESS:      21097  HIT:       2775  MISS:      18322
LLC RFO       ACCESS:       3151  HIT:         47  MISS:       3104
LLC PREFETCH  ACCESS:     190205  HIT:     174217  MISS:      15988
LLC WRITEBACK ACCESS:       7650  HIT:         71  MISS:       7579
LLC PREFETCH  REQUESTED:          0  ISSUED:          0  USEFUL:    5114486  USELESS:    5215192
Major fault: 0 Minor fault: 2805

CPU 7 cumulative IPC: 0.905193 instructions: 100000001 cycles: 110473662
L1D TOTAL     ACCESS:   28402233  HIT:   27135528  MISS:    1266705
L1D LOAD      ACCESS:   24396346  HIT:   23491343  MISS:     905003
L1D RFO       ACCESS:    4005887  HIT:    3644185  MISS:     361702
L1D PREFETCH  ACCESS:          0  HIT:          0  MISS:          0
L1D WRITEBACK ACCESS:          0  HIT:          0  MISS:          0
L1D PREFETCH  REQUESTED:          0  ISSUED:          0  USEFUL:          0  USELESS:          0
L1I TOTAL     ACCESS:   22056949  HIT:   22056663  MISS:        286
L1I LOAD      ACCESS:   22056949  HIT:   22056663  MISS:        286
L1I RFO       ACCESS:          0  HIT:          0  MISS:          0
L1I PREFETCH  ACCESS:          0  HIT:          0  MISS:          0
L1I WRITEBACK ACCESS:          0  HIT:          0  MISS:          0
L1I PREFETCH  REQUESTED:          0  ISSUED:          0  USEFUL:          0  USELESS:          0
L2C TOTAL     ACCESS:    2473163  HIT:    1375353  MISS:    1097810
L2C LOAD      ACCESS:     905289  HIT:     464629  MISS:     440660
L2C RFO       ACCESS:     361642  HIT:      50186  MISS:     311456
L2C PREFETCH  ACCESS:     666448  HIT:     321402  MISS:     345046
L2C WRITEBACK ACCESS:     539784  HIT:     539136  MISS:        648
L2C PREFETCH  REQUESTED:    7602698  ISSUED:    7602252  USEFUL:     786015  USELESS:       8720
LLC TOTAL     ACCESS:    3819110  HIT:    2830892  MISS:     988218
LLC LOAD      ACCESS:     403625  HIT:     360990  MISS:      42635
LLC RFO       ACCESS:     311454  HIT:      43861  MISS:     267593
LLC PREFETCH  ACCESS:    2622712  HIT:    1945228  MISS:     677484
LLC WRITEBACK ACCESS:     481319  HIT:     480813  MISS:        506
LLC PREFETCH  REQUESTED:          0  ISSUED:          0  USEFUL:    5114486  USELESS:    5215192
Major fault: 0 Minor fault: 18406

DRAM Statistics
 CHANNEL 0
 RQ ROW_BUFFER_HIT:    3091988  ROW_BUFFER_MISS:    2770298
 DBUS_CONGESTED:    8984335
 WQ ROW_BUFFER_HIT:     100913  ROW_BUFFER_MISS:    1109842  FULL:          0

 CHANNEL 1
 RQ ROW_BUFFER_HIT:    3086583  ROW_BUFFER_MISS:    2786791
 DBUS_CONGESTED:    8984335
 WQ ROW_BUFFER_HIT:     100558  ROW_BUFFER_MISS:    1110485  FULL:          0

 AVG_CONGESTED_CYCLE: 13
