Initialize SIGNATURE TABLE
ST_SET: 1
ST_WAY: 256
ST_TAG_BIT: 16
ST_TAG_MASK: ffff

Initialize PATTERN TABLE
PT_SET: 512
PT_WAY: 4
SIG_DELTA_BIT: 7
C_SIG_BIT: 4
C_DELTA_BIT: 4

Initialize PREFETCH FILTER
FILTER_SET: 1024

*** ChampSim Multicore Out-of-Order Simulator ***

Warmup Instructions: 20000000
Simulation Instructions: 100000000
Number of CPUs: 8
LLC sets: 16384
LLC ways: 16
Off-chip DRAM Size: 8192 MB Channels: 2 Width: 64-bit Data Rate: 1600 MT/s

CPU 0 runs /scratch/user/djimenez/champsim-traces/speccpu2006/xz/433.milc-337B.champsimtrace.xz
CPU 1 runs /scratch/user/djimenez/champsim-traces/speccpu2006/xz/456.hmmer-88B.champsimtrace.xz
CPU 2 runs /scratch/user/djimenez/champsim-traces/speccpu2006/xz/453.povray-576B.champsimtrace.xz
CPU 3 runs /scratch/user/djimenez/champsim-traces/speccpu2006/xz/437.leslie3d-265B.champsimtrace.xz
CPU 4 runs /scratch/user/djimenez/champsim-traces/speccpu2006/xz/481.wrf-1281B.champsimtrace.xz
CPU 5 runs /scratch/user/djimenez/champsim-traces/speccpu2006/xz/403.gcc-48B.champsimtrace.xz
CPU 6 runs /scratch/user/djimenez/champsim-traces/speccpu2006/xz/429.mcf-22B.champsimtrace.xz
CPU 7 runs /scratch/user/djimenez/champsim-traces/speccpu2006/xz/435.gromacs-228B.champsimtrace.xz
Heartbeat CPU 0 instructions: 10000000 cycles: 4266086 heartbeat IPC: 2.34407 cumulative IPC: 2.34407 (Simulation time: 0 hr 4 min 1 sec) 
Heartbeat CPU 7 instructions: 10000000 cycles: 4738052 heartbeat IPC: 2.11057 cumulative IPC: 2.11057 (Simulation time: 0 hr 4 min 27 sec) 
Heartbeat CPU 3 instructions: 10000001 cycles: 4936538 heartbeat IPC: 2.02571 cumulative IPC: 2.02571 (Simulation time: 0 hr 4 min 38 sec) 
Heartbeat CPU 5 instructions: 10000001 cycles: 5486202 heartbeat IPC: 1.82275 cumulative IPC: 1.82275 (Simulation time: 0 hr 5 min 9 sec) 
Heartbeat CPU 4 instructions: 10000000 cycles: 5705226 heartbeat IPC: 1.75278 cumulative IPC: 1.75278 (Simulation time: 0 hr 5 min 21 sec) 
Heartbeat CPU 6 instructions: 10000001 cycles: 5781660 heartbeat IPC: 1.72961 cumulative IPC: 1.72961 (Simulation time: 0 hr 5 min 27 sec) 
Heartbeat CPU 1 instructions: 10000001 cycles: 6239761 heartbeat IPC: 1.60263 cumulative IPC: 1.60263 (Simulation time: 0 hr 5 min 57 sec) 
Heartbeat CPU 2 instructions: 10000000 cycles: 6674697 heartbeat IPC: 1.4982 cumulative IPC: 1.4982 (Simulation time: 0 hr 6 min 27 sec) 
Heartbeat CPU 0 instructions: 20000000 cycles: 8103535 heartbeat IPC: 2.6059 cumulative IPC: 2.46806 (Simulation time: 0 hr 7 min 54 sec) 
Heartbeat CPU 7 instructions: 20000000 cycles: 9477312 heartbeat IPC: 2.11003 cumulative IPC: 2.1103 (Simulation time: 0 hr 9 min 44 sec) 
Heartbeat CPU 4 instructions: 20000000 cycles: 9614806 heartbeat IPC: 2.55782 cumulative IPC: 2.08013 (Simulation time: 0 hr 9 min 53 sec) 
Heartbeat CPU 3 instructions: 20000000 cycles: 9866820 heartbeat IPC: 2.02828 cumulative IPC: 2.027 (Simulation time: 0 hr 10 min 9 sec) 
Heartbeat CPU 5 instructions: 20000000 cycles: 10965571 heartbeat IPC: 1.82503 cumulative IPC: 1.82389 (Simulation time: 0 hr 11 min 12 sec) 
Heartbeat CPU 0 instructions: 30000003 cycles: 11405733 heartbeat IPC: 3.02829 cumulative IPC: 0.876752 (Simulation time: 0 hr 11 min 37 sec) 
Heartbeat CPU 6 instructions: 20000000 cycles: 11829173 heartbeat IPC: 1.65357 cumulative IPC: 1.69074 (Simulation time: 0 hr 12 min 0 sec) 
Heartbeat CPU 2 instructions: 20000000 cycles: 12199640 heartbeat IPC: 1.80997 cumulative IPC: 1.63939 (Simulation time: 0 hr 12 min 21 sec) 
Heartbeat CPU 1 instructions: 20000000 cycles: 12503765 heartbeat IPC: 1.59642 cumulative IPC: 1.59952 (Simulation time: 0 hr 12 min 38 sec) 

Warmup complete CPU 0 instructions: 33324572 cycles: 12503766 (Simulation time: 0 hr 12 min 38 sec) 
Warmup complete CPU 1 instructions: 20000001 cycles: 12503766 (Simulation time: 0 hr 12 min 38 sec) 
Warmup complete CPU 2 instructions: 20466114 cycles: 12503765 (Simulation time: 0 hr 12 min 38 sec) 
Warmup complete CPU 3 instructions: 25338606 cycles: 12503765 (Simulation time: 0 hr 12 min 38 sec) 
Warmup complete CPU 4 instructions: 26656884 cycles: 12503765 (Simulation time: 0 hr 12 min 38 sec) 
Warmup complete CPU 5 instructions: 22812798 cycles: 12503765 (Simulation time: 0 hr 12 min 38 sec) 
Warmup complete CPU 6 instructions: 21176952 cycles: 12503765 (Simulation time: 0 hr 12 min 38 sec) 
Warmup complete CPU 7 instructions: 26386688 cycles: 12503765 (Simulation time: 0 hr 12 min 38 sec) 

Heartbeat CPU 7 instructions: 30000002 cycles: 14883638 heartbeat IPC: 1.84969 cumulative IPC: 1.51828 (Simulation time: 0 hr 13 min 51 sec) 
Heartbeat CPU 4 instructions: 30000001 cycles: 15400570 heartbeat IPC: 1.72838 cumulative IPC: 1.15407 (Simulation time: 0 hr 14 min 7 sec) 
Heartbeat CPU 3 instructions: 30000000 cycles: 16955710 heartbeat IPC: 1.41066 cumulative IPC: 1.04705 (Simulation time: 0 hr 14 min 54 sec) 
Heartbeat CPU 0 instructions: 40000000 cycles: 21061785 heartbeat IPC: 1.03562 cumulative IPC: 0.78002 (Simulation time: 0 hr 16 min 54 sec) 
Heartbeat CPU 7 instructions: 40000000 cycles: 21513476 heartbeat IPC: 1.50833 cumulative IPC: 1.51096 (Simulation time: 0 hr 17 min 8 sec) 
Heartbeat CPU 5 instructions: 30000001 cycles: 23185608 heartbeat IPC: 0.818328 cumulative IPC: 0.672843 (Simulation time: 0 hr 17 min 57 sec) 
Heartbeat CPU 4 instructions: 40000000 cycles: 23946759 heartbeat IPC: 1.17011 cumulative IPC: 1.16605 (Simulation time: 0 hr 18 min 20 sec) 
Heartbeat CPU 1 instructions: 30000002 cycles: 24179426 heartbeat IPC: 0.856483 cumulative IPC: 0.856483 (Simulation time: 0 hr 18 min 27 sec) 
Heartbeat CPU 3 instructions: 40000000 cycles: 26536710 heartbeat IPC: 1.04373 cumulative IPC: 1.04478 (Simulation time: 0 hr 19 min 39 sec) 
Heartbeat CPU 7 instructions: 50000001 cycles: 28087157 heartbeat IPC: 1.52122 cumulative IPC: 1.51529 (Simulation time: 0 hr 20 min 27 sec) 
Heartbeat CPU 4 instructions: 50000003 cycles: 32839876 heartbeat IPC: 1.12447 cumulative IPC: 1.14787 (Simulation time: 0 hr 22 min 46 sec) 
Heartbeat CPU 6 instructions: 30000002 cycles: 33793300 heartbeat IPC: 0.455288 cumulative IPC: 0.414431 (Simulation time: 0 hr 23 min 11 sec) 
Heartbeat CPU 0 instructions: 50000002 cycles: 34477836 heartbeat IPC: 0.745376 cumulative IPC: 0.758869 (Simulation time: 0 hr 23 min 29 sec) 
Heartbeat CPU 2 instructions: 30000000 cycles: 35067200 heartbeat IPC: 0.437301 cumulative IPC: 0.422537 (Simulation time: 0 hr 23 min 44 sec) 
Heartbeat CPU 3 instructions: 50000000 cycles: 36105811 heartbeat IPC: 1.04503 cumulative IPC: 1.04488 (Simulation time: 0 hr 24 min 11 sec) 
Heartbeat CPU 1 instructions: 40000000 cycles: 36162538 heartbeat IPC: 0.834508 cumulative IPC: 0.845352 (Simulation time: 0 hr 24 min 13 sec) 
Heartbeat CPU 7 instructions: 60000000 cycles: 36924547 heartbeat IPC: 1.13156 cumulative IPC: 1.37642 (Simulation time: 0 hr 24 min 34 sec) 
Heartbeat CPU 5 instructions: 40000000 cycles: 38082849 heartbeat IPC: 0.671265 cumulative IPC: 0.671924 (Simulation time: 0 hr 25 min 7 sec) 
Heartbeat CPU 4 instructions: 60000000 cycles: 41600500 heartbeat IPC: 1.14147 cumulative IPC: 1.14594 (Simulation time: 0 hr 26 min 45 sec) 
Heartbeat CPU 7 instructions: 70000000 cycles: 45249759 heartbeat IPC: 1.20117 cumulative IPC: 1.33187 (Simulation time: 0 hr 28 min 27 sec) 
Heartbeat CPU 3 instructions: 60000000 cycles: 45620045 heartbeat IPC: 1.05106 cumulative IPC: 1.04666 (Simulation time: 0 hr 28 min 38 sec) 
Heartbeat CPU 1 instructions: 50000000 cycles: 48076446 heartbeat IPC: 0.839355 cumulative IPC: 0.843344 (Simulation time: 0 hr 29 min 51 sec) 
Heartbeat CPU 4 instructions: 70000001 cycles: 49546184 heartbeat IPC: 1.25855 cumulative IPC: 1.17009 (Simulation time: 0 hr 30 min 32 sec) 
Heartbeat CPU 0 instructions: 60000000 cycles: 49701041 heartbeat IPC: 0.656892 cumulative IPC: 0.717134 (Simulation time: 0 hr 30 min 36 sec) 
Heartbeat CPU 5 instructions: 50000003 cycles: 52887851 heartbeat IPC: 0.675448 cumulative IPC: 0.673216 (Simulation time: 0 hr 32 min 2 sec) 
Heartbeat CPU 7 instructions: 80000000 cycles: 53494947 heartbeat IPC: 1.21283 cumulative IPC: 1.30792 (Simulation time: 0 hr 32 min 19 sec) 
Heartbeat CPU 3 instructions: 70000003 cycles: 55059925 heartbeat IPC: 1.05934 cumulative IPC: 1.04947 (Simulation time: 0 hr 33 min 2 sec) 
Heartbeat CPU 4 instructions: 80000000 cycles: 57386349 heartbeat IPC: 1.27548 cumulative IPC: 1.1885 (Simulation time: 0 hr 34 min 7 sec) 
Heartbeat CPU 6 instructions: 40000000 cycles: 58412560 heartbeat IPC: 0.406186 cumulative IPC: 0.41001 (Simulation time: 0 hr 34 min 35 sec) 
Heartbeat CPU 2 instructions: 40000000 cycles: 59421099 heartbeat IPC: 0.410612 cumulative IPC: 0.416347 (Simulation time: 0 hr 35 min 4 sec) 
Heartbeat CPU 1 instructions: 60000000 cycles: 59955412 heartbeat IPC: 0.841824 cumulative IPC: 0.842963 (Simulation time: 0 hr 35 min 18 sec) 
Heartbeat CPU 7 instructions: 90000001 cycles: 62689224 heartbeat IPC: 1.08763 cumulative IPC: 1.26756 (Simulation time: 0 hr 36 min 35 sec) 
Heartbeat CPU 0 instructions: 70000003 cycles: 63911391 heartbeat IPC: 0.703713 cumulative IPC: 0.713424 (Simulation time: 0 hr 37 min 10 sec) 
Heartbeat CPU 4 instructions: 90000001 cycles: 64392501 heartbeat IPC: 1.42732 cumulative IPC: 1.22075 (Simulation time: 0 hr 37 min 23 sec) 
Heartbeat CPU 3 instructions: 80000000 cycles: 64527867 heartbeat IPC: 1.0562 cumulative IPC: 1.05069 (Simulation time: 0 hr 37 min 27 sec) 
Heartbeat CPU 5 instructions: 60000000 cycles: 67676529 heartbeat IPC: 0.676193 cumulative IPC: 0.674014 (Simulation time: 0 hr 38 min 53 sec) 
Heartbeat CPU 7 instructions: 100000000 cycles: 69877203 heartbeat IPC: 1.39121 cumulative IPC: 1.28306 (Simulation time: 0 hr 39 min 52 sec) 
Heartbeat CPU 1 instructions: 70000000 cycles: 71580064 heartbeat IPC: 0.860241 cumulative IPC: 0.846363 (Simulation time: 0 hr 40 min 40 sec) 
Heartbeat CPU 4 instructions: 100000000 cycles: 74107191 heartbeat IPC: 1.02937 cumulative IPC: 1.19057 (Simulation time: 0 hr 41 min 52 sec) 
Heartbeat CPU 3 instructions: 90000000 cycles: 74137683 heartbeat IPC: 1.0406 cumulative IPC: 1.04912 (Simulation time: 0 hr 41 min 53 sec) 
Heartbeat CPU 7 instructions: 110000001 cycles: 76386112 heartbeat IPC: 1.53636 cumulative IPC: 1.30886 (Simulation time: 0 hr 42 min 57 sec) 
Heartbeat CPU 0 instructions: 80000000 cycles: 77786628 heartbeat IPC: 0.720708 cumulative IPC: 0.714972 (Simulation time: 0 hr 43 min 37 sec) 
Heartbeat CPU 1 instructions: 80000000 cycles: 82337779 heartbeat IPC: 0.929565 cumulative IPC: 0.85918 (Simulation time: 0 hr 45 min 49 sec) 
Heartbeat CPU 5 instructions: 70000001 cycles: 82461442 heartbeat IPC: 0.676365 cumulative IPC: 0.674511 (Simulation time: 0 hr 45 min 52 sec) 
Heartbeat CPU 7 instructions: 120000000 cycles: 82965531 heartbeat IPC: 1.51989 cumulative IPC: 1.32857 (Simulation time: 0 hr 46 min 7 sec) 
Heartbeat CPU 4 instructions: 110000002 cycles: 83235822 heartbeat IPC: 1.09545 cumulative IPC: 1.17829 (Simulation time: 0 hr 46 min 14 sec) 
Heartbeat CPU 3 instructions: 100000000 cycles: 83600286 heartbeat IPC: 1.05679 cumulative IPC: 1.05014 (Simulation time: 0 hr 46 min 25 sec) 
Heartbeat CPU 2 instructions: 50000002 cycles: 83750313 heartbeat IPC: 0.411029 cumulative IPC: 0.414531 (Simulation time: 0 hr 46 min 29 sec) 
Finished CPU 7 instructions: 100000000 cycles: 74658327 cumulative IPC: 1.33944 (Simulation time: 0 hr 48 min 7 sec) 
Heartbeat CPU 7 instructions: 130000002 cycles: 89522986 heartbeat IPC: 1.52498 cumulative IPC: 1.34529 (Simulation time: 0 hr 49 min 16 sec) 
Heartbeat CPU 0 instructions: 90000003 cycles: 90848496 heartbeat IPC: 0.765588 cumulative IPC: 0.723411 (Simulation time: 0 hr 49 min 57 sec) 
Heartbeat CPU 6 instructions: 50000002 cycles: 91443493 heartbeat IPC: 0.302747 cumulative IPC: 0.365127 (Simulation time: 0 hr 50 min 16 sec) 
Heartbeat CPU 4 instructions: 120000000 cycles: 92410275 heartbeat IPC: 1.08998 cumulative IPC: 1.16815 (Simulation time: 0 hr 50 min 46 sec) 
Heartbeat CPU 1 instructions: 90000000 cycles: 92588412 heartbeat IPC: 0.97555 cumulative IPC: 0.874075 (Simulation time: 0 hr 50 min 51 sec) 
Heartbeat CPU 3 instructions: 110000001 cycles: 93016524 heartbeat IPC: 1.062 cumulative IPC: 1.05153 (Simulation time: 0 hr 51 min 4 sec) 
Heartbeat CPU 7 instructions: 140000000 cycles: 96080778 heartbeat IPC: 1.5249 cumulative IPC: 1.35938 (Simulation time: 0 hr 52 min 39 sec) 
Heartbeat CPU 5 instructions: 80000000 cycles: 97199761 heartbeat IPC: 0.678503 cumulative IPC: 0.675205 (Simulation time: 0 hr 53 min 13 sec) 
Finished CPU 4 instructions: 100000000 cycles: 85987178 cumulative IPC: 1.16296 (Simulation time: 0 hr 53 min 54 sec) 
Heartbeat CPU 4 instructions: 130000001 cycles: 101547054 heartbeat IPC: 1.09448 cumulative IPC: 1.16059 (Simulation time: 0 hr 55 min 28 sec) 
Heartbeat CPU 3 instructions: 120000000 cycles: 102363627 heartbeat IPC: 1.06985 cumulative IPC: 1.05343 (Simulation time: 0 hr 55 min 54 sec) 
Heartbeat CPU 1 instructions: 100000000 cycles: 102614534 heartbeat IPC: 0.997395 cumulative IPC: 0.887796 (Simulation time: 0 hr 56 min 2 sec) 
Heartbeat CPU 7 instructions: 150000000 cycles: 102640342 heartbeat IPC: 1.52449 cumulative IPC: 1.3714 (Simulation time: 0 hr 56 min 2 sec) 
Heartbeat CPU 0 instructions: 100000000 cycles: 103459891 heartbeat IPC: 0.792933 cumulative IPC: 0.73305 (Simulation time: 0 hr 56 min 28 sec) 
Finished CPU 3 instructions: 100000001 cycles: 94822497 cumulative IPC: 1.0546 (Simulation time: 0 hr 58 min 31 sec) 
Heartbeat CPU 2 instructions: 60000000 cycles: 108199043 heartbeat IPC: 0.409019 cumulative IPC: 0.413123 (Simulation time: 0 hr 58 min 57 sec) 
Heartbeat CPU 7 instructions: 160000000 cycles: 109222841 heartbeat IPC: 1.51918 cumulative IPC: 1.38146 (Simulation time: 0 hr 59 min 28 sec) 
Heartbeat CPU 4 instructions: 140000000 cycles: 110616823 heartbeat IPC: 1.10256 cumulative IPC: 1.15523 (Simulation time: 1 hr 0 min 10 sec) 
Heartbeat CPU 3 instructions: 130000000 cycles: 111690621 heartbeat IPC: 1.07216 cumulative IPC: 1.05519 (Simulation time: 1 hr 0 min 42 sec) 
Heartbeat CPU 5 instructions: 90000001 cycles: 111965333 heartbeat IPC: 0.677251 cumulative IPC: 0.675509 (Simulation time: 1 hr 0 min 51 sec) 
Heartbeat CPU 1 instructions: 110000001 cycles: 112312663 heartbeat IPC: 1.03113 cumulative IPC: 0.901723 (Simulation time: 1 hr 1 min 1 sec) 
Heartbeat CPU 7 instructions: 170000000 cycles: 115803727 heartbeat IPC: 1.51955 cumulative IPC: 1.39026 (Simulation time: 1 hr 2 min 43 sec) 
Heartbeat CPU 0 instructions: 110000000 cycles: 116155351 heartbeat IPC: 0.787683 cumulative IPC: 0.739742 (Simulation time: 1 hr 2 min 53 sec) 
Heartbeat CPU 4 instructions: 150000001 cycles: 119789234 heartbeat IPC: 1.09023 cumulative IPC: 1.14967 (Simulation time: 1 hr 4 min 42 sec) 
Heartbeat CPU 6 instructions: 60000000 cycles: 119996313 heartbeat IPC: 0.350228 cumulative IPC: 0.36117 (Simulation time: 1 hr 4 min 48 sec) 
Heartbeat CPU 3 instructions: 140000000 cycles: 121322341 heartbeat IPC: 1.03824 cumulative IPC: 1.05369 (Simulation time: 1 hr 5 min 28 sec) 
Heartbeat CPU 7 instructions: 180000000 cycles: 122353381 heartbeat IPC: 1.5268 cumulative IPC: 1.3984 (Simulation time: 1 hr 5 min 58 sec) 
Heartbeat CPU 1 instructions: 120000000 cycles: 122775498 heartbeat IPC: 0.955764 cumulative IPC: 0.906851 (Simulation time: 1 hr 6 min 11 sec) 
Finished CPU 1 instructions: 100000000 cycles: 110271740 cumulative IPC: 0.906851 (Simulation time: 1 hr 6 min 11 sec) 
Heartbeat CPU 5 instructions: 100000000 cycles: 126699743 heartbeat IPC: 0.678683 cumulative IPC: 0.675919 (Simulation time: 1 hr 8 min 15 sec) 
Heartbeat CPU 4 instructions: 160000000 cycles: 128522440 heartbeat IPC: 1.14505 cumulative IPC: 1.14932 (Simulation time: 1 hr 9 min 10 sec) 
Heartbeat CPU 7 instructions: 190000000 cycles: 128817229 heartbeat IPC: 1.54707 cumulative IPC: 1.40666 (Simulation time: 1 hr 9 min 18 sec) 
Heartbeat CPU 0 instructions: 120000000 cycles: 129252322 heartbeat IPC: 0.763535 cumulative IPC: 0.742411 (Simulation time: 1 hr 9 min 31 sec) 
Heartbeat CPU 3 instructions: 150000000 cycles: 131131343 heartbeat IPC: 1.01947 cumulative IPC: 1.05086 (Simulation time: 1 hr 10 min 27 sec) 
Heartbeat CPU 1 instructions: 130000003 cycles: 133080746 heartbeat IPC: 0.97038 cumulative IPC: 0.91228 (Simulation time: 1 hr 11 min 26 sec) 
Heartbeat CPU 2 instructions: 70000001 cycles: 133366645 heartbeat IPC: 0.397336 cumulative IPC: 0.409835 (Simulation time: 1 hr 11 min 35 sec) 
Heartbeat CPU 7 instructions: 200000000 cycles: 135306961 heartbeat IPC: 1.5409 cumulative IPC: 1.41375 (Simulation time: 1 hr 12 min 35 sec) 
Heartbeat CPU 4 instructions: 170000000 cycles: 136940773 heartbeat IPC: 1.18788 cumulative IPC: 1.15193 (Simulation time: 1 hr 13 min 29 sec) 
Heartbeat CPU 3 instructions: 160000000 cycles: 140957637 heartbeat IPC: 1.01768 cumulative IPC: 1.04832 (Simulation time: 1 hr 15 min 46 sec) 
Heartbeat CPU 5 instructions: 110000002 cycles: 141415935 heartbeat IPC: 0.679524 cumulative IPC: 0.67633 (Simulation time: 1 hr 16 min 5 sec) 
Heartbeat CPU 7 instructions: 210000002 cycles: 141850100 heartbeat IPC: 1.52832 cumulative IPC: 1.41955 (Simulation time: 1 hr 16 min 21 sec) 
Heartbeat CPU 0 instructions: 130000002 cycles: 142790148 heartbeat IPC: 0.738671 cumulative IPC: 0.742023 (Simulation time: 1 hr 16 min 56 sec) 
Heartbeat CPU 1 instructions: 140000000 cycles: 144154879 heartbeat IPC: 0.903005 cumulative IPC: 0.9115 (Simulation time: 1 hr 17 min 38 sec) 
Heartbeat CPU 4 instructions: 180000000 cycles: 145397271 heartbeat IPC: 1.18252 cumulative IPC: 1.15388 (Simulation time: 1 hr 18 min 15 sec) 
Finished CPU 0 instructions: 100000000 cycles: 134380267 cumulative IPC: 0.744157 (Simulation time: 1 hr 19 min 0 sec) 
Heartbeat CPU 6 instructions: 70000002 cycles: 147947432 heartbeat IPC: 0.357767 cumulative IPC: 0.360468 (Simulation time: 1 hr 19 min 33 sec) 
Heartbeat CPU 7 instructions: 220000000 cycles: 148342325 heartbeat IPC: 1.5403 cumulative IPC: 1.42532 (Simulation time: 1 hr 19 min 45 sec) 
Heartbeat CPU 3 instructions: 170000001 cycles: 150810164 heartbeat IPC: 1.01497 cumulative IPC: 1.04595 (Simulation time: 1 hr 21 min 0 sec) 
Heartbeat CPU 4 instructions: 190000001 cycles: 153832108 heartbeat IPC: 1.18556 cumulative IPC: 1.15577 (Simulation time: 1 hr 22 min 32 sec) 
Heartbeat CPU 7 instructions: 230000000 cycles: 154873544 heartbeat IPC: 1.53111 cumulative IPC: 1.43017 (Simulation time: 1 hr 23 min 3 sec) 
Heartbeat CPU 0 instructions: 140000000 cycles: 154893758 heartbeat IPC: 0.8262 cumulative IPC: 0.749178 (Simulation time: 1 hr 23 min 4 sec) 
Heartbeat CPU 1 instructions: 150000002 cycles: 155752805 heartbeat IPC: 0.862223 cumulative IPC: 0.90751 (Simulation time: 1 hr 23 min 30 sec) 
Heartbeat CPU 5 instructions: 120000000 cycles: 156283323 heartbeat IPC: 0.672613 cumulative IPC: 0.675946 (Simulation time: 1 hr 23 min 46 sec) 
Heartbeat CPU 2 instructions: 80000000 cycles: 158900524 heartbeat IPC: 0.391636 cumulative IPC: 0.406661 (Simulation time: 1 hr 25 min 11 sec) 
Finished CPU 5 instructions: 100000000 cycles: 147971003 cumulative IPC: 0.675808 (Simulation time: 1 hr 26 min 0 sec) 
Heartbeat CPU 3 instructions: 180000000 cycles: 160608603 heartbeat IPC: 1.02057 cumulative IPC: 1.04427 (Simulation time: 1 hr 26 min 5 sec) 
Heartbeat CPU 7 instructions: 240000000 cycles: 161396446 heartbeat IPC: 1.53306 cumulative IPC: 1.43468 (Simulation time: 1 hr 26 min 29 sec) 
Heartbeat CPU 4 instructions: 200000000 cycles: 163861738 heartbeat IPC: 0.997046 cumulative IPC: 1.14525 (Simulation time: 1 hr 27 min 47 sec) 
Heartbeat CPU 0 instructions: 150000003 cycles: 167230416 heartbeat IPC: 0.810593 cumulative IPC: 0.754075 (Simulation time: 1 hr 29 min 45 sec) 
Heartbeat CPU 1 instructions: 160000000 cycles: 167487188 heartbeat IPC: 0.852196 cumulative IPC: 0.903322 (Simulation time: 1 hr 29 min 53 sec) 
Heartbeat CPU 7 instructions: 250000001 cycles: 167941650 heartbeat IPC: 1.52784 cumulative IPC: 1.4386 (Simulation time: 1 hr 30 min 9 sec) 
Heartbeat CPU 3 instructions: 190000000 cycles: 170512356 heartbeat IPC: 1.00972 cumulative IPC: 1.0421 (Simulation time: 1 hr 31 min 35 sec) 
Heartbeat CPU 5 instructions: 130000003 cycles: 171159175 heartbeat IPC: 0.672231 cumulative IPC: 0.675598 (Simulation time: 1 hr 31 min 57 sec) 
Heartbeat CPU 4 instructions: 210000000 cycles: 175568357 heartbeat IPC: 0.854218 cumulative IPC: 1.12436 (Simulation time: 1 hr 34 min 14 sec) 
Heartbeat CPU 7 instructions: 260000000 cycles: 177189390 heartbeat IPC: 1.08135 cumulative IPC: 1.41854 (Simulation time: 1 hr 34 min 56 sec) 
Heartbeat CPU 1 instructions: 170000000 cycles: 179138147 heartbeat IPC: 0.858298 cumulative IPC: 0.900174 (Simulation time: 1 hr 35 min 48 sec) 
Heartbeat CPU 0 instructions: 160000000 cycles: 179708282 heartbeat IPC: 0.801419 cumulative IPC: 0.757608 (Simulation time: 1 hr 36 min 3 sec) 
Heartbeat CPU 6 instructions: 80000000 cycles: 179940477 heartbeat IPC: 0.312568 cumulative IPC: 0.351315 (Simulation time: 1 hr 36 min 9 sec) 
Heartbeat CPU 3 instructions: 200000000 cycles: 180125604 heartbeat IPC: 1.04023 cumulative IPC: 1.042 (Simulation time: 1 hr 36 min 14 sec) 
Heartbeat CPU 2 instructions: 90000000 cycles: 183573721 heartbeat IPC: 0.405298 cumulative IPC: 0.406465 (Simulation time: 1 hr 37 min 46 sec) 
Heartbeat CPU 7 instructions: 270000003 cycles: 184901887 heartbeat IPC: 1.2966 cumulative IPC: 1.41309 (Simulation time: 1 hr 38 min 23 sec) 
Heartbeat CPU 5 instructions: 140000000 cycles: 185982578 heartbeat IPC: 0.674609 cumulative IPC: 0.675513 (Simulation time: 1 hr 38 min 53 sec) 
Heartbeat CPU 4 instructions: 220000000 cycles: 187343146 heartbeat IPC: 0.849272 cumulative IPC: 1.10583 (Simulation time: 1 hr 39 min 30 sec) 
Heartbeat CPU 3 instructions: 210000003 cycles: 189499667 heartbeat IPC: 1.06677 cumulative IPC: 1.04331 (Simulation time: 1 hr 40 min 29 sec) 
Heartbeat CPU 1 instructions: 180000000 cycles: 190469839 heartbeat IPC: 0.882481 cumulative IPC: 0.899048 (Simulation time: 1 hr 40 min 55 sec) 
Heartbeat CPU 0 instructions: 170000001 cycles: 192330597 heartbeat IPC: 0.792248 cumulative IPC: 0.760039 (Simulation time: 1 hr 41 min 45 sec) 
Heartbeat CPU 7 instructions: 280000000 cycles: 193574937 heartbeat IPC: 1.153 cumulative IPC: 1.40063 (Simulation time: 1 hr 42 min 18 sec) 
Heartbeat CPU 3 instructions: 220000000 cycles: 198907294 heartbeat IPC: 1.06297 cumulative IPC: 1.0443 (Simulation time: 1 hr 44 min 45 sec) 
Heartbeat CPU 4 instructions: 230000003 cycles: 199132225 heartbeat IPC: 0.848243 cumulative IPC: 1.08956 (Simulation time: 1 hr 44 min 51 sec) 
Heartbeat CPU 5 instructions: 150000001 cycles: 200794225 heartbeat IPC: 0.675144 cumulative IPC: 0.675484 (Simulation time: 1 hr 45 min 35 sec) 
Heartbeat CPU 1 instructions: 190000000 cycles: 200884786 heartbeat IPC: 0.960159 cumulative IPC: 0.902426 (Simulation time: 1 hr 45 min 37 sec) 
Heartbeat CPU 7 instructions: 290000001 cycles: 202198591 heartbeat IPC: 1.1596 cumulative IPC: 1.38967 (Simulation time: 1 hr 46 min 12 sec) 
Heartbeat CPU 0 instructions: 180000000 cycles: 204602394 heartbeat IPC: 0.814876 cumulative IPC: 0.763542 (Simulation time: 1 hr 47 min 16 sec) 
Heartbeat CPU 2 instructions: 100000000 cycles: 208625887 heartbeat IPC: 0.399167 cumulative IPC: 0.405532 (Simulation time: 1 hr 49 min 4 sec) 
Heartbeat CPU 4 instructions: 240000000 cycles: 209351495 heartbeat IPC: 0.978543 cumulative IPC: 1.0838 (Simulation time: 1 hr 49 min 24 sec) 
Heartbeat CPU 7 instructions: 300000000 cycles: 209407741 heartbeat IPC: 1.38713 cumulative IPC: 1.38958 (Simulation time: 1 hr 49 min 25 sec) 
Heartbeat CPU 6 instructions: 90000003 cycles: 211048090 heartbeat IPC: 0.321465 cumulative IPC: 0.346638 (Simulation time: 1 hr 50 min 14 sec) 
Heartbeat CPU 3 instructions: 230000000 cycles: 211095096 heartbeat IPC: 0.820493 cumulative IPC: 1.03057 (Simulation time: 1 hr 50 min 15 sec) 
Heartbeat CPU 1 instructions: 200000000 cycles: 212618742 heartbeat IPC: 0.852228 cumulative IPC: 0.899483 (Simulation time: 1 hr 51 min 0 sec) 
Heartbeat CPU 5 instructions: 160000000 cycles: 215622154 heartbeat IPC: 0.674403 cumulative IPC: 0.675405 (Simulation time: 1 hr 52 min 26 sec) 
Heartbeat CPU 7 instructions: 310000002 cycles: 215962359 heartbeat IPC: 1.52564 cumulative IPC: 1.39396 (Simulation time: 1 hr 52 min 36 sec) 
Heartbeat CPU 4 instructions: 250000001 cycles: 216963962 heartbeat IPC: 1.31363 cumulative IPC: 1.09236 (Simulation time: 1 hr 53 min 4 sec) 
Heartbeat CPU 0 instructions: 190000000 cycles: 217000590 heartbeat IPC: 0.806569 cumulative IPC: 0.766151 (Simulation time: 1 hr 53 min 5 sec) 
Heartbeat CPU 7 instructions: 320000000 cycles: 222613030 heartbeat IPC: 1.50361 cumulative IPC: 1.39743 (Simulation time: 1 hr 55 min 40 sec) 
Heartbeat CPU 3 instructions: 240000000 cycles: 223496708 heartbeat IPC: 0.806347 cumulative IPC: 1.01739 (Simulation time: 1 hr 56 min 5 sec) 
Heartbeat CPU 1 instructions: 210000000 cycles: 224280939 heartbeat IPC: 0.857471 cumulative IPC: 0.897169 (Simulation time: 1 hr 56 min 27 sec) 
Heartbeat CPU 4 instructions: 260000000 cycles: 224540628 heartbeat IPC: 1.31984 cumulative IPC: 1.10048 (Simulation time: 1 hr 56 min 35 sec) 
Heartbeat CPU 7 instructions: 330000001 cycles: 229182012 heartbeat IPC: 1.52231 cumulative IPC: 1.40122 (Simulation time: 1 hr 58 min 48 sec) 
Heartbeat CPU 5 instructions: 170000002 cycles: 230370860 heartbeat IPC: 0.678026 cumulative IPC: 0.675583 (Simulation time: 1 hr 59 min 18 sec) 
Heartbeat CPU 0 instructions: 200000000 cycles: 232261694 heartbeat IPC: 0.655261 cumulative IPC: 0.75845 (Simulation time: 2 hr 0 min 10 sec) 
Heartbeat CPU 4 instructions: 270000002 cycles: 232978990 heartbeat IPC: 1.18506 cumulative IPC: 1.10372 (Simulation time: 2 hr 0 min 29 sec) 
Heartbeat CPU 2 instructions: 110000002 cycles: 234002384 heartbeat IPC: 0.394065 cumulative IPC: 0.404219 (Simulation time: 2 hr 0 min 55 sec) 
Heartbeat CPU 3 instructions: 250000000 cycles: 235748255 heartbeat IPC: 0.816223 cumulative IPC: 1.00635 (Simulation time: 2 hr 1 min 40 sec) 
Heartbeat CPU 7 instructions: 340000000 cycles: 235817311 heartbeat IPC: 1.50709 cumulative IPC: 1.40436 (Simulation time: 2 hr 1 min 42 sec) 
Heartbeat CPU 1 instructions: 220000000 cycles: 235927072 heartbeat IPC: 0.858654 cumulative IPC: 0.895162 (Simulation time: 2 hr 1 min 45 sec) 
Heartbeat CPU 6 instructions: 100000000 cycles: 236457562 heartbeat IPC: 0.393554 cumulative IPC: 0.351961 (Simulation time: 2 hr 1 min 59 sec) 
Heartbeat CPU 7 instructions: 350000002 cycles: 242416374 heartbeat IPC: 1.51537 cumulative IPC: 1.40755 (Simulation time: 2 hr 4 min 27 sec) 
Heartbeat CPU 4 instructions: 280000000 cycles: 244810818 heartbeat IPC: 0.845178 cumulative IPC: 1.09055 (Simulation time: 2 hr 5 min 29 sec) 
Heartbeat CPU 5 instructions: 180000000 cycles: 245187328 heartbeat IPC: 0.674925 cumulative IPC: 0.675541 (Simulation time: 2 hr 5 min 39 sec) 
Heartbeat CPU 1 instructions: 230000000 cycles: 247672696 heartbeat IPC: 0.851381 cumulative IPC: 0.892975 (Simulation time: 2 hr 6 min 42 sec) 
Heartbeat CPU 3 instructions: 260000000 cycles: 247860924 heartbeat IPC: 0.825582 cumulative IPC: 0.997044 (Simulation time: 2 hr 6 min 46 sec) 
Heartbeat CPU 7 instructions: 360000000 cycles: 249049759 heartbeat IPC: 1.50753 cumulative IPC: 1.41035 (Simulation time: 2 hr 7 min 19 sec) 
Heartbeat CPU 4 instructions: 290000003 cycles: 255066150 heartbeat IPC: 0.975103 cumulative IPC: 1.08567 (Simulation time: 2 hr 9 min 59 sec) 
Heartbeat CPU 7 instructions: 370000002 cycles: 255651550 heartbeat IPC: 1.51474 cumulative IPC: 1.41319 (Simulation time: 2 hr 10 min 15 sec) 
Heartbeat CPU 3 instructions: 270000000 cycles: 257741763 heartbeat IPC: 1.01206 cumulative IPC: 0.997649 (Simulation time: 2 hr 11 min 8 sec) 
Heartbeat CPU 0 instructions: 210000000 cycles: 257922039 heartbeat IPC: 0.389706 cumulative IPC: 0.719895 (Simulation time: 2 hr 11 min 13 sec) 
Heartbeat CPU 2 instructions: 120000000 cycles: 259037050 heartbeat IPC: 0.399446 cumulative IPC: 0.403734 (Simulation time: 2 hr 11 min 42 sec) 
Heartbeat CPU 1 instructions: 240000000 cycles: 259095254 heartbeat IPC: 0.875461 cumulative IPC: 0.892164 (Simulation time: 2 hr 11 min 43 sec) 
Heartbeat CPU 5 instructions: 190000002 cycles: 259957068 heartbeat IPC: 0.67706 cumulative IPC: 0.675631 (Simulation time: 2 hr 12 min 5 sec) 
Finished CPU 2 instructions: 100000001 cycles: 247706514 cumulative IPC: 0.403704 (Simulation time: 2 hr 12 min 12 sec) 
Heartbeat CPU 7 instructions: 380000000 cycles: 262180784 heartbeat IPC: 1.53157 cumulative IPC: 1.41628 (Simulation time: 2 hr 13 min 4 sec) 
Heartbeat CPU 6 instructions: 110000002 cycles: 264208698 heartbeat IPC: 0.360346 cumulative IPC: 0.352886 (Simulation time: 2 hr 14 min 1 sec) 
Heartbeat CPU 4 instructions: 300000000 cycles: 264860227 heartbeat IPC: 1.02102 cumulative IPC: 1.08316 (Simulation time: 2 hr 14 min 19 sec) 
Heartbeat CPU 3 instructions: 280000000 cycles: 267467568 heartbeat IPC: 1.02819 cumulative IPC: 0.998814 (Simulation time: 2 hr 15 min 29 sec) 
Heartbeat CPU 7 instructions: 390000000 cycles: 268639705 heartbeat IPC: 1.54825 cumulative IPC: 1.41961 (Simulation time: 2 hr 16 min 2 sec) 
Heartbeat CPU 1 instructions: 250000003 cycles: 269811552 heartbeat IPC: 0.933158 cumulative IPC: 0.893871 (Simulation time: 2 hr 16 min 35 sec) 
Heartbeat CPU 4 instructions: 310000002 cycles: 274630473 heartbeat IPC: 1.02352 cumulative IPC: 1.08094 (Simulation time: 2 hr 18 min 43 sec) 
Heartbeat CPU 5 instructions: 200000000 cycles: 274706907 heartbeat IPC: 0.677973 cumulative IPC: 0.675763 (Simulation time: 2 hr 18 min 45 sec) 
Heartbeat CPU 7 instructions: 400000000 cycles: 275157729 heartbeat IPC: 1.53421 cumulative IPC: 1.42245 (Simulation time: 2 hr 18 min 56 sec) 
Heartbeat CPU 3 instructions: 290000003 cycles: 277155622 heartbeat IPC: 1.0322 cumulative IPC: 1.00004 (Simulation time: 2 hr 19 min 49 sec) 
Heartbeat CPU 0 instructions: 220000000 cycles: 280313208 heartbeat IPC: 0.446605 cumulative IPC: 0.697046 (Simulation time: 2 hr 21 min 13 sec) 
Heartbeat CPU 1 instructions: 260000000 cycles: 280712213 heartbeat IPC: 0.917375 cumulative IPC: 0.894826 (Simulation time: 2 hr 21 min 24 sec) 
Heartbeat CPU 7 instructions: 410000000 cycles: 281680346 heartbeat IPC: 1.53313 cumulative IPC: 1.42514 (Simulation time: 2 hr 21 min 50 sec) 
Heartbeat CPU 2 instructions: 130000000 cycles: 283841578 heartbeat IPC: 0.403152 cumulative IPC: 0.403681 (Simulation time: 2 hr 22 min 47 sec) 
Heartbeat CPU 4 instructions: 320000000 cycles: 284444671 heartbeat IPC: 1.01893 cumulative IPC: 1.0787 (Simulation time: 2 hr 23 min 3 sec) 
Heartbeat CPU 3 instructions: 300000000 cycles: 286937125 heartbeat IPC: 1.02234 cumulative IPC: 1.00083 (Simulation time: 2 hr 24 min 9 sec) 
Heartbeat CPU 7 instructions: 420000000 cycles: 288183799 heartbeat IPC: 1.53764 cumulative IPC: 1.42779 (Simulation time: 2 hr 24 min 42 sec) 
Heartbeat CPU 5 instructions: 210000001 cycles: 289543501 heartbeat IPC: 0.674009 cumulative IPC: 0.675669 (Simulation time: 2 hr 25 min 18 sec) 
Heartbeat CPU 6 instructions: 120000000 cycles: 289892866 heartbeat IPC: 0.389345 cumulative IPC: 0.356261 (Simulation time: 2 hr 25 min 28 sec) 
Heartbeat CPU 1 instructions: 270000000 cycles: 291930972 heartbeat IPC: 0.891364 cumulative IPC: 0.894687 (Simulation time: 2 hr 26 min 20 sec) 
Heartbeat CPU 4 instructions: 330000002 cycles: 294300061 heartbeat IPC: 1.01467 cumulative IPC: 1.07646 (Simulation time: 2 hr 27 min 21 sec) 
Heartbeat CPU 7 instructions: 430000001 cycles: 294704921 heartbeat IPC: 1.53348 cumulative IPC: 1.43023 (Simulation time: 2 hr 27 min 31 sec) 
Finished CPU 6 instructions: 100000003 cycles: 283319872 cumulative IPC: 0.352958 (Simulation time: 2 hr 28 min 1 sec) 

CPU 0 Branch Prediction Accuracy: 99.999% MPKI: 0.000348527

CPU 1 Branch Prediction Accuracy: 99.5774% MPKI: 0.185563

CPU 2 Branch Prediction Accuracy: 95.2957% MPKI: 4.97225

CPU 3 Branch Prediction Accuracy: 99.1383% MPKI: 0.202051

CPU 4 Branch Prediction Accuracy: 99.2034% MPKI: 0.366448

CPU 5 Branch Prediction Accuracy: 99.8177% MPKI: 0.345503

CPU 6 Branch Prediction Accuracy: 97.5181% MPKI: 2.14197

CPU 7 Branch Prediction Accuracy: 98.1532% MPKI: 0.157237

ChampSim completed all CPUs

Total Simulation Statistics (not including warmup)

CPU 0 cumulative IPC: 0.682123 instructions: 193259032 cycles: 283319871
L1D TOTAL     ACCESS:   23198698  HIT:   19389179  MISS:    3809519
L1D LOAD      ACCESS:   16716074  HIT:   13898814  MISS:    2817260
L1D RFO       ACCESS:    6482624  HIT:    5490365  MISS:     992259
L1D PREFETCH  ACCESS:          0  HIT:          0  MISS:          0
L1D WRITEBACK ACCESS:          0  HIT:          0  MISS:          0
L1I TOTAL     ACCESS:   45063934  HIT:   45063880  MISS:         54
L1I LOAD      ACCESS:   45063934  HIT:   45063880  MISS:         54
L1I RFO       ACCESS:          0  HIT:          0  MISS:          0
L1I PREFETCH  ACCESS:          0  HIT:          0  MISS:          0
L1I WRITEBACK ACCESS:          0  HIT:          0  MISS:          0
L2C TOTAL     ACCESS:    5820235  HIT:    2002650  MISS:    3817585
L2C LOAD      ACCESS:    2817314  HIT:     620057  MISS:    2197257
L2C RFO       ACCESS:     992259  HIT:          0  MISS:     992259
L2C PREFETCH  ACCESS:     640507  HIT:      12440  MISS:     628067
L2C WRITEBACK ACCESS:    1370155  HIT:    1370153  MISS:          2
LLC TOTAL     ACCESS:    8912821  HIT:    4958517  MISS:    3954304
LLC LOAD      ACCESS:    2120884  HIT:    1045410  MISS:    1075474
LLC RFO       ACCESS:     992259  HIT:       1464  MISS:     990795
LLC PREFETCH  ACCESS:    4429534  HIT:    2541501  MISS:    1888033
LLC WRITEBACK ACCESS:    1370144  HIT:    1370142  MISS:          2

CPU 1 cumulative IPC: 0.894477 instructions: 253423148 cycles: 283319871
L1D TOTAL     ACCESS:   96124256  HIT:   94928081  MISS:    1196175
L1D LOAD      ACCESS:   76276215  HIT:   75755127  MISS:     521088
L1D RFO       ACCESS:   19848041  HIT:   19172954  MISS:     675087
L1D PREFETCH  ACCESS:          0  HIT:          0  MISS:          0
L1D WRITEBACK ACCESS:          0  HIT:          0  MISS:          0
L1I TOTAL     ACCESS:   68767605  HIT:   68767578  MISS:         27
L1I LOAD      ACCESS:   68767605  HIT:   68767578  MISS:         27
L1I RFO       ACCESS:          0  HIT:          0  MISS:          0
L1I PREFETCH  ACCESS:          0  HIT:          0  MISS:          0
L1I WRITEBACK ACCESS:          0  HIT:          0  MISS:          0
L2C TOTAL     ACCESS:    3409771  HIT:    2678225  MISS:     731546
L2C LOAD      ACCESS:     520527  HIT:     481290  MISS:      39237
L2C RFO       ACCESS:     675086  HIT:       1115  MISS:     673971
L2C PREFETCH  ACCESS:    1536725  HIT:    1518465  MISS:      18260
L2C WRITEBACK ACCESS:     677433  HIT:     677355  MISS:         78
LLC TOTAL     ACCESS:    1571503  HIT:     989282  MISS:     582221
LLC LOAD      ACCESS:      39166  HIT:      31784  MISS:       7382
LLC RFO       ACCESS:     673966  HIT:     125574  MISS:     548392
LLC PREFETCH  ACCESS:     182252  HIT:     160075  MISS:      22177
LLC WRITEBACK ACCESS:     676119  HIT:     671849  MISS:       4270

CPU 2 cumulative IPC: 0.403871 instructions: 114424788 cycles: 283319872
L1D TOTAL     ACCESS:   43540673  HIT:   41736310  MISS:    1804363
L1D LOAD      ACCESS:   26883931  HIT:   25293039  MISS:    1590892
L1D RFO       ACCESS:   16656742  HIT:   16443271  MISS:     213471
L1D PREFETCH  ACCESS:          0  HIT:          0  MISS:          0
L1D WRITEBACK ACCESS:          0  HIT:          0  MISS:          0
L1I TOTAL     ACCESS:   34087880  HIT:   33738080  MISS:     349800
L1I LOAD      ACCESS:   34087880  HIT:   33738080  MISS:     349800
L1I RFO       ACCESS:          0  HIT:          0  MISS:          0
L1I PREFETCH  ACCESS:          0  HIT:          0  MISS:          0
L1I WRITEBACK ACCESS:          0  HIT:          0  MISS:          0
L2C TOTAL     ACCESS:    3855133  HIT:    3849391  MISS:       5742
L2C LOAD      ACCESS:    1940691  HIT:    1936185  MISS:       4506
L2C RFO       ACCESS:     213470  HIT:     213033  MISS:        437
L2C PREFETCH  ACCESS:    1418386  HIT:    1417595  MISS:        791
L2C WRITEBACK ACCESS:     282586  HIT:     282578  MISS:          8
LLC TOTAL     ACCESS:     537760  HIT:     512167  MISS:      25593
LLC LOAD      ACCESS:       4494  HIT:       1432  MISS:       3062
LLC RFO       ACCESS:        437  HIT:        170  MISS:        267
LLC PREFETCH  ACCESS:     531300  HIT:     510449  MISS:      20851
LLC WRITEBACK ACCESS:       1529  HIT:        116  MISS:       1413

CPU 3 cumulative IPC: 1.00133 instructions: 283697610 cycles: 283319872
L1D TOTAL     ACCESS:   87847319  HIT:   84985775  MISS:    2861544
L1D LOAD      ACCESS:   81169676  HIT:   79071541  MISS:    2098135
L1D RFO       ACCESS:    6677643  HIT:    5914234  MISS:     763409
L1D PREFETCH  ACCESS:          0  HIT:          0  MISS:          0
L1D WRITEBACK ACCESS:          0  HIT:          0  MISS:          0
L1I TOTAL     ACCESS:   67977491  HIT:   67977304  MISS:        187
L1I LOAD      ACCESS:   67977491  HIT:   67977304  MISS:        187
L1I RFO       ACCESS:          0  HIT:          0  MISS:          0
L1I PREFETCH  ACCESS:          0  HIT:          0  MISS:          0
L1I WRITEBACK ACCESS:          0  HIT:          0  MISS:          0
L2C TOTAL     ACCESS:    6039055  HIT:    4057227  MISS:    1981828
L2C LOAD      ACCESS:    2098316  HIT:    1411767  MISS:     686549
L2C RFO       ACCESS:     763396  HIT:     263675  MISS:     499721
L2C PREFETCH  ACCESS:    2232698  HIT:    1437209  MISS:     795489
L2C WRITEBACK ACCESS:     944645  HIT:     944576  MISS:         69
LLC TOTAL     ACCESS:    7862722  HIT:    5988040  MISS:    1874682
LLC LOAD      ACCESS:     677361  HIT:     621904  MISS:      55457
LLC RFO       ACCESS:     499720  HIT:      30492  MISS:     469228
LLC PREFETCH  ACCESS:    6146442  HIT:    4797469  MISS:    1348973
LLC WRITEBACK ACCESS:     539199  HIT:     538175  MISS:       1024

CPU 4 cumulative IPC: 1.07618 instructions: 304902047 cycles: 283319872
L1D TOTAL     ACCESS:   86829102  HIT:   83289187  MISS:    3539915
L1D LOAD      ACCESS:   70264761  HIT:   67407237  MISS:    2857524
L1D RFO       ACCESS:   16564341  HIT:   15881950  MISS:     682391
L1D PREFETCH  ACCESS:          0  HIT:          0  MISS:          0
L1D WRITEBACK ACCESS:          0  HIT:          0  MISS:          0
L1I TOTAL     ACCESS:   72915366  HIT:   72914373  MISS:        993
L1I LOAD      ACCESS:   72915366  HIT:   72914373  MISS:        993
L1I RFO       ACCESS:          0  HIT:          0  MISS:          0
L1I PREFETCH  ACCESS:          0  HIT:          0  MISS:          0
L1I WRITEBACK ACCESS:          0  HIT:          0  MISS:          0
L2C TOTAL     ACCESS:    9683308  HIT:    7148971  MISS:    2534337
L2C LOAD      ACCESS:    2858513  HIT:    1960097  MISS:     898416
L2C RFO       ACCESS:     682391  HIT:     176833  MISS:     505558
L2C PREFETCH  ACCESS:    4905185  HIT:    3775324  MISS:    1129861
L2C WRITEBACK ACCESS:    1237219  HIT:    1236717  MISS:        502
LLC TOTAL     ACCESS:   10626814  HIT:    8266615  MISS:    2360199
LLC LOAD      ACCESS:     860934  HIT:     731772  MISS:     129162
LLC RFO       ACCESS:     505557  HIT:      41339  MISS:     464218
LLC PREFETCH  ACCESS:    8329047  HIT:    6564803  MISS:    1764244
LLC WRITEBACK ACCESS:     931276  HIT:     928701  MISS:       2575

CPU 5 cumulative IPC: 0.675653 instructions: 191425926 cycles: 283319872
L1D TOTAL     ACCESS:   70553969  HIT:   68881838  MISS:    1672131
L1D LOAD      ACCESS:   35786666  HIT:   34122409  MISS:    1664257
L1D RFO       ACCESS:   34767303  HIT:   34759429  MISS:       7874
L1D PREFETCH  ACCESS:          0  HIT:          0  MISS:          0
L1D WRITEBACK ACCESS:          0  HIT:          0  MISS:          0
L1I TOTAL     ACCESS:   71720340  HIT:   71720338  MISS:          2
L1I LOAD      ACCESS:   71720340  HIT:   71720338  MISS:          2
L1I RFO       ACCESS:          0  HIT:          0  MISS:          0
L1I PREFETCH  ACCESS:          0  HIT:          0  MISS:          0
L1I WRITEBACK ACCESS:          0  HIT:          0  MISS:          0
L2C TOTAL     ACCESS:    2781637  HIT:    2733979  MISS:      47658
L2C LOAD      ACCESS:    1664259  HIT:    1623874  MISS:      40385
L2C RFO       ACCESS:       7874  HIT:       2014  MISS:       5860
L2C PREFETCH  ACCESS:    1061635  HIT:    1060228  MISS:       1407
L2C WRITEBACK ACCESS:      47869  HIT:      47863  MISS:          6
LLC TOTAL     ACCESS:     407255  HIT:     323529  MISS:      83726
LLC LOAD      ACCESS:      40382  HIT:       6233  MISS:      34149
LLC RFO       ACCESS:       5859  HIT:         96  MISS:       5763
LLC PREFETCH  ACCESS:     346572  HIT:     316582  MISS:      29990
LLC WRITEBACK ACCESS:      14442  HIT:        618  MISS:      13824

CPU 6 cumulative IPC: 0.352958 instructions: 100000003 cycles: 283319872
L1D TOTAL     ACCESS:   37234679  HIT:   34455468  MISS:    2779211
L1D LOAD      ACCESS:   13008317  HIT:   10229625  MISS:    2778692
L1D RFO       ACCESS:   24226362  HIT:   24225843  MISS:        519
L1D PREFETCH  ACCESS:          0  HIT:          0  MISS:          0
L1D WRITEBACK ACCESS:          0  HIT:          0  MISS:          0
L1I TOTAL     ACCESS:   25241643  HIT:   25241643  MISS:          0
L1I LOAD      ACCESS:   25241643  HIT:   25241643  MISS:          0
L1I RFO       ACCESS:          0  HIT:          0  MISS:          0
L1I PREFETCH  ACCESS:          0  HIT:          0  MISS:          0
L1I WRITEBACK ACCESS:          0  HIT:          0  MISS:          0
L2C TOTAL     ACCESS:    4550561  HIT:    1830727  MISS:    2719834
L2C LOAD      ACCESS:    2778386  HIT:     283584  MISS:    2494802
L2C RFO       ACCESS:        519  HIT:        452  MISS:         67
L2C PREFETCH  ACCESS:     506298  HIT:     284129  MISS:     222169
L2C WRITEBACK ACCESS:    1265358  HIT:    1262562  MISS:       2796
LLC TOTAL     ACCESS:    7086899  HIT:    4108137  MISS:    2978762
LLC LOAD      ACCESS:    2438810  HIT:     941387  MISS:    1497423
LLC RFO       ACCESS:         67  HIT:         47  MISS:         20
LLC PREFETCH  ACCESS:    3439809  HIT:    1958755  MISS:    1481054
LLC WRITEBACK ACCESS:    1208213  HIT:    1207948  MISS:        265

CPU 7 cumulative IPC: 1.4306 instructions: 405316100 cycles: 283319872
L1D TOTAL     ACCESS:  105263334  HIT:  102839325  MISS:    2424009
L1D LOAD      ACCESS:   49801066  HIT:   47450963  MISS:    2350103
L1D RFO       ACCESS:   55462268  HIT:   55388362  MISS:      73906
L1D PREFETCH  ACCESS:          0  HIT:          0  MISS:          0
L1D WRITEBACK ACCESS:          0  HIT:          0  MISS:          0
L1I TOTAL     ACCESS:   94743745  HIT:   94741982  MISS:       1763
L1I LOAD      ACCESS:   94743745  HIT:   94741982  MISS:       1763
L1I RFO       ACCESS:          0  HIT:          0  MISS:          0
L1I PREFETCH  ACCESS:          0  HIT:          0  MISS:          0
L1I WRITEBACK ACCESS:          0  HIT:          0  MISS:          0
L2C TOTAL     ACCESS:    4973107  HIT:    4247206  MISS:     725901
L2C LOAD      ACCESS:    2351392  HIT:    1893377  MISS:     458015
L2C RFO       ACCESS:      73906  HIT:       1973  MISS:      71933
L2C PREFETCH  ACCESS:    1455776  HIT:    1260119  MISS:     195657
L2C WRITEBACK ACCESS:    1092033  HIT:    1091737  MISS:        296
LLC TOTAL     ACCESS:    2495669  HIT:    2178142  MISS:     317527
LLC LOAD      ACCESS:     447468  HIT:     409297  MISS:      38171
LLC RFO       ACCESS:      71933  HIT:      11824  MISS:      60109
LLC PREFETCH  ACCESS:    1711694  HIT:    1509762  MISS:     201932
LLC WRITEBACK ACCESS:     264574  HIT:     247259  MISS:      17315

Region of Interest Statistics

CPU 0 cumulative IPC: 0.744157 instructions: 100000000 cycles: 134380267
L1D TOTAL     ACCESS:   10210365  HIT:    8353496  MISS:    1856869
L1D LOAD      ACCESS:    9140397  HIT:    7847094  MISS:    1293303
L1D RFO       ACCESS:    1069968  HIT:     506402  MISS:     563566
L1D PREFETCH  ACCESS:          0  HIT:          0  MISS:          0
L1D WRITEBACK ACCESS:          0  HIT:          0  MISS:          0
L1D PREFETCH  REQUESTED:          0  ISSUED:          0  USEFUL:          0  USELESS:          0
L1I TOTAL     ACCESS:   22985611  HIT:   22985591  MISS:         20
L1I LOAD      ACCESS:   22985611  HIT:   22985591  MISS:         20
L1I RFO       ACCESS:          0  HIT:          0  MISS:          0
L1I PREFETCH  ACCESS:          0  HIT:          0  MISS:          0
L1I WRITEBACK ACCESS:          0  HIT:          0  MISS:          0
L1I PREFETCH  REQUESTED:          0  ISSUED:          0  USEFUL:          0  USELESS:          0
L2C TOTAL     ACCESS:    2745913  HIT:     887534  MISS:    1858379
L2C LOAD      ACCESS:    1293323  HIT:     314099  MISS:     979224
L2C RFO       ACCESS:     563566  HIT:          0  MISS:     563566
L2C PREFETCH  ACCESS:     325455  HIT:       9868  MISS:     315587
L2C WRITEBACK ACCESS:     563569  HIT:     563567  MISS:          2
L2C PREFETCH  REQUESTED:    9415663  ISSUED:    9415663  USEFUL:     799810  USELESS:       9122
LLC TOTAL     ACCESS:    3970495  HIT:    2087381  MISS:    1883114
LLC LOAD      ACCESS:     946688  HIT:     488909  MISS:     457779
LLC RFO       ACCESS:     563566  HIT:       1464  MISS:     562102
LLC PREFETCH  ACCESS:    1896665  HIT:    1033434  MISS:     863231
LLC WRITEBACK ACCESS:     563576  HIT:     563574  MISS:          2
LLC PREFETCH  REQUESTED:          0  ISSUED:          0  USEFUL:    3563837  USELESS:    4208761
Major fault: 0 Minor fault: 90041

CPU 1 cumulative IPC: 0.906851 instructions: 100000000 cycles: 110271740
L1D TOTAL     ACCESS:   37954835  HIT:   37486450  MISS:     468385
L1D LOAD      ACCESS:   30100586  HIT:   29898681  MISS:     201905
L1D RFO       ACCESS:    7854249  HIT:    7587769  MISS:     266480
L1D PREFETCH  ACCESS:          0  HIT:          0  MISS:          0
L1D WRITEBACK ACCESS:          0  HIT:          0  MISS:          0
L1D PREFETCH  REQUESTED:          0  ISSUED:          0  USEFUL:          0  USELESS:          0
L1I TOTAL     ACCESS:   27134738  HIT:   27134715  MISS:         23
L1I LOAD      ACCESS:   27134738  HIT:   27134715  MISS:         23
L1I RFO       ACCESS:          0  HIT:          0  MISS:          0
L1I PREFETCH  ACCESS:          0  HIT:          0  MISS:          0
L1I WRITEBACK ACCESS:          0  HIT:          0  MISS:          0
L1I PREFETCH  REQUESTED:          0  ISSUED:          0  USEFUL:          0  USELESS:          0
L2C TOTAL     ACCESS:    1298772  HIT:    1010146  MISS:     288626
L2C LOAD      ACCESS:     201716  HIT:     186334  MISS:      15382
L2C RFO       ACCESS:     266479  HIT:        397  MISS:     266082
L2C PREFETCH  ACCESS:     563118  HIT:     555987  MISS:       7131
L2C WRITEBACK ACCESS:     267459  HIT:     267428  MISS:         31
L2C PREFETCH  REQUESTED:    1832744  ISSUED:    1832744  USEFUL:      19369  USELESS:        651
LLC TOTAL     ACCESS:     615075  HIT:     399391  MISS:     215684
LLC LOAD      ACCESS:      15343  HIT:      12534  MISS:       2809
LLC RFO       ACCESS:     266079  HIT:      63540  MISS:     202539
LLC PREFETCH  ACCESS:      66505  HIT:      57689  MISS:       8816
LLC WRITEBACK ACCESS:     267148  HIT:     265628  MISS:       1520
LLC PREFETCH  REQUESTED:          0  ISSUED:          0  USEFUL:    3563837  USELESS:    4208761
Major fault: 0 Minor fault: 1355

CPU 2 cumulative IPC: 0.403704 instructions: 100000001 cycles: 247706514
L1D TOTAL     ACCESS:   38079815  HIT:   36508749  MISS:    1571066
L1D LOAD      ACCESS:   23498771  HIT:   22113532  MISS:    1385239
L1D RFO       ACCESS:   14581044  HIT:   14395217  MISS:     185827
L1D PREFETCH  ACCESS:          0  HIT:          0  MISS:          0
L1D WRITEBACK ACCESS:          0  HIT:          0  MISS:          0
L1D PREFETCH  REQUESTED:          0  ISSUED:          0  USEFUL:          0  USELESS:          0
L1I TOTAL     ACCESS:   29816650  HIT:   29504640  MISS:     312010
L1I LOAD      ACCESS:   29816650  HIT:   29504640  MISS:     312010
L1I RFO       ACCESS:          0  HIT:          0  MISS:          0
L1I PREFETCH  ACCESS:          0  HIT:          0  MISS:          0
L1I WRITEBACK ACCESS:          0  HIT:          0  MISS:          0
L1I PREFETCH  REQUESTED:          0  ISSUED:          0  USEFUL:          0  USELESS:          0
L2C TOTAL     ACCESS:    3373159  HIT:    3368005  MISS:       5154
L2C LOAD      ACCESS:    1697249  HIT:    1693198  MISS:       4051
L2C RFO       ACCESS:     185826  HIT:     185435  MISS:        391
L2C PREFETCH  ACCESS:    1243822  HIT:    1243114  MISS:        708
L2C WRITEBACK ACCESS:     246262  HIT:     246258  MISS:          4
L2C PREFETCH  REQUESTED:    2400478  ISSUED:    2400260  USEFUL:        854  USELESS:        597
LLC TOTAL     ACCESS:     488636  HIT:     465937  MISS:      22699
LLC LOAD      ACCESS:       4041  HIT:       1276  MISS:       2765
LLC RFO       ACCESS:        391  HIT:        137  MISS:        254
LLC PREFETCH  ACCESS:     482742  HIT:     464430  MISS:      18312
LLC WRITEBACK ACCESS:       1462  HIT:         94  MISS:       1368
LLC PREFETCH  REQUESTED:          0  ISSUED:          0  USEFUL:    3563837  USELESS:    4208761
Major fault: 0 Minor fault: 331

CPU 3 cumulative IPC: 1.0546 instructions: 100000001 cycles: 94822497
L1D TOTAL     ACCESS:   30470070  HIT:   29341953  MISS:    1128117
L1D LOAD      ACCESS:   27016174  HIT:   26149303  MISS:     866871
L1D RFO       ACCESS:    3453896  HIT:    3192650  MISS:     261246
L1D PREFETCH  ACCESS:          0  HIT:          0  MISS:          0
L1D WRITEBACK ACCESS:          0  HIT:          0  MISS:          0
L1D PREFETCH  REQUESTED:          0  ISSUED:          0  USEFUL:          0  USELESS:          0
L1I TOTAL     ACCESS:   24007929  HIT:   24007929  MISS:          0
L1I LOAD      ACCESS:   24007929  HIT:   24007929  MISS:          0
L1I RFO       ACCESS:          0  HIT:          0  MISS:          0
L1I PREFETCH  ACCESS:          0  HIT:          0  MISS:          0
L1I WRITEBACK ACCESS:          0  HIT:          0  MISS:          0
L1I PREFETCH  REQUESTED:          0  ISSUED:          0  USEFUL:          0  USELESS:          0
L2C TOTAL     ACCESS:    2576910  HIT:    2013464  MISS:     563446
L2C LOAD      ACCESS:     866869  HIT:     615963  MISS:     250906
L2C RFO       ACCESS:     261238  HIT:     170721  MISS:      90517
L2C PREFETCH  ACCESS:    1091025  HIT:     869054  MISS:     221971
L2C WRITEBACK ACCESS:     357778  HIT:     357726  MISS:         52
L2C PREFETCH  REQUESTED:    8712922  ISSUED:    8712680  USEFUL:     850618  USELESS:        716
LLC TOTAL     ACCESS:    2113793  HIT:    1566485  MISS:     547308
LLC LOAD      ACCESS:     246628  HIT:     224846  MISS:      21782
LLC RFO       ACCESS:      90516  HIT:        221  MISS:      90295
LLC PREFETCH  ACCESS:    1685951  HIT:    1250959  MISS:     434992
LLC WRITEBACK ACCESS:      90698  HIT:      90459  MISS:        239
LLC PREFETCH  REQUESTED:          0  ISSUED:          0  USEFUL:    3563837  USELESS:    4208761
Major fault: 0 Minor fault: 14520

CPU 4 cumulative IPC: 1.16296 instructions: 100000000 cycles: 85987178
L1D TOTAL     ACCESS:   26042532  HIT:   24873222  MISS:    1169310
L1D LOAD      ACCESS:   21911678  HIT:   21088505  MISS:     823173
L1D RFO       ACCESS:    4130854  HIT:    3784717  MISS:     346137
L1D PREFETCH  ACCESS:          0  HIT:          0  MISS:          0
L1D WRITEBACK ACCESS:          0  HIT:          0  MISS:          0
L1D PREFETCH  REQUESTED:          0  ISSUED:          0  USEFUL:          0  USELESS:          0
L1I TOTAL     ACCESS:   23031710  HIT:   23031273  MISS:        437
L1I LOAD      ACCESS:   23031710  HIT:   23031273  MISS:        437
L1I RFO       ACCESS:          0  HIT:          0  MISS:          0
L1I PREFETCH  ACCESS:          0  HIT:          0  MISS:          0
L1I WRITEBACK ACCESS:          0  HIT:          0  MISS:          0
L1I PREFETCH  REQUESTED:          0  ISSUED:          0  USEFUL:          0  USELESS:          0
L2C TOTAL     ACCESS:    2716329  HIT:    1738643  MISS:     977686
L2C LOAD      ACCESS:     823609  HIT:     528843  MISS:     294766
L2C RFO       ACCESS:     346137  HIT:      27419  MISS:     318718
L2C PREFETCH  ACCESS:    1017846  HIT:     653692  MISS:     364154
L2C WRITEBACK ACCESS:     528737  HIT:     528689  MISS:         48
L2C PREFETCH  REQUESTED:   14230370  ISSUED:   14226706  USEFUL:    1264457  USELESS:       6580
LLC TOTAL     ACCESS:    3530888  HIT:    2556977  MISS:     973911
LLC LOAD      ACCESS:     278230  HIT:     234090  MISS:      44140
LLC RFO       ACCESS:     318718  HIT:       4952  MISS:     313766
LLC PREFETCH  ACCESS:    2466062  HIT:    1850352  MISS:     615710
LLC WRITEBACK ACCESS:     467878  HIT:     467583  MISS:        295
LLC PREFETCH  REQUESTED:          0  ISSUED:          0  USEFUL:    3563837  USELESS:    4208761
Major fault: 0 Minor fault: 19982

CPU 5 cumulative IPC: 0.675808 instructions: 100000000 cycles: 147971003
L1D TOTAL     ACCESS:   36877627  HIT:   36005361  MISS:     872266
L1D LOAD      ACCESS:   18702437  HIT:   17834399  MISS:     868038
L1D RFO       ACCESS:   18175190  HIT:   18170962  MISS:       4228
L1D PREFETCH  ACCESS:          0  HIT:          0  MISS:          0
L1D WRITEBACK ACCESS:          0  HIT:          0  MISS:          0
L1D PREFETCH  REQUESTED:          0  ISSUED:          0  USEFUL:          0  USELESS:          0
L1I TOTAL     ACCESS:   37387126  HIT:   37387124  MISS:          2
L1I LOAD      ACCESS:   37387126  HIT:   37387124  MISS:          2
L1I RFO       ACCESS:          0  HIT:          0  MISS:          0
L1I PREFETCH  ACCESS:          0  HIT:          0  MISS:          0
L1I WRITEBACK ACCESS:          0  HIT:          0  MISS:          0
L1I PREFETCH  REQUESTED:          0  ISSUED:          0  USEFUL:          0  USELESS:          0
L2C TOTAL     ACCESS:    1440264  HIT:    1415346  MISS:      24918
L2C LOAD      ACCESS:     868040  HIT:     847077  MISS:      20963
L2C RFO       ACCESS:       4228  HIT:       1086  MISS:       3142
L2C PREFETCH  ACCESS:     543822  HIT:     543013  MISS:        809
L2C WRITEBACK ACCESS:      24174  HIT:      24170  MISS:          4
L2C PREFETCH  REQUESTED:    1596028  ISSUED:    1596028  USEFUL:        397  USELESS:       1015
LLC TOTAL     ACCESS:     218614  HIT:     175085  MISS:      43529
LLC LOAD      ACCESS:      20960  HIT:       3172  MISS:      17788
LLC RFO       ACCESS:       3142  HIT:         56  MISS:       3086
LLC PREFETCH  ACCESS:     186883  HIT:     171581  MISS:      15302
LLC WRITEBACK ACCESS:       7629  HIT:        276  MISS:       7353
LLC PREFETCH  REQUESTED:          0  ISSUED:          0  USEFUL:    3563837  USELESS:    4208761
Major fault: 0 Minor fault: 2986

CPU 6 cumulative IPC: 0.352958 instructions: 100000003 cycles: 283319872
L1D TOTAL     ACCESS:   37234679  HIT:   34455468  MISS:    2779211
L1D LOAD      ACCESS:   13008317  HIT:   10229625  MISS:    2778692
L1D RFO       ACCESS:   24226362  HIT:   24225843  MISS:        519
L1D PREFETCH  ACCESS:          0  HIT:          0  MISS:          0
L1D WRITEBACK ACCESS:          0  HIT:          0  MISS:          0
L1D PREFETCH  REQUESTED:          0  ISSUED:          0  USEFUL:          0  USELESS:          0
L1I TOTAL     ACCESS:   25241643  HIT:   25241643  MISS:          0
L1I LOAD      ACCESS:   25241643  HIT:   25241643  MISS:          0
L1I RFO       ACCESS:          0  HIT:          0  MISS:          0
L1I PREFETCH  ACCESS:          0  HIT:          0  MISS:          0
L1I WRITEBACK ACCESS:          0  HIT:          0  MISS:          0
L1I PREFETCH  REQUESTED:          0  ISSUED:          0  USEFUL:          0  USELESS:          0
L2C TOTAL     ACCESS:    4550561  HIT:    1830727  MISS:    2719834
L2C LOAD      ACCESS:    2778386  HIT:     283584  MISS:    2494802
L2C RFO       ACCESS:        519  HIT:        452  MISS:         67
L2C PREFETCH  ACCESS:     506298  HIT:     284129  MISS:     222169
L2C WRITEBACK ACCESS:    1265358  HIT:    1262562  MISS:       2796
L2C PREFETCH  REQUESTED:    7678471  ISSUED:    7678471  USEFUL:     258107  USELESS:      17902
LLC TOTAL     ACCESS:    7086899  HIT:    4108137  MISS:    2978762
LLC LOAD      ACCESS:    2438810  HIT:     941387  MISS:    1497423
LLC RFO       ACCESS:         67  HIT:         47  MISS:         20
LLC PREFETCH  ACCESS:    3439809  HIT:    1958755  MISS:    1481054
LLC WRITEBACK ACCESS:    1208213  HIT:    1207948  MISS:        265
LLC PREFETCH  REQUESTED:          0  ISSUED:          0  USEFUL:    3563837  USELESS:    4208761
Major fault: 0 Minor fault: 193406

CPU 7 cumulative IPC: 1.33944 instructions: 100000000 cycles: 74658327
L1D TOTAL     ACCESS:   24907475  HIT:   24307724  MISS:     599751
L1D LOAD      ACCESS:   12961893  HIT:   12399096  MISS:     562797
L1D RFO       ACCESS:   11945582  HIT:   11908628  MISS:      36954
L1D PREFETCH  ACCESS:          0  HIT:          0  MISS:          0
L1D WRITEBACK ACCESS:          0  HIT:          0  MISS:          0
L1D PREFETCH  REQUESTED:          0  ISSUED:          0  USEFUL:          0  USELESS:          0
L1I TOTAL     ACCESS:   23944948  HIT:   23944022  MISS:        926
L1I LOAD      ACCESS:   23944948  HIT:   23944022  MISS:        926
L1I RFO       ACCESS:          0  HIT:          0  MISS:          0
L1I PREFETCH  ACCESS:          0  HIT:          0  MISS:          0
L1I WRITEBACK ACCESS:          0  HIT:          0  MISS:          0
L1I PREFETCH  REQUESTED:          0  ISSUED:          0  USEFUL:          0  USELESS:          0
L2C TOTAL     ACCESS:    1226163  HIT:     968337  MISS:     257826
L2C LOAD      ACCESS:     563502  HIT:     428520  MISS:     134982
L2C RFO       ACCESS:      36954  HIT:        987  MISS:      35967
L2C PREFETCH  ACCESS:     377602  HIT:     290804  MISS:      86798
L2C WRITEBACK ACCESS:     248105  HIT:     248026  MISS:         79
L2C PREFETCH  REQUESTED:    3322020  ISSUED:    3322014  USEFUL:     196183  USELESS:       1783
LLC TOTAL     ACCESS:     958159  HIT:     827195  MISS:     130964
LLC LOAD      ACCESS:     129645  HIT:     117120  MISS:      12525
LLC RFO       ACCESS:      35967  HIT:       6143  MISS:      29824
LLC PREFETCH  ACCESS:     705277  HIT:     621325  MISS:      83952
LLC WRITEBACK ACCESS:      87270  HIT:      82607  MISS:       4663
LLC PREFETCH  REQUESTED:          0  ISSUED:          0  USEFUL:    3563837  USELESS:    4208761
Major fault: 0 Minor fault: 1697

DRAM Statistics
 CHANNEL 0
 RQ ROW_BUFFER_HIT:    2331638  ROW_BUFFER_MISS:    3869540
 DBUS_CONGESTED:   10958022
 WQ ROW_BUFFER_HIT:     182374  ROW_BUFFER_MISS:    2076188  FULL:          0

 CHANNEL 1
 RQ ROW_BUFFER_HIT:    2178763  ROW_BUFFER_MISS:    3756114
 DBUS_CONGESTED:   10958022
 WQ ROW_BUFFER_HIT:     195332  ROW_BUFFER_MISS:    2129717  FULL:          0

 AVG_CONGESTED_CYCLE: 13
