Initialize SIGNATURE TABLE
ST_SET: 1
ST_WAY: 256
ST_TAG_BIT: 16
ST_TAG_MASK: ffff

Initialize PATTERN TABLE
PT_SET: 512
PT_WAY: 4
SIG_DELTA_BIT: 7
C_SIG_BIT: 4
C_DELTA_BIT: 4

Initialize PREFETCH FILTER
FILTER_SET: 1024

*** ChampSim Multicore Out-of-Order Simulator ***

Warmup Instructions: 20000000
Simulation Instructions: 100000000
Number of CPUs: 8
LLC sets: 16384
LLC ways: 16
Off-chip DRAM Size: 8192 MB Channels: 2 Width: 64-bit Data Rate: 1600 MT/s

CPU 0 runs /scratch/user/djimenez/champsim-traces/speccpu2006/xz/482.sphinx3-234B.champsimtrace.xz
CPU 1 runs /scratch/user/djimenez/champsim-traces/speccpu2006/xz/445.gobmk-30B.champsimtrace.xz
CPU 2 runs /scratch/user/djimenez/champsim-traces/speccpu2006/xz/453.povray-252B.champsimtrace.xz
CPU 3 runs /scratch/user/djimenez/champsim-traces/speccpu2006/xz/458.sjeng-1088B.champsimtrace.xz
CPU 4 runs /scratch/user/djimenez/champsim-traces/speccpu2006/xz/453.povray-800B.champsimtrace.xz
CPU 5 runs /scratch/user/djimenez/champsim-traces/speccpu2006/xz/445.gobmk-36B.champsimtrace.xz
CPU 6 runs /scratch/user/djimenez/champsim-traces/speccpu2006/xz/465.tonto-1914B.champsimtrace.xz
CPU 7 runs /scratch/user/djimenez/champsim-traces/speccpu2006/xz/401.bzip2-38B.champsimtrace.xz
Heartbeat CPU 0 instructions: 10000003 cycles: 3873718 heartbeat IPC: 2.5815 cumulative IPC: 2.5815 (Simulation time: 0 hr 2 min 16 sec) 
Heartbeat CPU 7 instructions: 10000002 cycles: 4079978 heartbeat IPC: 2.45099 cumulative IPC: 2.45099 (Simulation time: 0 hr 2 min 23 sec) 
Heartbeat CPU 6 instructions: 10000001 cycles: 5000350 heartbeat IPC: 1.99986 cumulative IPC: 1.99986 (Simulation time: 0 hr 2 min 56 sec) 
Heartbeat CPU 3 instructions: 10000000 cycles: 5578330 heartbeat IPC: 1.79265 cumulative IPC: 1.79265 (Simulation time: 0 hr 3 min 16 sec) 
Heartbeat CPU 1 instructions: 10000003 cycles: 6366177 heartbeat IPC: 1.5708 cumulative IPC: 1.5708 (Simulation time: 0 hr 3 min 44 sec) 
Heartbeat CPU 5 instructions: 10000000 cycles: 6464926 heartbeat IPC: 1.54681 cumulative IPC: 1.54681 (Simulation time: 0 hr 3 min 48 sec) 
Heartbeat CPU 4 instructions: 10000000 cycles: 6645893 heartbeat IPC: 1.50469 cumulative IPC: 1.50469 (Simulation time: 0 hr 3 min 55 sec) 
Heartbeat CPU 2 instructions: 10000003 cycles: 6684461 heartbeat IPC: 1.49601 cumulative IPC: 1.49601 (Simulation time: 0 hr 3 min 56 sec) 
Heartbeat CPU 0 instructions: 20000000 cycles: 7730709 heartbeat IPC: 2.59269 cumulative IPC: 2.58708 (Simulation time: 0 hr 4 min 38 sec) 
Heartbeat CPU 7 instructions: 20000000 cycles: 9481496 heartbeat IPC: 1.85133 cumulative IPC: 2.10937 (Simulation time: 0 hr 5 min 56 sec) 
Heartbeat CPU 6 instructions: 20000000 cycles: 9850188 heartbeat IPC: 2.06192 cumulative IPC: 2.03042 (Simulation time: 0 hr 6 min 11 sec) 
Heartbeat CPU 3 instructions: 20000000 cycles: 11128037 heartbeat IPC: 1.8019 cumulative IPC: 1.79726 (Simulation time: 0 hr 7 min 12 sec) 
Heartbeat CPU 0 instructions: 30000000 cycles: 11668277 heartbeat IPC: 2.53964 cumulative IPC: 0.857025 (Simulation time: 0 hr 7 min 37 sec) 
Heartbeat CPU 1 instructions: 20000000 cycles: 12699578 heartbeat IPC: 1.57893 cumulative IPC: 1.57486 (Simulation time: 0 hr 8 min 29 sec) 
Heartbeat CPU 5 instructions: 20000000 cycles: 12891468 heartbeat IPC: 1.55605 cumulative IPC: 1.55141 (Simulation time: 0 hr 8 min 38 sec) 
Heartbeat CPU 2 instructions: 20000000 cycles: 13282428 heartbeat IPC: 1.51562 cumulative IPC: 1.50575 (Simulation time: 0 hr 8 min 55 sec) 
Heartbeat CPU 4 instructions: 20000000 cycles: 13408908 heartbeat IPC: 1.47863 cumulative IPC: 1.49155 (Simulation time: 0 hr 9 min 2 sec) 

Warmup complete CPU 0 instructions: 34687606 cycles: 13408909 (Simulation time: 0 hr 9 min 2 sec) 
Warmup complete CPU 1 instructions: 21052165 cycles: 13408909 (Simulation time: 0 hr 9 min 2 sec) 
Warmup complete CPU 2 instructions: 20193111 cycles: 13408909 (Simulation time: 0 hr 9 min 2 sec) 
Warmup complete CPU 3 instructions: 24115850 cycles: 13408909 (Simulation time: 0 hr 9 min 2 sec) 
Warmup complete CPU 4 instructions: 20000001 cycles: 13408909 (Simulation time: 0 hr 9 min 2 sec) 
Warmup complete CPU 5 instructions: 20816843 cycles: 13408908 (Simulation time: 0 hr 9 min 2 sec) 
Warmup complete CPU 6 instructions: 26864819 cycles: 13408908 (Simulation time: 0 hr 9 min 2 sec) 
Warmup complete CPU 7 instructions: 26042819 cycles: 13408908 (Simulation time: 0 hr 9 min 2 sec) 

Heartbeat CPU 6 instructions: 30000003 cycles: 17956408 heartbeat IPC: 1.23362 cumulative IPC: 0.68943 (Simulation time: 0 hr 10 min 38 sec) 
Heartbeat CPU 0 instructions: 40000000 cycles: 18299940 heartbeat IPC: 1.50792 cumulative IPC: 1.08615 (Simulation time: 0 hr 10 min 45 sec) 
Heartbeat CPU 7 instructions: 30000000 cycles: 21233505 heartbeat IPC: 0.850918 cumulative IPC: 0.505736 (Simulation time: 0 hr 11 min 43 sec) 
Heartbeat CPU 3 instructions: 30000000 cycles: 23113131 heartbeat IPC: 0.83437 cumulative IPC: 0.606349 (Simulation time: 0 hr 12 min 19 sec) 
Heartbeat CPU 0 instructions: 50000001 cycles: 26925507 heartbeat IPC: 1.15934 cumulative IPC: 1.13286 (Simulation time: 0 hr 13 min 35 sec) 
Heartbeat CPU 1 instructions: 30000002 cycles: 32255833 heartbeat IPC: 0.511345 cumulative IPC: 0.474764 (Simulation time: 0 hr 15 min 17 sec) 
Heartbeat CPU 6 instructions: 40000000 cycles: 33017523 heartbeat IPC: 0.663961 cumulative IPC: 0.669868 (Simulation time: 0 hr 15 min 30 sec) 
Heartbeat CPU 5 instructions: 30000001 cycles: 33997354 heartbeat IPC: 0.473802 cumulative IPC: 0.446035 (Simulation time: 0 hr 15 min 48 sec) 
Heartbeat CPU 0 instructions: 60000000 cycles: 35775480 heartbeat IPC: 1.12995 cumulative IPC: 1.13171 (Simulation time: 0 hr 16 min 22 sec) 
Heartbeat CPU 2 instructions: 30000000 cycles: 36269361 heartbeat IPC: 0.43503 cumulative IPC: 0.428989 (Simulation time: 0 hr 16 min 33 sec) 
Heartbeat CPU 7 instructions: 40000000 cycles: 37625929 heartbeat IPC: 0.610038 cumulative IPC: 0.576338 (Simulation time: 0 hr 17 min 0 sec) 
Heartbeat CPU 4 instructions: 30000003 cycles: 38472191 heartbeat IPC: 0.39899 cumulative IPC: 0.39899 (Simulation time: 0 hr 17 min 16 sec) 
Heartbeat CPU 3 instructions: 40000000 cycles: 39682461 heartbeat IPC: 0.603525 cumulative IPC: 0.604568 (Simulation time: 0 hr 17 min 39 sec) 
Heartbeat CPU 0 instructions: 70000000 cycles: 44054127 heartbeat IPC: 1.20793 cumulative IPC: 1.1523 (Simulation time: 0 hr 19 min 13 sec) 
Heartbeat CPU 6 instructions: 50000003 cycles: 47206272 heartbeat IPC: 0.704784 cumulative IPC: 0.684526 (Simulation time: 0 hr 20 min 20 sec) 
Heartbeat CPU 7 instructions: 50000001 cycles: 47960230 heartbeat IPC: 0.967651 cumulative IPC: 0.69338 (Simulation time: 0 hr 20 min 36 sec) 
Heartbeat CPU 0 instructions: 80000000 cycles: 52437261 heartbeat IPC: 1.19287 cumulative IPC: 1.16101 (Simulation time: 0 hr 22 min 13 sec) 
Heartbeat CPU 1 instructions: 40000000 cycles: 53431883 heartbeat IPC: 0.472232 cumulative IPC: 0.473424 (Simulation time: 0 hr 22 min 34 sec) 
Heartbeat CPU 5 instructions: 40000000 cycles: 56429011 heartbeat IPC: 0.445798 cumulative IPC: 0.445911 (Simulation time: 0 hr 23 min 39 sec) 
Heartbeat CPU 3 instructions: 50000000 cycles: 56813852 heartbeat IPC: 0.583724 cumulative IPC: 0.596341 (Simulation time: 0 hr 23 min 47 sec) 
Heartbeat CPU 7 instructions: 60000000 cycles: 58509966 heartbeat IPC: 0.947891 cumulative IPC: 0.752913 (Simulation time: 0 hr 24 min 23 sec) 
Heartbeat CPU 6 instructions: 60000000 cycles: 58912774 heartbeat IPC: 0.854226 cumulative IPC: 0.728184 (Simulation time: 0 hr 24 min 32 sec) 
Heartbeat CPU 2 instructions: 40000000 cycles: 59523157 heartbeat IPC: 0.430037 cumulative IPC: 0.429518 (Simulation time: 0 hr 24 min 44 sec) 
Heartbeat CPU 0 instructions: 90000000 cycles: 60994079 heartbeat IPC: 1.16866 cumulative IPC: 1.16239 (Simulation time: 0 hr 25 min 17 sec) 
Heartbeat CPU 4 instructions: 40000000 cycles: 63173705 heartbeat IPC: 0.404833 cumulative IPC: 0.401891 (Simulation time: 0 hr 26 min 3 sec) 
Heartbeat CPU 7 instructions: 70000000 cycles: 69088721 heartbeat IPC: 0.945291 cumulative IPC: 0.789464 (Simulation time: 0 hr 28 min 9 sec) 
Heartbeat CPU 0 instructions: 100000000 cycles: 69802860 heartbeat IPC: 1.13523 cumulative IPC: 1.15815 (Simulation time: 0 hr 28 min 26 sec) 
Heartbeat CPU 6 instructions: 70000000 cycles: 70227254 heartbeat IPC: 0.883823 cumulative IPC: 0.759177 (Simulation time: 0 hr 28 min 36 sec) 
Heartbeat CPU 3 instructions: 60000000 cycles: 73935183 heartbeat IPC: 0.584067 cumulative IPC: 0.592869 (Simulation time: 0 hr 30 min 1 sec) 
Heartbeat CPU 1 instructions: 50000001 cycles: 75917747 heartbeat IPC: 0.444724 cumulative IPC: 0.4631 (Simulation time: 0 hr 30 min 46 sec) 
Heartbeat CPU 7 instructions: 80000000 cycles: 76075198 heartbeat IPC: 1.43134 cumulative IPC: 0.861024 (Simulation time: 0 hr 30 min 49 sec) 
Heartbeat CPU 0 instructions: 110000003 cycles: 78661324 heartbeat IPC: 1.12886 cumulative IPC: 1.15417 (Simulation time: 0 hr 31 min 45 sec) 
Heartbeat CPU 5 instructions: 50000001 cycles: 78696870 heartbeat IPC: 0.449078 cumulative IPC: 0.446991 (Simulation time: 0 hr 31 min 46 sec) 
Heartbeat CPU 2 instructions: 50000000 cycles: 82792224 heartbeat IPC: 0.429755 cumulative IPC: 0.429597 (Simulation time: 0 hr 33 min 9 sec) 
Heartbeat CPU 6 instructions: 80000000 cycles: 83261356 heartbeat IPC: 0.767218 cumulative IPC: 0.760677 (Simulation time: 0 hr 33 min 18 sec) 
Heartbeat CPU 7 instructions: 90000001 cycles: 86716395 heartbeat IPC: 0.939744 cumulative IPC: 0.872451 (Simulation time: 0 hr 34 min 36 sec) 
Heartbeat CPU 0 instructions: 120000000 cycles: 87763270 heartbeat IPC: 1.09867 cumulative IPC: 1.14738 (Simulation time: 0 hr 34 min 56 sec) 
Heartbeat CPU 4 instructions: 50000001 cycles: 87801992 heartbeat IPC: 0.406037 cumulative IPC: 0.403263 (Simulation time: 0 hr 34 min 57 sec) 
Heartbeat CPU 3 instructions: 70000003 cycles: 90831083 heartbeat IPC: 0.59186 cumulative IPC: 0.592649 (Simulation time: 0 hr 35 min 55 sec) 
Heartbeat CPU 0 instructions: 130000003 cycles: 97211723 heartbeat IPC: 1.05837 cumulative IPC: 1.13734 (Simulation time: 0 hr 38 min 6 sec) 
Heartbeat CPU 1 instructions: 60000000 cycles: 97611385 heartbeat IPC: 0.460965 cumulative IPC: 0.46255 (Simulation time: 0 hr 38 min 15 sec) 
Heartbeat CPU 6 instructions: 90000002 cycles: 98351054 heartbeat IPC: 0.662704 cumulative IPC: 0.743273 (Simulation time: 0 hr 38 min 31 sec) 
Heartbeat CPU 7 instructions: 100000000 cycles: 99347565 heartbeat IPC: 0.791692 cumulative IPC: 0.860581 (Simulation time: 0 hr 38 min 50 sec) 
Finished CPU 0 instructions: 100000000 cycles: 87812423 cumulative IPC: 1.13879 (Simulation time: 0 hr 39 min 28 sec) 
Heartbeat CPU 5 instructions: 60000000 cycles: 101544803 heartbeat IPC: 0.437676 cumulative IPC: 0.444577 (Simulation time: 0 hr 39 min 37 sec) 
Heartbeat CPU 2 instructions: 60000000 cycles: 106006021 heartbeat IPC: 0.430778 cumulative IPC: 0.429893 (Simulation time: 0 hr 41 min 13 sec) 
Heartbeat CPU 0 instructions: 140000000 cycles: 106014943 heartbeat IPC: 1.13595 cumulative IPC: 1.13721 (Simulation time: 0 hr 41 min 14 sec) 
Heartbeat CPU 3 instructions: 80000000 cycles: 107498747 heartbeat IPC: 0.599964 cumulative IPC: 0.593945 (Simulation time: 0 hr 41 min 47 sec) 
Heartbeat CPU 4 instructions: 60000000 cycles: 111997116 heartbeat IPC: 0.413306 cumulative IPC: 0.405728 (Simulation time: 0 hr 44 min 42 sec) 
Heartbeat CPU 7 instructions: 110000000 cycles: 112867490 heartbeat IPC: 0.739649 cumulative IPC: 0.844142 (Simulation time: 0 hr 45 min 12 sec) 
Heartbeat CPU 6 instructions: 100000000 cycles: 113437712 heartbeat IPC: 0.662837 cumulative IPC: 0.731141 (Simulation time: 0 hr 45 min 23 sec) 
Heartbeat CPU 0 instructions: 150000001 cycles: 115591220 heartbeat IPC: 1.04425 cumulative IPC: 1.1285 (Simulation time: 0 hr 46 min 3 sec) 
Heartbeat CPU 1 instructions: 70000000 cycles: 120301215 heartbeat IPC: 0.440726 cumulative IPC: 0.457917 (Simulation time: 0 hr 47 min 32 sec) 
Heartbeat CPU 3 instructions: 90000003 cycles: 124421004 heartbeat IPC: 0.590938 cumulative IPC: 0.593486 (Simulation time: 0 hr 48 min 48 sec) 
Heartbeat CPU 5 instructions: 70000001 cycles: 124423849 heartbeat IPC: 0.437081 cumulative IPC: 0.443032 (Simulation time: 0 hr 48 min 48 sec) 
Heartbeat CPU 0 instructions: 160000000 cycles: 124972744 heartbeat IPC: 1.06592 cumulative IPC: 1.12323 (Simulation time: 0 hr 48 min 58 sec) 
Heartbeat CPU 7 instructions: 120000000 cycles: 126336266 heartbeat IPC: 0.742458 cumulative IPC: 0.832014 (Simulation time: 0 hr 49 min 23 sec) 
Heartbeat CPU 6 instructions: 110000002 cycles: 128573122 heartbeat IPC: 0.660702 cumulative IPC: 0.721884 (Simulation time: 0 hr 50 min 5 sec) 
Heartbeat CPU 2 instructions: 70000001 cycles: 128971564 heartbeat IPC: 0.435435 cumulative IPC: 0.430995 (Simulation time: 0 hr 50 min 13 sec) 
Heartbeat CPU 0 instructions: 170000001 cycles: 134594850 heartbeat IPC: 1.03927 cumulative IPC: 1.11657 (Simulation time: 0 hr 51 min 58 sec) 
Finished CPU 7 instructions: 100000000 cycles: 121357837 cumulative IPC: 0.824009 (Simulation time: 0 hr 52 min 2 sec) 
Heartbeat CPU 4 instructions: 70000000 cycles: 134952833 heartbeat IPC: 0.435621 cumulative IPC: 0.411374 (Simulation time: 0 hr 52 min 5 sec) 
Heartbeat CPU 7 instructions: 130000002 cycles: 140073148 heartbeat IPC: 0.727967 cumulative IPC: 0.82073 (Simulation time: 0 hr 53 min 41 sec) 
Heartbeat CPU 6 instructions: 120000000 cycles: 141102720 heartbeat IPC: 0.79811 cumulative IPC: 0.729363 (Simulation time: 0 hr 53 min 59 sec) 
Heartbeat CPU 3 instructions: 100000000 cycles: 141188477 heartbeat IPC: 0.596393 cumulative IPC: 0.593868 (Simulation time: 0 hr 54 min 0 sec) 
Heartbeat CPU 1 instructions: 80000000 cycles: 141895191 heartbeat IPC: 0.463092 cumulative IPC: 0.458787 (Simulation time: 0 hr 54 min 13 sec) 
Heartbeat CPU 0 instructions: 180000000 cycles: 143913602 heartbeat IPC: 1.0731 cumulative IPC: 1.11346 (Simulation time: 0 hr 54 min 49 sec) 
Heartbeat CPU 5 instructions: 80000000 cycles: 146955049 heartbeat IPC: 0.443829 cumulative IPC: 0.443166 (Simulation time: 0 hr 55 min 45 sec) 
Finished CPU 6 instructions: 100000000 cycles: 135687313 cumulative IPC: 0.736989 (Simulation time: 0 hr 56 min 24 sec) 
Heartbeat CPU 2 instructions: 80000000 cycles: 151631762 heartbeat IPC: 0.441302 cumulative IPC: 0.432685 (Simulation time: 0 hr 57 min 10 sec) 
Heartbeat CPU 6 instructions: 130000000 cycles: 152672519 heartbeat IPC: 0.864319 cumulative IPC: 0.740575 (Simulation time: 0 hr 57 min 29 sec) 
Heartbeat CPU 0 instructions: 190000003 cycles: 153040827 heartbeat IPC: 1.09562 cumulative IPC: 1.1123 (Simulation time: 0 hr 57 min 36 sec) 
Heartbeat CPU 7 instructions: 140000000 cycles: 153751646 heartbeat IPC: 0.731074 cumulative IPC: 0.811992 (Simulation time: 0 hr 57 min 50 sec) 
Heartbeat CPU 4 instructions: 80000000 cycles: 157502758 heartbeat IPC: 0.44346 cumulative IPC: 0.416395 (Simulation time: 0 hr 58 min 58 sec) 
Heartbeat CPU 3 instructions: 110000001 cycles: 158051879 heartbeat IPC: 0.593 cumulative IPC: 0.593767 (Simulation time: 0 hr 59 min 8 sec) 
Heartbeat CPU 0 instructions: 200000000 cycles: 162082095 heartbeat IPC: 1.10604 cumulative IPC: 1.11192 (Simulation time: 1 hr 0 min 22 sec) 
Heartbeat CPU 6 instructions: 140000000 cycles: 164012559 heartbeat IPC: 0.881831 cumulative IPC: 0.751211 (Simulation time: 1 hr 0 min 56 sec) 
Heartbeat CPU 1 instructions: 90000002 cycles: 164205653 heartbeat IPC: 0.44822 cumulative IPC: 0.457224 (Simulation time: 1 hr 1 min 0 sec) 
Heartbeat CPU 7 instructions: 150000003 cycles: 167191392 heartbeat IPC: 0.744062 cumulative IPC: 0.806055 (Simulation time: 1 hr 1 min 55 sec) 
Heartbeat CPU 5 instructions: 90000001 cycles: 169847091 heartbeat IPC: 0.436833 cumulative IPC: 0.44224 (Simulation time: 1 hr 2 min 47 sec) 
Heartbeat CPU 0 instructions: 210000003 cycles: 171067813 heartbeat IPC: 1.11288 cumulative IPC: 1.11197 (Simulation time: 1 hr 3 min 11 sec) 
Heartbeat CPU 2 instructions: 90000000 cycles: 174134439 heartbeat IPC: 0.444392 cumulative IPC: 0.434324 (Simulation time: 1 hr 4 min 10 sec) 
Heartbeat CPU 3 instructions: 120000000 cycles: 175267063 heartbeat IPC: 0.580882 cumulative IPC: 0.592396 (Simulation time: 1 hr 4 min 32 sec) 
Heartbeat CPU 6 instructions: 150000000 cycles: 175480300 heartbeat IPC: 0.872011 cumulative IPC: 0.759759 (Simulation time: 1 hr 4 min 36 sec) 
Heartbeat CPU 4 instructions: 90000001 cycles: 180031217 heartbeat IPC: 0.443883 cumulative IPC: 0.420112 (Simulation time: 1 hr 6 min 4 sec) 
Heartbeat CPU 0 instructions: 220000000 cycles: 180076707 heartbeat IPC: 1.11001 cumulative IPC: 1.11187 (Simulation time: 1 hr 6 min 5 sec) 
Heartbeat CPU 7 instructions: 160000000 cycles: 180647523 heartbeat IPC: 0.743155 cumulative IPC: 0.800994 (Simulation time: 1 hr 6 min 16 sec) 
Finished CPU 3 instructions: 100000000 cycles: 168621554 cumulative IPC: 0.593044 (Simulation time: 1 hr 6 min 44 sec) 
Heartbeat CPU 1 instructions: 100000000 cycles: 186527727 heartbeat IPC: 0.447987 cumulative IPC: 0.456033 (Simulation time: 1 hr 8 min 10 sec) 
Heartbeat CPU 0 instructions: 230000002 cycles: 188481600 heartbeat IPC: 1.18978 cumulative IPC: 1.11561 (Simulation time: 1 hr 8 min 46 sec) 
Heartbeat CPU 6 instructions: 160000000 cycles: 189768788 heartbeat IPC: 0.699864 cumulative IPC: 0.754906 (Simulation time: 1 hr 9 min 11 sec) 
Heartbeat CPU 3 instructions: 130000003 cycles: 191633542 heartbeat IPC: 0.611005 cumulative IPC: 0.594105 (Simulation time: 1 hr 9 min 48 sec) 
Heartbeat CPU 5 instructions: 100000000 cycles: 192601416 heartbeat IPC: 0.439477 cumulative IPC: 0.441889 (Simulation time: 1 hr 10 min 6 sec) 
Heartbeat CPU 7 instructions: 170000000 cycles: 194862986 heartbeat IPC: 0.703459 cumulative IPC: 0.793353 (Simulation time: 1 hr 10 min 48 sec) 
Heartbeat CPU 2 instructions: 100000000 cycles: 196600921 heartbeat IPC: 0.445108 cumulative IPC: 0.435646 (Simulation time: 1 hr 11 min 23 sec) 
Heartbeat CPU 0 instructions: 240000000 cycles: 196901377 heartbeat IPC: 1.18768 cumulative IPC: 1.11891 (Simulation time: 1 hr 11 min 28 sec) 
Heartbeat CPU 4 instructions: 100000000 cycles: 202519493 heartbeat IPC: 0.444676 cumulative IPC: 0.423033 (Simulation time: 1 hr 13 min 16 sec) 
Heartbeat CPU 6 instructions: 170000001 cycles: 204876816 heartbeat IPC: 0.6619 cumulative IPC: 0.747567 (Simulation time: 1 hr 14 min 2 sec) 
Heartbeat CPU 0 instructions: 250000000 cycles: 205340769 heartbeat IPC: 1.18492 cumulative IPC: 1.12182 (Simulation time: 1 hr 14 min 10 sec) 
Heartbeat CPU 3 instructions: 140000000 cycles: 208213122 heartbeat IPC: 0.603151 cumulative IPC: 0.594875 (Simulation time: 1 hr 15 min 7 sec) 
Heartbeat CPU 7 instructions: 180000000 cycles: 208272956 heartbeat IPC: 0.745714 cumulative IPC: 0.790075 (Simulation time: 1 hr 15 min 8 sec) 
Heartbeat CPU 1 instructions: 110000002 cycles: 208991369 heartbeat IPC: 0.445164 cumulative IPC: 0.454784 (Simulation time: 1 hr 15 min 21 sec) 
Heartbeat CPU 0 instructions: 260000000 cycles: 213951878 heartbeat IPC: 1.16129 cumulative IPC: 1.12351 (Simulation time: 1 hr 16 min 59 sec) 
Heartbeat CPU 5 instructions: 110000002 cycles: 215043006 heartbeat IPC: 0.445601 cumulative IPC: 0.442302 (Simulation time: 1 hr 17 min 21 sec) 
Heartbeat CPU 7 instructions: 190000001 cycles: 218884684 heartbeat IPC: 0.942354 cumulative IPC: 0.797939 (Simulation time: 1 hr 18 min 40 sec) 
Heartbeat CPU 2 instructions: 110000003 cycles: 219086985 heartbeat IPC: 0.44472 cumulative IPC: 0.436638 (Simulation time: 1 hr 18 min 44 sec) 
Heartbeat CPU 6 instructions: 180000000 cycles: 219961669 heartbeat IPC: 0.662917 cumulative IPC: 0.741385 (Simulation time: 1 hr 19 min 2 sec) 
Heartbeat CPU 0 instructions: 270000001 cycles: 222899496 heartbeat IPC: 1.11762 cumulative IPC: 1.12326 (Simulation time: 1 hr 20 min 0 sec) 
Heartbeat CPU 3 instructions: 150000000 cycles: 224844192 heartbeat IPC: 0.601284 cumulative IPC: 0.595379 (Simulation time: 1 hr 20 min 38 sec) 
Heartbeat CPU 4 instructions: 110000001 cycles: 224997944 heartbeat IPC: 0.444871 cumulative IPC: 0.425353 (Simulation time: 1 hr 20 min 41 sec) 
Heartbeat CPU 7 instructions: 200000000 cycles: 227688639 heartbeat IPC: 1.13585 cumulative IPC: 0.811823 (Simulation time: 1 hr 21 min 32 sec) 
Heartbeat CPU 0 instructions: 280000000 cycles: 231659759 heartbeat IPC: 1.14152 cumulative IPC: 1.12399 (Simulation time: 1 hr 22 min 45 sec) 
Heartbeat CPU 1 instructions: 120000000 cycles: 231946272 heartbeat IPC: 0.435637 cumulative IPC: 0.452773 (Simulation time: 1 hr 22 min 51 sec) 
Finished CPU 1 instructions: 100000001 cycles: 220950906 cumulative IPC: 0.452589 (Simulation time: 1 hr 23 min 35 sec) 
Heartbeat CPU 6 instructions: 190000001 cycles: 235040584 heartbeat IPC: 0.663178 cumulative IPC: 0.736064 (Simulation time: 1 hr 23 min 47 sec) 
Heartbeat CPU 7 instructions: 210000001 cycles: 237533555 heartbeat IPC: 1.01575 cumulative IPC: 0.820781 (Simulation time: 1 hr 24 min 32 sec) 
Heartbeat CPU 5 instructions: 120000000 cycles: 237749475 heartbeat IPC: 0.440403 cumulative IPC: 0.44211 (Simulation time: 1 hr 24 min 37 sec) 
Finished CPU 5 instructions: 100000001 cycles: 226223000 cumulative IPC: 0.442042 (Simulation time: 1 hr 25 min 12 sec) 
Heartbeat CPU 0 instructions: 290000000 cycles: 240443444 heartbeat IPC: 1.13847 cumulative IPC: 1.12455 (Simulation time: 1 hr 25 min 27 sec) 
Heartbeat CPU 3 instructions: 160000000 cycles: 241442920 heartbeat IPC: 0.602456 cumulative IPC: 0.595894 (Simulation time: 1 hr 25 min 45 sec) 
Heartbeat CPU 2 instructions: 120000000 cycles: 241506772 heartbeat IPC: 0.446034 cumulative IPC: 0.437562 (Simulation time: 1 hr 25 min 47 sec) 
Finished CPU 2 instructions: 100000002 cycles: 228525134 cumulative IPC: 0.437589 (Simulation time: 1 hr 25 min 54 sec) 
Heartbeat CPU 4 instructions: 120000000 cycles: 247632912 heartbeat IPC: 0.441794 cumulative IPC: 0.426942 (Simulation time: 1 hr 27 min 41 sec) 
Finished CPU 4 instructions: 100000000 cycles: 234224016 cumulative IPC: 0.426942 (Simulation time: 1 hr 27 min 41 sec) 

CPU 0 Branch Prediction Accuracy: 97.0391% MPKI: 2.49018

CPU 1 Branch Prediction Accuracy: 84.4906% MPKI: 24.2013

CPU 2 Branch Prediction Accuracy: 97.2281% MPKI: 2.76576

CPU 3 Branch Prediction Accuracy: 92.2889% MPKI: 15.0368

CPU 4 Branch Prediction Accuracy: 96.8409% MPKI: 3.07888

CPU 5 Branch Prediction Accuracy: 84.955% MPKI: 23.4848

CPU 6 Branch Prediction Accuracy: 98.4226% MPKI: 1.7553

CPU 7 Branch Prediction Accuracy: 91.5932% MPKI: 11.1621

ChampSim completed all CPUs

Total Simulation Statistics (not including warmup)

CPU 0 cumulative IPC: 1.12399 instructions: 263264667 cycles: 234224016
L1D TOTAL     ACCESS:   44406849  HIT:   40473234  MISS:    3933615
L1D LOAD      ACCESS:   40025065  HIT:   36272549  MISS:    3752516
L1D RFO       ACCESS:    4381784  HIT:    4200685  MISS:     181099
L1D PREFETCH  ACCESS:          0  HIT:          0  MISS:          0
L1D WRITEBACK ACCESS:          0  HIT:          0  MISS:          0
L1I TOTAL     ACCESS:   69230724  HIT:   69230512  MISS:        212
L1I LOAD      ACCESS:   69230724  HIT:   69230512  MISS:        212
L1I RFO       ACCESS:          0  HIT:          0  MISS:          0
L1I PREFETCH  ACCESS:          0  HIT:          0  MISS:          0
L1I WRITEBACK ACCESS:          0  HIT:          0  MISS:          0
L2C TOTAL     ACCESS:    5854871  HIT:    2528034  MISS:    3326837
L2C LOAD      ACCESS:    3752728  HIT:    1645865  MISS:    2106863
L2C RFO       ACCESS:     181094  HIT:      26494  MISS:     154600
L2C PREFETCH  ACCESS:    1666909  HIT:     602157  MISS:    1064752
L2C WRITEBACK ACCESS:     254140  HIT:     253518  MISS:        622
LLC TOTAL     ACCESS:   13609360  HIT:   13475492  MISS:     133868
LLC LOAD      ACCESS:    2085622  HIT:    2062153  MISS:      23469
LLC RFO       ACCESS:     154600  HIT:     151655  MISS:       2945
LLC PREFETCH  ACCESS:   11154092  HIT:   11046638  MISS:     107454
LLC WRITEBACK ACCESS:     215046  HIT:     215046  MISS:          0

CPU 1 cumulative IPC: 0.452078 instructions: 105887589 cycles: 234224016
L1D TOTAL     ACCESS:   34711119  HIT:   34480119  MISS:     231000
L1D LOAD      ACCESS:   19899780  HIT:   19777867  MISS:     121913
L1D RFO       ACCESS:   14811339  HIT:   14702252  MISS:     109087
L1D PREFETCH  ACCESS:          0  HIT:          0  MISS:          0
L1D WRITEBACK ACCESS:          0  HIT:          0  MISS:          0
L1I TOTAL     ACCESS:   23532980  HIT:   23145342  MISS:     387638
L1I LOAD      ACCESS:   23532980  HIT:   23145342  MISS:     387638
L1I RFO       ACCESS:          0  HIT:          0  MISS:          0
L1I PREFETCH  ACCESS:          0  HIT:          0  MISS:          0
L1I WRITEBACK ACCESS:          0  HIT:          0  MISS:          0
L2C TOTAL     ACCESS:    1129849  HIT:    1058233  MISS:      71616
L2C LOAD      ACCESS:     509548  HIT:     455739  MISS:      53809
L2C RFO       ACCESS:     109082  HIT:      93974  MISS:      15108
L2C PREFETCH  ACCESS:     355250  HIT:     353133  MISS:       2117
L2C WRITEBACK ACCESS:     155969  HIT:     155387  MISS:        582
LLC TOTAL     ACCESS:     203258  HIT:     141595  MISS:      61663
LLC LOAD      ACCESS:      53472  HIT:      26540  MISS:      26932
LLC RFO       ACCESS:      15107  HIT:      12262  MISS:       2845
LLC PREFETCH  ACCESS:      94019  HIT:      64050  MISS:      29969
LLC WRITEBACK ACCESS:      40660  HIT:      38743  MISS:       1917

CPU 2 cumulative IPC: 0.437802 instructions: 102543647 cycles: 234224016
L1D TOTAL     ACCESS:   37313943  HIT:   35657956  MISS:    1655987
L1D LOAD      ACCESS:   23362313  HIT:   21891280  MISS:    1471033
L1D RFO       ACCESS:   13951630  HIT:   13766676  MISS:     184954
L1D PREFETCH  ACCESS:          0  HIT:          0  MISS:          0
L1D WRITEBACK ACCESS:          0  HIT:          0  MISS:          0
L1I TOTAL     ACCESS:   31720337  HIT:   31337983  MISS:     382354
L1I LOAD      ACCESS:   31720337  HIT:   31337983  MISS:     382354
L1I RFO       ACCESS:          0  HIT:          0  MISS:          0
L1I PREFETCH  ACCESS:          0  HIT:          0  MISS:          0
L1I WRITEBACK ACCESS:          0  HIT:          0  MISS:          0
L2C TOTAL     ACCESS:    3588389  HIT:    3574202  MISS:      14187
L2C LOAD      ACCESS:    1853387  HIT:    1839539  MISS:      13848
L2C RFO       ACCESS:     184934  HIT:     184800  MISS:        134
L2C PREFETCH  ACCESS:    1304671  HIT:    1304470  MISS:        201
L2C WRITEBACK ACCESS:     245397  HIT:     245393  MISS:          4
LLC TOTAL     ACCESS:     488569  HIT:     486408  MISS:       2161
LLC LOAD      ACCESS:      13845  HIT:      13768  MISS:         77
LLC RFO       ACCESS:        134  HIT:         87  MISS:         47
LLC PREFETCH  ACCESS:     474494  HIT:     472464  MISS:       2030
LLC WRITEBACK ACCESS:         96  HIT:         89  MISS:          7

CPU 3 cumulative IPC: 0.595871 instructions: 139567195 cycles: 234224016
L1D TOTAL     ACCESS:   37354138  HIT:   37205350  MISS:     148788
L1D LOAD      ACCESS:   26650960  HIT:   26549634  MISS:     101326
L1D RFO       ACCESS:   10703178  HIT:   10655716  MISS:      47462
L1D PREFETCH  ACCESS:          0  HIT:          0  MISS:          0
L1D WRITEBACK ACCESS:          0  HIT:          0  MISS:          0
L1I TOTAL     ACCESS:   32065439  HIT:   32063653  MISS:       1786
L1I LOAD      ACCESS:   32065439  HIT:   32063653  MISS:       1786
L1I RFO       ACCESS:          0  HIT:          0  MISS:          0
L1I PREFETCH  ACCESS:          0  HIT:          0  MISS:          0
L1I WRITEBACK ACCESS:          0  HIT:          0  MISS:          0
L2C TOTAL     ACCESS:     271733  HIT:     220201  MISS:      51532
L2C LOAD      ACCESS:     103109  HIT:      56341  MISS:      46768
L2C RFO       ACCESS:      47436  HIT:      44001  MISS:       3435
L2C PREFETCH  ACCESS:      27256  HIT:      26132  MISS:       1124
L2C WRITEBACK ACCESS:      93932  HIT:      93727  MISS:        205
LLC TOTAL     ACCESS:     157315  HIT:      66366  MISS:      90949
LLC LOAD      ACCESS:      46768  HIT:       2493  MISS:      44275
LLC RFO       ACCESS:       3434  HIT:       1151  MISS:       2283
LLC PREFETCH  ACCESS:      61439  HIT:      20234  MISS:      41205
LLC WRITEBACK ACCESS:      45674  HIT:      42488  MISS:       3186

CPU 4 cumulative IPC: 0.426942 instructions: 100000000 cycles: 234224016
L1D TOTAL     ACCESS:   37121267  HIT:   35684196  MISS:    1437071
L1D LOAD      ACCESS:   22983844  HIT:   21744986  MISS:    1238858
L1D RFO       ACCESS:   14137423  HIT:   13939210  MISS:     198213
L1D PREFETCH  ACCESS:          0  HIT:          0  MISS:          0
L1D WRITEBACK ACCESS:          0  HIT:          0  MISS:          0
L1I TOTAL     ACCESS:   30548235  HIT:   30143553  MISS:     404682
L1I LOAD      ACCESS:   30548235  HIT:   30143553  MISS:     404682
L1I RFO       ACCESS:          0  HIT:          0  MISS:          0
L1I PREFETCH  ACCESS:          0  HIT:          0  MISS:          0
L1I WRITEBACK ACCESS:          0  HIT:          0  MISS:          0
L2C TOTAL     ACCESS:    3293367  HIT:    3292215  MISS:       1152
L2C LOAD      ACCESS:    1643540  HIT:    1642691  MISS:        849
L2C RFO       ACCESS:     198110  HIT:     198044  MISS:         66
L2C PREFETCH  ACCESS:    1190934  HIT:    1190697  MISS:        237
L2C WRITEBACK ACCESS:     260783  HIT:     260783  MISS:          0
LLC TOTAL     ACCESS:     380679  HIT:     377565  MISS:       3114
LLC LOAD      ACCESS:        849  HIT:        383  MISS:        466
LLC RFO       ACCESS:         66  HIT:          9  MISS:         57
LLC PREFETCH  ACCESS:     379753  HIT:     377166  MISS:       2587
LLC WRITEBACK ACCESS:         11  HIT:          7  MISS:          4

CPU 5 cumulative IPC: 0.441872 instructions: 103497085 cycles: 234224017
L1D TOTAL     ACCESS:   34264068  HIT:   33906818  MISS:     357250
L1D LOAD      ACCESS:   19414948  HIT:   19198180  MISS:     216768
L1D RFO       ACCESS:   14849120  HIT:   14708638  MISS:     140482
L1D PREFETCH  ACCESS:          0  HIT:          0  MISS:          0
L1D WRITEBACK ACCESS:          0  HIT:          0  MISS:          0
L1I TOTAL     ACCESS:   23357311  HIT:   23013120  MISS:     344191
L1I LOAD      ACCESS:   23357311  HIT:   23013120  MISS:     344191
L1I RFO       ACCESS:          0  HIT:          0  MISS:          0
L1I PREFETCH  ACCESS:          0  HIT:          0  MISS:          0
L1I WRITEBACK ACCESS:          0  HIT:          0  MISS:          0
L2C TOTAL     ACCESS:    1273720  HIT:    1077803  MISS:     195917
L2C LOAD      ACCESS:     560958  HIT:     415092  MISS:     145866
L2C RFO       ACCESS:     140476  HIT:     102716  MISS:      37760
L2C PREFETCH  ACCESS:     355294  HIT:     344553  MISS:      10741
L2C WRITEBACK ACCESS:     216992  HIT:     215442  MISS:       1550
LLC TOTAL     ACCESS:     494297  HIT:     410861  MISS:      83436
LLC LOAD      ACCESS:     142007  HIT:     104447  MISS:      37560
LLC RFO       ACCESS:      37760  HIT:      35698  MISS:       2062
LLC PREFETCH  ACCESS:     227682  HIT:     184394  MISS:      43288
LLC WRITEBACK ACCESS:      86848  HIT:      86322  MISS:        526

CPU 6 cumulative IPC: 0.734014 instructions: 171923753 cycles: 234224017
L1D TOTAL     ACCESS:   51849594  HIT:   50702456  MISS:    1147138
L1D LOAD      ACCESS:   34802651  HIT:   34199260  MISS:     603391
L1D RFO       ACCESS:   17046943  HIT:   16503196  MISS:     543747
L1D PREFETCH  ACCESS:          0  HIT:          0  MISS:          0
L1D WRITEBACK ACCESS:          0  HIT:          0  MISS:          0
L1I TOTAL     ACCESS:   44418005  HIT:   44219122  MISS:     198883
L1I LOAD      ACCESS:   44418005  HIT:   44219122  MISS:     198883
L1I RFO       ACCESS:          0  HIT:          0  MISS:          0
L1I PREFETCH  ACCESS:          0  HIT:          0  MISS:          0
L1I WRITEBACK ACCESS:          0  HIT:          0  MISS:          0
L2C TOTAL     ACCESS:    3695895  HIT:    3422279  MISS:     273616
L2C LOAD      ACCESS:     802257  HIT:     698704  MISS:     103553
L2C RFO       ACCESS:     543747  HIT:     392560  MISS:     151187
L2C PREFETCH  ACCESS:    1753812  HIT:    1736164  MISS:      17648
L2C WRITEBACK ACCESS:     596079  HIT:     594851  MISS:       1228
LLC TOTAL     ACCESS:     689012  HIT:     665738  MISS:      23274
LLC LOAD      ACCESS:     102526  HIT:      93965  MISS:       8561
LLC RFO       ACCESS:     151174  HIT:     150254  MISS:        920
LLC PREFETCH  ACCESS:     272260  HIT:     259990  MISS:      12270
LLC WRITEBACK ACCESS:     163052  HIT:     161529  MISS:       1523

CPU 7 cumulative IPC: 0.807535 instructions: 189144147 cycles: 234224017
L1D TOTAL     ACCESS:   58632802  HIT:   56260177  MISS:    2372625
L1D LOAD      ACCESS:   35617949  HIT:   33805780  MISS:    1812169
L1D RFO       ACCESS:   23014853  HIT:   22454397  MISS:     560456
L1D PREFETCH  ACCESS:          0  HIT:          0  MISS:          0
L1D WRITEBACK ACCESS:          0  HIT:          0  MISS:          0
L1I TOTAL     ACCESS:   44536035  HIT:   44535838  MISS:        197
L1I LOAD      ACCESS:   44536035  HIT:   44535838  MISS:        197
L1I RFO       ACCESS:          0  HIT:          0  MISS:          0
L1I PREFETCH  ACCESS:          0  HIT:          0  MISS:          0
L1I WRITEBACK ACCESS:          0  HIT:          0  MISS:          0
L2C TOTAL     ACCESS:    3728958  HIT:    2472590  MISS:    1256368
L2C LOAD      ACCESS:    1811900  HIT:    1020991  MISS:     790909
L2C RFO       ACCESS:     560302  HIT:     167079  MISS:     393223
L2C PREFETCH  ACCESS:     572639  HIT:     501180  MISS:      71459
L2C WRITEBACK ACCESS:     784117  HIT:     783340  MISS:        777
LLC TOTAL     ACCESS:    2735840  HIT:    2631598  MISS:     104242
LLC LOAD      ACCESS:     786524  HIT:     780518  MISS:       6006
LLC RFO       ACCESS:     393205  HIT:     329106  MISS:      64099
LLC PREFETCH  ACCESS:    1079544  HIT:    1045428  MISS:      34116
LLC WRITEBACK ACCESS:     476567  HIT:     476546  MISS:         21

Region of Interest Statistics

CPU 0 cumulative IPC: 1.13879 instructions: 100000000 cycles: 87812423
L1D TOTAL     ACCESS:   16819920  HIT:   15338885  MISS:    1481035
L1D LOAD      ACCESS:   15213685  HIT:   13801806  MISS:    1411879
L1D RFO       ACCESS:    1606235  HIT:    1537079  MISS:      69156
L1D PREFETCH  ACCESS:          0  HIT:          0  MISS:          0
L1D WRITEBACK ACCESS:          0  HIT:          0  MISS:          0
L1D PREFETCH  REQUESTED:          0  ISSUED:          0  USEFUL:          0  USELESS:          0
L1I TOTAL     ACCESS:   26367635  HIT:   26367542  MISS:         93
L1I LOAD      ACCESS:   26367635  HIT:   26367542  MISS:         93
L1I RFO       ACCESS:          0  HIT:          0  MISS:          0
L1I PREFETCH  ACCESS:          0  HIT:          0  MISS:          0
L1I WRITEBACK ACCESS:          0  HIT:          0  MISS:          0
L1I PREFETCH  REQUESTED:          0  ISSUED:          0  USEFUL:          0  USELESS:          0
L2C TOTAL     ACCESS:    2238402  HIT:     981992  MISS:    1256410
L2C LOAD      ACCESS:    1411972  HIT:     633367  MISS:     778605
L2C RFO       ACCESS:      69154  HIT:       8723  MISS:      60431
L2C PREFETCH  ACCESS:     665673  HIT:     248543  MISS:     417130
L2C WRITEBACK ACCESS:      91603  HIT:      91359  MISS:        244
L2C PREFETCH  REQUESTED:   13531820  ISSUED:   13531779  USEFUL:    1149480  USELESS:      36878
LLC TOTAL     ACCESS:    5320480  HIT:    5283018  MISS:      37462
LLC LOAD      ACCESS:     770966  HIT:     764115  MISS:       6851
LLC RFO       ACCESS:      60431  HIT:      59524  MISS:        907
LLC PREFETCH  ACCESS:    4410185  HIT:    4380481  MISS:      29704
LLC WRITEBACK ACCESS:      78898  HIT:      78898  MISS:          0
LLC PREFETCH  REQUESTED:          0  ISSUED:          0  USEFUL:     284583  USELESS:     157205
Major fault: 0 Minor fault: 4225

CPU 1 cumulative IPC: 0.452589 instructions: 100000001 cycles: 220950906
L1D TOTAL     ACCESS:   32759439  HIT:   32538347  MISS:     221092
L1D LOAD      ACCESS:   18797541  HIT:   18680438  MISS:     117103
L1D RFO       ACCESS:   13961898  HIT:   13857909  MISS:     103989
L1D PREFETCH  ACCESS:          0  HIT:          0  MISS:          0
L1D WRITEBACK ACCESS:          0  HIT:          0  MISS:          0
L1D PREFETCH  REQUESTED:          0  ISSUED:          0  USEFUL:          0  USELESS:          0
L1I TOTAL     ACCESS:   22230581  HIT:   21866562  MISS:     364019
L1I LOAD      ACCESS:   22230581  HIT:   21866562  MISS:     364019
L1I RFO       ACCESS:          0  HIT:          0  MISS:          0
L1I PREFETCH  ACCESS:          0  HIT:          0  MISS:          0
L1I WRITEBACK ACCESS:          0  HIT:          0  MISS:          0
L1I PREFETCH  REQUESTED:          0  ISSUED:          0  USEFUL:          0  USELESS:          0
L2C TOTAL     ACCESS:    1067047  HIT:     998328  MISS:      68719
L2C LOAD      ACCESS:     481119  HIT:     429567  MISS:      51552
L2C RFO       ACCESS:     103984  HIT:      89404  MISS:      14580
L2C PREFETCH  ACCESS:     333394  HIT:     331358  MISS:       2036
L2C WRITEBACK ACCESS:     148550  HIT:     147999  MISS:        551
L2C PREFETCH  REQUESTED:     619928  ISSUED:     619928  USEFUL:       2283  USELESS:       1039
LLC TOTAL     ACCESS:     193478  HIT:     135069  MISS:      58409
LLC LOAD      ACCESS:      51215  HIT:      25565  MISS:      25650
LLC RFO       ACCESS:      14579  HIT:      11782  MISS:       2797
LLC PREFETCH  ACCESS:      88998  HIT:      60845  MISS:      28153
LLC WRITEBACK ACCESS:      38686  HIT:      36877  MISS:       1809
LLC PREFETCH  REQUESTED:          0  ISSUED:          0  USEFUL:     284583  USELESS:     157205
Major fault: 0 Minor fault: 3147

CPU 2 cumulative IPC: 0.437589 instructions: 100000002 cycles: 228525134
L1D TOTAL     ACCESS:   36398268  HIT:   34782471  MISS:    1615797
L1D LOAD      ACCESS:   22786674  HIT:   21351363  MISS:    1435311
L1D RFO       ACCESS:   13611594  HIT:   13431108  MISS:     180486
L1D PREFETCH  ACCESS:          0  HIT:          0  MISS:          0
L1D WRITEBACK ACCESS:          0  HIT:          0  MISS:          0
L1D PREFETCH  REQUESTED:          0  ISSUED:          0  USEFUL:          0  USELESS:          0
L1I TOTAL     ACCESS:   30940213  HIT:   30566403  MISS:     373810
L1I LOAD      ACCESS:   30940213  HIT:   30566403  MISS:     373810
L1I RFO       ACCESS:          0  HIT:          0  MISS:          0
L1I PREFETCH  ACCESS:          0  HIT:          0  MISS:          0
L1I WRITEBACK ACCESS:          0  HIT:          0  MISS:          0
L1I PREFETCH  REQUESTED:          0  ISSUED:          0  USEFUL:          0  USELESS:          0
L2C TOTAL     ACCESS:    3497655  HIT:    3483652  MISS:      14003
L2C LOAD      ACCESS:    1809121  HIT:    1795454  MISS:      13667
L2C RFO       ACCESS:     180467  HIT:     180335  MISS:        132
L2C PREFETCH  ACCESS:    1268582  HIT:    1268382  MISS:        200
L2C WRITEBACK ACCESS:     239485  HIT:     239481  MISS:          4
L2C PREFETCH  REQUESTED:    2305489  ISSUED:    2305261  USEFUL:         79  USELESS:        158
LLC TOTAL     ACCESS:     475776  HIT:     473672  MISS:       2104
LLC LOAD      ACCESS:      13664  HIT:      13589  MISS:         75
LLC RFO       ACCESS:        132  HIT:         87  MISS:         45
LLC PREFETCH  ACCESS:     461884  HIT:     459907  MISS:       1977
LLC WRITEBACK ACCESS:         96  HIT:         89  MISS:          7
LLC PREFETCH  REQUESTED:          0  ISSUED:          0  USEFUL:     284583  USELESS:     157205
Major fault: 0 Minor fault: 207

CPU 3 cumulative IPC: 0.593044 instructions: 100000000 cycles: 168621554
L1D TOTAL     ACCESS:   26884443  HIT:   26776489  MISS:     107954
L1D LOAD      ACCESS:   19188644  HIT:   19117096  MISS:      71548
L1D RFO       ACCESS:    7695799  HIT:    7659393  MISS:      36406
L1D PREFETCH  ACCESS:          0  HIT:          0  MISS:          0
L1D WRITEBACK ACCESS:          0  HIT:          0  MISS:          0
L1D PREFETCH  REQUESTED:          0  ISSUED:          0  USEFUL:          0  USELESS:          0
L1I TOTAL     ACCESS:   23005625  HIT:   23004356  MISS:       1269
L1I LOAD      ACCESS:   23005625  HIT:   23004356  MISS:       1269
L1I RFO       ACCESS:          0  HIT:          0  MISS:          0
L1I PREFETCH  ACCESS:          0  HIT:          0  MISS:          0
L1I WRITEBACK ACCESS:          0  HIT:          0  MISS:          0
L1I PREFETCH  REQUESTED:          0  ISSUED:          0  USEFUL:          0  USELESS:          0
L2C TOTAL     ACCESS:     197508  HIT:     160220  MISS:      37288
L2C LOAD      ACCESS:      72816  HIT:      39027  MISS:      33789
L2C RFO       ACCESS:      36384  HIT:      33797  MISS:       2587
L2C PREFETCH  ACCESS:      18410  HIT:      17646  MISS:        764
L2C WRITEBACK ACCESS:      69898  HIT:      69750  MISS:        148
L2C PREFETCH  REQUESTED:      93544  ISSUED:      93544  USEFUL:         93  USELESS:       1125
LLC TOTAL     ACCESS:     110732  HIT:      46244  MISS:      64488
LLC LOAD      ACCESS:      33789  HIT:       1736  MISS:      32053
LLC RFO       ACCESS:       2586  HIT:        949  MISS:       1637
LLC PREFETCH  ACCESS:      41105  HIT:      12932  MISS:      28173
LLC WRITEBACK ACCESS:      33252  HIT:      30627  MISS:       2625
LLC PREFETCH  REQUESTED:          0  ISSUED:          0  USEFUL:     284583  USELESS:     157205
Major fault: 0 Minor fault: 17490

CPU 4 cumulative IPC: 0.426942 instructions: 100000000 cycles: 234224016
L1D TOTAL     ACCESS:   37121267  HIT:   35684196  MISS:    1437071
L1D LOAD      ACCESS:   22983844  HIT:   21744986  MISS:    1238858
L1D RFO       ACCESS:   14137423  HIT:   13939210  MISS:     198213
L1D PREFETCH  ACCESS:          0  HIT:          0  MISS:          0
L1D WRITEBACK ACCESS:          0  HIT:          0  MISS:          0
L1D PREFETCH  REQUESTED:          0  ISSUED:          0  USEFUL:          0  USELESS:          0
L1I TOTAL     ACCESS:   30548235  HIT:   30143553  MISS:     404682
L1I LOAD      ACCESS:   30548235  HIT:   30143553  MISS:     404682
L1I RFO       ACCESS:          0  HIT:          0  MISS:          0
L1I PREFETCH  ACCESS:          0  HIT:          0  MISS:          0
L1I WRITEBACK ACCESS:          0  HIT:          0  MISS:          0
L1I PREFETCH  REQUESTED:          0  ISSUED:          0  USEFUL:          0  USELESS:          0
L2C TOTAL     ACCESS:    3293367  HIT:    3292215  MISS:       1152
L2C LOAD      ACCESS:    1643540  HIT:    1642691  MISS:        849
L2C RFO       ACCESS:     198110  HIT:     198044  MISS:         66
L2C PREFETCH  ACCESS:    1190934  HIT:    1190697  MISS:        237
L2C WRITEBACK ACCESS:     260783  HIT:     260783  MISS:          0
L2C PREFETCH  REQUESTED:    2023797  ISSUED:    2023663  USEFUL:         46  USELESS:         26
LLC TOTAL     ACCESS:     380679  HIT:     377565  MISS:       3114
LLC LOAD      ACCESS:        849  HIT:        383  MISS:        466
LLC RFO       ACCESS:         66  HIT:          9  MISS:         57
LLC PREFETCH  ACCESS:     379753  HIT:     377166  MISS:       2587
LLC WRITEBACK ACCESS:         11  HIT:          7  MISS:          4
LLC PREFETCH  REQUESTED:          0  ISSUED:          0  USEFUL:     284583  USELESS:     157205
Major fault: 0 Minor fault: 207

CPU 5 cumulative IPC: 0.442042 instructions: 100000001 cycles: 226223000
L1D TOTAL     ACCESS:   33049644  HIT:   32698309  MISS:     351335
L1D LOAD      ACCESS:   18743342  HIT:   18529347  MISS:     213995
L1D RFO       ACCESS:   14306302  HIT:   14168962  MISS:     137340
L1D PREFETCH  ACCESS:          0  HIT:          0  MISS:          0
L1D WRITEBACK ACCESS:          0  HIT:          0  MISS:          0
L1D PREFETCH  REQUESTED:          0  ISSUED:          0  USEFUL:          0  USELESS:          0
L1I TOTAL     ACCESS:   22573250  HIT:   22241103  MISS:     332147
L1I LOAD      ACCESS:   22573250  HIT:   22241103  MISS:     332147
L1I RFO       ACCESS:          0  HIT:          0  MISS:          0
L1I PREFETCH  ACCESS:          0  HIT:          0  MISS:          0
L1I WRITEBACK ACCESS:          0  HIT:          0  MISS:          0
L1I PREFETCH  REQUESTED:          0  ISSUED:          0  USEFUL:          0  USELESS:          0
L2C TOTAL     ACCESS:    1239853  HIT:    1046189  MISS:     193664
L2C LOAD      ACCESS:     546141  HIT:     402220  MISS:     143921
L2C RFO       ACCESS:     137334  HIT:      99783  MISS:      37551
L2C PREFETCH  ACCESS:     344367  HIT:     333701  MISS:      10666
L2C WRITEBACK ACCESS:     212011  HIT:     210485  MISS:       1526
L2C PREFETCH  REQUESTED:     941880  ISSUED:     941859  USEFUL:      11647  USELESS:       1848
LLC TOTAL     ACCESS:     486948  HIT:     406664  MISS:      80284
LLC LOAD      ACCESS:     140062  HIT:     103817  MISS:      36245
LLC RFO       ACCESS:      37551  HIT:      35511  MISS:       2040
LLC PREFETCH  ACCESS:     223459  HIT:     181977  MISS:      41482
LLC WRITEBACK ACCESS:      85876  HIT:      85359  MISS:        517
LLC PREFETCH  REQUESTED:          0  ISSUED:          0  USEFUL:     284583  USELESS:     157205
Major fault: 0 Minor fault: 3338

CPU 6 cumulative IPC: 0.736989 instructions: 100000000 cycles: 135687313
L1D TOTAL     ACCESS:   30115475  HIT:   29437754  MISS:     677721
L1D LOAD      ACCESS:   20234795  HIT:   19878812  MISS:     355983
L1D RFO       ACCESS:    9880680  HIT:    9558942  MISS:     321738
L1D PREFETCH  ACCESS:          0  HIT:          0  MISS:          0
L1D WRITEBACK ACCESS:          0  HIT:          0  MISS:          0
L1D PREFETCH  REQUESTED:          0  ISSUED:          0  USEFUL:          0  USELESS:          0
L1I TOTAL     ACCESS:   25654481  HIT:   25530467  MISS:     124014
L1I LOAD      ACCESS:   25654481  HIT:   25530467  MISS:     124014
L1I RFO       ACCESS:          0  HIT:          0  MISS:          0
L1I PREFETCH  ACCESS:          0  HIT:          0  MISS:          0
L1I WRITEBACK ACCESS:          0  HIT:          0  MISS:          0
L1I PREFETCH  REQUESTED:          0  ISSUED:          0  USEFUL:          0  USELESS:          0
L2C TOTAL     ACCESS:    2205120  HIT:    2052830  MISS:     152290
L2C LOAD      ACCESS:     479987  HIT:     421113  MISS:      58874
L2C RFO       ACCESS:     321738  HIT:     238573  MISS:      83165
L2C PREFETCH  ACCESS:    1049381  HIT:    1039787  MISS:       9594
L2C WRITEBACK ACCESS:     354014  HIT:     353357  MISS:        657
L2C PREFETCH  REQUESTED:    2691096  ISSUED:    2690501  USEFUL:      21375  USELESS:       1439
LLC TOTAL     ACCESS:     386903  HIT:     372596  MISS:      14307
LLC LOAD      ACCESS:      58308  HIT:      53015  MISS:       5293
LLC RFO       ACCESS:      83159  HIT:      82700  MISS:        459
LLC PREFETCH  ACCESS:     155878  HIT:     148219  MISS:       7659
LLC WRITEBACK ACCESS:      89558  HIT:      88662  MISS:        896
LLC PREFETCH  REQUESTED:          0  ISSUED:          0  USEFUL:     284583  USELESS:     157205
Major fault: 0 Minor fault: 609

CPU 7 cumulative IPC: 0.824009 instructions: 100000000 cycles: 121357837
L1D TOTAL     ACCESS:   33440802  HIT:   32554570  MISS:     886232
L1D LOAD      ACCESS:   19421550  HIT:   18827120  MISS:     594430
L1D RFO       ACCESS:   14019252  HIT:   13727450  MISS:     291802
L1D PREFETCH  ACCESS:          0  HIT:          0  MISS:          0
L1D WRITEBACK ACCESS:          0  HIT:          0  MISS:          0
L1D PREFETCH  REQUESTED:          0  ISSUED:          0  USEFUL:          0  USELESS:          0
L1I TOTAL     ACCESS:   24522048  HIT:   24521859  MISS:        189
L1I LOAD      ACCESS:   24522048  HIT:   24521859  MISS:        189
L1I RFO       ACCESS:          0  HIT:          0  MISS:          0
L1I PREFETCH  ACCESS:          0  HIT:          0  MISS:          0
L1I WRITEBACK ACCESS:          0  HIT:          0  MISS:          0
L1I PREFETCH  REQUESTED:          0  ISSUED:          0  USEFUL:          0  USELESS:          0
L2C TOTAL     ACCESS:    1597857  HIT:    1141363  MISS:     456494
L2C LOAD      ACCESS:     594157  HIT:     344056  MISS:     250101
L2C RFO       ACCESS:     291682  HIT:     111627  MISS:     180055
L2C PREFETCH  ACCESS:     232499  HIT:     206738  MISS:      25761
L2C WRITEBACK ACCESS:     479519  HIT:     478942  MISS:        577
L2C PREFETCH  REQUESTED:    2086156  ISSUED:    2086156  USEFUL:      82410  USELESS:       3821
LLC TOTAL     ACCESS:    1063286  HIT:     996440  MISS:      66846
LLC LOAD      ACCESS:     248621  HIT:     246671  MISS:       1950
LLC RFO       ACCESS:     180046  HIT:     126084  MISS:      53962
LLC PREFETCH  ACCESS:     392274  HIT:     381361  MISS:      10913
LLC WRITEBACK ACCESS:     242345  HIT:     242324  MISS:         21
LLC PREFETCH  REQUESTED:          0  ISSUED:          0  USEFUL:     284583  USELESS:     157205
Major fault: 0 Minor fault: 1126

DRAM Statistics
 CHANNEL 0
 RQ ROW_BUFFER_HIT:      56722  ROW_BUFFER_MISS:     190063
 DBUS_CONGESTED:     235253
 WQ ROW_BUFFER_HIT:       5923  ROW_BUFFER_MISS:      73624  FULL:          0

 CHANNEL 1
 RQ ROW_BUFFER_HIT:      56810  ROW_BUFFER_MISS:     191724
 DBUS_CONGESTED:     235253
 WQ ROW_BUFFER_HIT:       5787  ROW_BUFFER_MISS:      74428  FULL:          0

 AVG_CONGESTED_CYCLE: 13
