Initialize SIGNATURE TABLE
ST_SET: 1
ST_WAY: 256
ST_TAG_BIT: 16
ST_TAG_MASK: ffff

Initialize PATTERN TABLE
PT_SET: 512
PT_WAY: 4
SIG_DELTA_BIT: 7
C_SIG_BIT: 4
C_DELTA_BIT: 4

Initialize PREFETCH FILTER
FILTER_SET: 1024

*** ChampSim Multicore Out-of-Order Simulator ***

Warmup Instructions: 20000000
Simulation Instructions: 100000000
Number of CPUs: 8
LLC sets: 16384
LLC ways: 16
Off-chip DRAM Size: 8192 MB Channels: 2 Width: 64-bit Data Rate: 1600 MT/s

CPU 0 runs /scratch/user/djimenez/champsim-traces/speccpu2006/xz/464.h264ref-64B.champsimtrace.xz
CPU 1 runs /scratch/user/djimenez/champsim-traces/speccpu2006/xz/435.gromacs-226B.champsimtrace.xz
CPU 2 runs /scratch/user/djimenez/champsim-traces/speccpu2006/xz/464.h264ref-30B.champsimtrace.xz
CPU 3 runs /scratch/user/djimenez/champsim-traces/speccpu2006/xz/482.sphinx3-1395B.champsimtrace.xz
CPU 4 runs /scratch/user/djimenez/champsim-traces/speccpu2006/xz/445.gobmk-36B.champsimtrace.xz
CPU 5 runs /scratch/user/djimenez/champsim-traces/speccpu2006/xz/453.povray-800B.champsimtrace.xz
CPU 6 runs /scratch/user/djimenez/champsim-traces/speccpu2006/xz/410.bwaves-945B.champsimtrace.xz
CPU 7 runs /scratch/user/djimenez/champsim-traces/speccpu2006/xz/436.cactusADM-1804B.champsimtrace.xz
Heartbeat CPU 6 instructions: 10000002 cycles: 3637425 heartbeat IPC: 2.7492 cumulative IPC: 2.7492 (Simulation time: 0 hr 3 min 0 sec) 
Heartbeat CPU 3 instructions: 10000001 cycles: 3910376 heartbeat IPC: 2.5573 cumulative IPC: 2.5573 (Simulation time: 0 hr 3 min 13 sec) 
Heartbeat CPU 1 instructions: 10000000 cycles: 4753465 heartbeat IPC: 2.10373 cumulative IPC: 2.10373 (Simulation time: 0 hr 3 min 55 sec) 
Heartbeat CPU 0 instructions: 10000002 cycles: 4855582 heartbeat IPC: 2.05949 cumulative IPC: 2.05949 (Simulation time: 0 hr 4 min 0 sec) 
Heartbeat CPU 2 instructions: 10000001 cycles: 6203691 heartbeat IPC: 1.61194 cumulative IPC: 1.61194 (Simulation time: 0 hr 5 min 6 sec) 
Heartbeat CPU 4 instructions: 10000000 cycles: 6464723 heartbeat IPC: 1.54686 cumulative IPC: 1.54686 (Simulation time: 0 hr 5 min 19 sec) 
Heartbeat CPU 5 instructions: 10000000 cycles: 6646065 heartbeat IPC: 1.50465 cumulative IPC: 1.50465 (Simulation time: 0 hr 5 min 28 sec) 
Heartbeat CPU 6 instructions: 20000000 cycles: 7269195 heartbeat IPC: 2.75348 cumulative IPC: 2.75134 (Simulation time: 0 hr 5 min 56 sec) 
Heartbeat CPU 7 instructions: 10000003 cycles: 7591518 heartbeat IPC: 1.31726 cumulative IPC: 1.31726 (Simulation time: 0 hr 6 min 10 sec) 
Heartbeat CPU 3 instructions: 20000000 cycles: 7880839 heartbeat IPC: 2.5186 cumulative IPC: 2.5378 (Simulation time: 0 hr 6 min 24 sec) 
Heartbeat CPU 1 instructions: 20000000 cycles: 9509919 heartbeat IPC: 2.10241 cumulative IPC: 2.10307 (Simulation time: 0 hr 7 min 37 sec) 
Heartbeat CPU 0 instructions: 20000000 cycles: 10015744 heartbeat IPC: 1.93792 cumulative IPC: 1.99686 (Simulation time: 0 hr 8 min 0 sec) 
Heartbeat CPU 6 instructions: 30000000 cycles: 10894797 heartbeat IPC: 2.75816 cumulative IPC: 0.917869 (Simulation time: 0 hr 8 min 41 sec) 
Heartbeat CPU 3 instructions: 30000000 cycles: 11717731 heartbeat IPC: 2.60628 cumulative IPC: 0.853408 (Simulation time: 0 hr 9 min 20 sec) 
Heartbeat CPU 2 instructions: 20000000 cycles: 12349767 heartbeat IPC: 1.62705 cumulative IPC: 1.61946 (Simulation time: 0 hr 9 min 49 sec) 
Heartbeat CPU 4 instructions: 20000000 cycles: 12890865 heartbeat IPC: 1.55614 cumulative IPC: 1.55149 (Simulation time: 0 hr 10 min 15 sec) 
Heartbeat CPU 5 instructions: 20000000 cycles: 13409074 heartbeat IPC: 1.47863 cumulative IPC: 1.49153 (Simulation time: 0 hr 10 min 41 sec) 
Heartbeat CPU 1 instructions: 30000000 cycles: 14266936 heartbeat IPC: 2.10216 cumulative IPC: 0.700921 (Simulation time: 0 hr 11 min 25 sec) 
Heartbeat CPU 6 instructions: 40000000 cycles: 14523844 heartbeat IPC: 2.75554 cumulative IPC: 1.37705 (Simulation time: 0 hr 11 min 40 sec) 
Heartbeat CPU 0 instructions: 30000002 cycles: 14999552 heartbeat IPC: 2.0065 cumulative IPC: 0.666687 (Simulation time: 0 hr 12 min 4 sec) 
Heartbeat CPU 7 instructions: 20000000 cycles: 15235320 heartbeat IPC: 1.30825 cumulative IPC: 1.31274 (Simulation time: 0 hr 12 min 16 sec) 

Warmup complete CPU 0 instructions: 30473395 cycles: 15235336 (Simulation time: 0 hr 12 min 16 sec) 
Warmup complete CPU 1 instructions: 32035391 cycles: 15235336 (Simulation time: 0 hr 12 min 16 sec) 
Warmup complete CPU 2 instructions: 25283588 cycles: 15235336 (Simulation time: 0 hr 12 min 16 sec) 
Warmup complete CPU 3 instructions: 39179750 cycles: 15235336 (Simulation time: 0 hr 12 min 16 sec) 
Warmup complete CPU 4 instructions: 23685082 cycles: 15235336 (Simulation time: 0 hr 12 min 16 sec) 
Warmup complete CPU 5 instructions: 22682736 cycles: 15235336 (Simulation time: 0 hr 12 min 16 sec) 
Warmup complete CPU 6 instructions: 41962042 cycles: 15235336 (Simulation time: 0 hr 12 min 16 sec) 
Warmup complete CPU 7 instructions: 20000002 cycles: 15235336 (Simulation time: 0 hr 12 min 16 sec) 

Heartbeat CPU 3 instructions: 40000000 cycles: 15896315 heartbeat IPC: 2.39316 cumulative IPC: 1.24096 (Simulation time: 0 hr 12 min 36 sec) 
Heartbeat CPU 2 instructions: 30000001 cycles: 21783099 heartbeat IPC: 1.06007 cumulative IPC: 0.720309 (Simulation time: 0 hr 15 min 33 sec) 
Heartbeat CPU 1 instructions: 40000000 cycles: 21846870 heartbeat IPC: 1.31927 cumulative IPC: 1.20465 (Simulation time: 0 hr 15 min 35 sec) 
Heartbeat CPU 0 instructions: 40000000 cycles: 22892618 heartbeat IPC: 1.26693 cumulative IPC: 1.24412 (Simulation time: 0 hr 16 min 6 sec) 
Heartbeat CPU 6 instructions: 50000000 cycles: 24256091 heartbeat IPC: 1.02751 cumulative IPC: 0.891052 (Simulation time: 0 hr 16 min 44 sec) 
Heartbeat CPU 3 instructions: 50000000 cycles: 24603169 heartbeat IPC: 1.14852 cumulative IPC: 1.15504 (Simulation time: 0 hr 16 min 55 sec) 
Heartbeat CPU 4 instructions: 30000001 cycles: 29483040 heartbeat IPC: 0.602694 cumulative IPC: 0.443224 (Simulation time: 0 hr 19 min 15 sec) 
Heartbeat CPU 1 instructions: 50000000 cycles: 30410641 heartbeat IPC: 1.16771 cumulative IPC: 1.18381 (Simulation time: 0 hr 19 min 38 sec) 
Heartbeat CPU 0 instructions: 50000002 cycles: 30929921 heartbeat IPC: 1.2442 cumulative IPC: 1.24416 (Simulation time: 0 hr 19 min 52 sec) 
Heartbeat CPU 3 instructions: 60000000 cycles: 33018056 heartbeat IPC: 1.18837 cumulative IPC: 1.17081 (Simulation time: 0 hr 20 min 51 sec) 
Heartbeat CPU 5 instructions: 30000003 cycles: 33566724 heartbeat IPC: 0.49609 cumulative IPC: 0.399166 (Simulation time: 0 hr 21 min 5 sec) 
Heartbeat CPU 7 instructions: 30000003 cycles: 35110702 heartbeat IPC: 0.503135 cumulative IPC: 0.503135 (Simulation time: 0 hr 21 min 45 sec) 
Heartbeat CPU 6 instructions: 60000000 cycles: 35488403 heartbeat IPC: 0.890289 cumulative IPC: 0.890628 (Simulation time: 0 hr 21 min 56 sec) 
Heartbeat CPU 2 instructions: 40000000 cycles: 35681977 heartbeat IPC: 0.719482 cumulative IPC: 0.719747 (Simulation time: 0 hr 22 min 1 sec) 
Heartbeat CPU 1 instructions: 60000000 cycles: 38098162 heartbeat IPC: 1.30081 cumulative IPC: 1.22315 (Simulation time: 0 hr 23 min 6 sec) 
Heartbeat CPU 3 instructions: 70000000 cycles: 41787349 heartbeat IPC: 1.14034 cumulative IPC: 1.16075 (Simulation time: 0 hr 25 min 0 sec) 
Heartbeat CPU 0 instructions: 60000000 cycles: 42024174 heartbeat IPC: 0.901367 cumulative IPC: 1.1022 (Simulation time: 0 hr 25 min 8 sec) 
Heartbeat CPU 2 instructions: 50000002 cycles: 44076053 heartbeat IPC: 1.19132 cumulative IPC: 0.856997 (Simulation time: 0 hr 26 min 6 sec) 
Heartbeat CPU 6 instructions: 70000002 cycles: 46685070 heartbeat IPC: 0.893123 cumulative IPC: 0.891517 (Simulation time: 0 hr 27 min 31 sec) 
Heartbeat CPU 1 instructions: 70000001 cycles: 48076150 heartbeat IPC: 1.00221 cumulative IPC: 1.15602 (Simulation time: 0 hr 28 min 13 sec) 
Heartbeat CPU 3 instructions: 80000000 cycles: 50856323 heartbeat IPC: 1.10266 cumulative IPC: 1.14596 (Simulation time: 0 hr 29 min 31 sec) 
Heartbeat CPU 2 instructions: 60000000 cycles: 52126414 heartbeat IPC: 1.24218 cumulative IPC: 0.941052 (Simulation time: 0 hr 30 min 10 sec) 
Heartbeat CPU 4 instructions: 40000000 cycles: 52140277 heartbeat IPC: 0.44136 cumulative IPC: 0.44208 (Simulation time: 0 hr 30 min 11 sec) 
Heartbeat CPU 0 instructions: 70000000 cycles: 54833351 heartbeat IPC: 0.78069 cumulative IPC: 0.998197 (Simulation time: 0 hr 31 min 26 sec) 
Heartbeat CPU 7 instructions: 40000000 cycles: 55023228 heartbeat IPC: 0.502196 cumulative IPC: 0.502665 (Simulation time: 0 hr 31 min 33 sec) 
Heartbeat CPU 6 instructions: 80000000 cycles: 57830548 heartbeat IPC: 0.897225 cumulative IPC: 0.89301 (Simulation time: 0 hr 32 min 41 sec) 
Heartbeat CPU 5 instructions: 40000000 cycles: 58273089 heartbeat IPC: 0.404754 cumulative IPC: 0.402374 (Simulation time: 0 hr 32 min 51 sec) 
Heartbeat CPU 3 instructions: 90000000 cycles: 58614861 heartbeat IPC: 1.2889 cumulative IPC: 1.17153 (Simulation time: 0 hr 33 min 0 sec) 
Heartbeat CPU 2 instructions: 70000003 cycles: 60164563 heartbeat IPC: 1.24407 cumulative IPC: 0.995263 (Simulation time: 0 hr 33 min 39 sec) 
Heartbeat CPU 1 instructions: 80000000 cycles: 62429169 heartbeat IPC: 0.696717 cumulative IPC: 1.01633 (Simulation time: 0 hr 34 min 37 sec) 
Heartbeat CPU 0 instructions: 80000000 cycles: 64946215 heartbeat IPC: 0.98884 cumulative IPC: 0.996293 (Simulation time: 0 hr 35 min 38 sec) 
Heartbeat CPU 3 instructions: 100000000 cycles: 65773433 heartbeat IPC: 1.39693 cumulative IPC: 1.20345 (Simulation time: 0 hr 35 min 58 sec) 
Heartbeat CPU 6 instructions: 90000000 cycles: 69013192 heartbeat IPC: 0.894243 cumulative IPC: 0.893266 (Simulation time: 0 hr 37 min 19 sec) 
Heartbeat CPU 2 instructions: 80000000 cycles: 71853593 heartbeat IPC: 0.855503 cumulative IPC: 0.966409 (Simulation time: 0 hr 38 min 29 sec) 
Heartbeat CPU 3 instructions: 110000000 cycles: 74257730 heartbeat IPC: 1.17865 cumulative IPC: 1.19989 (Simulation time: 0 hr 39 min 31 sec) 
Heartbeat CPU 4 instructions: 50000001 cycles: 74487795 heartbeat IPC: 0.447477 cumulative IPC: 0.444115 (Simulation time: 0 hr 39 min 37 sec) 
Heartbeat CPU 0 instructions: 90000002 cycles: 75066995 heartbeat IPC: 0.988066 cumulative IPC: 0.994901 (Simulation time: 0 hr 39 min 53 sec) 
Heartbeat CPU 1 instructions: 90000000 cycles: 75613818 heartbeat IPC: 0.758458 cumulative IPC: 0.960021 (Simulation time: 0 hr 40 min 10 sec) 
Heartbeat CPU 6 instructions: 100000000 cycles: 80222473 heartbeat IPC: 0.892118 cumulative IPC: 0.893068 (Simulation time: 0 hr 42 min 7 sec) 
Heartbeat CPU 3 instructions: 120000000 cycles: 82282293 heartbeat IPC: 1.24617 cumulative IPC: 1.20543 (Simulation time: 0 hr 43 min 1 sec) 
Heartbeat CPU 5 instructions: 50000001 cycles: 82905657 heartbeat IPC: 0.405967 cumulative IPC: 0.403682 (Simulation time: 0 hr 43 min 16 sec) 
Heartbeat CPU 2 instructions: 90000002 cycles: 85594576 heartbeat IPC: 0.72775 cumulative IPC: 0.9198 (Simulation time: 0 hr 44 min 20 sec) 
Heartbeat CPU 0 instructions: 100000000 cycles: 88326272 heartbeat IPC: 0.754189 cumulative IPC: 0.951234 (Simulation time: 0 hr 45 min 34 sec) 
Heartbeat CPU 1 instructions: 100000000 cycles: 88728730 heartbeat IPC: 0.762491 cumulative IPC: 0.924772 (Simulation time: 0 hr 45 min 47 sec) 
Heartbeat CPU 7 instructions: 50000000 cycles: 89220738 heartbeat IPC: 0.292419 cumulative IPC: 0.405485 (Simulation time: 0 hr 46 min 1 sec) 
Heartbeat CPU 3 instructions: 130000001 cycles: 89677612 heartbeat IPC: 1.35221 cumulative IPC: 1.22001 (Simulation time: 0 hr 46 min 13 sec) 
Heartbeat CPU 6 instructions: 110000000 cycles: 91421688 heartbeat IPC: 0.89292 cumulative IPC: 0.893047 (Simulation time: 0 hr 47 min 4 sec) 
Heartbeat CPU 2 instructions: 100000000 cycles: 94621278 heartbeat IPC: 1.10782 cumulative IPC: 0.941179 (Simulation time: 0 hr 48 min 30 sec) 
Finished CPU 3 instructions: 100000000 cycles: 80917872 cumulative IPC: 1.23582 (Simulation time: 0 hr 49 min 9 sec) 
Heartbeat CPU 3 instructions: 140000000 cycles: 96675873 heartbeat IPC: 1.42893 cumulative IPC: 1.23796 (Simulation time: 0 hr 49 min 22 sec) 
Heartbeat CPU 4 instructions: 60000000 cycles: 97334436 heartbeat IPC: 0.437701 cumulative IPC: 0.44233 (Simulation time: 0 hr 49 min 38 sec) 
Heartbeat CPU 0 instructions: 110000001 cycles: 101563403 heartbeat IPC: 0.755451 cumulative IPC: 0.921214 (Simulation time: 0 hr 51 min 23 sec) 
Heartbeat CPU 1 instructions: 110000000 cycles: 101775218 heartbeat IPC: 0.76649 cumulative IPC: 0.90091 (Simulation time: 0 hr 51 min 29 sec) 
Heartbeat CPU 6 instructions: 120000000 cycles: 102578482 heartbeat IPC: 0.896315 cumulative IPC: 0.893464 (Simulation time: 0 hr 51 min 50 sec) 
Heartbeat CPU 2 instructions: 110000001 cycles: 102627127 heartbeat IPC: 1.24909 cumulative IPC: 0.969386 (Simulation time: 0 hr 51 min 51 sec) 
Heartbeat CPU 3 instructions: 150000000 cycles: 104033438 heartbeat IPC: 1.35915 cumulative IPC: 1.248 (Simulation time: 0 hr 52 min 27 sec) 
Heartbeat CPU 5 instructions: 60000000 cycles: 107103867 heartbeat IPC: 0.413254 cumulative IPC: 0.406203 (Simulation time: 0 hr 53 min 48 sec) 
Heartbeat CPU 7 instructions: 60000000 cycles: 109078737 heartbeat IPC: 0.503575 cumulative IPC: 0.426242 (Simulation time: 0 hr 54 min 40 sec) 
Heartbeat CPU 2 instructions: 120000000 cycles: 110651267 heartbeat IPC: 1.24624 cumulative IPC: 0.992669 (Simulation time: 0 hr 55 min 20 sec) 
Heartbeat CPU 3 instructions: 160000000 cycles: 111005741 heartbeat IPC: 1.43425 cumulative IPC: 1.26156 (Simulation time: 0 hr 55 min 29 sec) 
Heartbeat CPU 0 instructions: 120000000 cycles: 111674862 heartbeat IPC: 0.988977 cumulative IPC: 0.928319 (Simulation time: 0 hr 55 min 47 sec) 
Heartbeat CPU 6 instructions: 130000002 cycles: 113766510 heartbeat IPC: 0.893813 cumulative IPC: 0.893504 (Simulation time: 0 hr 56 min 42 sec) 
Finished CPU 2 instructions: 100000000 cycles: 99612550 cumulative IPC: 1.00389 (Simulation time: 0 hr 57 min 8 sec) 
Heartbeat CPU 1 instructions: 120000000 cycles: 115814000 heartbeat IPC: 0.712313 cumulative IPC: 0.874585 (Simulation time: 0 hr 57 min 29 sec) 
Heartbeat CPU 3 instructions: 170000003 cycles: 118174385 heartbeat IPC: 1.39496 cumulative IPC: 1.27085 (Simulation time: 0 hr 58 min 21 sec) 
Heartbeat CPU 4 instructions: 70000001 cycles: 120246334 heartbeat IPC: 0.436455 cumulative IPC: 0.441048 (Simulation time: 0 hr 59 min 7 sec) 
Heartbeat CPU 2 instructions: 130000001 cycles: 120495385 heartbeat IPC: 1.01584 cumulative IPC: 0.994835 (Simulation time: 0 hr 59 min 13 sec) 
Heartbeat CPU 0 instructions: 130000000 cycles: 121749567 heartbeat IPC: 0.992585 cumulative IPC: 0.934397 (Simulation time: 0 hr 59 min 44 sec) 
Finished CPU 0 instructions: 100000001 cycles: 107196476 cumulative IPC: 0.932866 (Simulation time: 0 hr 59 min 59 sec) 
Heartbeat CPU 6 instructions: 140000000 cycles: 125009119 heartbeat IPC: 0.889473 cumulative IPC: 0.893091 (Simulation time: 1 hr 0 min 53 sec) 
Heartbeat CPU 3 instructions: 180000000 cycles: 126009612 heartbeat IPC: 1.27629 cumulative IPC: 1.27124 (Simulation time: 1 hr 1 min 12 sec) 
Finished CPU 6 instructions: 100000001 cycles: 111974494 cumulative IPC: 0.893061 (Simulation time: 1 hr 1 min 38 sec) 
Heartbeat CPU 1 instructions: 130000002 cycles: 128891878 heartbeat IPC: 0.76465 cumulative IPC: 0.861935 (Simulation time: 1 hr 2 min 10 sec) 
Heartbeat CPU 5 instructions: 70000000 cycles: 130060343 heartbeat IPC: 0.435607 cumulative IPC: 0.412082 (Simulation time: 1 hr 2 min 34 sec) 
Finished CPU 1 instructions: 100000003 cycles: 117001794 cumulative IPC: 0.854688 (Simulation time: 1 hr 3 min 23 sec) 
Heartbeat CPU 2 instructions: 140000000 cycles: 133388428 heartbeat IPC: 0.775612 cumulative IPC: 0.970913 (Simulation time: 1 hr 3 min 50 sec) 
Heartbeat CPU 3 instructions: 190000003 cycles: 134355013 heartbeat IPC: 1.19827 cumulative IPC: 1.26612 (Simulation time: 1 hr 4 min 12 sec) 
Heartbeat CPU 0 instructions: 140000000 cycles: 135477173 heartbeat IPC: 0.728459 cumulative IPC: 0.910886 (Simulation time: 1 hr 4 min 39 sec) 
Heartbeat CPU 6 instructions: 150000002 cycles: 136193147 heartbeat IPC: 0.894132 cumulative IPC: 0.893187 (Simulation time: 1 hr 4 min 55 sec) 
Heartbeat CPU 1 instructions: 140000000 cycles: 141412859 heartbeat IPC: 0.798659 cumulative IPC: 0.855656 (Simulation time: 1 hr 7 min 3 sec) 
Heartbeat CPU 4 instructions: 80000000 cycles: 142797708 heartbeat IPC: 0.443432 cumulative IPC: 0.44147 (Simulation time: 1 hr 7 min 36 sec) 
Heartbeat CPU 3 instructions: 200000000 cycles: 143145169 heartbeat IPC: 1.13764 cumulative IPC: 1.25729 (Simulation time: 1 hr 7 min 44 sec) 
Heartbeat CPU 7 instructions: 70000000 cycles: 143148566 heartbeat IPC: 0.293515 cumulative IPC: 0.39089 (Simulation time: 1 hr 7 min 44 sec) 
Heartbeat CPU 2 instructions: 150000000 cycles: 144516120 heartbeat IPC: 0.898659 cumulative IPC: 0.964694 (Simulation time: 1 hr 8 min 16 sec) 
Heartbeat CPU 6 instructions: 160000000 cycles: 147498993 heartbeat IPC: 0.884498 cumulative IPC: 0.892444 (Simulation time: 1 hr 9 min 27 sec) 
Heartbeat CPU 0 instructions: 150000003 cycles: 148838774 heartbeat IPC: 0.748414 cumulative IPC: 0.894637 (Simulation time: 1 hr 10 min 2 sec) 
Heartbeat CPU 3 instructions: 210000003 cycles: 152146681 heartbeat IPC: 1.11092 cumulative IPC: 1.24767 (Simulation time: 1 hr 11 min 23 sec) 
Heartbeat CPU 5 instructions: 80000000 cycles: 152610956 heartbeat IPC: 0.443447 cumulative IPC: 0.41723 (Simulation time: 1 hr 11 min 34 sec) 
Heartbeat CPU 2 instructions: 160000000 cycles: 154715015 heartbeat IPC: 0.980498 cumulative IPC: 0.96585 (Simulation time: 1 hr 12 min 20 sec) 
Heartbeat CPU 1 instructions: 150000003 cycles: 155744654 heartbeat IPC: 0.697749 cumulative IPC: 0.83955 (Simulation time: 1 hr 12 min 45 sec) 
Heartbeat CPU 6 instructions: 170000002 cycles: 158779299 heartbeat IPC: 0.886501 cumulative IPC: 0.891977 (Simulation time: 1 hr 13 min 59 sec) 
Heartbeat CPU 0 instructions: 160000000 cycles: 158960783 heartbeat IPC: 0.987946 cumulative IPC: 0.901209 (Simulation time: 1 hr 14 min 4 sec) 
Heartbeat CPU 3 instructions: 220000000 cycles: 160893488 heartbeat IPC: 1.14327 cumulative IPC: 1.2414 (Simulation time: 1 hr 14 min 48 sec) 
Heartbeat CPU 7 instructions: 80000000 cycles: 163528110 heartbeat IPC: 0.490688 cumulative IPC: 0.404605 (Simulation time: 1 hr 15 min 51 sec) 
Heartbeat CPU 4 instructions: 90000001 cycles: 165657515 heartbeat IPC: 0.437449 cumulative IPC: 0.440859 (Simulation time: 1 hr 16 min 37 sec) 
Heartbeat CPU 2 instructions: 170000002 cycles: 167194718 heartbeat IPC: 0.801301 cumulative IPC: 0.952336 (Simulation time: 1 hr 17 min 11 sec) 
Heartbeat CPU 1 instructions: 160000000 cycles: 168661858 heartbeat IPC: 0.774161 cumulative IPC: 0.834045 (Simulation time: 1 hr 17 min 44 sec) 
Heartbeat CPU 0 instructions: 170000000 cycles: 169122879 heartbeat IPC: 0.984049 cumulative IPC: 0.906679 (Simulation time: 1 hr 17 min 56 sec) 
Heartbeat CPU 6 instructions: 180000000 cycles: 170005408 heartbeat IPC: 0.89078 cumulative IPC: 0.891891 (Simulation time: 1 hr 18 min 18 sec) 
Heartbeat CPU 3 instructions: 230000001 cycles: 170035439 heartbeat IPC: 1.09386 cumulative IPC: 1.23269 (Simulation time: 1 hr 18 min 19 sec) 
Heartbeat CPU 5 instructions: 90000001 cycles: 175139424 heartbeat IPC: 0.443883 cumulative IPC: 0.420985 (Simulation time: 1 hr 20 min 10 sec) 
Heartbeat CPU 3 instructions: 240000000 cycles: 179196707 heartbeat IPC: 1.09155 cumulative IPC: 1.2248 (Simulation time: 1 hr 21 min 36 sec) 
Heartbeat CPU 1 instructions: 170000001 cycles: 179860918 heartbeat IPC: 0.892932 cumulative IPC: 0.838051 (Simulation time: 1 hr 21 min 51 sec) 
Heartbeat CPU 2 instructions: 180000000 cycles: 180567344 heartbeat IPC: 0.747796 cumulative IPC: 0.935792 (Simulation time: 1 hr 22 min 5 sec) 
Heartbeat CPU 6 instructions: 190000001 cycles: 181182927 heartbeat IPC: 0.894653 cumulative IPC: 0.892077 (Simulation time: 1 hr 22 min 18 sec) 
Heartbeat CPU 0 instructions: 180000000 cycles: 182824950 heartbeat IPC: 0.729817 cumulative IPC: 0.892219 (Simulation time: 1 hr 22 min 51 sec) 
Heartbeat CPU 3 instructions: 250000001 cycles: 188354141 heartbeat IPC: 1.09201 cumulative IPC: 1.21778 (Simulation time: 1 hr 24 min 50 sec) 
Heartbeat CPU 4 instructions: 100000000 cycles: 188463349 heartbeat IPC: 0.438484 cumulative IPC: 0.440546 (Simulation time: 1 hr 24 min 52 sec) 
Heartbeat CPU 1 instructions: 180000000 cycles: 191101607 heartbeat IPC: 0.889625 cumulative IPC: 0.841347 (Simulation time: 1 hr 25 min 46 sec) 
Heartbeat CPU 6 instructions: 200000000 cycles: 192416990 heartbeat IPC: 0.89015 cumulative IPC: 0.891954 (Simulation time: 1 hr 26 min 20 sec) 
Heartbeat CPU 2 instructions: 190000001 cycles: 192644498 heartbeat IPC: 0.82801 cumulative IPC: 0.928455 (Simulation time: 1 hr 26 min 26 sec) 
Heartbeat CPU 0 instructions: 190000003 cycles: 196373253 heartbeat IPC: 0.7381 cumulative IPC: 0.880691 (Simulation time: 1 hr 27 min 48 sec) 
Heartbeat CPU 5 instructions: 100000000 cycles: 197627701 heartbeat IPC: 0.444676 cumulative IPC: 0.423906 (Simulation time: 1 hr 28 min 19 sec) 
Heartbeat CPU 3 instructions: 260000000 cycles: 197643931 heartbeat IPC: 1.07645 cumulative IPC: 1.21058 (Simulation time: 1 hr 28 min 19 sec) 
Heartbeat CPU 7 instructions: 90000003 cycles: 197753250 heartbeat IPC: 0.292183 cumulative IPC: 0.383524 (Simulation time: 1 hr 28 min 22 sec) 
Heartbeat CPU 1 instructions: 190000001 cycles: 200599989 heartbeat IPC: 1.05281 cumulative IPC: 0.852183 (Simulation time: 1 hr 29 min 33 sec) 
Heartbeat CPU 2 instructions: 200000000 cycles: 202733279 heartbeat IPC: 0.9912 cumulative IPC: 0.931831 (Simulation time: 1 hr 30 min 20 sec) 
Heartbeat CPU 6 instructions: 210000000 cycles: 203612775 heartbeat IPC: 0.893193 cumulative IPC: 0.892028 (Simulation time: 1 hr 30 min 41 sec) 
Heartbeat CPU 0 instructions: 200000000 cycles: 206541037 heartbeat IPC: 0.983498 cumulative IPC: 0.886156 (Simulation time: 1 hr 31 min 57 sec) 
Heartbeat CPU 3 instructions: 270000002 cycles: 206564909 heartbeat IPC: 1.12095 cumulative IPC: 1.2064 (Simulation time: 1 hr 31 min 57 sec) 
Heartbeat CPU 4 instructions: 110000002 cycles: 210998243 heartbeat IPC: 0.443756 cumulative IPC: 0.440916 (Simulation time: 1 hr 33 min 40 sec) 
Heartbeat CPU 1 instructions: 200000000 cycles: 211421117 heartbeat IPC: 0.924118 cumulative IPC: 0.856151 (Simulation time: 1 hr 33 min 51 sec) 
Heartbeat CPU 2 instructions: 210000002 cycles: 214334909 heartbeat IPC: 0.861948 cumulative IPC: 0.927759 (Simulation time: 1 hr 35 min 14 sec) 
Heartbeat CPU 6 instructions: 220000000 cycles: 214774835 heartbeat IPC: 0.895892 cumulative IPC: 0.892244 (Simulation time: 1 hr 35 min 24 sec) 
Heartbeat CPU 3 instructions: 280000000 cycles: 215347885 heartbeat IPC: 1.13857 cumulative IPC: 1.20342 (Simulation time: 1 hr 35 min 39 sec) 
Heartbeat CPU 0 instructions: 210000002 cycles: 216850244 heartbeat IPC: 0.970007 cumulative IPC: 0.890443 (Simulation time: 1 hr 36 min 25 sec) 
Heartbeat CPU 7 instructions: 100000000 cycles: 217826177 heartbeat IPC: 0.498183 cumulative IPC: 0.394885 (Simulation time: 1 hr 36 min 56 sec) 
Heartbeat CPU 5 instructions: 110000001 cycles: 220106145 heartbeat IPC: 0.444871 cumulative IPC: 0.426206 (Simulation time: 1 hr 37 min 59 sec) 
Heartbeat CPU 1 instructions: 210000002 cycles: 221033210 heartbeat IPC: 1.04036 cumulative IPC: 0.864754 (Simulation time: 1 hr 38 min 20 sec) 
Heartbeat CPU 3 instructions: 290000001 cycles: 223800515 heartbeat IPC: 1.18306 cumulative IPC: 1.2026 (Simulation time: 1 hr 39 min 30 sec) 
Heartbeat CPU 6 instructions: 230000001 cycles: 226006101 heartbeat IPC: 0.890372 cumulative IPC: 0.892144 (Simulation time: 1 hr 40 min 33 sec) 
Heartbeat CPU 2 instructions: 220000000 cycles: 227941144 heartbeat IPC: 0.734957 cumulative IPC: 0.915426 (Simulation time: 1 hr 41 min 21 sec) 
Heartbeat CPU 0 instructions: 220000000 cycles: 230629185 heartbeat IPC: 0.725745 cumulative IPC: 0.879907 (Simulation time: 1 hr 42 min 32 sec) 
Heartbeat CPU 1 instructions: 220000000 cycles: 231538911 heartbeat IPC: 0.951864 cumulative IPC: 0.868985 (Simulation time: 1 hr 42 min 59 sec) 
Heartbeat CPU 3 instructions: 300000000 cycles: 232043525 heartbeat IPC: 1.21315 cumulative IPC: 1.203 (Simulation time: 1 hr 43 min 15 sec) 
Heartbeat CPU 4 instructions: 120000000 cycles: 233784866 heartbeat IPC: 0.438854 cumulative IPC: 0.440701 (Simulation time: 1 hr 43 min 56 sec) 
Heartbeat CPU 6 instructions: 240000000 cycles: 237467537 heartbeat IPC: 0.872491 cumulative IPC: 0.891131 (Simulation time: 1 hr 45 min 23 sec) 
Heartbeat CPU 3 instructions: 310000001 cycles: 240301171 heartbeat IPC: 1.211 cumulative IPC: 1.20329 (Simulation time: 1 hr 46 min 41 sec) 
Heartbeat CPU 2 instructions: 230000000 cycles: 240421575 heartbeat IPC: 0.801254 cumulative IPC: 0.909098 (Simulation time: 1 hr 46 min 44 sec) 
Heartbeat CPU 1 instructions: 230000002 cycles: 242033460 heartbeat IPC: 0.952876 cumulative IPC: 0.872867 (Simulation time: 1 hr 47 min 18 sec) 
Finished CPU 4 instructions: 100000000 cycles: 227002284 cumulative IPC: 0.440524 (Simulation time: 1 hr 47 min 23 sec) 
Heartbeat CPU 5 instructions: 120000000 cycles: 242742397 heartbeat IPC: 0.441769 cumulative IPC: 0.427755 (Simulation time: 1 hr 47 min 41 sec) 
Heartbeat CPU 0 instructions: 230000003 cycles: 244636363 heartbeat IPC: 0.71392 cumulative IPC: 0.869772 (Simulation time: 1 hr 48 min 25 sec) 
Heartbeat CPU 6 instructions: 250000002 cycles: 248756666 heartbeat IPC: 0.885808 cumulative IPC: 0.890873 (Simulation time: 1 hr 50 min 1 sec) 
Finished CPU 5 instructions: 100000001 cycles: 233652617 cumulative IPC: 0.427986 (Simulation time: 1 hr 50 min 4 sec) 
Heartbeat CPU 3 instructions: 320000000 cycles: 249782401 heartbeat IPC: 1.05472 cumulative IPC: 1.19729 (Simulation time: 1 hr 50 min 27 sec) 
Heartbeat CPU 2 instructions: 240000000 cycles: 250704892 heartbeat IPC: 0.972449 cumulative IPC: 0.911865 (Simulation time: 1 hr 50 min 53 sec) 
Heartbeat CPU 1 instructions: 240000000 cycles: 251759735 heartbeat IPC: 1.02814 cumulative IPC: 0.879252 (Simulation time: 1 hr 51 min 25 sec) 
Heartbeat CPU 7 instructions: 110000001 cycles: 251926395 heartbeat IPC: 0.293253 cumulative IPC: 0.380242 (Simulation time: 1 hr 51 min 30 sec) 
Heartbeat CPU 0 instructions: 240000000 cycles: 255279563 heartbeat IPC: 0.939567 cumulative IPC: 0.872867 (Simulation time: 1 hr 53 min 1 sec) 
Heartbeat CPU 4 instructions: 130000000 cycles: 256920000 heartbeat IPC: 0.432243 cumulative IPC: 0.439891 (Simulation time: 1 hr 53 min 47 sec) 
Heartbeat CPU 3 instructions: 330000001 cycles: 259190410 heartbeat IPC: 1.06292 cumulative IPC: 1.19211 (Simulation time: 1 hr 54 min 53 sec) 
Heartbeat CPU 6 instructions: 260000000 cycles: 260105613 heartbeat IPC: 0.881139 cumulative IPC: 0.890422 (Simulation time: 1 hr 55 min 17 sec) 
Heartbeat CPU 2 instructions: 250000001 cycles: 261878756 heartbeat IPC: 0.894946 cumulative IPC: 0.911098 (Simulation time: 1 hr 56 min 1 sec) 
Heartbeat CPU 1 instructions: 250000001 cycles: 262790165 heartbeat IPC: 0.906583 cumulative IPC: 0.88047 (Simulation time: 1 hr 56 min 27 sec) 
Heartbeat CPU 0 instructions: 250000002 cycles: 265492052 heartbeat IPC: 0.979193 cumulative IPC: 0.877206 (Simulation time: 1 hr 57 min 45 sec) 
Heartbeat CPU 5 instructions: 130000001 cycles: 265741357 heartbeat IPC: 0.434802 cumulative IPC: 0.428402 (Simulation time: 1 hr 57 min 51 sec) 
Heartbeat CPU 3 instructions: 340000000 cycles: 268447832 heartbeat IPC: 1.08021 cumulative IPC: 1.18801 (Simulation time: 1 hr 59 min 5 sec) 
Heartbeat CPU 6 instructions: 270000003 cycles: 271318763 heartbeat IPC: 0.89181 cumulative IPC: 0.890483 (Simulation time: 2 hr 0 min 23 sec) 
Heartbeat CPU 7 instructions: 120000000 cycles: 272162095 heartbeat IPC: 0.494176 cumulative IPC: 0.389216 (Simulation time: 2 hr 0 min 41 sec) 
Finished CPU 7 instructions: 100000002 cycles: 256926786 cumulative IPC: 0.389216 (Simulation time: 2 hr 0 min 41 sec) 

CPU 0 Branch Prediction Accuracy: 97.7658% MPKI: 1.42525

CPU 1 Branch Prediction Accuracy: 95.3989% MPKI: 4.04539

CPU 2 Branch Prediction Accuracy: 97.8435% MPKI: 1.624

CPU 3 Branch Prediction Accuracy: 98.2202% MPKI: 1.46258

CPU 4 Branch Prediction Accuracy: 84.9141% MPKI: 22.9539

CPU 5 Branch Prediction Accuracy: 96.9427% MPKI: 2.89122

CPU 6 Branch Prediction Accuracy: 94.3045% MPKI: 5.67235

CPU 7 Branch Prediction Accuracy: 99.1703% MPKI: 0.01021

ChampSim completed all CPUs

Total Simulation Statistics (not including warmup)

CPU 0 cumulative IPC: 0.875681 instructions: 224985923 cycles: 256926786
L1D TOTAL     ACCESS:   68123729  HIT:   67445252  MISS:     678477
L1D LOAD      ACCESS:   52405346  HIT:   51912328  MISS:     493018
L1D RFO       ACCESS:   15718383  HIT:   15532924  MISS:     185459
L1D PREFETCH  ACCESS:          0  HIT:          0  MISS:          0
L1D WRITEBACK ACCESS:          0  HIT:          0  MISS:          0
L1I TOTAL     ACCESS:   55780327  HIT:   55766046  MISS:      14281
L1I LOAD      ACCESS:   55780327  HIT:   55766046  MISS:      14281
L1I RFO       ACCESS:          0  HIT:          0  MISS:          0
L1I PREFETCH  ACCESS:          0  HIT:          0  MISS:          0
L1I WRITEBACK ACCESS:          0  HIT:          0  MISS:          0
L2C TOTAL     ACCESS:    1967136  HIT:    1562659  MISS:     404477
L2C LOAD      ACCESS:     507299  HIT:     364104  MISS:     143195
L2C RFO       ACCESS:     185450  HIT:      12830  MISS:     172620
L2C PREFETCH  ACCESS:    1083038  HIT:     994848  MISS:      88190
L2C WRITEBACK ACCESS:     191349  HIT:     190877  MISS:        472
LLC TOTAL     ACCESS:    1330436  HIT:    1202560  MISS:     127876
LLC LOAD      ACCESS:     142010  HIT:     125372  MISS:      16638
LLC RFO       ACCESS:     172618  HIT:     118795  MISS:      53823
LLC PREFETCH  ACCESS:     838236  HIT:     780926  MISS:      57310
LLC WRITEBACK ACCESS:     177572  HIT:     177467  MISS:        105

CPU 1 cumulative IPC: 0.88688 instructions: 227863294 cycles: 256926786
L1D TOTAL     ACCESS:   61702503  HIT:   58495376  MISS:    3207127
L1D LOAD      ACCESS:   40943400  HIT:   37916948  MISS:    3026452
L1D RFO       ACCESS:   20759103  HIT:   20578428  MISS:     180675
L1D PREFETCH  ACCESS:          0  HIT:          0  MISS:          0
L1D WRITEBACK ACCESS:          0  HIT:          0  MISS:          0
L1I TOTAL     ACCESS:   58264796  HIT:   58263720  MISS:       1076
L1I LOAD      ACCESS:   58264796  HIT:   58263720  MISS:       1076
L1I RFO       ACCESS:          0  HIT:          0  MISS:          0
L1I PREFETCH  ACCESS:          0  HIT:          0  MISS:          0
L1I WRITEBACK ACCESS:          0  HIT:          0  MISS:          0
L2C TOTAL     ACCESS:    4879380  HIT:    4372523  MISS:     506857
L2C LOAD      ACCESS:    3024840  HIT:    2743995  MISS:     280845
L2C RFO       ACCESS:     180663  HIT:      76121  MISS:     104542
L2C PREFETCH  ACCESS:    1047094  HIT:     925811  MISS:     121283
L2C WRITEBACK ACCESS:     626783  HIT:     626596  MISS:        187
LLC TOTAL     ACCESS:    1896932  HIT:    1777074  MISS:     119858
LLC LOAD      ACCESS:     279800  HIT:     272218  MISS:       7582
LLC RFO       ACCESS:     104542  HIT:      52110  MISS:      52432
LLC PREFETCH  ACCESS:    1319540  HIT:    1260106  MISS:      59434
LLC WRITEBACK ACCESS:     193050  HIT:     192640  MISS:        410

CPU 2 cumulative IPC: 0.903591 instructions: 232156734 cycles: 256926786
L1D TOTAL     ACCESS:   65497767  HIT:   64848513  MISS:     649254
L1D LOAD      ACCESS:   48426553  HIT:   47942119  MISS:     484434
L1D RFO       ACCESS:   17071214  HIT:   16906394  MISS:     164820
L1D PREFETCH  ACCESS:          0  HIT:          0  MISS:          0
L1D WRITEBACK ACCESS:          0  HIT:          0  MISS:          0
L1I TOTAL     ACCESS:   56198028  HIT:   56184332  MISS:      13696
L1I LOAD      ACCESS:   56198028  HIT:   56184332  MISS:      13696
L1I RFO       ACCESS:          0  HIT:          0  MISS:          0
L1I PREFETCH  ACCESS:          0  HIT:          0  MISS:          0
L1I WRITEBACK ACCESS:          0  HIT:          0  MISS:          0
L2C TOTAL     ACCESS:    1806713  HIT:    1422016  MISS:     384697
L2C LOAD      ACCESS:     498127  HIT:     357543  MISS:     140584
L2C RFO       ACCESS:     164817  HIT:      11755  MISS:     153062
L2C PREFETCH  ACCESS:     973662  HIT:     883118  MISS:      90544
L2C WRITEBACK ACCESS:     170107  HIT:     169600  MISS:        507
LLC TOTAL     ACCESS:    1317279  HIT:    1181977  MISS:     135302
LLC LOAD      ACCESS:     139619  HIT:     123364  MISS:      16255
LLC RFO       ACCESS:     153058  HIT:      96025  MISS:      57033
LLC PREFETCH  ACCESS:     869554  HIT:     807664  MISS:      61890
LLC WRITEBACK ACCESS:     155048  HIT:     154924  MISS:        124

CPU 3 cumulative IPC: 1.18697 instructions: 304965465 cycles: 256926786
L1D TOTAL     ACCESS:   52786006  HIT:   48133882  MISS:    4652124
L1D LOAD      ACCESS:   47550776  HIT:   43278399  MISS:    4272377
L1D RFO       ACCESS:    5235230  HIT:    4855483  MISS:     379747
L1D PREFETCH  ACCESS:          0  HIT:          0  MISS:          0
L1D WRITEBACK ACCESS:          0  HIT:          0  MISS:          0
L1I TOTAL     ACCESS:   83329153  HIT:   83328081  MISS:       1072
L1I LOAD      ACCESS:   83329153  HIT:   83328081  MISS:       1072
L1I RFO       ACCESS:          0  HIT:          0  MISS:          0
L1I PREFETCH  ACCESS:          0  HIT:          0  MISS:          0
L1I WRITEBACK ACCESS:          0  HIT:          0  MISS:          0
L2C TOTAL     ACCESS:    7820834  HIT:    3873137  MISS:    3947697
L2C LOAD      ACCESS:    4273448  HIT:    2226508  MISS:    2046940
L2C RFO       ACCESS:     379739  HIT:      37290  MISS:     342449
L2C PREFETCH  ACCESS:    2700427  HIT:    1143012  MISS:    1557415
L2C WRITEBACK ACCESS:     467220  HIT:     466327  MISS:        893
LLC TOTAL     ACCESS:   18310475  HIT:   18191249  MISS:     119226
LLC LOAD      ACCESS:    1995594  HIT:    1955433  MISS:      40161
LLC RFO       ACCESS:     342449  HIT:     329979  MISS:      12470
LLC PREFETCH  ACCESS:   15557772  HIT:   15491177  MISS:      66595
LLC WRITEBACK ACCESS:     414660  HIT:     414660  MISS:          0

CPU 4 cumulative IPC: 0.440013 instructions: 113051044 cycles: 256926786
L1D TOTAL     ACCESS:   37534007  HIT:   37148632  MISS:     385375
L1D LOAD      ACCESS:   21226140  HIT:   20994636  MISS:     231504
L1D RFO       ACCESS:   16307867  HIT:   16153996  MISS:     153871
L1D PREFETCH  ACCESS:          0  HIT:          0  MISS:          0
L1D WRITEBACK ACCESS:          0  HIT:          0  MISS:          0
L1I TOTAL     ACCESS:   25487893  HIT:   25109831  MISS:     378062
L1I LOAD      ACCESS:   25487893  HIT:   25109831  MISS:     378062
L1I RFO       ACCESS:          0  HIT:          0  MISS:          0
L1I PREFETCH  ACCESS:          0  HIT:          0  MISS:          0
L1I WRITEBACK ACCESS:          0  HIT:          0  MISS:          0
L2C TOTAL     ACCESS:    1343423  HIT:    1146514  MISS:     196909
L2C LOAD      ACCESS:     609565  HIT:     459820  MISS:     149745
L2C RFO       ACCESS:     153865  HIT:     120466  MISS:      33399
L2C PREFETCH  ACCESS:     342335  HIT:     329274  MISS:      13061
L2C WRITEBACK ACCESS:     237658  HIT:     236954  MISS:        704
LLC TOTAL     ACCESS:     487299  HIT:     397336  MISS:      89963
LLC LOAD      ACCESS:     145212  HIT:      99394  MISS:      45818
LLC RFO       ACCESS:      33399  HIT:      30364  MISS:       3035
LLC PREFETCH  ACCESS:     222619  HIT:     182445  MISS:      40174
LLC WRITEBACK ACCESS:      86069  HIT:      85133  MISS:        936

CPU 5 cumulative IPC: 0.428487 instructions: 110089684 cycles: 256926786
L1D TOTAL     ACCESS:   40790347  HIT:   39202439  MISS:    1587908
L1D LOAD      ACCESS:   25260828  HIT:   23892016  MISS:    1368812
L1D RFO       ACCESS:   15529519  HIT:   15310423  MISS:     219096
L1D PREFETCH  ACCESS:          0  HIT:          0  MISS:          0
L1D WRITEBACK ACCESS:          0  HIT:          0  MISS:          0
L1I TOTAL     ACCESS:   33751279  HIT:   33297758  MISS:     453521
L1I LOAD      ACCESS:   33751279  HIT:   33297758  MISS:     453521
L1I RFO       ACCESS:          0  HIT:          0  MISS:          0
L1I PREFETCH  ACCESS:          0  HIT:          0  MISS:          0
L1I WRITEBACK ACCESS:          0  HIT:          0  MISS:          0
L2C TOTAL     ACCESS:    3407236  HIT:    3405531  MISS:       1705
L2C LOAD      ACCESS:    1822333  HIT:    1821014  MISS:       1319
L2C RFO       ACCESS:     219005  HIT:     218933  MISS:         72
L2C PREFETCH  ACCESS:    1077328  HIT:    1077014  MISS:        314
L2C WRITEBACK ACCESS:     288570  HIT:     288570  MISS:          0
LLC TOTAL     ACCESS:     315860  HIT:     311668  MISS:       4192
LLC LOAD      ACCESS:       1319  HIT:        837  MISS:        482
LLC RFO       ACCESS:         72  HIT:         20  MISS:         52
LLC PREFETCH  ACCESS:     314447  HIT:     310798  MISS:       3649
LLC WRITEBACK ACCESS:         22  HIT:         13  MISS:          9

CPU 6 cumulative IPC: 0.890499 instructions: 228792994 cycles: 256926786
L1D TOTAL     ACCESS:   52122194  HIT:   52114767  MISS:       7427
L1D LOAD      ACCESS:   28772526  HIT:   28771227  MISS:       1299
L1D RFO       ACCESS:   23349668  HIT:   23343540  MISS:       6128
L1D PREFETCH  ACCESS:          0  HIT:          0  MISS:          0
L1D WRITEBACK ACCESS:          0  HIT:          0  MISS:          0
L1I TOTAL     ACCESS:   56931824  HIT:   56931824  MISS:          0
L1I LOAD      ACCESS:   56931824  HIT:   56931824  MISS:          0
L1I RFO       ACCESS:          0  HIT:          0  MISS:          0
L1I PREFETCH  ACCESS:          0  HIT:          0  MISS:          0
L1I WRITEBACK ACCESS:          0  HIT:          0  MISS:          0
L2C TOTAL     ACCESS:      14514  HIT:       7845  MISS:       6669
L2C LOAD      ACCESS:       1299  HIT:        786  MISS:        513
L2C RFO       ACCESS:       6128  HIT:         96  MISS:       6032
L2C PREFETCH  ACCESS:        887  HIT:        786  MISS:        101
L2C WRITEBACK ACCESS:       6200  HIT:       6177  MISS:         23
LLC TOTAL     ACCESS:      10598  HIT:       1602  MISS:       8996
LLC LOAD      ACCESS:        513  HIT:        350  MISS:        163
LLC RFO       ACCESS:       6032  HIT:         23  MISS:       6009
LLC PREFETCH  ACCESS:       1395  HIT:        917  MISS:        478
LLC WRITEBACK ACCESS:       2658  HIT:        312  MISS:       2346

CPU 7 cumulative IPC: 0.389216 instructions: 100000002 cycles: 256926786
L1D TOTAL     ACCESS:   52397765  HIT:   51616105  MISS:     781660
L1D LOAD      ACCESS:   35746802  HIT:   35106491  MISS:     640311
L1D RFO       ACCESS:   16650963  HIT:   16509614  MISS:     141349
L1D PREFETCH  ACCESS:          0  HIT:          0  MISS:          0
L1D WRITEBACK ACCESS:          0  HIT:          0  MISS:          0
L1I TOTAL     ACCESS:   28603297  HIT:   28603297  MISS:          0
L1I LOAD      ACCESS:   28603297  HIT:   28603297  MISS:          0
L1I RFO       ACCESS:          0  HIT:          0  MISS:          0
L1I PREFETCH  ACCESS:          0  HIT:          0  MISS:          0
L1I WRITEBACK ACCESS:          0  HIT:          0  MISS:          0
L2C TOTAL     ACCESS:    1693017  HIT:    1193901  MISS:     499116
L2C LOAD      ACCESS:     640309  HIT:     393573  MISS:     246736
L2C RFO       ACCESS:     141349  HIT:         17  MISS:     141332
L2C PREFETCH  ACCESS:     763272  HIT:     652372  MISS:     110900
L2C WRITEBACK ACCESS:     148087  HIT:     147939  MISS:        148
LLC TOTAL     ACCESS:    1666402  HIT:    1253451  MISS:     412951
LLC LOAD      ACCESS:     245856  HIT:     215184  MISS:      30672
LLC RFO       ACCESS:     141332  HIT:      31777  MISS:     109555
LLC PREFETCH  ACCESS:    1137719  HIT:     865081  MISS:     272638
LLC WRITEBACK ACCESS:     141495  HIT:     141409  MISS:         86

Region of Interest Statistics

CPU 0 cumulative IPC: 0.932866 instructions: 100000001 cycles: 107196476
L1D TOTAL     ACCESS:   29211274  HIT:   28917893  MISS:     293381
L1D LOAD      ACCESS:   22473523  HIT:   22266004  MISS:     207519
L1D RFO       ACCESS:    6737751  HIT:    6651889  MISS:      85862
L1D PREFETCH  ACCESS:          0  HIT:          0  MISS:          0
L1D WRITEBACK ACCESS:          0  HIT:          0  MISS:          0
L1D PREFETCH  REQUESTED:          0  ISSUED:          0  USEFUL:          0  USELESS:          0
L1I TOTAL     ACCESS:   24389938  HIT:   24384839  MISS:       5099
L1I LOAD      ACCESS:   24389938  HIT:   24384839  MISS:       5099
L1I RFO       ACCESS:          0  HIT:          0  MISS:          0
L1I PREFETCH  ACCESS:          0  HIT:          0  MISS:          0
L1I WRITEBACK ACCESS:          0  HIT:          0  MISS:          0
L1I PREFETCH  REQUESTED:          0  ISSUED:          0  USEFUL:          0  USELESS:          0
L2C TOTAL     ACCESS:     912226  HIT:     740204  MISS:     172022
L2C LOAD      ACCESS:     212618  HIT:     158770  MISS:      53848
L2C RFO       ACCESS:      85859  HIT:       5206  MISS:      80653
L2C PREFETCH  ACCESS:     525434  HIT:     488087  MISS:      37347
L2C WRITEBACK ACCESS:      88315  HIT:      88141  MISS:        174
L2C PREFETCH  REQUESTED:    2112891  ISSUED:    2112833  USEFUL:     103606  USELESS:       2628
LLC TOTAL     ACCESS:     560792  HIT:     497196  MISS:      63596
LLC LOAD      ACCESS:      53300  HIT:      46221  MISS:       7079
LLC RFO       ACCESS:      80651  HIT:      51695  MISS:      28956
LLC PREFETCH  ACCESS:     344578  HIT:     317071  MISS:      27507
LLC WRITEBACK ACCESS:      82263  HIT:      82209  MISS:         54
LLC PREFETCH  REQUESTED:          0  ISSUED:          0  USEFUL:     448616  USELESS:     257361
Major fault: 0 Minor fault: 1541

CPU 1 cumulative IPC: 0.854688 instructions: 100000003 cycles: 117001794
L1D TOTAL     ACCESS:   26006022  HIT:   24785511  MISS:    1220511
L1D LOAD      ACCESS:   19136634  HIT:   18019068  MISS:    1117566
L1D RFO       ACCESS:    6869388  HIT:    6766443  MISS:     102945
L1D PREFETCH  ACCESS:          0  HIT:          0  MISS:          0
L1D WRITEBACK ACCESS:          0  HIT:          0  MISS:          0
L1D PREFETCH  REQUESTED:          0  ISSUED:          0  USEFUL:          0  USELESS:          0
L1I TOTAL     ACCESS:   26467218  HIT:   26466222  MISS:        996
L1I LOAD      ACCESS:   26467218  HIT:   26466222  MISS:        996
L1I RFO       ACCESS:          0  HIT:          0  MISS:          0
L1I PREFETCH  ACCESS:          0  HIT:          0  MISS:          0
L1I WRITEBACK ACCESS:          0  HIT:          0  MISS:          0
L1I PREFETCH  REQUESTED:          0  ISSUED:          0  USEFUL:          0  USELESS:          0
L2C TOTAL     ACCESS:    1958144  HIT:    1660812  MISS:     297332
L2C LOAD      ACCESS:    1116902  HIT:    1007165  MISS:     109737
L2C RFO       ACCESS:     102943  HIT:      25207  MISS:      77736
L2C PREFETCH  ACCESS:     483921  HIT:     374127  MISS:     109794
L2C WRITEBACK ACCESS:     254378  HIT:     254313  MISS:         65
L2C PREFETCH  REQUESTED:    2417563  ISSUED:    2417535  USEFUL:     121871  USELESS:       1916
LLC TOTAL     ACCESS:    1357800  HIT:    1254123  MISS:     103677
LLC LOAD      ACCESS:     108704  HIT:     103644  MISS:       5060
LLC RFO       ACCESS:      77736  HIT:      33353  MISS:      44383
LLC PREFETCH  ACCESS:    1061276  HIT:    1007417  MISS:      53859
LLC WRITEBACK ACCESS:     110084  HIT:     109709  MISS:        375
LLC PREFETCH  REQUESTED:          0  ISSUED:          0  USEFUL:     448616  USELESS:     257361
Major fault: 0 Minor fault: 1982

CPU 2 cumulative IPC: 1.00389 instructions: 100000000 cycles: 99612550
L1D TOTAL     ACCESS:   26193444  HIT:   25952797  MISS:     240647
L1D LOAD      ACCESS:   18429186  HIT:   18253998  MISS:     175188
L1D RFO       ACCESS:    7764258  HIT:    7698799  MISS:      65459
L1D PREFETCH  ACCESS:          0  HIT:          0  MISS:          0
L1D WRITEBACK ACCESS:          0  HIT:          0  MISS:          0
L1D PREFETCH  REQUESTED:          0  ISSUED:          0  USEFUL:          0  USELESS:          0
L1I TOTAL     ACCESS:   23108944  HIT:   23103150  MISS:       5794
L1I LOAD      ACCESS:   23108944  HIT:   23103150  MISS:       5794
L1I RFO       ACCESS:          0  HIT:          0  MISS:          0
L1I PREFETCH  ACCESS:          0  HIT:          0  MISS:          0
L1I WRITEBACK ACCESS:          0  HIT:          0  MISS:          0
L1I PREFETCH  REQUESTED:          0  ISSUED:          0  USEFUL:          0  USELESS:          0
L2C TOTAL     ACCESS:     713637  HIT:     573298  MISS:     140339
L2C LOAD      ACCESS:     180979  HIT:     134335  MISS:      46644
L2C RFO       ACCESS:      65456  HIT:       4817  MISS:      60639
L2C PREFETCH  ACCESS:     400042  HIT:     367154  MISS:      32888
L2C WRITEBACK ACCESS:      67160  HIT:      66992  MISS:        168
L2C PREFETCH  REQUESTED:    1989269  ISSUED:    1989263  USEFUL:      90406  USELESS:       2438
LLC TOTAL     ACCESS:     464452  HIT:     398016  MISS:      66436
LLC LOAD      ACCESS:      46198  HIT:      38533  MISS:       7665
LLC RFO       ACCESS:      60639  HIT:      31985  MISS:      28654
LLC PREFETCH  ACCESS:     299604  HIT:     269566  MISS:      30038
LLC WRITEBACK ACCESS:      58011  HIT:      57932  MISS:         79
LLC PREFETCH  REQUESTED:          0  ISSUED:          0  USEFUL:     448616  USELESS:     257361
Major fault: 0 Minor fault: 1486

CPU 3 cumulative IPC: 1.23582 instructions: 100000000 cycles: 80917872
L1D TOTAL     ACCESS:   17150775  HIT:   15695943  MISS:    1454832
L1D LOAD      ACCESS:   15612731  HIT:   14282161  MISS:    1330570
L1D RFO       ACCESS:    1538044  HIT:    1413782  MISS:     124262
L1D PREFETCH  ACCESS:          0  HIT:          0  MISS:          0
L1D WRITEBACK ACCESS:          0  HIT:          0  MISS:          0
L1D PREFETCH  REQUESTED:          0  ISSUED:          0  USEFUL:          0  USELESS:          0
L1I TOTAL     ACCESS:   27545466  HIT:   27545320  MISS:        146
L1I LOAD      ACCESS:   27545466  HIT:   27545320  MISS:        146
L1I RFO       ACCESS:          0  HIT:          0  MISS:          0
L1I PREFETCH  ACCESS:          0  HIT:          0  MISS:          0
L1I WRITEBACK ACCESS:          0  HIT:          0  MISS:          0
L1I PREFETCH  REQUESTED:          0  ISSUED:          0  USEFUL:          0  USELESS:          0
L2C TOTAL     ACCESS:    2560722  HIT:    1295250  MISS:    1265472
L2C LOAD      ACCESS:    1330716  HIT:     723555  MISS:     607161
L2C RFO       ACCESS:     124262  HIT:       9572  MISS:     114690
L2C PREFETCH  ACCESS:     965438  HIT:     422112  MISS:     543326
L2C WRITEBACK ACCESS:     140306  HIT:     140011  MISS:        295
L2C PREFETCH  REQUESTED:   19605401  ISSUED:   19605308  USEFUL:    1758722  USELESS:      12233
LLC TOTAL     ACCESS:    6097569  HIT:    6060805  MISS:      36764
LLC LOAD      ACCESS:     588955  HIT:     575225  MISS:      13730
LLC RFO       ACCESS:     114690  HIT:     113423  MISS:       1267
LLC PREFETCH  ACCESS:    5266783  HIT:    5245016  MISS:      21767
LLC WRITEBACK ACCESS:     127141  HIT:     127141  MISS:          0
LLC PREFETCH  REQUESTED:          0  ISSUED:          0  USEFUL:     448616  USELESS:     257361
Major fault: 0 Minor fault: 3213

CPU 4 cumulative IPC: 0.440524 instructions: 100000000 cycles: 227002284
L1D TOTAL     ACCESS:   33174453  HIT:   32836444  MISS:     338009
L1D LOAD      ACCESS:   18769657  HIT:   18566869  MISS:     202788
L1D RFO       ACCESS:   14404796  HIT:   14269575  MISS:     135221
L1D PREFETCH  ACCESS:          0  HIT:          0  MISS:          0
L1D WRITEBACK ACCESS:          0  HIT:          0  MISS:          0
L1D PREFETCH  REQUESTED:          0  ISSUED:          0  USEFUL:          0  USELESS:          0
L1I TOTAL     ACCESS:   22555510  HIT:   22221668  MISS:     333842
L1I LOAD      ACCESS:   22555510  HIT:   22221668  MISS:     333842
L1I RFO       ACCESS:          0  HIT:          0  MISS:          0
L1I PREFETCH  ACCESS:          0  HIT:          0  MISS:          0
L1I WRITEBACK ACCESS:          0  HIT:          0  MISS:          0
L1I PREFETCH  REQUESTED:          0  ISSUED:          0  USEFUL:          0  USELESS:          0
L2C TOTAL     ACCESS:    1184720  HIT:    1012088  MISS:     172632
L2C LOAD      ACCESS:     536629  HIT:     405573  MISS:     131056
L2C RFO       ACCESS:     135216  HIT:     105711  MISS:      29505
L2C PREFETCH  ACCESS:     304545  HIT:     293038  MISS:      11507
L2C WRITEBACK ACCESS:     208330  HIT:     207766  MISS:        564
L2C PREFETCH  REQUESTED:     998854  ISSUED:     998848  USEFUL:      15338  USELESS:       2125
LLC TOTAL     ACCESS:     428308  HIT:     349471  MISS:      78837
LLC LOAD      ACCESS:     127279  HIT:      87487  MISS:      39792
LLC RFO       ACCESS:      29505  HIT:      27016  MISS:       2489
LLC PREFETCH  ACCESS:     196828  HIT:     161043  MISS:      35785
LLC WRITEBACK ACCESS:      74696  HIT:      73925  MISS:        771
LLC PREFETCH  REQUESTED:          0  ISSUED:          0  USEFUL:     448616  USELESS:     257361
Major fault: 0 Minor fault: 3367

CPU 5 cumulative IPC: 0.427986 instructions: 100000001 cycles: 233652617
L1D TOTAL     ACCESS:   37060882  HIT:   35623455  MISS:    1437427
L1D LOAD      ACCESS:   22951847  HIT:   21712120  MISS:    1239727
L1D RFO       ACCESS:   14109035  HIT:   13911335  MISS:     197700
L1D PREFETCH  ACCESS:          0  HIT:          0  MISS:          0
L1D WRITEBACK ACCESS:          0  HIT:          0  MISS:          0
L1D PREFETCH  REQUESTED:          0  ISSUED:          0  USEFUL:          0  USELESS:          0
L1I TOTAL     ACCESS:   30564487  HIT:   30155934  MISS:     408553
L1I LOAD      ACCESS:   30564487  HIT:   30155934  MISS:     408553
L1I RFO       ACCESS:          0  HIT:          0  MISS:          0
L1I PREFETCH  ACCESS:          0  HIT:          0  MISS:          0
L1I WRITEBACK ACCESS:          0  HIT:          0  MISS:          0
L1I PREFETCH  REQUESTED:          0  ISSUED:          0  USEFUL:          0  USELESS:          0
L2C TOTAL     ACCESS:    3091570  HIT:    3090024  MISS:       1546
L2C LOAD      ACCESS:    1648281  HIT:    1647093  MISS:       1188
L2C RFO       ACCESS:     197609  HIT:     197546  MISS:         63
L2C PREFETCH  ACCESS:     985361  HIT:     985066  MISS:        295
L2C WRITEBACK ACCESS:     260319  HIT:     260319  MISS:          0
L2C PREFETCH  REQUESTED:    1890212  ISSUED:    1890201  USEFUL:         43  USELESS:        137
LLC TOTAL     ACCESS:     292406  HIT:     288540  MISS:       3866
LLC LOAD      ACCESS:       1188  HIT:        738  MISS:        450
LLC RFO       ACCESS:         63  HIT:         14  MISS:         49
LLC PREFETCH  ACCESS:     291139  HIT:     287780  MISS:       3359
LLC WRITEBACK ACCESS:         16  HIT:          8  MISS:          8
LLC PREFETCH  REQUESTED:          0  ISSUED:          0  USEFUL:     448616  USELESS:     257361
Major fault: 0 Minor fault: 207

CPU 6 cumulative IPC: 0.893061 instructions: 100000001 cycles: 111974494
L1D TOTAL     ACCESS:   22814463  HIT:   22813335  MISS:       1128
L1D LOAD      ACCESS:   12635690  HIT:   12635487  MISS:        203
L1D RFO       ACCESS:   10178773  HIT:   10177848  MISS:        925
L1D PREFETCH  ACCESS:          0  HIT:          0  MISS:          0
L1D WRITEBACK ACCESS:          0  HIT:          0  MISS:          0
L1D PREFETCH  REQUESTED:          0  ISSUED:          0  USEFUL:          0  USELESS:          0
L1I TOTAL     ACCESS:   24900707  HIT:   24900707  MISS:          0
L1I LOAD      ACCESS:   24900707  HIT:   24900707  MISS:          0
L1I RFO       ACCESS:          0  HIT:          0  MISS:          0
L1I PREFETCH  ACCESS:          0  HIT:          0  MISS:          0
L1I WRITEBACK ACCESS:          0  HIT:          0  MISS:          0
L1I PREFETCH  REQUESTED:          0  ISSUED:          0  USEFUL:          0  USELESS:          0
L2C TOTAL     ACCESS:       2165  HIT:       1147  MISS:       1018
L2C LOAD      ACCESS:        203  HIT:        113  MISS:         90
L2C RFO       ACCESS:        925  HIT:          7  MISS:        918
L2C PREFETCH  ACCESS:        117  HIT:        107  MISS:         10
L2C WRITEBACK ACCESS:        920  HIT:        920  MISS:          0
L2C PREFETCH  REQUESTED:       3129  ISSUED:       3129  USEFUL:        117  USELESS:          3
LLC TOTAL     ACCESS:       1168  HIT:        138  MISS:       1030
LLC LOAD      ACCESS:         90  HIT:         50  MISS:         40
LLC RFO       ACCESS:        918  HIT:          0  MISS:        918
LLC PREFETCH  ACCESS:        160  HIT:         88  MISS:         72
LLC WRITEBACK ACCESS:          0  HIT:          0  MISS:          0
LLC PREFETCH  REQUESTED:          0  ISSUED:          0  USEFUL:     448616  USELESS:     257361
Major fault: 0 Minor fault: 135

CPU 7 cumulative IPC: 0.389216 instructions: 100000002 cycles: 256926786
L1D TOTAL     ACCESS:   52397765  HIT:   51616105  MISS:     781660
L1D LOAD      ACCESS:   35746802  HIT:   35106491  MISS:     640311
L1D RFO       ACCESS:   16650963  HIT:   16509614  MISS:     141349
L1D PREFETCH  ACCESS:          0  HIT:          0  MISS:          0
L1D WRITEBACK ACCESS:          0  HIT:          0  MISS:          0
L1D PREFETCH  REQUESTED:          0  ISSUED:          0  USEFUL:          0  USELESS:          0
L1I TOTAL     ACCESS:   28603297  HIT:   28603297  MISS:          0
L1I LOAD      ACCESS:   28603297  HIT:   28603297  MISS:          0
L1I RFO       ACCESS:          0  HIT:          0  MISS:          0
L1I PREFETCH  ACCESS:          0  HIT:          0  MISS:          0
L1I WRITEBACK ACCESS:          0  HIT:          0  MISS:          0
L1I PREFETCH  REQUESTED:          0  ISSUED:          0  USEFUL:          0  USELESS:          0
L2C TOTAL     ACCESS:    1693017  HIT:    1193901  MISS:     499116
L2C LOAD      ACCESS:     640309  HIT:     393573  MISS:     246736
L2C RFO       ACCESS:     141349  HIT:         17  MISS:     141332
L2C PREFETCH  ACCESS:     763272  HIT:     652372  MISS:     110900
L2C WRITEBACK ACCESS:     148087  HIT:     147939  MISS:        148
L2C PREFETCH  REQUESTED:    2523350  ISSUED:    2279116  USEFUL:     140417  USELESS:         90
LLC TOTAL     ACCESS:    1666402  HIT:    1253451  MISS:     412951
LLC LOAD      ACCESS:     245856  HIT:     215184  MISS:      30672
LLC RFO       ACCESS:     141332  HIT:      31777  MISS:     109555
LLC PREFETCH  ACCESS:    1137719  HIT:     865081  MISS:     272638
LLC WRITEBACK ACCESS:     141495  HIT:     141409  MISS:         86
LLC PREFETCH  REQUESTED:          0  ISSUED:          0  USEFUL:     448616  USELESS:     257361
Major fault: 0 Minor fault: 5422

DRAM Statistics
 CHANNEL 0
 RQ ROW_BUFFER_HIT:     167326  ROW_BUFFER_MISS:     338631
 DBUS_CONGESTED:     608183
 WQ ROW_BUFFER_HIT:      19520  ROW_BUFFER_MISS:     186099  FULL:          0

 CHANNEL 1
 RQ ROW_BUFFER_HIT:     167039  ROW_BUFFER_MISS:     341050
 DBUS_CONGESTED:     608183
 WQ ROW_BUFFER_HIT:      19689  ROW_BUFFER_MISS:     186621  FULL:          0

 AVG_CONGESTED_CYCLE: 14
