Initialize SIGNATURE TABLE
ST_SET: 1
ST_WAY: 256
ST_TAG_BIT: 16
ST_TAG_MASK: ffff

Initialize PATTERN TABLE
PT_SET: 512
PT_WAY: 4
SIG_DELTA_BIT: 7
C_SIG_BIT: 4
C_DELTA_BIT: 4

Initialize PREFETCH FILTER
FILTER_SET: 1024

*** ChampSim Multicore Out-of-Order Simulator ***

Warmup Instructions: 20000000
Simulation Instructions: 100000000
Number of CPUs: 8
LLC sets: 16384
LLC ways: 16
Off-chip DRAM Size: 8192 MB Channels: 2 Width: 64-bit Data Rate: 1600 MT/s

CPU 0 runs /scratch/user/djimenez/champsim-traces/speccpu2006/xz/400.perlbench-41B.champsimtrace.xz
CPU 1 runs /scratch/user/djimenez/champsim-traces/speccpu2006/xz/481.wrf-455B.champsimtrace.xz
CPU 2 runs /scratch/user/djimenez/champsim-traces/speccpu2006/xz/464.h264ref-30B.champsimtrace.xz
CPU 3 runs /scratch/user/djimenez/champsim-traces/speccpu2006/xz/481.wrf-1281B.champsimtrace.xz
CPU 4 runs /scratch/user/djimenez/champsim-traces/speccpu2006/xz/437.leslie3d-271B.champsimtrace.xz
CPU 5 runs /scratch/user/djimenez/champsim-traces/speccpu2006/xz/433.milc-274B.champsimtrace.xz
CPU 6 runs /scratch/user/djimenez/champsim-traces/speccpu2006/xz/483.xalancbmk-127B.champsimtrace.xz
CPU 7 runs /scratch/user/djimenez/champsim-traces/speccpu2006/xz/473.astar-42B.champsimtrace.xz
Heartbeat CPU 5 instructions: 10000002 cycles: 3372516 heartbeat IPC: 2.96515 cumulative IPC: 2.96515 (Simulation time: 0 hr 2 min 43 sec) 
Heartbeat CPU 6 instructions: 10000002 cycles: 4534442 heartbeat IPC: 2.20534 cumulative IPC: 2.20534 (Simulation time: 0 hr 3 min 38 sec) 
Heartbeat CPU 4 instructions: 10000003 cycles: 5157340 heartbeat IPC: 1.93898 cumulative IPC: 1.93898 (Simulation time: 0 hr 4 min 7 sec) 
Heartbeat CPU 3 instructions: 10000000 cycles: 5704574 heartbeat IPC: 1.75298 cumulative IPC: 1.75298 (Simulation time: 0 hr 4 min 33 sec) 
Heartbeat CPU 2 instructions: 10000001 cycles: 6204018 heartbeat IPC: 1.61186 cumulative IPC: 1.61186 (Simulation time: 0 hr 4 min 57 sec) 
Heartbeat CPU 1 instructions: 10000001 cycles: 6209501 heartbeat IPC: 1.61044 cumulative IPC: 1.61044 (Simulation time: 0 hr 4 min 57 sec) 
Heartbeat CPU 0 instructions: 10000002 cycles: 6699147 heartbeat IPC: 1.49273 cumulative IPC: 1.49273 (Simulation time: 0 hr 5 min 21 sec) 
Heartbeat CPU 5 instructions: 20000000 cycles: 6746341 heartbeat IPC: 2.96399 cumulative IPC: 2.96457 (Simulation time: 0 hr 5 min 24 sec) 
Heartbeat CPU 7 instructions: 10000003 cycles: 7179434 heartbeat IPC: 1.39287 cumulative IPC: 1.39287 (Simulation time: 0 hr 5 min 45 sec) 
Heartbeat CPU 6 instructions: 20000000 cycles: 9070867 heartbeat IPC: 2.20438 cumulative IPC: 2.20486 (Simulation time: 0 hr 7 min 17 sec) 
Heartbeat CPU 3 instructions: 20000000 cycles: 9614313 heartbeat IPC: 2.55772 cumulative IPC: 2.08023 (Simulation time: 0 hr 7 min 45 sec) 
Heartbeat CPU 5 instructions: 30000003 cycles: 10120144 heartbeat IPC: 2.96402 cumulative IPC: 0.988129 (Simulation time: 0 hr 8 min 11 sec) 
Heartbeat CPU 4 instructions: 20000000 cycles: 10315065 heartbeat IPC: 1.93884 cumulative IPC: 1.93891 (Simulation time: 0 hr 8 min 21 sec) 
Heartbeat CPU 2 instructions: 20000000 cycles: 12350129 heartbeat IPC: 1.62704 cumulative IPC: 1.61942 (Simulation time: 0 hr 10 min 9 sec) 
Heartbeat CPU 1 instructions: 20000000 cycles: 13084167 heartbeat IPC: 1.45462 cumulative IPC: 1.52857 (Simulation time: 0 hr 10 min 48 sec) 
Heartbeat CPU 0 instructions: 20000000 cycles: 13324476 heartbeat IPC: 1.50936 cumulative IPC: 1.501 (Simulation time: 0 hr 11 min 0 sec) 
Heartbeat CPU 5 instructions: 40000000 cycles: 13492958 heartbeat IPC: 2.96488 cumulative IPC: 1.48225 (Simulation time: 0 hr 11 min 10 sec) 
Heartbeat CPU 6 instructions: 30000002 cycles: 13644397 heartbeat IPC: 2.1865 cumulative IPC: 0.732902 (Simulation time: 0 hr 11 min 19 sec) 
Heartbeat CPU 3 instructions: 30000001 cycles: 13953625 heartbeat IPC: 2.30451 cumulative IPC: 0.71666 (Simulation time: 0 hr 11 min 35 sec) 
Heartbeat CPU 7 instructions: 20000000 cycles: 13977579 heartbeat IPC: 1.47099 cumulative IPC: 1.43086 (Simulation time: 0 hr 11 min 36 sec) 

Warmup complete CPU 0 instructions: 21144167 cycles: 13977580 (Simulation time: 0 hr 11 min 36 sec) 
Warmup complete CPU 1 instructions: 21307395 cycles: 13977580 (Simulation time: 0 hr 11 min 36 sec) 
Warmup complete CPU 2 instructions: 22823782 cycles: 13977580 (Simulation time: 0 hr 11 min 36 sec) 
Warmup complete CPU 3 instructions: 30055198 cycles: 13977580 (Simulation time: 0 hr 11 min 36 sec) 
Warmup complete CPU 4 instructions: 27101569 cycles: 13977580 (Simulation time: 0 hr 11 min 36 sec) 
Warmup complete CPU 5 instructions: 41437028 cycles: 13977580 (Simulation time: 0 hr 11 min 36 sec) 
Warmup complete CPU 6 instructions: 30751685 cycles: 13977580 (Simulation time: 0 hr 11 min 36 sec) 
Warmup complete CPU 7 instructions: 20000001 cycles: 13977580 (Simulation time: 0 hr 11 min 36 sec) 

Heartbeat CPU 4 instructions: 30000002 cycles: 16698272 heartbeat IPC: 1.56661 cumulative IPC: 1.06533 (Simulation time: 0 hr 12 min 47 sec) 
Heartbeat CPU 3 instructions: 40000000 cycles: 21970071 heartbeat IPC: 1.24744 cumulative IPC: 1.24427 (Simulation time: 0 hr 15 min 1 sec) 
Heartbeat CPU 1 instructions: 30000003 cycles: 22594703 heartbeat IPC: 1.05147 cumulative IPC: 1.00876 (Simulation time: 0 hr 15 min 17 sec) 
Heartbeat CPU 2 instructions: 30000001 cycles: 24427050 heartbeat IPC: 0.828026 cumulative IPC: 0.686754 (Simulation time: 0 hr 16 min 14 sec) 
Heartbeat CPU 4 instructions: 40000000 cycles: 26101209 heartbeat IPC: 1.0635 cumulative IPC: 1.06391 (Simulation time: 0 hr 16 min 58 sec) 
Heartbeat CPU 5 instructions: 50000000 cycles: 26124039 heartbeat IPC: 0.791698 cumulative IPC: 0.704977 (Simulation time: 0 hr 16 min 58 sec) 
Heartbeat CPU 0 instructions: 30000000 cycles: 30646038 heartbeat IPC: 0.577315 cumulative IPC: 0.531293 (Simulation time: 0 hr 19 min 4 sec) 
Heartbeat CPU 3 instructions: 50000000 cycles: 30727360 heartbeat IPC: 1.14191 cumulative IPC: 1.19075 (Simulation time: 0 hr 19 min 6 sec) 
Heartbeat CPU 1 instructions: 40000000 cycles: 32588859 heartbeat IPC: 1.00058 cumulative IPC: 1.00437 (Simulation time: 0 hr 19 min 58 sec) 
Heartbeat CPU 4 instructions: 50000001 cycles: 35511395 heartbeat IPC: 1.06268 cumulative IPC: 1.06337 (Simulation time: 0 hr 21 min 13 sec) 
Heartbeat CPU 2 instructions: 40000000 cycles: 38850145 heartbeat IPC: 0.693332 cumulative IPC: 0.690569 (Simulation time: 0 hr 22 min 40 sec) 
Heartbeat CPU 3 instructions: 60000000 cycles: 39012186 heartbeat IPC: 1.20703 cumulative IPC: 1.19614 (Simulation time: 0 hr 22 min 44 sec) 
Heartbeat CPU 5 instructions: 60000000 cycles: 40883172 heartbeat IPC: 0.677547 cumulative IPC: 0.68993 (Simulation time: 0 hr 23 min 32 sec) 
Heartbeat CPU 1 instructions: 50000000 cycles: 42558414 heartbeat IPC: 1.00305 cumulative IPC: 1.00391 (Simulation time: 0 hr 24 min 16 sec) 
Heartbeat CPU 4 instructions: 60000000 cycles: 45264847 heartbeat IPC: 1.02528 cumulative IPC: 1.0515 (Simulation time: 0 hr 25 min 25 sec) 
Heartbeat CPU 3 instructions: 70000001 cycles: 47177410 heartbeat IPC: 1.22471 cumulative IPC: 1.20316 (Simulation time: 0 hr 26 min 13 sec) 
Heartbeat CPU 2 instructions: 50000002 cycles: 47419521 heartbeat IPC: 1.16695 cumulative IPC: 0.812639 (Simulation time: 0 hr 26 min 19 sec) 
Heartbeat CPU 0 instructions: 40000000 cycles: 50819718 heartbeat IPC: 0.495695 cumulative IPC: 0.511801 (Simulation time: 0 hr 27 min 37 sec) 
Heartbeat CPU 7 instructions: 30000000 cycles: 51430549 heartbeat IPC: 0.267002 cumulative IPC: 0.267002 (Simulation time: 0 hr 27 min 52 sec) 
Heartbeat CPU 1 instructions: 60000000 cycles: 52148294 heartbeat IPC: 1.04277 cumulative IPC: 1.01367 (Simulation time: 0 hr 28 min 11 sec) 
Heartbeat CPU 4 instructions: 70000003 cycles: 55547807 heartbeat IPC: 0.972483 cumulative IPC: 1.03195 (Simulation time: 0 hr 29 min 38 sec) 
Heartbeat CPU 2 instructions: 60000000 cycles: 55753080 heartbeat IPC: 1.19997 cumulative IPC: 0.889905 (Simulation time: 0 hr 29 min 43 sec) 
Heartbeat CPU 3 instructions: 80000000 cycles: 56018730 heartbeat IPC: 1.13105 cumulative IPC: 1.188 (Simulation time: 0 hr 29 min 50 sec) 
Heartbeat CPU 1 instructions: 70000000 cycles: 62084693 heartbeat IPC: 1.0064 cumulative IPC: 1.01217 (Simulation time: 0 hr 32 min 41 sec) 
Heartbeat CPU 3 instructions: 90000001 cycles: 63064795 heartbeat IPC: 1.41923 cumulative IPC: 1.22119 (Simulation time: 0 hr 33 min 10 sec) 
Heartbeat CPU 2 instructions: 70000003 cycles: 63963216 heartbeat IPC: 1.21801 cumulative IPC: 0.943796 (Simulation time: 0 hr 33 min 38 sec) 
Heartbeat CPU 6 instructions: 40000000 cycles: 64425028 heartbeat IPC: 0.196925 cumulative IPC: 0.183326 (Simulation time: 0 hr 33 min 50 sec) 
Heartbeat CPU 4 instructions: 80000000 cycles: 65123188 heartbeat IPC: 1.04434 cumulative IPC: 1.03427 (Simulation time: 0 hr 34 min 10 sec) 
Heartbeat CPU 5 instructions: 70000000 cycles: 66261037 heartbeat IPC: 0.394044 cumulative IPC: 0.54631 (Simulation time: 0 hr 34 min 40 sec) 
Heartbeat CPU 0 instructions: 50000000 cycles: 70813173 heartbeat IPC: 0.500164 cumulative IPC: 0.507707 (Simulation time: 0 hr 36 min 51 sec) 
Heartbeat CPU 1 instructions: 80000000 cycles: 72225226 heartbeat IPC: 0.986141 cumulative IPC: 1.00764 (Simulation time: 0 hr 38 min 5 sec) 
Heartbeat CPU 3 instructions: 100000000 cycles: 72538332 heartbeat IPC: 1.05557 cumulative IPC: 1.1944 (Simulation time: 0 hr 38 min 17 sec) 
Heartbeat CPU 2 instructions: 80000000 cycles: 76169753 heartbeat IPC: 0.819233 cumulative IPC: 0.919347 (Simulation time: 0 hr 39 min 51 sec) 
Heartbeat CPU 4 instructions: 90000003 cycles: 76531395 heartbeat IPC: 0.876562 cumulative IPC: 1.00551 (Simulation time: 0 hr 40 min 0 sec) 
Heartbeat CPU 5 instructions: 80000000 cycles: 78587193 heartbeat IPC: 0.811283 cumulative IPC: 0.596861 (Simulation time: 0 hr 41 min 34 sec) 
Heartbeat CPU 3 instructions: 110000002 cycles: 81530595 heartbeat IPC: 1.11207 cumulative IPC: 1.18344 (Simulation time: 0 hr 42 min 50 sec) 
Heartbeat CPU 1 instructions: 90000002 cycles: 82265431 heartbeat IPC: 0.995996 cumulative IPC: 1.00593 (Simulation time: 0 hr 43 min 9 sec) 
Heartbeat CPU 7 instructions: 40000000 cycles: 82626912 heartbeat IPC: 0.32055 cumulative IPC: 0.291336 (Simulation time: 0 hr 43 min 18 sec) 
Heartbeat CPU 0 instructions: 60000000 cycles: 87825525 heartbeat IPC: 0.587808 cumulative IPC: 0.52616 (Simulation time: 0 hr 46 min 10 sec) 
Heartbeat CPU 4 instructions: 100000000 cycles: 88116675 heartbeat IPC: 0.863164 cumulative IPC: 0.983266 (Simulation time: 0 hr 46 min 17 sec) 
Heartbeat CPU 2 instructions: 90000002 cycles: 90251759 heartbeat IPC: 0.710126 cumulative IPC: 0.88072 (Simulation time: 0 hr 47 min 10 sec) 
Heartbeat CPU 5 instructions: 90000001 cycles: 90522289 heartbeat IPC: 0.837865 cumulative IPC: 0.634439 (Simulation time: 0 hr 47 min 17 sec) 
Heartbeat CPU 3 instructions: 120000000 cycles: 90533216 heartbeat IPC: 1.11079 cumulative IPC: 1.17489 (Simulation time: 0 hr 47 min 17 sec) 
Heartbeat CPU 1 instructions: 100000000 cycles: 90614515 heartbeat IPC: 1.19774 cumulative IPC: 1.02682 (Simulation time: 0 hr 47 min 19 sec) 
Heartbeat CPU 1 instructions: 110000002 cycles: 98403415 heartbeat IPC: 1.28388 cumulative IPC: 1.05054 (Simulation time: 0 hr 50 min 45 sec) 
Heartbeat CPU 2 instructions: 100000000 cycles: 99327495 heartbeat IPC: 1.10184 cumulative IPC: 0.904233 (Simulation time: 0 hr 51 min 10 sec) 
Heartbeat CPU 3 instructions: 130000001 cycles: 99552513 heartbeat IPC: 1.10873 cumulative IPC: 1.16792 (Simulation time: 0 hr 51 min 16 sec) 
Finished CPU 3 instructions: 100000000 cycles: 85625777 cumulative IPC: 1.16787 (Simulation time: 0 hr 51 min 17 sec) 
Heartbeat CPU 4 instructions: 110000003 cycles: 99787487 heartbeat IPC: 0.856839 cumulative IPC: 0.966071 (Simulation time: 0 hr 51 min 22 sec) 
Heartbeat CPU 5 instructions: 100000000 cycles: 102791555 heartbeat IPC: 0.815045 cumulative IPC: 0.659389 (Simulation time: 0 hr 52 min 41 sec) 
Heartbeat CPU 0 instructions: 70000002 cycles: 107331313 heartbeat IPC: 0.512668 cumulative IPC: 0.523341 (Simulation time: 0 hr 54 min 39 sec) 
Heartbeat CPU 2 instructions: 110000001 cycles: 107413435 heartbeat IPC: 1.23671 cumulative IPC: 0.933006 (Simulation time: 0 hr 54 min 41 sec) 
Heartbeat CPU 1 instructions: 120000000 cycles: 107738146 heartbeat IPC: 1.07127 cumulative IPC: 1.0526 (Simulation time: 0 hr 54 min 50 sec) 
Heartbeat CPU 6 instructions: 50000000 cycles: 108408296 heartbeat IPC: 0.227359 cumulative IPC: 0.203835 (Simulation time: 0 hr 55 min 7 sec) 
Heartbeat CPU 3 instructions: 140000000 cycles: 108583290 heartbeat IPC: 1.10732 cumulative IPC: 1.16214 (Simulation time: 0 hr 55 min 12 sec) 
Finished CPU 1 instructions: 100000001 cycles: 95014345 cumulative IPC: 1.05247 (Simulation time: 0 hr 55 min 25 sec) 
Heartbeat CPU 4 instructions: 120000000 cycles: 111567560 heartbeat IPC: 0.848891 cumulative IPC: 0.951926 (Simulation time: 0 hr 57 min 13 sec) 
Heartbeat CPU 7 instructions: 50000002 cycles: 113732741 heartbeat IPC: 0.321483 cumulative IPC: 0.300736 (Simulation time: 0 hr 58 min 51 sec) 
Heartbeat CPU 5 instructions: 110000001 cycles: 115128792 heartbeat IPC: 0.810554 cumulative IPC: 0.677827 (Simulation time: 0 hr 59 min 28 sec) 
Heartbeat CPU 2 instructions: 120000000 cycles: 115489163 heartbeat IPC: 1.23828 cumulative IPC: 0.957292 (Simulation time: 0 hr 59 min 38 sec) 
Heartbeat CPU 1 instructions: 130000002 cycles: 116840295 heartbeat IPC: 1.09864 cumulative IPC: 1.05668 (Simulation time: 1 hr 0 min 15 sec) 
Heartbeat CPU 3 instructions: 150000001 cycles: 117622405 heartbeat IPC: 1.1063 cumulative IPC: 1.15727 (Simulation time: 1 hr 0 min 36 sec) 
Finished CPU 2 instructions: 100000002 cycles: 103813904 cumulative IPC: 0.963262 (Simulation time: 1 hr 0 min 41 sec) 
Finished CPU 4 instructions: 100000001 cycles: 104270011 cumulative IPC: 0.959049 (Simulation time: 1 hr 0 min 53 sec) 
Heartbeat CPU 4 instructions: 130000002 cycles: 120941360 heartbeat IPC: 1.0668 cumulative IPC: 0.961993 (Simulation time: 1 hr 2 min 6 sec) 
Heartbeat CPU 1 instructions: 140000000 cycles: 123472001 heartbeat IPC: 1.50791 cumulative IPC: 1.08401 (Simulation time: 1 hr 3 min 13 sec) 
Heartbeat CPU 2 instructions: 130000001 cycles: 125718422 heartbeat IPC: 0.977588 cumulative IPC: 0.95915 (Simulation time: 1 hr 4 min 11 sec) 
Heartbeat CPU 0 instructions: 80000000 cycles: 125777239 heartbeat IPC: 0.542125 cumulative IPC: 0.52644 (Simulation time: 1 hr 4 min 12 sec) 
Heartbeat CPU 3 instructions: 160000000 cycles: 126190973 heartbeat IPC: 1.16706 cumulative IPC: 1.15802 (Simulation time: 1 hr 4 min 23 sec) 
Heartbeat CPU 5 instructions: 120000000 cycles: 128319658 heartbeat IPC: 0.7581 cumulative IPC: 0.687087 (Simulation time: 1 hr 5 min 18 sec) 
Heartbeat CPU 4 instructions: 140000000 cycles: 130190888 heartbeat IPC: 1.08114 cumulative IPC: 0.971476 (Simulation time: 1 hr 6 min 6 sec) 
Heartbeat CPU 1 instructions: 150000000 cycles: 132655819 heartbeat IPC: 1.08887 cumulative IPC: 1.08438 (Simulation time: 1 hr 7 min 9 sec) 
Heartbeat CPU 3 instructions: 170000000 cycles: 134440101 heartbeat IPC: 1.21225 cumulative IPC: 1.16173 (Simulation time: 1 hr 7 min 56 sec) 
Heartbeat CPU 2 instructions: 140000000 cycles: 139110078 heartbeat IPC: 0.746734 cumulative IPC: 0.936417 (Simulation time: 1 hr 9 min 52 sec) 
Heartbeat CPU 4 instructions: 150000000 cycles: 139431808 heartbeat IPC: 1.08214 cumulative IPC: 0.979628 (Simulation time: 1 hr 10 min 0 sec) 
Heartbeat CPU 5 instructions: 130000003 cycles: 141706463 heartbeat IPC: 0.747004 cumulative IPC: 0.693367 (Simulation time: 1 hr 10 min 57 sec) 
Heartbeat CPU 1 instructions: 160000000 cycles: 141882627 heartbeat IPC: 1.0838 cumulative IPC: 1.08434 (Simulation time: 1 hr 11 min 2 sec) 
Heartbeat CPU 3 instructions: 180000000 cycles: 142645532 heartbeat IPC: 1.21871 cumulative IPC: 1.16536 (Simulation time: 1 hr 11 min 21 sec) 
Heartbeat CPU 7 instructions: 60000000 cycles: 143184197 heartbeat IPC: 0.339542 cumulative IPC: 0.309582 (Simulation time: 1 hr 11 min 36 sec) 
Heartbeat CPU 0 instructions: 90000001 cycles: 144616859 heartbeat IPC: 0.530796 cumulative IPC: 0.527068 (Simulation time: 1 hr 12 min 14 sec) 
Heartbeat CPU 4 instructions: 160000000 cycles: 148637333 heartbeat IPC: 1.0863 cumulative IPC: 0.98692 (Simulation time: 1 hr 14 min 2 sec) 
Heartbeat CPU 6 instructions: 60000000 cycles: 150174348 heartbeat IPC: 0.239429 cumulative IPC: 0.21475 (Simulation time: 1 hr 14 min 43 sec) 
Heartbeat CPU 1 instructions: 170000000 cycles: 150287745 heartbeat IPC: 1.18975 cumulative IPC: 1.09084 (Simulation time: 1 hr 14 min 47 sec) 
Heartbeat CPU 2 instructions: 150000000 cycles: 150386218 heartbeat IPC: 0.886828 cumulative IPC: 0.932318 (Simulation time: 1 hr 14 min 49 sec) 
Heartbeat CPU 3 instructions: 190000001 cycles: 150851923 heartbeat IPC: 1.21856 cumulative IPC: 1.16855 (Simulation time: 1 hr 15 min 1 sec) 
Heartbeat CPU 5 instructions: 140000000 cycles: 154811537 heartbeat IPC: 0.763063 cumulative IPC: 0.699852 (Simulation time: 1 hr 16 min 47 sec) 
Finished CPU 5 instructions: 100000002 cycles: 142638182 cumulative IPC: 0.701075 (Simulation time: 1 hr 17 min 37 sec) 
Heartbeat CPU 4 instructions: 170000000 cycles: 157856910 heartbeat IPC: 1.08465 cumulative IPC: 0.993182 (Simulation time: 1 hr 18 min 11 sec) 
Heartbeat CPU 1 instructions: 180000000 cycles: 158286366 heartbeat IPC: 1.25022 cumulative IPC: 1.09967 (Simulation time: 1 hr 18 min 23 sec) 
Heartbeat CPU 3 instructions: 200000000 cycles: 160388942 heartbeat IPC: 1.04855 cumulative IPC: 1.16074 (Simulation time: 1 hr 19 min 14 sec) 
Heartbeat CPU 2 instructions: 160000000 cycles: 160722937 heartbeat IPC: 0.967425 cumulative IPC: 0.934791 (Simulation time: 1 hr 19 min 22 sec) 
Heartbeat CPU 0 instructions: 100000000 cycles: 163829940 heartbeat IPC: 0.520479 cumulative IPC: 0.526223 (Simulation time: 1 hr 20 min 43 sec) 
Heartbeat CPU 1 instructions: 190000001 cycles: 166096429 heartbeat IPC: 1.2804 cumulative IPC: 1.10895 (Simulation time: 1 hr 21 min 42 sec) 
Heartbeat CPU 4 instructions: 180000000 cycles: 167125393 heartbeat IPC: 1.07893 cumulative IPC: 0.998372 (Simulation time: 1 hr 22 min 8 sec) 
Heartbeat CPU 5 instructions: 150000000 cycles: 167493862 heartbeat IPC: 0.788499 cumulative IPC: 0.707176 (Simulation time: 1 hr 22 min 17 sec) 
Heartbeat CPU 3 instructions: 210000000 cycles: 171894450 heartbeat IPC: 0.869149 cumulative IPC: 1.13949 (Simulation time: 1 hr 24 min 24 sec) 
Heartbeat CPU 2 instructions: 170000002 cycles: 173528037 heartbeat IPC: 0.780939 cumulative IPC: 0.922443 (Simulation time: 1 hr 25 min 5 sec) 
Heartbeat CPU 1 instructions: 200000000 cycles: 173851410 heartbeat IPC: 1.28949 cumulative IPC: 1.11771 (Simulation time: 1 hr 25 min 13 sec) 
Heartbeat CPU 7 instructions: 70000002 cycles: 173908657 heartbeat IPC: 0.325474 cumulative IPC: 0.312635 (Simulation time: 1 hr 25 min 14 sec) 
Heartbeat CPU 4 instructions: 190000003 cycles: 176353546 heartbeat IPC: 1.08364 cumulative IPC: 1.00322 (Simulation time: 1 hr 26 min 12 sec) 
Heartbeat CPU 5 instructions: 160000000 cycles: 179570476 heartbeat IPC: 0.828047 cumulative IPC: 0.715991 (Simulation time: 1 hr 27 min 28 sec) 
Heartbeat CPU 1 instructions: 210000003 cycles: 181221558 heartbeat IPC: 1.35683 cumulative IPC: 1.12825 (Simulation time: 1 hr 28 min 6 sec) 
Heartbeat CPU 0 instructions: 110000000 cycles: 181627811 heartbeat IPC: 0.561865 cumulative IPC: 0.530007 (Simulation time: 1 hr 28 min 16 sec) 
Heartbeat CPU 3 instructions: 220000000 cycles: 183430407 heartbeat IPC: 0.866855 cumulative IPC: 1.12093 (Simulation time: 1 hr 28 min 58 sec) 
Heartbeat CPU 4 instructions: 200000000 cycles: 185594989 heartbeat IPC: 1.08208 cumulative IPC: 1.00746 (Simulation time: 1 hr 29 min 50 sec) 
Heartbeat CPU 2 instructions: 180000000 cycles: 187257659 heartbeat IPC: 0.728352 cumulative IPC: 0.907065 (Simulation time: 1 hr 30 min 29 sec) 
Heartbeat CPU 1 instructions: 220000000 cycles: 188933310 heartbeat IPC: 1.29672 cumulative IPC: 1.13567 (Simulation time: 1 hr 31 min 9 sec) 
Heartbeat CPU 5 instructions: 170000002 cycles: 192068429 heartbeat IPC: 0.800131 cumulative IPC: 0.721895 (Simulation time: 1 hr 32 min 23 sec) 
Heartbeat CPU 6 instructions: 70000002 cycles: 194300097 heartbeat IPC: 0.226625 cumulative IPC: 0.217656 (Simulation time: 1 hr 33 min 15 sec) 
Heartbeat CPU 4 instructions: 210000003 cycles: 194870954 heartbeat IPC: 1.07806 cumulative IPC: 1.01108 (Simulation time: 1 hr 33 min 29 sec) 
Heartbeat CPU 3 instructions: 230000003 cycles: 195020691 heartbeat IPC: 0.862792 cumulative IPC: 1.1044 (Simulation time: 1 hr 33 min 33 sec) 
Heartbeat CPU 1 instructions: 230000002 cycles: 197572657 heartbeat IPC: 1.1575 cumulative IPC: 1.1367 (Simulation time: 1 hr 34 min 35 sec) 
Heartbeat CPU 2 instructions: 190000001 cycles: 199507296 heartbeat IPC: 0.816351 cumulative IPC: 0.901075 (Simulation time: 1 hr 35 min 22 sec) 
Heartbeat CPU 0 instructions: 120000000 cycles: 201324192 heartbeat IPC: 0.507707 cumulative IPC: 0.527663 (Simulation time: 1 hr 36 min 6 sec) 
Finished CPU 0 instructions: 100000003 cycles: 190159932 cumulative IPC: 0.525873 (Simulation time: 1 hr 37 min 15 sec) 
Heartbeat CPU 4 instructions: 220000000 cycles: 204179489 heartbeat IPC: 1.07428 cumulative IPC: 1.01418 (Simulation time: 1 hr 37 min 16 sec) 
Heartbeat CPU 3 instructions: 240000000 cycles: 204906822 heartbeat IPC: 1.01152 cumulative IPC: 1.09959 (Simulation time: 1 hr 37 min 34 sec) 
Heartbeat CPU 5 instructions: 180000000 cycles: 205259938 heartbeat IPC: 0.758063 cumulative IPC: 0.72439 (Simulation time: 1 hr 37 min 43 sec) 
Heartbeat CPU 1 instructions: 240000000 cycles: 205864792 heartbeat IPC: 1.20596 cumulative IPC: 1.13969 (Simulation time: 1 hr 37 min 57 sec) 
Heartbeat CPU 2 instructions: 200000000 cycles: 209745802 heartbeat IPC: 0.976705 cumulative IPC: 0.905031 (Simulation time: 1 hr 39 min 33 sec) 
Heartbeat CPU 7 instructions: 80000000 cycles: 210569547 heartbeat IPC: 0.27277 cumulative IPC: 0.305201 (Simulation time: 1 hr 39 min 50 sec) 
Heartbeat CPU 3 instructions: 250000001 cycles: 212499698 heartbeat IPC: 1.31702 cumulative IPC: 1.10791 (Simulation time: 1 hr 40 min 34 sec) 
Heartbeat CPU 4 instructions: 230000000 cycles: 213492543 heartbeat IPC: 1.07376 cumulative IPC: 1.01696 (Simulation time: 1 hr 40 min 57 sec) 
Heartbeat CPU 1 instructions: 250000001 cycles: 216204531 heartbeat IPC: 0.967143 cumulative IPC: 1.13087 (Simulation time: 1 hr 42 min 0 sec) 
Heartbeat CPU 5 instructions: 190000001 cycles: 219553803 heartbeat IPC: 0.699601 cumulative IPC: 0.722666 (Simulation time: 1 hr 43 min 16 sec) 
Heartbeat CPU 3 instructions: 260000000 cycles: 220008329 heartbeat IPC: 1.3318 cumulative IPC: 1.11607 (Simulation time: 1 hr 43 min 26 sec) 
Heartbeat CPU 2 instructions: 210000002 cycles: 221742611 heartbeat IPC: 0.833555 cumulative IPC: 0.900903 (Simulation time: 1 hr 44 min 8 sec) 
Heartbeat CPU 0 instructions: 130000001 cycles: 222359458 heartbeat IPC: 0.475392 cumulative IPC: 0.522386 (Simulation time: 1 hr 44 min 22 sec) 
Heartbeat CPU 4 instructions: 240000000 cycles: 222804978 heartbeat IPC: 1.07383 cumulative IPC: 1.01949 (Simulation time: 1 hr 44 min 33 sec) 
Heartbeat CPU 1 instructions: 260000000 cycles: 224930659 heartbeat IPC: 1.14598 cumulative IPC: 1.1315 (Simulation time: 1 hr 45 min 22 sec) 
Heartbeat CPU 3 instructions: 270000002 cycles: 228493208 heartbeat IPC: 1.17857 cumulative IPC: 1.11854 (Simulation time: 1 hr 46 min 38 sec) 
Heartbeat CPU 4 instructions: 250000003 cycles: 232294779 heartbeat IPC: 1.05376 cumulative IPC: 1.02098 (Simulation time: 1 hr 47 min 57 sec) 
Heartbeat CPU 1 instructions: 270000000 cycles: 233605720 heartbeat IPC: 1.15273 cumulative IPC: 1.13233 (Simulation time: 1 hr 48 min 24 sec) 
Heartbeat CPU 5 instructions: 200000000 cycles: 235687393 heartbeat IPC: 0.619825 cumulative IPC: 0.715182 (Simulation time: 1 hr 49 min 7 sec) 
Heartbeat CPU 2 instructions: 220000000 cycles: 236399932 heartbeat IPC: 0.682253 cumulative IPC: 0.886495 (Simulation time: 1 hr 49 min 22 sec) 
Heartbeat CPU 3 instructions: 280000000 cycles: 240528602 heartbeat IPC: 0.830882 cumulative IPC: 1.10326 (Simulation time: 1 hr 50 min 53 sec) 
Heartbeat CPU 0 instructions: 140000000 cycles: 241245295 heartbeat IPC: 0.529497 cumulative IPC: 0.522977 (Simulation time: 1 hr 51 min 8 sec) 
Heartbeat CPU 4 instructions: 260000000 cycles: 241725152 heartbeat IPC: 1.0604 cumulative IPC: 1.02262 (Simulation time: 1 hr 51 min 18 sec) 
Heartbeat CPU 1 instructions: 280000000 cycles: 242352157 heartbeat IPC: 1.14332 cumulative IPC: 1.13276 (Simulation time: 1 hr 51 min 31 sec) 
Heartbeat CPU 6 instructions: 80000000 cycles: 244659190 heartbeat IPC: 0.198574 cumulative IPC: 0.21349 (Simulation time: 1 hr 52 min 23 sec) 
Heartbeat CPU 2 instructions: 230000000 cycles: 249264773 heartbeat IPC: 0.777312 cumulative IPC: 0.880525 (Simulation time: 1 hr 54 min 4 sec) 
Heartbeat CPU 7 instructions: 90000001 cycles: 249699964 heartbeat IPC: 0.255556 cumulative IPC: 0.296959 (Simulation time: 1 hr 54 min 13 sec) 
Heartbeat CPU 3 instructions: 290000003 cycles: 250876219 heartbeat IPC: 0.966406 cumulative IPC: 1.09728 (Simulation time: 1 hr 54 min 40 sec) 
Heartbeat CPU 4 instructions: 270000001 cycles: 251295026 heartbeat IPC: 1.04495 cumulative IPC: 1.02352 (Simulation time: 1 hr 54 min 50 sec) 
Heartbeat CPU 1 instructions: 290000003 cycles: 251745835 heartbeat IPC: 1.06455 cumulative IPC: 1.13006 (Simulation time: 1 hr 55 min 0 sec) 
Heartbeat CPU 5 instructions: 210000003 cycles: 257730832 heartbeat IPC: 0.45365 cumulative IPC: 0.691531 (Simulation time: 1 hr 57 min 16 sec) 
Heartbeat CPU 1 instructions: 300000000 cycles: 259539678 heartbeat IPC: 1.28306 cumulative IPC: 1.13492 (Simulation time: 1 hr 57 min 56 sec) 
Heartbeat CPU 2 instructions: 240000000 cycles: 259769517 heartbeat IPC: 0.951951 cumulative IPC: 0.883577 (Simulation time: 1 hr 58 min 1 sec) 
Heartbeat CPU 0 instructions: 150000000 cycles: 260163945 heartbeat IPC: 0.528579 cumulative IPC: 0.523408 (Simulation time: 1 hr 58 min 10 sec) 
Heartbeat CPU 3 instructions: 300000000 cycles: 260620779 heartbeat IPC: 1.02621 cumulative IPC: 1.09447 (Simulation time: 1 hr 58 min 21 sec) 
Heartbeat CPU 4 instructions: 280000000 cycles: 261166859 heartbeat IPC: 1.01298 cumulative IPC: 1.0231 (Simulation time: 1 hr 58 min 33 sec) 
Heartbeat CPU 1 instructions: 310000002 cycles: 267732269 heartbeat IPC: 1.22062 cumulative IPC: 1.13768 (Simulation time: 2 hr 0 min 59 sec) 
Heartbeat CPU 3 instructions: 310000002 cycles: 270243040 heartbeat IPC: 1.03926 cumulative IPC: 1.0924 (Simulation time: 2 hr 1 min 56 sec) 
Heartbeat CPU 4 instructions: 290000000 cycles: 271052375 heartbeat IPC: 1.01158 cumulative IPC: 1.02265 (Simulation time: 2 hr 2 min 14 sec) 
Heartbeat CPU 2 instructions: 250000001 cycles: 271310247 heartbeat IPC: 0.866496 cumulative IPC: 0.882811 (Simulation time: 2 hr 2 min 20 sec) 
Heartbeat CPU 1 instructions: 320000000 cycles: 274666209 heartbeat IPC: 1.44218 cumulative IPC: 1.14578 (Simulation time: 2 hr 3 min 36 sec) 
Heartbeat CPU 0 instructions: 160000000 cycles: 278622301 heartbeat IPC: 0.54176 cumulative IPC: 0.524688 (Simulation time: 2 hr 5 min 5 sec) 
Heartbeat CPU 5 instructions: 220000000 cycles: 278908762 heartbeat IPC: 0.47219 cumulative IPC: 0.673998 (Simulation time: 2 hr 5 min 12 sec) 
Heartbeat CPU 3 instructions: 320000000 cycles: 279910036 heartbeat IPC: 1.03445 cumulative IPC: 1.09029 (Simulation time: 2 hr 5 min 34 sec) 
Heartbeat CPU 4 instructions: 300000000 cycles: 280967925 heartbeat IPC: 1.00852 cumulative IPC: 1.02213 (Simulation time: 2 hr 5 min 56 sec) 
Heartbeat CPU 7 instructions: 100000000 cycles: 282223759 heartbeat IPC: 0.307467 cumulative IPC: 0.298234 (Simulation time: 2 hr 6 min 19 sec) 
Heartbeat CPU 1 instructions: 330000003 cycles: 283165639 heartbeat IPC: 1.17655 cumulative IPC: 1.14675 (Simulation time: 2 hr 6 min 39 sec) 
Heartbeat CPU 2 instructions: 260000000 cycles: 285941711 heartbeat IPC: 0.683459 cumulative IPC: 0.872086 (Simulation time: 2 hr 7 min 38 sec) 
Heartbeat CPU 3 instructions: 330000002 cycles: 289594466 heartbeat IPC: 1.03259 cumulative IPC: 1.08827 (Simulation time: 2 hr 8 min 55 sec) 
Heartbeat CPU 4 instructions: 310000000 cycles: 290845369 heartbeat IPC: 1.01241 cumulative IPC: 1.02178 (Simulation time: 2 hr 9 min 23 sec) 
Heartbeat CPU 1 instructions: 340000000 cycles: 292239352 heartbeat IPC: 1.10208 cumulative IPC: 1.1453 (Simulation time: 2 hr 9 min 52 sec) 
Heartbeat CPU 6 instructions: 90000001 cycles: 299058057 heartbeat IPC: 0.183827 cumulative IPC: 0.20783 (Simulation time: 2 hr 12 min 19 sec) 
Heartbeat CPU 3 instructions: 340000000 cycles: 299081152 heartbeat IPC: 1.05411 cumulative IPC: 1.08713 (Simulation time: 2 hr 12 min 19 sec) 
Heartbeat CPU 2 instructions: 270000001 cycles: 299207012 heartbeat IPC: 0.753847 cumulative IPC: 0.866587 (Simulation time: 2 hr 12 min 22 sec) 
Heartbeat CPU 5 instructions: 230000001 cycles: 299509425 heartbeat IPC: 0.485421 cumulative IPC: 0.660392 (Simulation time: 2 hr 12 min 29 sec) 
Heartbeat CPU 4 instructions: 320000000 cycles: 300671573 heartbeat IPC: 1.01769 cumulative IPC: 1.02164 (Simulation time: 2 hr 12 min 56 sec) 
Heartbeat CPU 1 instructions: 350000002 cycles: 301304000 heartbeat IPC: 1.10319 cumulative IPC: 1.14397 (Simulation time: 2 hr 13 min 10 sec) 
Heartbeat CPU 0 instructions: 170000001 cycles: 304819375 heartbeat IPC: 0.381722 cumulative IPC: 0.51181 (Simulation time: 2 hr 14 min 30 sec) 
Heartbeat CPU 3 instructions: 350000000 cycles: 308497190 heartbeat IPC: 1.06202 cumulative IPC: 1.08633 (Simulation time: 2 hr 15 min 51 sec) 
Heartbeat CPU 2 instructions: 280000000 cycles: 309469275 heartbeat IPC: 0.974444 cumulative IPC: 0.870333 (Simulation time: 2 hr 16 min 12 sec) 
Heartbeat CPU 1 instructions: 360000000 cycles: 310390835 heartbeat IPC: 1.10049 cumulative IPC: 1.14264 (Simulation time: 2 hr 16 min 32 sec) 
Heartbeat CPU 4 instructions: 330000000 cycles: 310483469 heartbeat IPC: 1.01917 cumulative IPC: 1.02156 (Simulation time: 2 hr 16 min 34 sec) 
Heartbeat CPU 5 instructions: 240000000 cycles: 314123844 heartbeat IPC: 0.684256 cumulative IPC: 0.661554 (Simulation time: 2 hr 17 min 53 sec) 
Heartbeat CPU 7 instructions: 110000000 cycles: 315336744 heartbeat IPC: 0.301996 cumulative IPC: 0.298647 (Simulation time: 2 hr 18 min 19 sec) 
Heartbeat CPU 3 instructions: 360000000 cycles: 318080746 heartbeat IPC: 1.04345 cumulative IPC: 1.08498 (Simulation time: 2 hr 19 min 21 sec) 
Heartbeat CPU 1 instructions: 370000002 cycles: 319479235 heartbeat IPC: 1.1003 cumulative IPC: 1.14138 (Simulation time: 2 hr 19 min 52 sec) 
Heartbeat CPU 4 instructions: 340000000 cycles: 319920123 heartbeat IPC: 1.0597 cumulative IPC: 1.02274 (Simulation time: 2 hr 20 min 1 sec) 
Heartbeat CPU 2 instructions: 290000000 cycles: 320364259 heartbeat IPC: 0.917854 cumulative IPC: 0.872023 (Simulation time: 2 hr 20 min 11 sec) 
Heartbeat CPU 5 instructions: 250000003 cycles: 326780896 heartbeat IPC: 0.790074 cumulative IPC: 0.666754 (Simulation time: 2 hr 22 min 25 sec) 
Heartbeat CPU 3 instructions: 370000002 cycles: 327613376 heartbeat IPC: 1.04903 cumulative IPC: 1.08388 (Simulation time: 2 hr 22 min 43 sec) 
Heartbeat CPU 1 instructions: 380000000 cycles: 328553514 heartbeat IPC: 1.10202 cumulative IPC: 1.14024 (Simulation time: 2 hr 23 min 2 sec) 
Heartbeat CPU 4 instructions: 350000003 cycles: 329351451 heartbeat IPC: 1.0603 cumulative IPC: 1.02386 (Simulation time: 2 hr 23 min 16 sec) 
Heartbeat CPU 0 instructions: 180000000 cycles: 333723615 heartbeat IPC: 0.34597 cumulative IPC: 0.496819 (Simulation time: 2 hr 24 min 44 sec) 
Heartbeat CPU 2 instructions: 300000000 cycles: 335200343 heartbeat IPC: 0.674032 cumulative IPC: 0.862879 (Simulation time: 2 hr 25 min 15 sec) 
Heartbeat CPU 3 instructions: 380000000 cycles: 336747460 heartbeat IPC: 1.0948 cumulative IPC: 1.08419 (Simulation time: 2 hr 25 min 47 sec) 
Heartbeat CPU 1 instructions: 390000002 cycles: 337662607 heartbeat IPC: 1.0978 cumulative IPC: 1.13905 (Simulation time: 2 hr 26 min 5 sec) 
Heartbeat CPU 4 instructions: 360000000 cycles: 339945998 heartbeat IPC: 0.943882 cumulative IPC: 1.02126 (Simulation time: 2 hr 26 min 53 sec) 
Heartbeat CPU 5 instructions: 260000000 cycles: 340925086 heartbeat IPC: 0.707004 cumulative IPC: 0.668496 (Simulation time: 2 hr 27 min 14 sec) 
Heartbeat CPU 6 instructions: 100000000 cycles: 342503405 heartbeat IPC: 0.230174 cumulative IPC: 0.210785 (Simulation time: 2 hr 27 min 45 sec) 
Heartbeat CPU 3 instructions: 390000000 cycles: 344873624 heartbeat IPC: 1.23059 cumulative IPC: 1.08779 (Simulation time: 2 hr 28 min 32 sec) 
Heartbeat CPU 1 instructions: 400000000 cycles: 346039265 heartbeat IPC: 1.19379 cumulative IPC: 1.14043 (Simulation time: 2 hr 28 min 55 sec) 
Heartbeat CPU 2 instructions: 310000000 cycles: 349406040 heartbeat IPC: 0.703943 cumulative IPC: 0.856147 (Simulation time: 2 hr 30 min 1 sec) 
Heartbeat CPU 4 instructions: 370000002 cycles: 352010148 heartbeat IPC: 0.828902 cumulative IPC: 1.01439 (Simulation time: 2 hr 30 min 55 sec) 
Heartbeat CPU 1 instructions: 410000001 cycles: 354423721 heartbeat IPC: 1.19268 cumulative IPC: 1.14172 (Simulation time: 2 hr 31 min 46 sec) 
Heartbeat CPU 3 instructions: 400000000 cycles: 354479577 heartbeat IPC: 1.04102 cumulative IPC: 1.08647 (Simulation time: 2 hr 31 min 47 sec) 
Heartbeat CPU 5 instructions: 270000003 cycles: 354700089 heartbeat IPC: 0.725953 cumulative IPC: 0.670819 (Simulation time: 2 hr 31 min 52 sec) 
Heartbeat CPU 2 instructions: 320000000 cycles: 359735619 heartbeat IPC: 0.968094 cumulative IPC: 0.859492 (Simulation time: 2 hr 33 min 42 sec) 
Heartbeat CPU 7 instructions: 120000000 cycles: 360819190 heartbeat IPC: 0.219865 cumulative IPC: 0.288316 (Simulation time: 2 hr 34 min 6 sec) 
Finished CPU 7 instructions: 100000000 cycles: 346841623 cumulative IPC: 0.288316 (Simulation time: 2 hr 34 min 6 sec) 
Heartbeat CPU 0 instructions: 190000001 cycles: 362220098 heartbeat IPC: 0.350921 cumulative IPC: 0.48488 (Simulation time: 2 hr 34 min 37 sec) 
Heartbeat CPU 1 instructions: 420000000 cycles: 362721034 heartbeat IPC: 1.20521 cumulative IPC: 1.14323 (Simulation time: 2 hr 34 min 48 sec) 
Heartbeat CPU 3 instructions: 410000000 cycles: 363529400 heartbeat IPC: 1.10499 cumulative IPC: 1.08695 (Simulation time: 2 hr 35 min 6 sec) 
Heartbeat CPU 4 instructions: 380000000 cycles: 363861008 heartbeat IPC: 0.84382 cumulative IPC: 1.00862 (Simulation time: 2 hr 35 min 14 sec) 
Heartbeat CPU 5 instructions: 280000000 cycles: 367411047 heartbeat IPC: 0.786723 cumulative IPC: 0.674987 (Simulation time: 2 hr 36 min 33 sec) 
Heartbeat CPU 2 instructions: 330000002 cycles: 370036483 heartbeat IPC: 0.970793 cumulative IPC: 0.862712 (Simulation time: 2 hr 37 min 31 sec) 
Heartbeat CPU 1 instructions: 430000003 cycles: 370997659 heartbeat IPC: 1.20822 cumulative IPC: 1.14473 (Simulation time: 2 hr 37 min 53 sec) 
Heartbeat CPU 3 instructions: 420000000 cycles: 372539103 heartbeat IPC: 1.10991 cumulative IPC: 1.08753 (Simulation time: 2 hr 38 min 25 sec) 
Heartbeat CPU 4 instructions: 390000002 cycles: 375564505 heartbeat IPC: 0.854446 cumulative IPC: 1.00363 (Simulation time: 2 hr 39 min 26 sec) 
Heartbeat CPU 5 instructions: 290000000 cycles: 379923531 heartbeat IPC: 0.799202 cumulative IPC: 0.679234 (Simulation time: 2 hr 40 min 58 sec) 
Heartbeat CPU 0 instructions: 200000000 cycles: 381199727 heartbeat IPC: 0.526881 cumulative IPC: 0.487051 (Simulation time: 2 hr 41 min 25 sec) 
Heartbeat CPU 3 instructions: 430000001 cycles: 381626452 heartbeat IPC: 1.10043 cumulative IPC: 1.08784 (Simulation time: 2 hr 41 min 35 sec) 
Heartbeat CPU 1 instructions: 440000000 cycles: 382088564 heartbeat IPC: 0.901639 cumulative IPC: 1.13741 (Simulation time: 2 hr 41 min 44 sec) 
Heartbeat CPU 2 instructions: 340000000 cycles: 384396989 heartbeat IPC: 0.696354 cumulative IPC: 0.856262 (Simulation time: 2 hr 42 min 34 sec) 
Heartbeat CPU 4 instructions: 400000000 cycles: 385768139 heartbeat IPC: 0.980043 cumulative IPC: 1.00298 (Simulation time: 2 hr 43 min 4 sec) 
Heartbeat CPU 6 instructions: 110000003 cycles: 388408847 heartbeat IPC: 0.217839 cumulative IPC: 0.21165 (Simulation time: 2 hr 44 min 1 sec) 
Heartbeat CPU 3 instructions: 440000000 cycles: 390677927 heartbeat IPC: 1.10479 cumulative IPC: 1.08825 (Simulation time: 2 hr 44 min 49 sec) 
Heartbeat CPU 5 instructions: 300000000 cycles: 392435464 heartbeat IPC: 0.799237 cumulative IPC: 0.683201 (Simulation time: 2 hr 45 min 27 sec) 
Heartbeat CPU 1 instructions: 450000001 cycles: 393496008 heartbeat IPC: 0.876621 cumulative IPC: 1.12957 (Simulation time: 2 hr 45 min 49 sec) 
Heartbeat CPU 4 instructions: 410000003 cycles: 395136231 heartbeat IPC: 1.06745 cumulative IPC: 1.00456 (Simulation time: 2 hr 46 min 24 sec) 
Heartbeat CPU 2 instructions: 350000000 cycles: 398834521 heartbeat IPC: 0.692639 cumulative IPC: 0.850124 (Simulation time: 2 hr 47 min 43 sec) 
Heartbeat CPU 3 instructions: 450000001 cycles: 399669854 heartbeat IPC: 1.11211 cumulative IPC: 1.08881 (Simulation time: 2 hr 48 min 1 sec) 
Heartbeat CPU 0 instructions: 210000001 cycles: 401199891 heartbeat IPC: 0.499996 cumulative IPC: 0.487719 (Simulation time: 2 hr 48 min 34 sec) 
Heartbeat CPU 4 instructions: 420000000 cycles: 404497156 heartbeat IPC: 1.06827 cumulative IPC: 1.00609 (Simulation time: 2 hr 49 min 49 sec) 
Heartbeat CPU 5 instructions: 310000003 cycles: 404704225 heartbeat IPC: 0.815078 cumulative IPC: 0.687342 (Simulation time: 2 hr 49 min 54 sec) 
Heartbeat CPU 1 instructions: 460000000 cycles: 404914425 heartbeat IPC: 0.875778 cumulative IPC: 1.12216 (Simulation time: 2 hr 49 min 58 sec) 
Heartbeat CPU 7 instructions: 130000000 cycles: 405770892 heartbeat IPC: 0.222461 cumulative IPC: 0.28076 (Simulation time: 2 hr 50 min 18 sec) 
Heartbeat CPU 3 instructions: 460000000 cycles: 408193576 heartbeat IPC: 1.1732 cumulative IPC: 1.09063 (Simulation time: 2 hr 51 min 12 sec) 
Heartbeat CPU 2 instructions: 360000000 cycles: 409593271 heartbeat IPC: 0.929476 cumulative IPC: 0.852282 (Simulation time: 2 hr 51 min 43 sec) 
Heartbeat CPU 4 instructions: 430000003 cycles: 413846131 heartbeat IPC: 1.06964 cumulative IPC: 1.00758 (Simulation time: 2 hr 53 min 18 sec) 
Heartbeat CPU 1 instructions: 470000002 cycles: 416295849 heartbeat IPC: 0.878625 cumulative IPC: 1.11527 (Simulation time: 2 hr 54 min 12 sec) 
Heartbeat CPU 3 instructions: 470000001 cycles: 416434753 heartbeat IPC: 1.21342 cumulative IPC: 1.09315 (Simulation time: 2 hr 54 min 15 sec) 
Heartbeat CPU 5 instructions: 320000000 cycles: 417522742 heartbeat IPC: 0.780121 cumulative IPC: 0.690289 (Simulation time: 2 hr 54 min 40 sec) 
Heartbeat CPU 2 instructions: 370000003 cycles: 419911362 heartbeat IPC: 0.969172 cumulative IPC: 0.855253 (Simulation time: 2 hr 55 min 34 sec) 
Heartbeat CPU 0 instructions: 220000000 cycles: 420707914 heartbeat IPC: 0.51261 cumulative IPC: 0.488913 (Simulation time: 2 hr 55 min 53 sec) 
Heartbeat CPU 4 instructions: 440000000 cycles: 423246765 heartbeat IPC: 1.06376 cumulative IPC: 1.00887 (Simulation time: 2 hr 56 min 50 sec) 
Heartbeat CPU 1 instructions: 480000000 cycles: 424113356 heartbeat IPC: 1.27918 cumulative IPC: 1.11839 (Simulation time: 2 hr 57 min 9 sec) 
Heartbeat CPU 3 instructions: 480000000 cycles: 424807445 heartbeat IPC: 1.19436 cumulative IPC: 1.09521 (Simulation time: 2 hr 57 min 24 sec) 
Heartbeat CPU 1 instructions: 490000000 cycles: 431486539 heartbeat IPC: 1.35627 cumulative IPC: 1.12259 (Simulation time: 2 hr 59 min 55 sec) 
Heartbeat CPU 5 instructions: 330000003 cycles: 431496576 heartbeat IPC: 0.715623 cumulative IPC: 0.691137 (Simulation time: 2 hr 59 min 55 sec) 
Heartbeat CPU 6 instructions: 120000000 cycles: 431879492 heartbeat IPC: 0.23004 cumulative IPC: 0.213563 (Simulation time: 3 hr 0 min 4 sec) 
Heartbeat CPU 4 instructions: 450000000 cycles: 432691269 heartbeat IPC: 1.05882 cumulative IPC: 1.00999 (Simulation time: 3 hr 0 min 22 sec) 
Heartbeat CPU 3 instructions: 490000002 cycles: 433072147 heartbeat IPC: 1.20997 cumulative IPC: 1.09747 (Simulation time: 3 hr 0 min 30 sec) 
Heartbeat CPU 2 instructions: 380000000 cycles: 433558130 heartbeat IPC: 0.732774 cumulative IPC: 0.85127 (Simulation time: 3 hr 0 min 41 sec) 
Heartbeat CPU 0 instructions: 230000001 cycles: 437692955 heartbeat IPC: 0.588753 cumulative IPC: 0.492915 (Simulation time: 3 hr 2 min 14 sec) 
Heartbeat CPU 7 instructions: 140000000 cycles: 438198078 heartbeat IPC: 0.308383 cumulative IPC: 0.282872 (Simulation time: 3 hr 2 min 26 sec) 
Heartbeat CPU 1 instructions: 500000000 cycles: 438844931 heartbeat IPC: 1.35899 cumulative IPC: 1.12669 (Simulation time: 3 hr 2 min 40 sec) 
Heartbeat CPU 4 instructions: 460000000 cycles: 442217864 heartbeat IPC: 1.04969 cumulative IPC: 1.01088 (Simulation time: 3 hr 3 min 48 sec) 
Heartbeat CPU 3 instructions: 500000000 cycles: 442826580 heartbeat IPC: 1.02517 cumulative IPC: 1.09583 (Simulation time: 3 hr 4 min 1 sec) 
Heartbeat CPU 5 instructions: 340000000 cycles: 444642443 heartbeat IPC: 0.760695 cumulative IPC: 0.693261 (Simulation time: 3 hr 4 min 39 sec) 
Heartbeat CPU 2 instructions: 390000002 cycles: 448309178 heartbeat IPC: 0.677918 cumulative IPC: 0.845382 (Simulation time: 3 hr 5 min 52 sec) 
Heartbeat CPU 1 instructions: 510000003 cycles: 448540814 heartbeat IPC: 1.03137 cumulative IPC: 1.12456 (Simulation time: 3 hr 5 min 57 sec) 
Heartbeat CPU 4 instructions: 470000003 cycles: 451725264 heartbeat IPC: 1.05181 cumulative IPC: 1.01177 (Simulation time: 3 hr 7 min 0 sec) 
Heartbeat CPU 3 instructions: 510000000 cycles: 454493385 heartbeat IPC: 0.857133 cumulative IPC: 1.08951 (Simulation time: 3 hr 7 min 57 sec) 
Heartbeat CPU 0 instructions: 240000000 cycles: 457123739 heartbeat IPC: 0.514647 cumulative IPC: 0.493868 (Simulation time: 3 hr 8 min 53 sec) 
Heartbeat CPU 5 instructions: 350000003 cycles: 458450676 heartbeat IPC: 0.724206 cumulative IPC: 0.694222 (Simulation time: 3 hr 9 min 23 sec) 
Heartbeat CPU 1 instructions: 520000000 cycles: 459073564 heartbeat IPC: 0.949419 cumulative IPC: 1.12042 (Simulation time: 3 hr 9 min 36 sec) 
Heartbeat CPU 2 instructions: 400000000 cycles: 460038778 heartbeat IPC: 0.852544 cumulative IPC: 0.845571 (Simulation time: 3 hr 9 min 58 sec) 
Heartbeat CPU 4 instructions: 480000000 cycles: 461169253 heartbeat IPC: 1.05887 cumulative IPC: 1.01276 (Simulation time: 3 hr 10 min 23 sec) 
Heartbeat CPU 3 instructions: 520000000 cycles: 466111900 heartbeat IPC: 0.860695 cumulative IPC: 1.08363 (Simulation time: 3 hr 12 min 15 sec) 
Heartbeat CPU 7 instructions: 150000001 cycles: 467702136 heartbeat IPC: 0.338936 cumulative IPC: 0.286517 (Simulation time: 3 hr 12 min 50 sec) 
Heartbeat CPU 1 instructions: 530000001 cycles: 468542287 heartbeat IPC: 1.05611 cumulative IPC: 1.11908 (Simulation time: 3 hr 13 min 10 sec) 
Heartbeat CPU 2 instructions: 410000001 cycles: 470359182 heartbeat IPC: 0.968954 cumulative IPC: 0.848361 (Simulation time: 3 hr 13 min 50 sec) 
Heartbeat CPU 4 instructions: 490000001 cycles: 470554393 heartbeat IPC: 1.06551 cumulative IPC: 1.01385 (Simulation time: 3 hr 13 min 55 sec) 
Heartbeat CPU 5 instructions: 360000000 cycles: 470965217 heartbeat IPC: 0.79907 cumulative IPC: 0.697093 (Simulation time: 3 hr 14 min 4 sec) 
Heartbeat CPU 0 instructions: 250000001 cycles: 476001159 heartbeat IPC: 0.529733 cumulative IPC: 0.495334 (Simulation time: 3 hr 15 min 58 sec) 
Heartbeat CPU 6 instructions: 130000001 cycles: 477232675 heartbeat IPC: 0.220492 cumulative IPC: 0.214241 (Simulation time: 3 hr 16 min 25 sec) 
Heartbeat CPU 3 instructions: 530000002 cycles: 477704274 heartbeat IPC: 0.862636 cumulative IPC: 1.0781 (Simulation time: 3 hr 16 min 35 sec) 
Heartbeat CPU 1 instructions: 540000000 cycles: 477936164 heartbeat IPC: 1.06452 cumulative IPC: 1.11797 (Simulation time: 3 hr 16 min 40 sec) 
Heartbeat CPU 4 instructions: 500000000 cycles: 479944143 heartbeat IPC: 1.06499 cumulative IPC: 1.01488 (Simulation time: 3 hr 17 min 24 sec) 
Finished CPU 6 instructions: 100000000 cycles: 466315895 cumulative IPC: 0.214447 (Simulation time: 3 hr 17 min 32 sec) 

CPU 0 Branch Prediction Accuracy: 97.7201% MPKI: 4.26403

CPU 1 Branch Prediction Accuracy: 99.2714% MPKI: 0.311829

CPU 2 Branch Prediction Accuracy: 97.595% MPKI: 1.67883

CPU 3 Branch Prediction Accuracy: 99.2039% MPKI: 0.345979

CPU 4 Branch Prediction Accuracy: 99.1403% MPKI: 0.197261

CPU 5 Branch Prediction Accuracy: 99.9992% MPKI: 0.000232965

CPU 6 Branch Prediction Accuracy: 99.1032% MPKI: 2.09384

CPU 7 Branch Prediction Accuracy: 75.2084% MPKI: 46.792

ChampSim completed all CPUs

Total Simulation Statistics (not including warmup)

CPU 0 cumulative IPC: 0.495552 instructions: 231083933 cycles: 466315895
L1D TOTAL     ACCESS:   72248285  HIT:   71963023  MISS:     285262
L1D LOAD      ACCESS:   40731399  HIT:   40474746  MISS:     256653
L1D RFO       ACCESS:   31516886  HIT:   31488277  MISS:      28609
L1D PREFETCH  ACCESS:          0  HIT:          0  MISS:          0
L1D WRITEBACK ACCESS:          0  HIT:          0  MISS:          0
L1I TOTAL     ACCESS:   67791429  HIT:   67598780  MISS:     192649
L1I LOAD      ACCESS:   67791429  HIT:   67598780  MISS:     192649
L1I RFO       ACCESS:          0  HIT:          0  MISS:          0
L1I PREFETCH  ACCESS:          0  HIT:          0  MISS:          0
L1I WRITEBACK ACCESS:          0  HIT:          0  MISS:          0
L2C TOTAL     ACCESS:     797069  HIT:     642852  MISS:     154217
L2C LOAD      ACCESS:     449296  HIT:     312653  MISS:     136643
L2C RFO       ACCESS:      28609  HIT:      18033  MISS:      10576
L2C PREFETCH  ACCESS:     241957  HIT:     235699  MISS:       6258
L2C WRITEBACK ACCESS:      77207  HIT:      76467  MISS:        740
LLC TOTAL     ACCESS:     390601  HIT:     209276  MISS:     181325
LLC LOAD      ACCESS:     136428  HIT:      53049  MISS:      83379
LLC RFO       ACCESS:      10568  HIT:       3575  MISS:       6993
LLC PREFETCH  ACCESS:     214752  HIT:     132591  MISS:      82161
LLC WRITEBACK ACCESS:      28853  HIT:      20061  MISS:       8792

CPU 1 cumulative IPC: 1.11779 instructions: 521241120 cycles: 466315895
L1D TOTAL     ACCESS:  155813308  HIT:  150458548  MISS:    5354760
L1D LOAD      ACCESS:  133105098  HIT:  128568332  MISS:    4536766
L1D RFO       ACCESS:   22708210  HIT:   21890216  MISS:     817994
L1D PREFETCH  ACCESS:          0  HIT:          0  MISS:          0
L1D WRITEBACK ACCESS:          0  HIT:          0  MISS:          0
L1I TOTAL     ACCESS:  121904971  HIT:  121903361  MISS:       1610
L1I LOAD      ACCESS:  121904971  HIT:  121903361  MISS:       1610
L1I RFO       ACCESS:          0  HIT:          0  MISS:          0
L1I PREFETCH  ACCESS:          0  HIT:          0  MISS:          0
L1I WRITEBACK ACCESS:          0  HIT:          0  MISS:          0
L2C TOTAL     ACCESS:   14895538  HIT:   10854917  MISS:    4040621
L2C LOAD      ACCESS:    4538371  HIT:    3253635  MISS:    1284736
L2C RFO       ACCESS:     817993  HIT:     192747  MISS:     625246
L2C PREFETCH  ACCESS:    7756870  HIT:    5627101  MISS:    2129769
L2C WRITEBACK ACCESS:    1782304  HIT:    1781434  MISS:        870
LLC TOTAL     ACCESS:   19311885  HIT:   15417302  MISS:    3894583
LLC LOAD      ACCESS:    1241816  HIT:    1074539  MISS:     167277
LLC RFO       ACCESS:     625239  HIT:      32368  MISS:     592871
LLC PREFETCH  ACCESS:   15981633  HIT:   12850312  MISS:    3131321
LLC WRITEBACK ACCESS:    1463197  HIT:    1460083  MISS:       3114

CPU 2 cumulative IPC: 0.847704 instructions: 395297645 cycles: 466315895
L1D TOTAL     ACCESS:  115060847  HIT:  113919664  MISS:    1141183
L1D LOAD      ACCESS:   86982856  HIT:   86138084  MISS:     844772
L1D RFO       ACCESS:   28077991  HIT:   27781580  MISS:     296411
L1D PREFETCH  ACCESS:          0  HIT:          0  MISS:          0
L1D WRITEBACK ACCESS:          0  HIT:          0  MISS:          0
L1I TOTAL     ACCESS:   96278368  HIT:   96251591  MISS:      26777
L1I LOAD      ACCESS:   96278368  HIT:   96251591  MISS:      26777
L1I RFO       ACCESS:          0  HIT:          0  MISS:          0
L1I PREFETCH  ACCESS:          0  HIT:          0  MISS:          0
L1I WRITEBACK ACCESS:          0  HIT:          0  MISS:          0
L2C TOTAL     ACCESS:    3228315  HIT:    2543582  MISS:     684733
L2C LOAD      ACCESS:     871544  HIT:     625520  MISS:     246024
L2C RFO       ACCESS:     296399  HIT:      21287  MISS:     275112
L2C PREFETCH  ACCESS:    1754349  HIT:    1591579  MISS:     162770
L2C WRITEBACK ACCESS:     306023  HIT:     305196  MISS:        827
LLC TOTAL     ACCESS:    2085477  HIT:    1333619  MISS:     751858
LLC LOAD      ACCESS:     234187  HIT:     149983  MISS:      84204
LLC RFO       ACCESS:     275100  HIT:       7825  MISS:     267275
LLC PREFETCH  ACCESS:    1296819  HIT:     929679  MISS:     367140
LLC WRITEBACK ACCESS:     279371  HIT:     246132  MISS:      33239

CPU 3 cumulative IPC: 1.07695 instructions: 502198498 cycles: 466315895
L1D TOTAL     ACCESS:  149590055  HIT:  143973450  MISS:    5616605
L1D LOAD      ACCESS:  121903442  HIT:  117221934  MISS:    4681508
L1D RFO       ACCESS:   27686613  HIT:   26751516  MISS:     935097
L1D PREFETCH  ACCESS:          0  HIT:          0  MISS:          0
L1D WRITEBACK ACCESS:          0  HIT:          0  MISS:          0
L1I TOTAL     ACCESS:  120948527  HIT:  120946971  MISS:       1556
L1I LOAD      ACCESS:  120948527  HIT:  120946971  MISS:       1556
L1I RFO       ACCESS:          0  HIT:          0  MISS:          0
L1I PREFETCH  ACCESS:          0  HIT:          0  MISS:          0
L1I WRITEBACK ACCESS:          0  HIT:          0  MISS:          0
L2C TOTAL     ACCESS:   16388774  HIT:   12491858  MISS:    3896916
L2C LOAD      ACCESS:    4683050  HIT:    3378533  MISS:    1304517
L2C RFO       ACCESS:     935097  HIT:     331822  MISS:     603275
L2C PREFETCH  ACCESS:    8964936  HIT:    6976771  MISS:    1988165
L2C WRITEBACK ACCESS:    1805691  HIT:    1804732  MISS:        959
LLC TOTAL     ACCESS:   18014118  HIT:   14413365  MISS:    3600753
LLC LOAD      ACCESS:    1248240  HIT:    1041091  MISS:     207149
LLC RFO       ACCESS:     603274  HIT:      64870  MISS:     538404
LLC PREFETCH  ACCESS:   14939964  HIT:   12090168  MISS:    2849796
LLC WRITEBACK ACCESS:    1222640  HIT:    1217236  MISS:       5404

CPU 4 cumulative IPC: 1.01492 instructions: 473271173 cycles: 466315895
L1D TOTAL     ACCESS:  146498563  HIT:  141701392  MISS:    4797171
L1D LOAD      ACCESS:  135158953  HIT:  131604587  MISS:    3554366
L1D RFO       ACCESS:   11339610  HIT:   10096805  MISS:    1242805
L1D PREFETCH  ACCESS:          0  HIT:          0  MISS:          0
L1D WRITEBACK ACCESS:          0  HIT:          0  MISS:          0
L1I TOTAL     ACCESS:  112060565  HIT:  112060297  MISS:        268
L1I LOAD      ACCESS:  112060565  HIT:  112060297  MISS:        268
L1I RFO       ACCESS:          0  HIT:          0  MISS:          0
L1I PREFETCH  ACCESS:          0  HIT:          0  MISS:          0
L1I WRITEBACK ACCESS:          0  HIT:          0  MISS:          0
L2C TOTAL     ACCESS:   10505707  HIT:    7075759  MISS:    3429948
L2C LOAD      ACCESS:    3554617  HIT:    2512748  MISS:    1041869
L2C RFO       ACCESS:    1241198  HIT:     412426  MISS:     828772
L2C PREFETCH  ACCESS:    4161556  HIT:    2602354  MISS:    1559202
L2C WRITEBACK ACCESS:    1548336  HIT:    1548231  MISS:        105
LLC TOTAL     ACCESS:   14982768  HIT:   11712749  MISS:    3270019
LLC LOAD      ACCESS:    1022791  HIT:     944781  MISS:      78010
LLC RFO       ACCESS:     828772  HIT:      64192  MISS:     764580
LLC PREFETCH  ACCESS:   12203849  HIT:    9778958  MISS:    2424891
LLC WRITEBACK ACCESS:     927356  HIT:     924818  MISS:       2538

CPU 5 cumulative IPC: 0.699643 instructions: 326254431 cycles: 466315895
L1D TOTAL     ACCESS:   44852832  HIT:   39613038  MISS:    5239794
L1D LOAD      ACCESS:   32642957  HIT:   28659147  MISS:    3983810
L1D RFO       ACCESS:   12209875  HIT:   10953891  MISS:    1255984
L1D PREFETCH  ACCESS:          0  HIT:          0  MISS:          0
L1D WRITEBACK ACCESS:          0  HIT:          0  MISS:          0
L1I TOTAL     ACCESS:   74200563  HIT:   74200484  MISS:         79
L1I LOAD      ACCESS:   74200563  HIT:   74200484  MISS:         79
L1I RFO       ACCESS:          0  HIT:          0  MISS:          0
L1I PREFETCH  ACCESS:          0  HIT:          0  MISS:          0
L1I WRITEBACK ACCESS:          0  HIT:          0  MISS:          0
L2C TOTAL     ACCESS:    8076162  HIT:    2763346  MISS:    5312816
L2C LOAD      ACCESS:    3983889  HIT:     883979  MISS:    3099910
L2C RFO       ACCESS:    1255984  HIT:          0  MISS:    1255984
L2C PREFETCH  ACCESS:    1046590  HIT:      90644  MISS:     955946
L2C WRITEBACK ACCESS:    1789699  HIT:    1788723  MISS:        976
LLC TOTAL     ACCESS:   13567907  HIT:    7632788  MISS:    5935119
LLC LOAD      ACCESS:    2830836  HIT:    1759410  MISS:    1071426
LLC RFO       ACCESS:    1255984  HIT:       1401  MISS:    1254583
LLC PREFETCH  ACCESS:    7689078  HIT:    4081588  MISS:    3607490
LLC WRITEBACK ACCESS:    1792009  HIT:    1790389  MISS:       1620

CPU 6 cumulative IPC: 0.214447 instructions: 100000000 cycles: 466315895
L1D TOTAL     ACCESS:   20470523  HIT:   17674017  MISS:    2796506
L1D LOAD      ACCESS:   17096254  HIT:   14318755  MISS:    2777499
L1D RFO       ACCESS:    3374269  HIT:    3355262  MISS:      19007
L1D PREFETCH  ACCESS:          0  HIT:          0  MISS:          0
L1D WRITEBACK ACCESS:          0  HIT:          0  MISS:          0
L1I TOTAL     ACCESS:   32796644  HIT:   32667066  MISS:     129578
L1I LOAD      ACCESS:   32796644  HIT:   32667066  MISS:     129578
L1I RFO       ACCESS:          0  HIT:          0  MISS:          0
L1I PREFETCH  ACCESS:          0  HIT:          0  MISS:          0
L1I WRITEBACK ACCESS:          0  HIT:          0  MISS:          0
L2C TOTAL     ACCESS:    3355233  HIT:     524667  MISS:    2830566
L2C LOAD      ACCESS:    2907073  HIT:     183319  MISS:    2723754
L2C RFO       ACCESS:      19006  HIT:       7887  MISS:      11119
L2C PREFETCH  ACCESS:     384188  HIT:     289225  MISS:      94963
L2C WRITEBACK ACCESS:      44966  HIT:      44236  MISS:        730
LLC TOTAL     ACCESS:    4764195  HIT:    1145721  MISS:    3618474
LLC LOAD      ACCESS:    2716037  HIT:     596360  MISS:    2119677
LLC RFO       ACCESS:      11116  HIT:       2200  MISS:       8916
LLC PREFETCH  ACCESS:    2015721  HIT:     526077  MISS:    1489644
LLC WRITEBACK ACCESS:      21321  HIT:      21084  MISS:        237

CPU 7 cumulative IPC: 0.288008 instructions: 134302768 cycles: 466315895
L1D TOTAL     ACCESS:   36182380  HIT:   32276447  MISS:    3905933
L1D LOAD      ACCESS:   30474154  HIT:   26617760  MISS:    3856394
L1D RFO       ACCESS:    5708226  HIT:    5658687  MISS:      49539
L1D PREFETCH  ACCESS:          0  HIT:          0  MISS:          0
L1D WRITEBACK ACCESS:          0  HIT:          0  MISS:          0
L1I TOTAL     ACCESS:   32813962  HIT:   32813855  MISS:        107
L1I LOAD      ACCESS:   32813962  HIT:   32813855  MISS:        107
L1I RFO       ACCESS:          0  HIT:          0  MISS:          0
L1I PREFETCH  ACCESS:          0  HIT:          0  MISS:          0
L1I WRITEBACK ACCESS:          0  HIT:          0  MISS:          0
L2C TOTAL     ACCESS:    5929858  HIT:    3125476  MISS:    2804382
L2C LOAD      ACCESS:    3856380  HIT:    1197560  MISS:    2658820
L2C RFO       ACCESS:      49531  HIT:      30844  MISS:      18687
L2C PREFETCH  ACCESS:     750392  HIT:     625000  MISS:     125392
L2C WRITEBACK ACCESS:    1273555  HIT:    1272072  MISS:       1483
LLC TOTAL     ACCESS:    6386807  HIT:    5642005  MISS:     744802
LLC LOAD      ACCESS:    2658121  HIT:    2487437  MISS:     170684
LLC RFO       ACCESS:      18684  HIT:      18230  MISS:        454
LLC PREFETCH  ACCESS:    2795407  HIT:    2270502  MISS:     524905
LLC WRITEBACK ACCESS:     914595  HIT:     865836  MISS:      48759

Region of Interest Statistics

CPU 0 cumulative IPC: 0.525873 instructions: 100000003 cycles: 190159932
L1D TOTAL     ACCESS:   30350303  HIT:   30331847  MISS:      18456
L1D LOAD      ACCESS:   17087857  HIT:   17070194  MISS:      17663
L1D RFO       ACCESS:   13262446  HIT:   13261653  MISS:        793
L1D PREFETCH  ACCESS:          0  HIT:          0  MISS:          0
L1D WRITEBACK ACCESS:          0  HIT:          0  MISS:          0
L1D PREFETCH  REQUESTED:          0  ISSUED:          0  USEFUL:          0  USELESS:          0
L1I TOTAL     ACCESS:   29233122  HIT:   29219123  MISS:      13999
L1I LOAD      ACCESS:   29233122  HIT:   29219123  MISS:      13999
L1I RFO       ACCESS:          0  HIT:          0  MISS:          0
L1I PREFETCH  ACCESS:          0  HIT:          0  MISS:          0
L1I WRITEBACK ACCESS:          0  HIT:          0  MISS:          0
L1I PREFETCH  REQUESTED:          0  ISSUED:          0  USEFUL:          0  USELESS:          0
L2C TOTAL     ACCESS:      50019  HIT:      32961  MISS:      17058
L2C LOAD      ACCESS:      31662  HIT:      15554  MISS:      16108
L2C RFO       ACCESS:        793  HIT:        281  MISS:        512
L2C PREFETCH  ACCESS:      15507  HIT:      15098  MISS:        409
L2C WRITEBACK ACCESS:       2057  HIT:       2028  MISS:         29
L2C PREFETCH  REQUESTED:     749713  ISSUED:     749693  USEFUL:       4651  USELESS:       5403
LLC TOTAL     ACCESS:      36711  HIT:       9895  MISS:      26816
LLC LOAD      ACCESS:      16103  HIT:       3384  MISS:      12719
LLC RFO       ACCESS:        512  HIT:         24  MISS:        488
LLC PREFETCH  ACCESS:      17787  HIT:       6478  MISS:      11309
LLC WRITEBACK ACCESS:       2309  HIT:          9  MISS:       2300
LLC PREFETCH  REQUESTED:          0  ISSUED:          0  USEFUL:    5987982  USELESS:    9673933
Major fault: 0 Minor fault: 4637

CPU 1 cumulative IPC: 1.05247 instructions: 100000001 cycles: 95014345
L1D TOTAL     ACCESS:   37906431  HIT:   37267496  MISS:     638935
L1D LOAD      ACCESS:   35261979  HIT:   34641130  MISS:     620849
L1D RFO       ACCESS:    2644452  HIT:    2626366  MISS:      18086
L1D PREFETCH  ACCESS:          0  HIT:          0  MISS:          0
L1D WRITEBACK ACCESS:          0  HIT:          0  MISS:          0
L1D PREFETCH  REQUESTED:          0  ISSUED:          0  USEFUL:          0  USELESS:          0
L1I TOTAL     ACCESS:   23368074  HIT:   23367925  MISS:        149
L1I LOAD      ACCESS:   23368074  HIT:   23367925  MISS:        149
L1I RFO       ACCESS:          0  HIT:          0  MISS:          0
L1I PREFETCH  ACCESS:          0  HIT:          0  MISS:          0
L1I WRITEBACK ACCESS:          0  HIT:          0  MISS:          0
L1I PREFETCH  REQUESTED:          0  ISSUED:          0  USEFUL:          0  USELESS:          0
L2C TOTAL     ACCESS:    1846969  HIT:    1369228  MISS:     477741
L2C LOAD      ACCESS:     620998  HIT:     444753  MISS:     176245
L2C RFO       ACCESS:      18086  HIT:      17855  MISS:        231
L2C PREFETCH  ACCESS:    1038658  HIT:     737462  MISS:     301196
L2C WRITEBACK ACCESS:     169227  HIT:     169158  MISS:         69
L2C PREFETCH  REQUESTED:   23587042  ISSUED:   23583250  USEFUL:    2191896  USELESS:      11841
LLC TOTAL     ACCESS:    2751064  HIT:    2264788  MISS:     486276
LLC LOAD      ACCESS:     173935  HIT:     154333  MISS:      19602
LLC RFO       ACCESS:        231  HIT:        215  MISS:         16
LLC PREFETCH  ACCESS:    2427694  HIT:    1961530  MISS:     466164
LLC WRITEBACK ACCESS:     149204  HIT:     148710  MISS:        494
LLC PREFETCH  REQUESTED:          0  ISSUED:          0  USEFUL:    5987982  USELESS:    9673933
Major fault: 0 Minor fault: 23881

CPU 2 cumulative IPC: 0.963262 instructions: 100000002 cycles: 103813904
L1D TOTAL     ACCESS:   26268191  HIT:   26025653  MISS:     242538
L1D LOAD      ACCESS:   18490943  HIT:   18311676  MISS:     179267
L1D RFO       ACCESS:    7777248  HIT:    7713977  MISS:      63271
L1D PREFETCH  ACCESS:          0  HIT:          0  MISS:          0
L1D WRITEBACK ACCESS:          0  HIT:          0  MISS:          0
L1D PREFETCH  REQUESTED:          0  ISSUED:          0  USEFUL:          0  USELESS:          0
L1I TOTAL     ACCESS:   23341611  HIT:   23335793  MISS:       5818
L1I LOAD      ACCESS:   23341611  HIT:   23335793  MISS:       5818
L1I RFO       ACCESS:          0  HIT:          0  MISS:          0
L1I PREFETCH  ACCESS:          0  HIT:          0  MISS:          0
L1I WRITEBACK ACCESS:          0  HIT:          0  MISS:          0
L1I PREFETCH  REQUESTED:          0  ISSUED:          0  USEFUL:          0  USELESS:          0
L2C TOTAL     ACCESS:     704386  HIT:     560074  MISS:     144312
L2C LOAD      ACCESS:     185082  HIT:     134997  MISS:      50085
L2C RFO       ACCESS:      63269  HIT:       4826  MISS:      58443
L2C PREFETCH  ACCESS:     390989  HIT:     355401  MISS:      35588
L2C WRITEBACK ACCESS:      65046  HIT:      64850  MISS:        196
L2C PREFETCH  REQUESTED:    3308838  ISSUED:    3308774  USEFUL:     157614  USELESS:       6294
LLC TOTAL     ACCESS:     437421  HIT:     280729  MISS:     156692
LLC LOAD      ACCESS:      47844  HIT:      32125  MISS:      15719
LLC RFO       ACCESS:      58441  HIT:       1511  MISS:      56930
LLC PREFETCH  ACCESS:     273735  HIT:     199561  MISS:      74174
LLC WRITEBACK ACCESS:      57401  HIT:      47532  MISS:       9869
LLC PREFETCH  REQUESTED:          0  ISSUED:          0  USEFUL:    5987982  USELESS:    9673933
Major fault: 0 Minor fault: 1638

CPU 3 cumulative IPC: 1.16787 instructions: 100000000 cycles: 85625777
L1D TOTAL     ACCESS:   26418380  HIT:   25264539  MISS:    1153841
L1D LOAD      ACCESS:   22355131  HIT:   21537416  MISS:     817715
L1D RFO       ACCESS:    4063249  HIT:    3727123  MISS:     336126
L1D PREFETCH  ACCESS:          0  HIT:          0  MISS:          0
L1D WRITEBACK ACCESS:          0  HIT:          0  MISS:          0
L1D PREFETCH  REQUESTED:          0  ISSUED:          0  USEFUL:          0  USELESS:          0
L1I TOTAL     ACCESS:   23051699  HIT:   23051262  MISS:        437
L1I LOAD      ACCESS:   23051699  HIT:   23051262  MISS:        437
L1I RFO       ACCESS:          0  HIT:          0  MISS:          0
L1I PREFETCH  ACCESS:          0  HIT:          0  MISS:          0
L1I WRITEBACK ACCESS:          0  HIT:          0  MISS:          0
L1I PREFETCH  REQUESTED:          0  ISSUED:          0  USEFUL:          0  USELESS:          0
L2C TOTAL     ACCESS:    2981417  HIT:    2030866  MISS:     950551
L2C LOAD      ACCESS:     818152  HIT:     559122  MISS:     259030
L2C RFO       ACCESS:     336126  HIT:      32243  MISS:     303883
L2C PREFETCH  ACCESS:    1316586  HIT:     929008  MISS:     387578
L2C WRITEBACK ACCESS:     510553  HIT:     510493  MISS:         60
L2C PREFETCH  REQUESTED:   24463998  ISSUED:   24456117  USEFUL:    2133202  USELESS:      13642
LLC TOTAL     ACCESS:    3857930  HIT:    2903537  MISS:     954393
LLC LOAD      ACCESS:     238956  HIT:     198081  MISS:      40875
LLC RFO       ACCESS:     303882  HIT:       3221  MISS:     300661
LLC PREFETCH  ACCESS:    2873257  HIT:    2260943  MISS:     612314
LLC WRITEBACK ACCESS:     441835  HIT:     441292  MISS:        543
LLC PREFETCH  REQUESTED:          0  ISSUED:          0  USEFUL:    5987982  USELESS:    9673933
Major fault: 0 Minor fault: 20401

CPU 4 cumulative IPC: 0.959049 instructions: 100000001 cycles: 104270011
L1D TOTAL     ACCESS:   31462420  HIT:   30565973  MISS:     896447
L1D LOAD      ACCESS:   30064684  HIT:   29434772  MISS:     629912
L1D RFO       ACCESS:    1397736  HIT:    1131201  MISS:     266535
L1D PREFETCH  ACCESS:          0  HIT:          0  MISS:          0
L1D WRITEBACK ACCESS:          0  HIT:          0  MISS:          0
L1D PREFETCH  REQUESTED:          0  ISSUED:          0  USEFUL:          0  USELESS:          0
L1I TOTAL     ACCESS:   22441346  HIT:   22441264  MISS:         82
L1I LOAD      ACCESS:   22441346  HIT:   22441264  MISS:         82
L1I RFO       ACCESS:          0  HIT:          0  MISS:          0
L1I PREFETCH  ACCESS:          0  HIT:          0  MISS:          0
L1I WRITEBACK ACCESS:          0  HIT:          0  MISS:          0
L1I PREFETCH  REQUESTED:          0  ISSUED:          0  USEFUL:          0  USELESS:          0
L2C TOTAL     ACCESS:    1624712  HIT:     785759  MISS:     838953
L2C LOAD      ACCESS:     629993  HIT:     426503  MISS:     203490
L2C RFO       ACCESS:     264977  HIT:      14313  MISS:     250664
L2C PREFETCH  ACCESS:     456709  HIT:      71919  MISS:     384790
L2C WRITEBACK ACCESS:     273033  HIT:     273024  MISS:          9
L2C PREFETCH  REQUESTED:   15890831  ISSUED:   15889372  USEFUL:    1597727  USELESS:       1221
LLC TOTAL     ACCESS:    3668207  HIT:    2828728  MISS:     839479
LLC LOAD      ACCESS:     195136  HIT:     178763  MISS:      16373
LLC RFO       ACCESS:     250664  HIT:          6  MISS:     250658
LLC PREFETCH  ACCESS:    2970366  HIT:    2397944  MISS:     572422
LLC WRITEBACK ACCESS:     252041  HIT:     252015  MISS:         26
LLC PREFETCH  REQUESTED:          0  ISSUED:          0  USEFUL:    5987982  USELESS:    9673933
Major fault: 0 Minor fault: 14592

CPU 5 cumulative IPC: 0.701075 instructions: 100000002 cycles: 142638182
L1D TOTAL     ACCESS:   13786546  HIT:   12158230  MISS:    1628316
L1D LOAD      ACCESS:   10119170  HIT:    9072705  MISS:    1046465
L1D RFO       ACCESS:    3667376  HIT:    3085525  MISS:     581851
L1D PREFETCH  ACCESS:          0  HIT:          0  MISS:          0
L1D WRITEBACK ACCESS:          0  HIT:          0  MISS:          0
L1D PREFETCH  REQUESTED:          0  ISSUED:          0  USEFUL:          0  USELESS:          0
L1I TOTAL     ACCESS:   22609287  HIT:   22609237  MISS:         50
L1I LOAD      ACCESS:   22609287  HIT:   22609237  MISS:         50
L1I RFO       ACCESS:          0  HIT:          0  MISS:          0
L1I PREFETCH  ACCESS:          0  HIT:          0  MISS:          0
L1I WRITEBACK ACCESS:          0  HIT:          0  MISS:          0
L1I PREFETCH  REQUESTED:          0  ISSUED:          0  USEFUL:          0  USELESS:          0
L2C TOTAL     ACCESS:    2427617  HIT:     769905  MISS:    1657712
L2C LOAD      ACCESS:    1046515  HIT:     135112  MISS:     911403
L2C RFO       ACCESS:     581851  HIT:          0  MISS:     581851
L2C PREFETCH  ACCESS:     164046  HIT:        374  MISS:     163672
L2C WRITEBACK ACCESS:     635205  HIT:     634419  MISS:        786
L2C PREFETCH  REQUESTED:   13625808  ISSUED:   13625808  USEFUL:    1024504  USELESS:      78253
LLC TOTAL     ACCESS:    3805287  HIT:    1921770  MISS:    1883517
LLC LOAD      ACCESS:     840582  HIT:     514941  MISS:     325641
LLC RFO       ACCESS:     581851  HIT:          1  MISS:     581850
LLC PREFETCH  ACCESS:    1747718  HIT:     771884  MISS:     975834
LLC WRITEBACK ACCESS:     635136  HIT:     634944  MISS:        192
LLC PREFETCH  REQUESTED:          0  ISSUED:          0  USEFUL:    5987982  USELESS:    9673933
Major fault: 0 Minor fault: 109242

CPU 6 cumulative IPC: 0.214447 instructions: 100000000 cycles: 466315895
L1D TOTAL     ACCESS:   20470523  HIT:   17674017  MISS:    2796506
L1D LOAD      ACCESS:   17096254  HIT:   14318755  MISS:    2777499
L1D RFO       ACCESS:    3374269  HIT:    3355262  MISS:      19007
L1D PREFETCH  ACCESS:          0  HIT:          0  MISS:          0
L1D WRITEBACK ACCESS:          0  HIT:          0  MISS:          0
L1D PREFETCH  REQUESTED:          0  ISSUED:          0  USEFUL:          0  USELESS:          0
L1I TOTAL     ACCESS:   32796644  HIT:   32667066  MISS:     129578
L1I LOAD      ACCESS:   32796644  HIT:   32667066  MISS:     129578
L1I RFO       ACCESS:          0  HIT:          0  MISS:          0
L1I PREFETCH  ACCESS:          0  HIT:          0  MISS:          0
L1I WRITEBACK ACCESS:          0  HIT:          0  MISS:          0
L1I PREFETCH  REQUESTED:          0  ISSUED:          0  USEFUL:          0  USELESS:          0
L2C TOTAL     ACCESS:    3355233  HIT:     524667  MISS:    2830566
L2C LOAD      ACCESS:    2907073  HIT:     183319  MISS:    2723754
L2C RFO       ACCESS:      19006  HIT:       7887  MISS:      11119
L2C PREFETCH  ACCESS:     384188  HIT:     289225  MISS:      94963
L2C WRITEBACK ACCESS:      44966  HIT:      44236  MISS:        730
L2C PREFETCH  REQUESTED:    3463360  ISSUED:    3462959  USEFUL:      70074  USELESS:      47685
LLC TOTAL     ACCESS:    4764195  HIT:    1145721  MISS:    3618474
LLC LOAD      ACCESS:    2716037  HIT:     596360  MISS:    2119677
LLC RFO       ACCESS:      11116  HIT:       2200  MISS:       8916
LLC PREFETCH  ACCESS:    2015721  HIT:     526077  MISS:    1489644
LLC WRITEBACK ACCESS:      21321  HIT:      21084  MISS:        237
LLC PREFETCH  REQUESTED:          0  ISSUED:          0  USEFUL:    5987982  USELESS:    9673933
Major fault: 0 Minor fault: 21498

CPU 7 cumulative IPC: 0.288316 instructions: 100000000 cycles: 346841623
L1D TOTAL     ACCESS:   26996917  HIT:   24098506  MISS:    2898411
L1D LOAD      ACCESS:   22750101  HIT:   19889488  MISS:    2860613
L1D RFO       ACCESS:    4246816  HIT:    4209018  MISS:      37798
L1D PREFETCH  ACCESS:          0  HIT:          0  MISS:          0
L1D WRITEBACK ACCESS:          0  HIT:          0  MISS:          0
L1D PREFETCH  REQUESTED:          0  ISSUED:          0  USEFUL:          0  USELESS:          0
L1I TOTAL     ACCESS:   24427762  HIT:   24427657  MISS:        105
L1I LOAD      ACCESS:   24427762  HIT:   24427657  MISS:        105
L1I RFO       ACCESS:          0  HIT:          0  MISS:          0
L1I PREFETCH  ACCESS:          0  HIT:          0  MISS:          0
L1I WRITEBACK ACCESS:          0  HIT:          0  MISS:          0
L1I PREFETCH  REQUESTED:          0  ISSUED:          0  USEFUL:          0  USELESS:          0
L2C TOTAL     ACCESS:    4425854  HIT:    2352412  MISS:    2073442
L2C LOAD      ACCESS:    2860628  HIT:     902660  MISS:    1957968
L2C RFO       ACCESS:      37791  HIT:      23461  MISS:      14330
L2C PREFETCH  ACCESS:     582317  HIT:     482425  MISS:      99892
L2C WRITEBACK ACCESS:     945118  HIT:     943866  MISS:       1252
L2C PREFETCH  REQUESTED:    3812418  ISSUED:    3812411  USEFUL:      32871  USELESS:     101871
LLC TOTAL     ACCESS:    4778742  HIT:    4209133  MISS:     569609
LLC LOAD      ACCESS:    1957392  HIT:    1824407  MISS:     132985
LLC RFO       ACCESS:      14328  HIT:      14005  MISS:        323
LLC PREFETCH  ACCESS:    2131090  HIT:    1732341  MISS:     398749
LLC WRITEBACK ACCESS:     675932  HIT:     638380  MISS:      37552
LLC PREFETCH  REQUESTED:          0  ISSUED:          0  USEFUL:    5987982  USELESS:    9673933
Major fault: 0 Minor fault: 5933

DRAM Statistics
 CHANNEL 0
 RQ ROW_BUFFER_HIT:    3835154  ROW_BUFFER_MISS:    7472605
 DBUS_CONGESTED:   17475456
 WQ ROW_BUFFER_HIT:     181977  ROW_BUFFER_MISS:    2574322  FULL:          0

 CHANNEL 1
 RQ ROW_BUFFER_HIT:    3287184  ROW_BUFFER_MISS:    7298110
 DBUS_CONGESTED:   17475456
 WQ ROW_BUFFER_HIT:     198138  ROW_BUFFER_MISS:    2703373  FULL:          0

 AVG_CONGESTED_CYCLE: 13
