Initialize SIGNATURE TABLE
ST_SET: 1
ST_WAY: 256
ST_TAG_BIT: 16
ST_TAG_MASK: ffff

Initialize PATTERN TABLE
PT_SET: 512
PT_WAY: 4
SIG_DELTA_BIT: 7
C_SIG_BIT: 4
C_DELTA_BIT: 4

Initialize PREFETCH FILTER
FILTER_SET: 1024

*** ChampSim Multicore Out-of-Order Simulator ***

Warmup Instructions: 20000000
Simulation Instructions: 100000000
Number of CPUs: 8
LLC sets: 16384
LLC ways: 16
Off-chip DRAM Size: 8192 MB Channels: 2 Width: 64-bit Data Rate: 1600 MT/s

CPU 0 runs /scratch/user/djimenez/champsim-traces/speccpu2006/xz/437.leslie3d-271B.champsimtrace.xz
CPU 1 runs /scratch/user/djimenez/champsim-traces/speccpu2006/xz/403.gcc-17B.champsimtrace.xz
CPU 2 runs /scratch/user/djimenez/champsim-traces/speccpu2006/xz/456.hmmer-88B.champsimtrace.xz
CPU 3 runs /scratch/user/djimenez/champsim-traces/speccpu2006/xz/433.milc-274B.champsimtrace.xz
CPU 4 runs /scratch/user/djimenez/champsim-traces/speccpu2006/xz/462.libquantum-1343B.champsimtrace.xz
CPU 5 runs /scratch/user/djimenez/champsim-traces/speccpu2006/xz/481.wrf-1254B.champsimtrace.xz
CPU 6 runs /scratch/user/djimenez/champsim-traces/speccpu2006/xz/458.sjeng-31B.champsimtrace.xz
CPU 7 runs /scratch/user/djimenez/champsim-traces/speccpu2006/xz/471.omnetpp-188B.champsimtrace.xz
Heartbeat CPU 3 instructions: 10000002 cycles: 3373507 heartbeat IPC: 2.96427 cumulative IPC: 2.96427 (Simulation time: 0 hr 3 min 5 sec) 
Heartbeat CPU 5 instructions: 10000000 cycles: 3593247 heartbeat IPC: 2.783 cumulative IPC: 2.783 (Simulation time: 0 hr 3 min 16 sec) 
Heartbeat CPU 4 instructions: 10000002 cycles: 5037102 heartbeat IPC: 1.98527 cumulative IPC: 1.98527 (Simulation time: 0 hr 4 min 24 sec) 
Heartbeat CPU 0 instructions: 10000003 cycles: 5156907 heartbeat IPC: 1.93915 cumulative IPC: 1.93915 (Simulation time: 0 hr 4 min 30 sec) 
Heartbeat CPU 6 instructions: 10000001 cycles: 5605043 heartbeat IPC: 1.78411 cumulative IPC: 1.78411 (Simulation time: 0 hr 4 min 52 sec) 
Heartbeat CPU 1 instructions: 10000002 cycles: 5901871 heartbeat IPC: 1.69438 cumulative IPC: 1.69438 (Simulation time: 0 hr 5 min 6 sec) 
Heartbeat CPU 7 instructions: 10000002 cycles: 6121497 heartbeat IPC: 1.63359 cumulative IPC: 1.63359 (Simulation time: 0 hr 5 min 17 sec) 
Heartbeat CPU 2 instructions: 10000001 cycles: 6239877 heartbeat IPC: 1.6026 cumulative IPC: 1.6026 (Simulation time: 0 hr 5 min 23 sec) 
Heartbeat CPU 3 instructions: 20000000 cycles: 6746156 heartbeat IPC: 2.96503 cumulative IPC: 2.96465 (Simulation time: 0 hr 5 min 47 sec) 
Heartbeat CPU 5 instructions: 20000000 cycles: 7383474 heartbeat IPC: 2.63836 cumulative IPC: 2.70875 (Simulation time: 0 hr 6 min 18 sec) 
Heartbeat CPU 4 instructions: 20000000 cycles: 10028898 heartbeat IPC: 2.00329 cumulative IPC: 1.99424 (Simulation time: 0 hr 8 min 26 sec) 
Heartbeat CPU 3 instructions: 30000003 cycles: 10119486 heartbeat IPC: 2.96443 cumulative IPC: 0.988193 (Simulation time: 0 hr 8 min 31 sec) 
Heartbeat CPU 0 instructions: 20000000 cycles: 10314067 heartbeat IPC: 1.93905 cumulative IPC: 1.9391 (Simulation time: 0 hr 8 min 40 sec) 
Heartbeat CPU 6 instructions: 20000000 cycles: 11119296 heartbeat IPC: 1.81348 cumulative IPC: 1.79868 (Simulation time: 0 hr 9 min 19 sec) 
Heartbeat CPU 5 instructions: 30000002 cycles: 11124246 heartbeat IPC: 2.67325 cumulative IPC: 0.898938 (Simulation time: 0 hr 9 min 20 sec) 
Heartbeat CPU 7 instructions: 20000000 cycles: 12217808 heartbeat IPC: 1.64034 cumulative IPC: 1.63695 (Simulation time: 0 hr 10 min 12 sec) 
Heartbeat CPU 1 instructions: 20000000 cycles: 12490890 heartbeat IPC: 1.51768 cumulative IPC: 1.60117 (Simulation time: 0 hr 10 min 25 sec) 
Heartbeat CPU 2 instructions: 20000000 cycles: 12503817 heartbeat IPC: 1.59644 cumulative IPC: 1.59951 (Simulation time: 0 hr 10 min 25 sec) 

Warmup complete CPU 0 instructions: 24246256 cycles: 12503818 (Simulation time: 0 hr 10 min 25 sec) 
Warmup complete CPU 1 instructions: 20019601 cycles: 12503818 (Simulation time: 0 hr 10 min 25 sec) 
Warmup complete CPU 2 instructions: 20000001 cycles: 12503818 (Simulation time: 0 hr 10 min 25 sec) 
Warmup complete CPU 3 instructions: 37068338 cycles: 12503817 (Simulation time: 0 hr 10 min 25 sec) 
Warmup complete CPU 4 instructions: 24940508 cycles: 12503817 (Simulation time: 0 hr 10 min 25 sec) 
Warmup complete CPU 5 instructions: 33696547 cycles: 12503817 (Simulation time: 0 hr 10 min 25 sec) 
Warmup complete CPU 6 instructions: 22488955 cycles: 12503817 (Simulation time: 0 hr 10 min 25 sec) 
Warmup complete CPU 7 instructions: 20466376 cycles: 12503817 (Simulation time: 0 hr 10 min 25 sec) 

Heartbeat CPU 5 instructions: 40000000 cycles: 16342553 heartbeat IPC: 1.91633 cumulative IPC: 1.64206 (Simulation time: 0 hr 11 min 56 sec) 
Heartbeat CPU 3 instructions: 40000000 cycles: 16547257 heartbeat IPC: 1.55575 cumulative IPC: 0.725042 (Simulation time: 0 hr 12 min 1 sec) 
Heartbeat CPU 0 instructions: 30000002 cycles: 17921237 heartbeat IPC: 1.31455 cumulative IPC: 1.06208 (Simulation time: 0 hr 12 min 31 sec) 
Heartbeat CPU 5 instructions: 50000001 cycles: 22454397 heartbeat IPC: 1.63617 cumulative IPC: 1.63844 (Simulation time: 0 hr 14 min 14 sec) 
Heartbeat CPU 2 instructions: 30000002 cycles: 23664702 heartbeat IPC: 0.895986 cumulative IPC: 0.895986 (Simulation time: 0 hr 14 min 41 sec) 
Heartbeat CPU 4 instructions: 30000000 cycles: 24308176 heartbeat IPC: 0.700316 cumulative IPC: 0.428612 (Simulation time: 0 hr 14 min 56 sec) 
Heartbeat CPU 6 instructions: 30000000 cycles: 25383952 heartbeat IPC: 0.701033 cumulative IPC: 0.58315 (Simulation time: 0 hr 15 min 20 sec) 
Heartbeat CPU 0 instructions: 40000000 cycles: 27369952 heartbeat IPC: 1.05834 cumulative IPC: 1.05971 (Simulation time: 0 hr 16 min 6 sec) 
Heartbeat CPU 5 instructions: 60000000 cycles: 28586278 heartbeat IPC: 1.63082 cumulative IPC: 1.63554 (Simulation time: 0 hr 16 min 33 sec) 
Heartbeat CPU 3 instructions: 50000000 cycles: 30940276 heartbeat IPC: 0.694781 cumulative IPC: 0.701418 (Simulation time: 0 hr 17 min 27 sec) 
Heartbeat CPU 5 instructions: 70000002 cycles: 34868647 heartbeat IPC: 1.59176 cumulative IPC: 1.62324 (Simulation time: 0 hr 19 min 1 sec) 
Heartbeat CPU 2 instructions: 40000000 cycles: 35293116 heartbeat IPC: 0.859962 cumulative IPC: 0.877605 (Simulation time: 0 hr 19 min 12 sec) 
Heartbeat CPU 0 instructions: 50000001 cycles: 36825980 heartbeat IPC: 1.05753 cumulative IPC: 1.05886 (Simulation time: 0 hr 19 min 48 sec) 
Heartbeat CPU 5 instructions: 80000000 cycles: 41642591 heartbeat IPC: 1.47624 cumulative IPC: 1.58907 (Simulation time: 0 hr 21 min 50 sec) 
Heartbeat CPU 6 instructions: 40000000 cycles: 42737952 heartbeat IPC: 0.576236 cumulative IPC: 0.579181 (Simulation time: 0 hr 22 min 15 sec) 
Heartbeat CPU 0 instructions: 60000000 cycles: 47037080 heartbeat IPC: 0.979326 cumulative IPC: 1.03534 (Simulation time: 0 hr 23 min 43 sec) 
Heartbeat CPU 2 instructions: 50000000 cycles: 48467912 heartbeat IPC: 0.759025 cumulative IPC: 0.834165 (Simulation time: 0 hr 24 min 11 sec) 
Heartbeat CPU 5 instructions: 90000000 cycles: 49987106 heartbeat IPC: 1.19839 cumulative IPC: 1.50209 (Simulation time: 0 hr 24 min 40 sec) 
Heartbeat CPU 1 instructions: 30000000 cycles: 50393240 heartbeat IPC: 0.263836 cumulative IPC: 0.263409 (Simulation time: 0 hr 24 min 48 sec) 
Heartbeat CPU 3 instructions: 60000000 cycles: 50622973 heartbeat IPC: 0.50806 cumulative IPC: 0.601578 (Simulation time: 0 hr 24 min 52 sec) 
Heartbeat CPU 4 instructions: 40000000 cycles: 52867971 heartbeat IPC: 0.350143 cumulative IPC: 0.373091 (Simulation time: 0 hr 25 min 32 sec) 
Heartbeat CPU 0 instructions: 70000003 cycles: 60225415 heartbeat IPC: 0.758246 cumulative IPC: 0.958764 (Simulation time: 0 hr 27 min 37 sec) 
Heartbeat CPU 6 instructions: 50000001 cycles: 60515905 heartbeat IPC: 0.562495 cumulative IPC: 0.573003 (Simulation time: 0 hr 27 min 42 sec) 
Heartbeat CPU 2 instructions: 60000000 cycles: 62794988 heartbeat IPC: 0.697979 cumulative IPC: 0.795368 (Simulation time: 0 hr 28 min 21 sec) 
Heartbeat CPU 7 instructions: 30000001 cycles: 66014446 heartbeat IPC: 0.185885 cumulative IPC: 0.178163 (Simulation time: 0 hr 29 min 18 sec) 
Heartbeat CPU 5 instructions: 100000000 cycles: 66321074 heartbeat IPC: 0.612221 cumulative IPC: 1.23201 (Simulation time: 0 hr 29 min 24 sec) 
Heartbeat CPU 0 instructions: 80000000 cycles: 75028645 heartbeat IPC: 0.675528 cumulative IPC: 0.891706 (Simulation time: 0 hr 32 min 5 sec) 
Heartbeat CPU 5 instructions: 110000002 cycles: 75569802 heartbeat IPC: 1.08123 cumulative IPC: 1.2099 (Simulation time: 0 hr 32 min 17 sec) 
Heartbeat CPU 2 instructions: 70000000 cycles: 76760047 heartbeat IPC: 0.716073 cumulative IPC: 0.778135 (Simulation time: 0 hr 32 min 43 sec) 
Heartbeat CPU 6 instructions: 60000000 cycles: 78976114 heartbeat IPC: 0.541706 cumulative IPC: 0.564311 (Simulation time: 0 hr 33 min 33 sec) 
Heartbeat CPU 5 instructions: 120000000 cycles: 82340829 heartbeat IPC: 1.47688 cumulative IPC: 1.23578 (Simulation time: 0 hr 34 min 46 sec) 
Heartbeat CPU 3 instructions: 70000000 cycles: 87912426 heartbeat IPC: 0.268172 cumulative IPC: 0.43671 (Simulation time: 0 hr 36 min 48 sec) 
Heartbeat CPU 0 instructions: 90000003 cycles: 88445013 heartbeat IPC: 0.745358 cumulative IPC: 0.865851 (Simulation time: 0 hr 36 min 59 sec) 
Heartbeat CPU 5 instructions: 130000000 cycles: 88974556 heartbeat IPC: 1.50745 cumulative IPC: 1.25935 (Simulation time: 0 hr 37 min 11 sec) 
Heartbeat CPU 2 instructions: 80000000 cycles: 90088648 heartbeat IPC: 0.750266 cumulative IPC: 0.773347 (Simulation time: 0 hr 37 min 35 sec) 
Finished CPU 5 instructions: 100000001 cycles: 78884100 cumulative IPC: 1.26768 (Simulation time: 0 hr 38 min 3 sec) 
Heartbeat CPU 4 instructions: 50000001 cycles: 91459376 heartbeat IPC: 0.259125 cumulative IPC: 0.317387 (Simulation time: 0 hr 38 min 5 sec) 
Heartbeat CPU 5 instructions: 140000000 cycles: 95354418 heartbeat IPC: 1.56743 cumulative IPC: 1.28307 (Simulation time: 0 hr 39 min 31 sec) 
Heartbeat CPU 6 instructions: 70000003 cycles: 96869925 heartbeat IPC: 0.558853 cumulative IPC: 0.563153 (Simulation time: 0 hr 40 min 5 sec) 
Heartbeat CPU 1 instructions: 40000000 cycles: 101002258 heartbeat IPC: 0.197593 cumulative IPC: 0.225771 (Simulation time: 0 hr 41 min 41 sec) 
Heartbeat CPU 5 instructions: 150000002 cycles: 101591032 heartbeat IPC: 1.60343 cumulative IPC: 1.3055 (Simulation time: 0 hr 41 min 55 sec) 
Heartbeat CPU 0 instructions: 100000000 cycles: 101977003 heartbeat IPC: 0.738989 cumulative IPC: 0.846664 (Simulation time: 0 hr 42 min 3 sec) 
Heartbeat CPU 2 instructions: 90000000 cycles: 102255027 heartbeat IPC: 0.821937 cumulative IPC: 0.779934 (Simulation time: 0 hr 42 min 10 sec) 
Heartbeat CPU 3 instructions: 80000000 cycles: 104633206 heartbeat IPC: 0.598058 cumulative IPC: 0.465993 (Simulation time: 0 hr 43 min 5 sec) 
Heartbeat CPU 5 instructions: 160000000 cycles: 107988860 heartbeat IPC: 1.56303 cumulative IPC: 1.32276 (Simulation time: 0 hr 44 min 21 sec) 
Heartbeat CPU 4 instructions: 60000000 cycles: 113387544 heartbeat IPC: 0.456034 cumulative IPC: 0.347524 (Simulation time: 0 hr 46 min 22 sec) 
Heartbeat CPU 6 instructions: 80000000 cycles: 113449262 heartbeat IPC: 0.60316 cumulative IPC: 0.569724 (Simulation time: 0 hr 46 min 23 sec) 
Heartbeat CPU 2 instructions: 100000000 cycles: 114030145 heartbeat IPC: 0.849248 cumulative IPC: 0.787973 (Simulation time: 0 hr 46 min 36 sec) 
Heartbeat CPU 5 instructions: 170000002 cycles: 114686679 heartbeat IPC: 1.49302 cumulative IPC: 1.33392 (Simulation time: 0 hr 46 min 51 sec) 
Heartbeat CPU 0 instructions: 110000003 cycles: 115286198 heartbeat IPC: 0.75136 cumulative IPC: 0.834323 (Simulation time: 0 hr 47 min 5 sec) 
Heartbeat CPU 7 instructions: 40000000 cycles: 118130665 heartbeat IPC: 0.191879 cumulative IPC: 0.18493 (Simulation time: 0 hr 48 min 9 sec) 
Heartbeat CPU 3 instructions: 90000001 cycles: 120222605 heartbeat IPC: 0.641462 cumulative IPC: 0.491387 (Simulation time: 0 hr 48 min 54 sec) 
Heartbeat CPU 5 instructions: 180000000 cycles: 121405770 heartbeat IPC: 1.4883 cumulative IPC: 1.34344 (Simulation time: 0 hr 49 min 20 sec) 
Heartbeat CPU 2 instructions: 110000001 cycles: 125635353 heartbeat IPC: 0.861682 cumulative IPC: 0.795534 (Simulation time: 0 hr 50 min 53 sec) 
Heartbeat CPU 0 instructions: 120000000 cycles: 127876008 heartbeat IPC: 0.794293 cumulative IPC: 0.829955 (Simulation time: 0 hr 51 min 43 sec) 
Heartbeat CPU 5 instructions: 190000000 cycles: 130385596 heartbeat IPC: 1.11361 cumulative IPC: 1.32593 (Simulation time: 0 hr 52 min 40 sec) 
Heartbeat CPU 4 instructions: 70000003 cycles: 130412134 heartbeat IPC: 0.587386 cumulative IPC: 0.382157 (Simulation time: 0 hr 52 min 41 sec) 
Heartbeat CPU 6 instructions: 90000002 cycles: 130581141 heartbeat IPC: 0.583707 cumulative IPC: 0.571753 (Simulation time: 0 hr 52 min 45 sec) 
Finished CPU 0 instructions: 100000001 cycles: 119463627 cumulative IPC: 0.837075 (Simulation time: 0 hr 53 min 17 sec) 
Heartbeat CPU 1 instructions: 50000001 cycles: 133850531 heartbeat IPC: 0.30443 cumulative IPC: 0.247064 (Simulation time: 0 hr 54 min 0 sec) 
Heartbeat CPU 3 instructions: 100000000 cycles: 134727594 heartbeat IPC: 0.689418 cumulative IPC: 0.514889 (Simulation time: 0 hr 54 min 21 sec) 
Heartbeat CPU 5 instructions: 200000000 cycles: 136988497 heartbeat IPC: 1.51449 cumulative IPC: 1.33594 (Simulation time: 0 hr 55 min 16 sec) 
Heartbeat CPU 2 instructions: 120000000 cycles: 137333231 heartbeat IPC: 0.854856 cumulative IPC: 0.801093 (Simulation time: 0 hr 55 min 24 sec) 
Finished CPU 2 instructions: 100000000 cycles: 124829421 cumulative IPC: 0.801093 (Simulation time: 0 hr 55 min 24 sec) 
Heartbeat CPU 0 instructions: 130000002 cycles: 137342350 heartbeat IPC: 1.05637 cumulative IPC: 0.847124 (Simulation time: 0 hr 55 min 24 sec) 
Heartbeat CPU 5 instructions: 210000001 cycles: 143128057 heartbeat IPC: 1.62878 cumulative IPC: 1.3497 (Simulation time: 0 hr 57 min 46 sec) 
Heartbeat CPU 0 instructions: 140000000 cycles: 146610817 heartbeat IPC: 1.07893 cumulative IPC: 0.863145 (Simulation time: 0 hr 59 min 12 sec) 
Heartbeat CPU 4 instructions: 80000000 cycles: 147026369 heartbeat IPC: 0.601893 cumulative IPC: 0.409296 (Simulation time: 0 hr 59 min 22 sec) 
Heartbeat CPU 6 instructions: 100000000 cycles: 147067403 heartbeat IPC: 0.606566 cumulative IPC: 0.576018 (Simulation time: 0 hr 59 min 23 sec) 
Heartbeat CPU 2 instructions: 130000003 cycles: 148635176 heartbeat IPC: 0.884804 cumulative IPC: 0.808043 (Simulation time: 1 hr 0 min 2 sec) 
Heartbeat CPU 5 instructions: 220000000 cycles: 149258108 heartbeat IPC: 1.63131 cumulative IPC: 1.36232 (Simulation time: 1 hr 0 min 17 sec) 
Heartbeat CPU 3 instructions: 110000001 cycles: 149573509 heartbeat IPC: 0.673586 cumulative IPC: 0.532077 (Simulation time: 1 hr 0 min 25 sec) 
Heartbeat CPU 5 instructions: 230000000 cycles: 155355062 heartbeat IPC: 1.64016 cumulative IPC: 1.37418 (Simulation time: 1 hr 2 min 48 sec) 
Heartbeat CPU 0 instructions: 150000000 cycles: 155886279 heartbeat IPC: 1.07811 cumulative IPC: 0.877051 (Simulation time: 1 hr 3 min 1 sec) 
Heartbeat CPU 2 instructions: 140000000 cycles: 159821434 heartbeat IPC: 0.893954 cumulative IPC: 0.814567 (Simulation time: 1 hr 4 min 39 sec) 
Heartbeat CPU 5 instructions: 240000000 cycles: 161427044 heartbeat IPC: 1.64691 cumulative IPC: 1.3853 (Simulation time: 1 hr 5 min 19 sec) 
Heartbeat CPU 4 instructions: 90000001 cycles: 162111541 heartbeat IPC: 0.662903 cumulative IPC: 0.434867 (Simulation time: 1 hr 5 min 36 sec) 
Heartbeat CPU 3 instructions: 120000000 cycles: 163783214 heartbeat IPC: 0.703744 cumulative IPC: 0.548202 (Simulation time: 1 hr 6 min 17 sec) 
Heartbeat CPU 1 instructions: 60000000 cycles: 163910288 heartbeat IPC: 0.332671 cumulative IPC: 0.26406 (Simulation time: 1 hr 6 min 20 sec) 
Heartbeat CPU 7 instructions: 50000003 cycles: 164157585 heartbeat IPC: 0.217264 cumulative IPC: 0.194744 (Simulation time: 1 hr 6 min 26 sec) 
Heartbeat CPU 6 instructions: 110000000 cycles: 164289833 heartbeat IPC: 0.580638 cumulative IPC: 0.576542 (Simulation time: 1 hr 6 min 29 sec) 
Heartbeat CPU 0 instructions: 160000000 cycles: 165160732 heartbeat IPC: 1.07823 cumulative IPC: 0.889273 (Simulation time: 1 hr 6 min 51 sec) 
Heartbeat CPU 5 instructions: 250000002 cycles: 167602516 heartbeat IPC: 1.61931 cumulative IPC: 1.39462 (Simulation time: 1 hr 7 min 51 sec) 
Heartbeat CPU 2 instructions: 150000002 cycles: 171039646 heartbeat IPC: 0.891408 cumulative IPC: 0.820004 (Simulation time: 1 hr 9 min 17 sec) 
Heartbeat CPU 5 instructions: 260000000 cycles: 173964319 heartbeat IPC: 1.57188 cumulative IPC: 1.4016 (Simulation time: 1 hr 10 min 29 sec) 
Heartbeat CPU 0 instructions: 170000000 cycles: 174443083 heartbeat IPC: 1.07731 cumulative IPC: 0.900052 (Simulation time: 1 hr 10 min 41 sec) 
Heartbeat CPU 4 instructions: 100000000 cycles: 176526267 heartbeat IPC: 0.693735 cumulative IPC: 0.457617 (Simulation time: 1 hr 11 min 32 sec) 
Heartbeat CPU 3 instructions: 130000003 cycles: 177589782 heartbeat IPC: 0.724293 cumulative IPC: 0.562929 (Simulation time: 1 hr 11 min 58 sec) 
Heartbeat CPU 5 instructions: 270000000 cycles: 180431803 heartbeat IPC: 1.5462 cumulative IPC: 1.40717 (Simulation time: 1 hr 13 min 5 sec) 
Heartbeat CPU 6 instructions: 120000000 cycles: 181414208 heartbeat IPC: 0.583963 cumulative IPC: 0.577295 (Simulation time: 1 hr 13 min 31 sec) 
Heartbeat CPU 2 instructions: 160000000 cycles: 182398417 heartbeat IPC: 0.880377 cumulative IPC: 0.82404 (Simulation time: 1 hr 13 min 55 sec) 
Heartbeat CPU 0 instructions: 180000000 cycles: 183723058 heartbeat IPC: 1.07759 cumulative IPC: 0.909674 (Simulation time: 1 hr 14 min 26 sec) 
Finished CPU 6 instructions: 100000001 cycles: 173216015 cumulative IPC: 0.577314 (Simulation time: 1 hr 15 min 13 sec) 
Finished CPU 3 instructions: 100000002 cycles: 175301129 cumulative IPC: 0.570447 (Simulation time: 1 hr 16 min 9 sec) 
Heartbeat CPU 5 instructions: 280000000 cycles: 189474078 heartbeat IPC: 1.10592 cumulative IPC: 1.39178 (Simulation time: 1 hr 16 min 48 sec) 
Heartbeat CPU 1 instructions: 70000000 cycles: 191206461 heartbeat IPC: 0.366352 cumulative IPC: 0.279685 (Simulation time: 1 hr 17 min 29 sec) 
Heartbeat CPU 3 instructions: 140000000 cycles: 192329063 heartbeat IPC: 0.678459 cumulative IPC: 0.572398 (Simulation time: 1 hr 17 min 54 sec) 
Heartbeat CPU 4 instructions: 110000000 cycles: 192387481 heartbeat IPC: 0.630469 cumulative IPC: 0.472858 (Simulation time: 1 hr 17 min 56 sec) 
Heartbeat CPU 0 instructions: 190000003 cycles: 193068395 heartbeat IPC: 1.07005 cumulative IPC: 0.917975 (Simulation time: 1 hr 18 min 11 sec) 
Heartbeat CPU 2 instructions: 170000000 cycles: 193979547 heartbeat IPC: 0.863474 cumulative IPC: 0.826557 (Simulation time: 1 hr 18 min 33 sec) 
Heartbeat CPU 5 instructions: 290000000 cycles: 196232100 heartbeat IPC: 1.47972 cumulative IPC: 1.39501 (Simulation time: 1 hr 19 min 28 sec) 
Heartbeat CPU 6 instructions: 130000000 cycles: 198793047 heartbeat IPC: 0.575412 cumulative IPC: 0.577119 (Simulation time: 1 hr 20 min 30 sec) 
Heartbeat CPU 5 instructions: 300000000 cycles: 202312737 heartbeat IPC: 1.64456 cumulative IPC: 1.40301 (Simulation time: 1 hr 21 min 54 sec) 
Heartbeat CPU 0 instructions: 200000000 cycles: 202349644 heartbeat IPC: 1.07744 cumulative IPC: 0.925771 (Simulation time: 1 hr 21 min 55 sec) 
Heartbeat CPU 2 instructions: 180000000 cycles: 205226084 heartbeat IPC: 0.889163 cumulative IPC: 0.83021 (Simulation time: 1 hr 23 min 4 sec) 
Heartbeat CPU 3 instructions: 150000000 cycles: 206504707 heartbeat IPC: 0.705435 cumulative IPC: 0.582119 (Simulation time: 1 hr 23 min 35 sec) 
Heartbeat CPU 7 instructions: 60000000 cycles: 206531786 heartbeat IPC: 0.235993 cumulative IPC: 0.203752 (Simulation time: 1 hr 23 min 36 sec) 
Heartbeat CPU 5 instructions: 310000001 cycles: 208413449 heartbeat IPC: 1.63915 cumulative IPC: 1.41036 (Simulation time: 1 hr 24 min 21 sec) 
Heartbeat CPU 4 instructions: 120000000 cycles: 208577242 heartbeat IPC: 0.617674 cumulative IPC: 0.484816 (Simulation time: 1 hr 24 min 25 sec) 
Heartbeat CPU 0 instructions: 210000003 cycles: 211595965 heartbeat IPC: 1.08151 cumulative IPC: 0.933004 (Simulation time: 1 hr 25 min 38 sec) 
Heartbeat CPU 5 instructions: 320000000 cycles: 214538387 heartbeat IPC: 1.63267 cumulative IPC: 1.4171 (Simulation time: 1 hr 26 min 51 sec) 
Heartbeat CPU 2 instructions: 190000000 cycles: 215216044 heartbeat IPC: 1.00101 cumulative IPC: 0.838627 (Simulation time: 1 hr 27 min 7 sec) 
Heartbeat CPU 6 instructions: 140000000 cycles: 216091354 heartbeat IPC: 0.578091 cumulative IPC: 0.577202 (Simulation time: 1 hr 27 min 28 sec) 
Finished CPU 4 instructions: 100000000 cycles: 203776057 cumulative IPC: 0.490735 (Simulation time: 1 hr 27 min 32 sec) 
Heartbeat CPU 3 instructions: 160000000 cycles: 219718549 heartbeat IPC: 0.756782 cumulative IPC: 0.593257 (Simulation time: 1 hr 28 min 55 sec) 
Heartbeat CPU 5 instructions: 330000001 cycles: 220659434 heartbeat IPC: 1.63371 cumulative IPC: 1.42347 (Simulation time: 1 hr 29 min 17 sec) 
Heartbeat CPU 0 instructions: 220000000 cycles: 220871417 heartbeat IPC: 1.07811 cumulative IPC: 0.939463 (Simulation time: 1 hr 29 min 22 sec) 
Heartbeat CPU 4 instructions: 130000003 cycles: 224199242 heartbeat IPC: 0.640123 cumulative IPC: 0.496277 (Simulation time: 1 hr 30 min 42 sec) 
Heartbeat CPU 2 instructions: 200000000 cycles: 226445847 heartbeat IPC: 0.890488 cumulative IPC: 0.841349 (Simulation time: 1 hr 31 min 37 sec) 
Heartbeat CPU 5 instructions: 340000000 cycles: 226866373 heartbeat IPC: 1.6111 cumulative IPC: 1.4289 (Simulation time: 1 hr 31 min 47 sec) 
Heartbeat CPU 0 instructions: 230000000 cycles: 230147969 heartbeat IPC: 1.07799 cumulative IPC: 0.945368 (Simulation time: 1 hr 33 min 5 sec) 
Heartbeat CPU 3 instructions: 170000002 cycles: 232945301 heartbeat IPC: 0.756044 cumulative IPC: 0.603025 (Simulation time: 1 hr 34 min 11 sec) 
Heartbeat CPU 6 instructions: 150000000 cycles: 233090132 heartbeat IPC: 0.588278 cumulative IPC: 0.578055 (Simulation time: 1 hr 34 min 15 sec) 
Heartbeat CPU 5 instructions: 350000000 cycles: 233256182 heartbeat IPC: 1.56499 cumulative IPC: 1.43284 (Simulation time: 1 hr 34 min 19 sec) 
Heartbeat CPU 1 instructions: 80000000 cycles: 236478791 heartbeat IPC: 0.220885 cumulative IPC: 0.2678 (Simulation time: 1 hr 35 min 37 sec) 
Heartbeat CPU 2 instructions: 210000000 cycles: 237614385 heartbeat IPC: 0.895372 cumulative IPC: 0.84403 (Simulation time: 1 hr 36 min 5 sec) 
Heartbeat CPU 4 instructions: 140000000 cycles: 238164317 heartbeat IPC: 0.716072 cumulative IPC: 0.509879 (Simulation time: 1 hr 36 min 17 sec) 
Heartbeat CPU 0 instructions: 240000000 cycles: 239418422 heartbeat IPC: 1.0787 cumulative IPC: 0.950815 (Simulation time: 1 hr 36 min 45 sec) 
Heartbeat CPU 5 instructions: 360000000 cycles: 239605384 heartbeat IPC: 1.575 cumulative IPC: 1.43682 (Simulation time: 1 hr 36 min 49 sec) 
Heartbeat CPU 7 instructions: 70000003 cycles: 246363310 heartbeat IPC: 0.251058 cumulative IPC: 0.211809 (Simulation time: 1 hr 39 min 20 sec) 
Heartbeat CPU 3 instructions: 180000000 cycles: 246435501 heartbeat IPC: 0.741279 cumulative IPC: 0.610997 (Simulation time: 1 hr 39 min 22 sec) 
Heartbeat CPU 5 instructions: 370000000 cycles: 248575531 heartbeat IPC: 1.11481 cumulative IPC: 1.42458 (Simulation time: 1 hr 40 min 10 sec) 
Heartbeat CPU 0 instructions: 250000003 cycles: 248703882 heartbeat IPC: 1.07695 cumulative IPC: 0.955773 (Simulation time: 1 hr 40 min 13 sec) 
Heartbeat CPU 2 instructions: 220000000 cycles: 249104049 heartbeat IPC: 0.870347 cumulative IPC: 0.845308 (Simulation time: 1 hr 40 min 22 sec) 
Heartbeat CPU 6 instructions: 160000000 cycles: 250236584 heartbeat IPC: 0.583211 cumulative IPC: 0.578427 (Simulation time: 1 hr 40 min 48 sec) 
Heartbeat CPU 4 instructions: 150000000 cycles: 252828574 heartbeat IPC: 0.68193 cumulative IPC: 0.520377 (Simulation time: 1 hr 41 min 46 sec) 
Heartbeat CPU 0 instructions: 260000000 cycles: 257978136 heartbeat IPC: 1.07825 cumulative IPC: 0.960401 (Simulation time: 1 hr 43 min 40 sec) 
Heartbeat CPU 3 instructions: 190000001 cycles: 259476762 heartbeat IPC: 0.766797 cumulative IPC: 0.619224 (Simulation time: 1 hr 44 min 12 sec) 
Heartbeat CPU 2 instructions: 230000000 cycles: 260233738 heartbeat IPC: 0.898498 cumulative IPC: 0.847697 (Simulation time: 1 hr 44 min 28 sec) 
Heartbeat CPU 5 instructions: 380000000 cycles: 263775523 heartbeat IPC: 0.657895 cumulative IPC: 1.3782 (Simulation time: 1 hr 45 min 41 sec) 
Heartbeat CPU 0 instructions: 270000001 cycles: 267261925 heartbeat IPC: 1.07715 cumulative IPC: 0.964655 (Simulation time: 1 hr 46 min 50 sec) 
Heartbeat CPU 6 instructions: 170000003 cycles: 267715909 heartbeat IPC: 0.572105 cumulative IPC: 0.577994 (Simulation time: 1 hr 46 min 59 sec) 
Heartbeat CPU 4 instructions: 160000000 cycles: 267998458 heartbeat IPC: 0.659201 cumulative IPC: 0.52862 (Simulation time: 1 hr 47 min 5 sec) 
Heartbeat CPU 2 instructions: 240000000 cycles: 271286757 heartbeat IPC: 0.90473 cumulative IPC: 0.850133 (Simulation time: 1 hr 48 min 11 sec) 
Heartbeat CPU 3 instructions: 200000000 cycles: 271801464 heartbeat IPC: 0.811379 cumulative IPC: 0.628358 (Simulation time: 1 hr 48 min 21 sec) 
Heartbeat CPU 0 instructions: 280000000 cycles: 277079600 heartbeat IPC: 1.01857 cumulative IPC: 0.966656 (Simulation time: 1 hr 50 min 8 sec) 
Heartbeat CPU 5 instructions: 390000002 cycles: 282412037 heartbeat IPC: 0.536581 cumulative IPC: 1.32009 (Simulation time: 1 hr 51 min 54 sec) 
Heartbeat CPU 2 instructions: 250000003 cycles: 282954728 heartbeat IPC: 0.857047 cumulative IPC: 0.850432 (Simulation time: 1 hr 52 min 5 sec) 
Heartbeat CPU 4 instructions: 170000003 cycles: 284224532 heartbeat IPC: 0.616292 cumulative IPC: 0.533855 (Simulation time: 1 hr 52 min 31 sec) 
Heartbeat CPU 1 instructions: 90000001 cycles: 284342660 heartbeat IPC: 0.208926 cumulative IPC: 0.257433 (Simulation time: 1 hr 52 min 34 sec) 
Heartbeat CPU 6 instructions: 180000000 cycles: 285229846 heartbeat IPC: 0.570974 cumulative IPC: 0.577543 (Simulation time: 1 hr 52 min 52 sec) 
Heartbeat CPU 0 instructions: 290000000 cycles: 286939599 heartbeat IPC: 1.0142 cumulative IPC: 0.968364 (Simulation time: 1 hr 53 min 27 sec) 
Heartbeat CPU 7 instructions: 80000000 cycles: 290252562 heartbeat IPC: 0.227846 cumulative IPC: 0.214343 (Simulation time: 1 hr 54 min 35 sec) 
Heartbeat CPU 3 instructions: 210000003 cycles: 290868102 heartbeat IPC: 0.524476 cumulative IPC: 0.621242 (Simulation time: 1 hr 54 min 47 sec) 
Heartbeat CPU 2 instructions: 260000000 cycles: 294799509 heartbeat IPC: 0.844253 cumulative IPC: 0.850172 (Simulation time: 1 hr 56 min 8 sec) 
Heartbeat CPU 0 instructions: 300000000 cycles: 296818343 heartbeat IPC: 1.01227 cumulative IPC: 0.96989 (Simulation time: 1 hr 56 min 50 sec) 
Heartbeat CPU 4 instructions: 180000000 cycles: 300852603 heartbeat IPC: 0.601393 cumulative IPC: 0.53775 (Simulation time: 1 hr 58 min 14 sec) 
Heartbeat CPU 5 instructions: 400000000 cycles: 301053863 heartbeat IPC: 0.536428 cumulative IPC: 1.26946 (Simulation time: 1 hr 58 min 18 sec) 
Heartbeat CPU 6 instructions: 190000001 cycles: 302457472 heartbeat IPC: 0.580463 cumulative IPC: 0.577717 (Simulation time: 1 hr 58 min 46 sec) 
Heartbeat CPU 2 instructions: 270000000 cycles: 306597087 heartbeat IPC: 0.847632 cumulative IPC: 0.85007 (Simulation time: 2 hr 0 min 7 sec) 
Heartbeat CPU 0 instructions: 310000001 cycles: 306689669 heartbeat IPC: 1.01304 cumulative IPC: 0.971337 (Simulation time: 2 hr 0 min 9 sec) 
Heartbeat CPU 3 instructions: 220000000 cycles: 311164798 heartbeat IPC: 0.492691 cumulative IPC: 0.612506 (Simulation time: 2 hr 1 min 36 sec) 
Heartbeat CPU 0 instructions: 320000000 cycles: 316530268 heartbeat IPC: 1.0162 cumulative IPC: 0.97279 (Simulation time: 2 hr 3 min 20 sec) 
Heartbeat CPU 4 instructions: 190000003 cycles: 316834367 heartbeat IPC: 0.625713 cumulative IPC: 0.542369 (Simulation time: 2 hr 3 min 26 sec) 
Heartbeat CPU 2 instructions: 280000000 cycles: 318374356 heartbeat IPC: 0.849093 cumulative IPC: 0.850033 (Simulation time: 2 hr 3 min 55 sec) 
Heartbeat CPU 5 instructions: 410000001 cycles: 319670324 heartbeat IPC: 0.537159 cumulative IPC: 1.22508 (Simulation time: 2 hr 4 min 20 sec) 
Heartbeat CPU 6 instructions: 200000000 cycles: 319839119 heartbeat IPC: 0.575319 cumulative IPC: 0.577581 (Simulation time: 2 hr 4 min 23 sec) 
Heartbeat CPU 0 instructions: 330000000 cycles: 326494260 heartbeat IPC: 1.00361 cumulative IPC: 0.973768 (Simulation time: 2 hr 6 min 33 sec) 
Heartbeat CPU 1 instructions: 100000000 cycles: 326746630 heartbeat IPC: 0.235827 cumulative IPC: 0.254518 (Simulation time: 2 hr 6 min 37 sec) 
Heartbeat CPU 2 instructions: 290000000 cycles: 331126436 heartbeat IPC: 0.784186 cumulative IPC: 0.847397 (Simulation time: 2 hr 8 min 0 sec) 
Heartbeat CPU 3 instructions: 230000001 cycles: 334271457 heartbeat IPC: 0.432776 cumulative IPC: 0.599599 (Simulation time: 2 hr 8 min 58 sec) 
Heartbeat CPU 0 instructions: 340000000 cycles: 336808164 heartbeat IPC: 0.969565 cumulative IPC: 0.973634 (Simulation time: 2 hr 9 min 48 sec) 
Heartbeat CPU 6 instructions: 210000003 cycles: 337213923 heartbeat IPC: 0.575546 cumulative IPC: 0.577472 (Simulation time: 2 hr 9 min 55 sec) 
Heartbeat CPU 4 instructions: 200000000 cycles: 337282534 heartbeat IPC: 0.489041 cumulative IPC: 0.539012 (Simulation time: 2 hr 9 min 56 sec) 
Heartbeat CPU 5 instructions: 420000000 cycles: 338358164 heartbeat IPC: 0.535107 cumulative IPC: 1.18551 (Simulation time: 2 hr 10 min 17 sec) 
Heartbeat CPU 7 instructions: 90000002 cycles: 340497456 heartbeat IPC: 0.199025 cumulative IPC: 0.211997 (Simulation time: 2 hr 10 min 59 sec) 
Heartbeat CPU 2 instructions: 300000000 cycles: 344157620 heartbeat IPC: 0.76739 cumulative IPC: 0.844254 (Simulation time: 2 hr 12 min 6 sec) 
Heartbeat CPU 0 instructions: 350000003 cycles: 346488252 heartbeat IPC: 1.03305 cumulative IPC: 0.975356 (Simulation time: 2 hr 12 min 50 sec) 
Heartbeat CPU 3 instructions: 240000000 cycles: 350386078 heartbeat IPC: 0.620554 cumulative IPC: 0.600599 (Simulation time: 2 hr 14 min 4 sec) 
Heartbeat CPU 6 instructions: 220000000 cycles: 354144057 heartbeat IPC: 0.590663 cumulative IPC: 0.578126 (Simulation time: 2 hr 15 min 16 sec) 
Heartbeat CPU 2 instructions: 310000000 cycles: 355696177 heartbeat IPC: 0.86666 cumulative IPC: 0.845007 (Simulation time: 2 hr 15 min 45 sec) 
Heartbeat CPU 5 instructions: 430000001 cycles: 357016562 heartbeat IPC: 0.535952 cumulative IPC: 1.15033 (Simulation time: 2 hr 16 min 11 sec) 
Heartbeat CPU 0 instructions: 360000000 cycles: 357155895 heartbeat IPC: 0.937414 cumulative IPC: 0.974182 (Simulation time: 2 hr 16 min 14 sec) 
Heartbeat CPU 4 instructions: 210000000 cycles: 361687580 heartbeat IPC: 0.409751 cumulative IPC: 0.529977 (Simulation time: 2 hr 17 min 40 sec) 
Heartbeat CPU 1 instructions: 110000000 cycles: 362030216 heartbeat IPC: 0.283418 cumulative IPC: 0.257435 (Simulation time: 2 hr 17 min 47 sec) 
Heartbeat CPU 3 instructions: 250000003 cycles: 363443731 heartbeat IPC: 0.765835 cumulative IPC: 0.606747 (Simulation time: 2 hr 18 min 13 sec) 
Heartbeat CPU 2 instructions: 320000000 cycles: 366876809 heartbeat IPC: 0.894404 cumulative IPC: 0.846566 (Simulation time: 2 hr 19 min 20 sec) 
Heartbeat CPU 0 instructions: 370000002 cycles: 369485188 heartbeat IPC: 0.811077 cumulative IPC: 0.968548 (Simulation time: 2 hr 20 min 10 sec) 
Heartbeat CPU 6 instructions: 230000003 cycles: 370615988 heartbeat IPC: 0.607094 cumulative IPC: 0.579458 (Simulation time: 2 hr 20 min 32 sec) 
Heartbeat CPU 5 instructions: 440000000 cycles: 375639071 heartbeat IPC: 0.536985 cumulative IPC: 1.11888 (Simulation time: 2 hr 22 min 7 sec) 
Heartbeat CPU 3 instructions: 260000000 cycles: 377022071 heartbeat IPC: 0.736467 cumulative IPC: 0.611579 (Simulation time: 2 hr 22 min 34 sec) 
Heartbeat CPU 2 instructions: 330000000 cycles: 378096823 heartbeat IPC: 0.891264 cumulative IPC: 0.847937 (Simulation time: 2 hr 22 min 54 sec) 
Heartbeat CPU 0 instructions: 380000000 cycles: 381812517 heartbeat IPC: 0.811206 cumulative IPC: 0.963296 (Simulation time: 2 hr 24 min 6 sec) 
Heartbeat CPU 7 instructions: 100000000 cycles: 383233760 heartbeat IPC: 0.233993 cumulative IPC: 0.214533 (Simulation time: 2 hr 24 min 34 sec) 
Heartbeat CPU 4 instructions: 220000000 cycles: 384183908 heartbeat IPC: 0.444517 cumulative IPC: 0.524805 (Simulation time: 2 hr 24 min 53 sec) 
Heartbeat CPU 6 instructions: 240000000 cycles: 387734489 heartbeat IPC: 0.584163 cumulative IPC: 0.579673 (Simulation time: 2 hr 26 min 2 sec) 
Heartbeat CPU 2 instructions: 340000000 cycles: 389606442 heartbeat IPC: 0.868838 cumulative IPC: 0.848575 (Simulation time: 2 hr 26 min 38 sec) 
Heartbeat CPU 1 instructions: 120000000 cycles: 391504854 heartbeat IPC: 0.339275 cumulative IPC: 0.2638 (Simulation time: 2 hr 27 min 14 sec) 
Finished CPU 1 instructions: 100000000 cycles: 379064822 cumulative IPC: 0.263807 (Simulation time: 2 hr 27 min 15 sec) 
Heartbeat CPU 3 instructions: 270000003 cycles: 392029475 heartbeat IPC: 0.666338 cumulative IPC: 0.613744 (Simulation time: 2 hr 27 min 24 sec) 
Heartbeat CPU 5 instructions: 450000000 cycles: 394306180 heartbeat IPC: 0.535702 cumulative IPC: 1.09036 (Simulation time: 2 hr 28 min 8 sec) 
Heartbeat CPU 0 instructions: 390000002 cycles: 394598594 heartbeat IPC: 0.782101 cumulative IPC: 0.957233 (Simulation time: 2 hr 28 min 13 sec) 
Heartbeat CPU 2 instructions: 350000000 cycles: 401342042 heartbeat IPC: 0.852108 cumulative IPC: 0.848682 (Simulation time: 2 hr 30 min 20 sec) 
Heartbeat CPU 6 instructions: 250000003 cycles: 405053120 heartbeat IPC: 0.577413 cumulative IPC: 0.579573 (Simulation time: 2 hr 31 min 32 sec) 
Heartbeat CPU 4 instructions: 230000000 cycles: 405207689 heartbeat IPC: 0.475652 cumulative IPC: 0.522173 (Simulation time: 2 hr 31 min 35 sec) 
Heartbeat CPU 0 instructions: 400000000 cycles: 405478839 heartbeat IPC: 0.919097 cumulative IPC: 0.956177 (Simulation time: 2 hr 31 min 40 sec) 
Heartbeat CPU 3 instructions: 280000000 cycles: 408920317 heartbeat IPC: 0.592037 cumulative IPC: 0.612819 (Simulation time: 2 hr 32 min 47 sec) 
Heartbeat CPU 5 instructions: 460000000 cycles: 412972711 heartbeat IPC: 0.535718 cumulative IPC: 1.06451 (Simulation time: 2 hr 34 min 6 sec) 
Heartbeat CPU 2 instructions: 360000000 cycles: 413037639 heartbeat IPC: 0.855023 cumulative IPC: 0.848867 (Simulation time: 2 hr 34 min 7 sec) 
Heartbeat CPU 0 instructions: 410000003 cycles: 415038308 heartbeat IPC: 1.04608 cumulative IPC: 0.958312 (Simulation time: 2 hr 34 min 46 sec) 
Heartbeat CPU 6 instructions: 260000000 cycles: 422621956 heartbeat IPC: 0.569189 cumulative IPC: 0.579128 (Simulation time: 2 hr 37 min 16 sec) 
Heartbeat CPU 4 instructions: 240000000 cycles: 423486452 heartbeat IPC: 0.547083 cumulative IPC: 0.523281 (Simulation time: 2 hr 37 min 33 sec) 
Heartbeat CPU 3 instructions: 290000000 cycles: 424243214 heartbeat IPC: 0.652618 cumulative IPC: 0.6143 (Simulation time: 2 hr 37 min 48 sec) 
Heartbeat CPU 2 instructions: 370000000 cycles: 424425967 heartbeat IPC: 0.878092 cumulative IPC: 0.849675 (Simulation time: 2 hr 37 min 52 sec) 
Heartbeat CPU 0 instructions: 420000000 cycles: 424515168 heartbeat IPC: 1.0552 cumulative IPC: 0.960541 (Simulation time: 2 hr 37 min 53 sec) 
Heartbeat CPU 1 instructions: 130000003 cycles: 425577330 heartbeat IPC: 0.293492 cumulative IPC: 0.266249 (Simulation time: 2 hr 38 min 14 sec) 
Heartbeat CPU 7 instructions: 110000000 cycles: 428287040 heartbeat IPC: 0.221959 cumulative IPC: 0.215337 (Simulation time: 2 hr 39 min 9 sec) 
Heartbeat CPU 5 instructions: 470000003 cycles: 431596210 heartbeat IPC: 0.536956 cumulative IPC: 1.04107 (Simulation time: 2 hr 40 min 15 sec) 
Heartbeat CPU 0 instructions: 430000003 cycles: 433938862 heartbeat IPC: 1.06116 cumulative IPC: 0.962791 (Simulation time: 2 hr 41 min 2 sec) 
Heartbeat CPU 2 instructions: 380000000 cycles: 435470175 heartbeat IPC: 0.905452 cumulative IPC: 0.851131 (Simulation time: 2 hr 41 min 33 sec) 
Heartbeat CPU 3 instructions: 300000000 cycles: 438088197 heartbeat IPC: 0.722283 cumulative IPC: 0.617813 (Simulation time: 2 hr 42 min 26 sec) 
Heartbeat CPU 4 instructions: 250000003 cycles: 439211689 heartbeat IPC: 0.635921 cumulative IPC: 0.527432 (Simulation time: 2 hr 42 min 48 sec) 
Heartbeat CPU 6 instructions: 270000003 cycles: 439877256 heartbeat IPC: 0.579532 cumulative IPC: 0.579145 (Simulation time: 2 hr 43 min 2 sec) 
Heartbeat CPU 0 instructions: 440000000 cycles: 443374991 heartbeat IPC: 1.05976 cumulative IPC: 0.964914 (Simulation time: 2 hr 44 min 11 sec) 
Heartbeat CPU 2 instructions: 390000000 cycles: 446628560 heartbeat IPC: 0.896187 cumulative IPC: 0.85229 (Simulation time: 2 hr 45 min 16 sec) 
Heartbeat CPU 5 instructions: 480000000 cycles: 450253367 heartbeat IPC: 0.535987 cumulative IPC: 1.01954 (Simulation time: 2 hr 46 min 28 sec) 
Heartbeat CPU 3 instructions: 310000003 cycles: 452159890 heartbeat IPC: 0.710647 cumulative IPC: 0.620784 (Simulation time: 2 hr 47 min 6 sec) 
Heartbeat CPU 0 instructions: 450000000 cycles: 452830725 heartbeat IPC: 1.05756 cumulative IPC: 0.966904 (Simulation time: 2 hr 47 min 19 sec) 
Heartbeat CPU 1 instructions: 140000000 cycles: 454601676 heartbeat IPC: 0.344538 cumulative IPC: 0.271389 (Simulation time: 2 hr 47 min 54 sec) 
Heartbeat CPU 6 instructions: 280000000 cycles: 456898100 heartbeat IPC: 0.587515 cumulative IPC: 0.579465 (Simulation time: 2 hr 48 min 39 sec) 
Heartbeat CPU 4 instructions: 260000000 cycles: 457306306 heartbeat IPC: 0.55265 cumulative IPC: 0.528458 (Simulation time: 2 hr 48 min 47 sec) 
Heartbeat CPU 2 instructions: 400000000 cycles: 457728844 heartbeat IPC: 0.900878 cumulative IPC: 0.853501 (Simulation time: 2 hr 48 min 56 sec) 
Heartbeat CPU 0 instructions: 460000000 cycles: 462251724 heartbeat IPC: 1.06146 cumulative IPC: 0.968884 (Simulation time: 2 hr 50 min 25 sec) 
Heartbeat CPU 3 instructions: 320000000 cycles: 465793736 heartbeat IPC: 0.733469 cumulative IPC: 0.624174 (Simulation time: 2 hr 51 min 35 sec) 
Heartbeat CPU 2 instructions: 410000002 cycles: 468822489 heartbeat IPC: 0.901417 cumulative IPC: 0.854666 (Simulation time: 2 hr 52 min 35 sec) 
Heartbeat CPU 5 instructions: 490000001 cycles: 468893268 heartbeat IPC: 0.536484 cumulative IPC: 0.999812 (Simulation time: 2 hr 52 min 36 sec) 
Heartbeat CPU 7 instructions: 120000000 cycles: 469538173 heartbeat IPC: 0.242418 cumulative IPC: 0.217781 (Simulation time: 2 hr 52 min 49 sec) 
Finished CPU 7 instructions: 100000002 cycles: 458538208 cumulative IPC: 0.218084 (Simulation time: 2 hr 53 min 19 sec) 

CPU 0 Branch Prediction Accuracy: 99.1415% MPKI: 0.19584

CPU 1 Branch Prediction Accuracy: 95.7226% MPKI: 7.85092

CPU 2 Branch Prediction Accuracy: 99.5862% MPKI: 0.181506

CPU 3 Branch Prediction Accuracy: 99.9991% MPKI: 0.000266553

CPU 4 Branch Prediction Accuracy: 96.2824% MPKI: 6.6498

CPU 5 Branch Prediction Accuracy: 99.4606% MPKI: 0.326288

CPU 6 Branch Prediction Accuracy: 92.0072% MPKI: 16.2525

CPU 7 Branch Prediction Accuracy: 97.205% MPKI: 5.0568

ChampSim completed all CPUs

Total Simulation Statistics (not including warmup)

CPU 0 cumulative IPC: 0.970627 instructions: 445069738 cycles: 458538207
L1D TOTAL     ACCESS:  137740987  HIT:  133313983  MISS:    4427004
L1D LOAD      ACCESS:  127666387  HIT:  124415573  MISS:    3250814
L1D RFO       ACCESS:   10074600  HIT:    8898410  MISS:    1176190
L1D PREFETCH  ACCESS:          0  HIT:          0  MISS:          0
L1D WRITEBACK ACCESS:          0  HIT:          0  MISS:          0
L1I TOTAL     ACCESS:  105249067  HIT:  105248799  MISS:        268
L1I LOAD      ACCESS:  105249067  HIT:  105248799  MISS:        268
L1I RFO       ACCESS:          0  HIT:          0  MISS:          0
L1I PREFETCH  ACCESS:          0  HIT:          0  MISS:          0
L1I WRITEBACK ACCESS:          0  HIT:          0  MISS:          0
L2C TOTAL     ACCESS:    9794942  HIT:    6582343  MISS:    3212599
L2C LOAD      ACCESS:    3251066  HIT:    2272523  MISS:     978543
L2C RFO       ACCESS:    1174752  HIT:     366050  MISS:     808702
L2C PREFETCH  ACCESS:    3936068  HIT:    2510795  MISS:    1425273
L2C WRITEBACK ACCESS:    1433056  HIT:    1432975  MISS:         81
LLC TOTAL     ACCESS:   15286457  HIT:   12164357  MISS:    3122100
LLC LOAD      ACCESS:     929928  HIT:     859244  MISS:      70684
LLC RFO       ACCESS:     808702  HIT:      44133  MISS:     764569
LLC PREFETCH  ACCESS:   12669585  HIT:   10384824  MISS:    2284761
LLC WRITEBACK ACCESS:     878242  HIT:     876156  MISS:       2086

CPU 1 cumulative IPC: 0.274703 instructions: 125961918 cycles: 458538207
L1D TOTAL     ACCESS:   37223919  HIT:   33711684  MISS:    3512235
L1D LOAD      ACCESS:   22018281  HIT:   19825887  MISS:    2192394
L1D RFO       ACCESS:   15205638  HIT:   13885797  MISS:    1319841
L1D PREFETCH  ACCESS:          0  HIT:          0  MISS:          0
L1D WRITEBACK ACCESS:          0  HIT:          0  MISS:          0
L1I TOTAL     ACCESS:   36210244  HIT:   36207736  MISS:       2508
L1I LOAD      ACCESS:   36210244  HIT:   36207736  MISS:       2508
L1I RFO       ACCESS:          0  HIT:          0  MISS:          0
L1I PREFETCH  ACCESS:          0  HIT:          0  MISS:          0
L1I WRITEBACK ACCESS:          0  HIT:          0  MISS:          0
L2C TOTAL     ACCESS:    5441032  HIT:    2509217  MISS:    2931815
L2C LOAD      ACCESS:    2194902  HIT:     721242  MISS:    1473660
L2C RFO       ACCESS:    1319836  HIT:       5867  MISS:    1313969
L2C PREFETCH  ACCESS:     496715  HIT:     353177  MISS:     143538
L2C WRITEBACK ACCESS:    1429579  HIT:    1428931  MISS:        648
LLC TOTAL     ACCESS:    6756033  HIT:    4371983  MISS:    2384050
LLC LOAD      ACCESS:    1472995  HIT:    1040936  MISS:     432059
LLC RFO       ACCESS:    1313295  HIT:      14636  MISS:    1298659
LLC PREFETCH  ACCESS:    2557641  HIT:    1906000  MISS:     651641
LLC WRITEBACK ACCESS:    1412102  HIT:    1410411  MISS:       1691

CPU 2 cumulative IPC: 0.854898 instructions: 392003585 cycles: 458538207
L1D TOTAL     ACCESS:  148199889  HIT:  146345351  MISS:    1854538
L1D LOAD      ACCESS:  117932300  HIT:  117121806  MISS:     810494
L1D RFO       ACCESS:   30267589  HIT:   29223545  MISS:    1044044
L1D PREFETCH  ACCESS:          0  HIT:          0  MISS:          0
L1D WRITEBACK ACCESS:          0  HIT:          0  MISS:          0
L1I TOTAL     ACCESS:  106394604  HIT:  106394577  MISS:         27
L1I LOAD      ACCESS:  106394604  HIT:  106394577  MISS:         27
L1I RFO       ACCESS:          0  HIT:          0  MISS:          0
L1I PREFETCH  ACCESS:          0  HIT:          0  MISS:          0
L1I WRITEBACK ACCESS:          0  HIT:          0  MISS:          0
L2C TOTAL     ACCESS:    5984237  HIT:    4847127  MISS:    1137110
L2C LOAD      ACCESS:     809645  HIT:     751024  MISS:      58621
L2C RFO       ACCESS:    1044043  HIT:       2282  MISS:    1041761
L2C PREFETCH  ACCESS:    3083032  HIT:    3046425  MISS:      36607
L2C WRITEBACK ACCESS:    1047517  HIT:    1047396  MISS:        121
LLC TOTAL     ACCESS:    2554861  HIT:    1480964  MISS:    1073897
LLC LOAD      ACCESS:      58374  HIT:      44340  MISS:      14034
LLC RFO       ACCESS:    1041751  HIT:      34417  MISS:    1007334
LLC PREFETCH  ACCESS:     410343  HIT:     364489  MISS:      45854
LLC WRITEBACK ACCESS:    1044393  HIT:    1037718  MISS:       6675

CPU 3 cumulative IPC: 0.625489 instructions: 286810814 cycles: 458538208
L1D TOTAL     ACCESS:   40486328  HIT:   35802646  MISS:    4683682
L1D LOAD      ACCESS:   29230523  HIT:   25654139  MISS:    3576384
L1D RFO       ACCESS:   11255805  HIT:   10148507  MISS:    1107298
L1D PREFETCH  ACCESS:          0  HIT:          0  MISS:          0
L1D WRITEBACK ACCESS:          0  HIT:          0  MISS:          0
L1I TOTAL     ACCESS:   65348772  HIT:   65348693  MISS:         79
L1I LOAD      ACCESS:   65348772  HIT:   65348693  MISS:         79
L1I RFO       ACCESS:          0  HIT:          0  MISS:          0
L1I PREFETCH  ACCESS:          0  HIT:          0  MISS:          0
L1I WRITEBACK ACCESS:          0  HIT:          0  MISS:          0
L2C TOTAL     ACCESS:    7308703  HIT:    2558635  MISS:    4750068
L2C LOAD      ACCESS:    3576463  HIT:     795851  MISS:    2780612
L2C RFO       ACCESS:    1107298  HIT:          0  MISS:    1107298
L2C PREFETCH  ACCESS:     971437  HIT:     110684  MISS:     860753
L2C WRITEBACK ACCESS:    1653505  HIT:    1652100  MISS:       1405
LLC TOTAL     ACCESS:   12852102  HIT:    7446048  MISS:    5406054
LLC LOAD      ACCESS:    2518263  HIT:    1598696  MISS:     919567
LLC RFO       ACCESS:    1107298  HIT:        849  MISS:    1106449
LLC PREFETCH  ACCESS:    7570726  HIT:    4196648  MISS:    3374078
LLC WRITEBACK ACCESS:    1655815  HIT:    1649855  MISS:       5960

CPU 4 cumulative IPC: 0.526335 instructions: 241344735 cycles: 458538208
L1D TOTAL     ACCESS:   33388644  HIT:   27357529  MISS:    6031115
L1D LOAD      ACCESS:   27566663  HIT:   21535589  MISS:    6031074
L1D RFO       ACCESS:    5821981  HIT:    5821940  MISS:         41
L1D PREFETCH  ACCESS:          0  HIT:          0  MISS:          0
L1D WRITEBACK ACCESS:          0  HIT:          0  MISS:          0
L1I TOTAL     ACCESS:   67734107  HIT:   67734094  MISS:         13
L1I LOAD      ACCESS:   67734107  HIT:   67734094  MISS:         13
L1I RFO       ACCESS:          0  HIT:          0  MISS:          0
L1I PREFETCH  ACCESS:          0  HIT:          0  MISS:          0
L1I WRITEBACK ACCESS:          0  HIT:          0  MISS:          0
L2C TOTAL     ACCESS:    9813609  HIT:    3782472  MISS:    6031137
L2C LOAD      ACCESS:    6031087  HIT:    1586949  MISS:    4444138
L2C RFO       ACCESS:         41  HIT:          0  MISS:         41
L2C PREFETCH  ACCESS:    1588608  HIT:       1650  MISS:    1586958
L2C WRITEBACK ACCESS:    2193873  HIT:    2193873  MISS:          0
LLC TOTAL     ACCESS:   19215697  HIT:   13184434  MISS:    6031263
LLC LOAD      ACCESS:    3205156  HIT:    2524210  MISS:     680946
LLC RFO       ACCESS:         41  HIT:          0  MISS:         41
LLC PREFETCH  ACCESS:   13816151  HIT:    8465875  MISS:    5350276
LLC WRITEBACK ACCESS:    2194349  HIT:    2194349  MISS:          0

CPU 5 cumulative IPC: 0.997631 instructions: 457452077 cycles: 458538208
L1D TOTAL     ACCESS:   92593572  HIT:   89341506  MISS:    3252066
L1D LOAD      ACCESS:   68905392  HIT:   66375089  MISS:    2530303
L1D RFO       ACCESS:   23688180  HIT:   22966417  MISS:     721763
L1D PREFETCH  ACCESS:          0  HIT:          0  MISS:          0
L1D WRITEBACK ACCESS:          0  HIT:          0  MISS:          0
L1I TOTAL     ACCESS:  122855475  HIT:  122855085  MISS:        390
L1I LOAD      ACCESS:  122855475  HIT:  122855085  MISS:        390
L1I RFO       ACCESS:          0  HIT:          0  MISS:          0
L1I PREFETCH  ACCESS:          0  HIT:          0  MISS:          0
L1I WRITEBACK ACCESS:          0  HIT:          0  MISS:          0
L2C TOTAL     ACCESS:   10030501  HIT:    7854413  MISS:    2176088
L2C LOAD      ACCESS:    2530658  HIT:    1852538  MISS:     678120
L2C RFO       ACCESS:     721762  HIT:     250705  MISS:     471057
L2C PREFETCH  ACCESS:    5564841  HIT:    4538202  MISS:    1026639
L2C WRITEBACK ACCESS:    1213240  HIT:    1212968  MISS:        272
LLC TOTAL     ACCESS:   10695900  HIT:    8707276  MISS:    1988624
LLC LOAD      ACCESS:     598665  HIT:     533168  MISS:      65497
LLC RFO       ACCESS:     471057  HIT:      95006  MISS:     376051
LLC PREFETCH  ACCESS:    8713063  HIT:    7192898  MISS:    1520165
LLC WRITEBACK ACCESS:     913115  HIT:     886204  MISS:      26911

CPU 6 cumulative IPC: 0.579996 instructions: 265950338 cycles: 458538208
L1D TOTAL     ACCESS:   71252240  HIT:   70895679  MISS:     356561
L1D LOAD      ACCESS:   48344770  HIT:   48119192  MISS:     225578
L1D RFO       ACCESS:   22907470  HIT:   22776487  MISS:     130983
L1D PREFETCH  ACCESS:          0  HIT:          0  MISS:          0
L1D WRITEBACK ACCESS:          0  HIT:          0  MISS:          0
L1I TOTAL     ACCESS:   60576189  HIT:   60563642  MISS:      12547
L1I LOAD      ACCESS:   60576189  HIT:   60563642  MISS:      12547
L1I RFO       ACCESS:          0  HIT:          0  MISS:          0
L1I PREFETCH  ACCESS:          0  HIT:          0  MISS:          0
L1I WRITEBACK ACCESS:          0  HIT:          0  MISS:          0
L2C TOTAL     ACCESS:     686575  HIT:     583069  MISS:     103506
L2C LOAD      ACCESS:     238121  HIT:     148121  MISS:      90000
L2C RFO       ACCESS:     130935  HIT:     122314  MISS:       8621
L2C PREFETCH  ACCESS:     100280  HIT:      95810  MISS:       4470
L2C WRITEBACK ACCESS:     217239  HIT:     216824  MISS:        415
LLC TOTAL     ACCESS:     317468  HIT:      50629  MISS:     266839
LLC LOAD      ACCESS:      89982  HIT:       1899  MISS:      88083
LLC RFO       ACCESS:       8619  HIT:       1574  MISS:       7045
LLC PREFETCH  ACCESS:     140084  HIT:      42259  MISS:      97825
LLC WRITEBACK ACCESS:      78783  HIT:       4897  MISS:      73886

CPU 7 cumulative IPC: 0.218084 instructions: 100000002 cycles: 458538208
L1D TOTAL     ACCESS:   34842489  HIT:   32376789  MISS:    2465700
L1D LOAD      ACCESS:   19198285  HIT:   17069453  MISS:    2128832
L1D RFO       ACCESS:   15644204  HIT:   15307336  MISS:     336868
L1D PREFETCH  ACCESS:          0  HIT:          0  MISS:          0
L1D WRITEBACK ACCESS:          0  HIT:          0  MISS:          0
L1I TOTAL     ACCESS:   29981755  HIT:   29978764  MISS:       2991
L1I LOAD      ACCESS:   29981755  HIT:   29978764  MISS:       2991
L1I RFO       ACCESS:          0  HIT:          0  MISS:          0
L1I PREFETCH  ACCESS:          0  HIT:          0  MISS:          0
L1I WRITEBACK ACCESS:          0  HIT:          0  MISS:          0
L2C TOTAL     ACCESS:    3807847  HIT:    1583757  MISS:    2224090
L2C LOAD      ACCESS:    2131693  HIT:     311242  MISS:    1820451
L2C RFO       ACCESS:     336862  HIT:      15866  MISS:     320996
L2C PREFETCH  ACCESS:     290220  HIT:     211552  MISS:      78668
L2C WRITEBACK ACCESS:    1049072  HIT:    1045097  MISS:       3975
LLC TOTAL     ACCESS:    5031319  HIT:    2332373  MISS:    2698946
LLC LOAD      ACCESS:    1804515  HIT:     700367  MISS:    1104148
LLC RFO       ACCESS:     320835  HIT:      70998  MISS:     249837
LLC PREFETCH  ACCESS:    1973328  HIT:     630938  MISS:    1342390
LLC WRITEBACK ACCESS:     932641  HIT:     930070  MISS:       2571

Region of Interest Statistics

CPU 0 cumulative IPC: 0.837075 instructions: 100000001 cycles: 119463627
L1D TOTAL     ACCESS:   31216939  HIT:   30341132  MISS:     875807
L1D LOAD      ACCESS:   29975643  HIT:   29365215  MISS:     610428
L1D RFO       ACCESS:    1241296  HIT:     975917  MISS:     265379
L1D PREFETCH  ACCESS:          0  HIT:          0  MISS:          0
L1D WRITEBACK ACCESS:          0  HIT:          0  MISS:          0
L1D PREFETCH  REQUESTED:          0  ISSUED:          0  USEFUL:          0  USELESS:          0
L1I TOTAL     ACCESS:   22397426  HIT:   22397344  MISS:         82
L1I LOAD      ACCESS:   22397426  HIT:   22397344  MISS:         82
L1I RFO       ACCESS:          0  HIT:          0  MISS:          0
L1I PREFETCH  ACCESS:          0  HIT:          0  MISS:          0
L1I WRITEBACK ACCESS:          0  HIT:          0  MISS:          0
L1I PREFETCH  REQUESTED:          0  ISSUED:          0  USEFUL:          0  USELESS:          0
L2C TOTAL     ACCESS:    1546700  HIT:     709886  MISS:     836814
L2C LOAD      ACCESS:     610507  HIT:     385588  MISS:     224919
L2C RFO       ACCESS:     263987  HIT:       8925  MISS:     255062
L2C PREFETCH  ACCESS:     403044  HIT:      46224  MISS:     356820
L2C WRITEBACK ACCESS:     269162  HIT:     269149  MISS:         13
L2C PREFETCH  REQUESTED:   16650284  ISSUED:   16644117  USEFUL:    1461714  USELESS:       1158
LLC TOTAL     ACCESS:    3941194  HIT:    3102283  MISS:     838911
LLC LOAD      ACCESS:     187906  HIT:     172714  MISS:      15192
LLC RFO       ACCESS:     255062  HIT:          1  MISS:     255061
LLC PREFETCH  ACCESS:    3241872  HIT:    2673221  MISS:     568651
LLC WRITEBACK ACCESS:     256354  HIT:     256347  MISS:          7
LLC PREFETCH  REQUESTED:          0  ISSUED:          0  USEFUL:    6680619  USELESS:    9561451
Major fault: 0 Minor fault: 14591

CPU 1 cumulative IPC: 0.263807 instructions: 100000000 cycles: 379064822
L1D TOTAL     ACCESS:   28535400  HIT:   25234307  MISS:    3301093
L1D LOAD      ACCESS:   17071737  HIT:   15089875  MISS:    1981862
L1D RFO       ACCESS:   11463663  HIT:   10144432  MISS:    1319231
L1D PREFETCH  ACCESS:          0  HIT:          0  MISS:          0
L1D WRITEBACK ACCESS:          0  HIT:          0  MISS:          0
L1D PREFETCH  REQUESTED:          0  ISSUED:          0  USEFUL:          0  USELESS:          0
L1I TOTAL     ACCESS:   28138129  HIT:   28135646  MISS:       2483
L1I LOAD      ACCESS:   28138129  HIT:   28135646  MISS:       2483
L1I RFO       ACCESS:          0  HIT:          0  MISS:          0
L1I PREFETCH  ACCESS:          0  HIT:          0  MISS:          0
L1I WRITEBACK ACCESS:          0  HIT:          0  MISS:          0
L1I PREFETCH  REQUESTED:          0  ISSUED:          0  USEFUL:          0  USELESS:          0
L2C TOTAL     ACCESS:    5164152  HIT:    2442829  MISS:    2721323
L2C LOAD      ACCESS:    1984345  HIT:     702902  MISS:    1281443
L2C RFO       ACCESS:    1319226  HIT:       5757  MISS:    1313469
L2C PREFETCH  ACCESS:     454875  HIT:     328974  MISS:     125901
L2C WRITEBACK ACCESS:    1405706  HIT:    1405196  MISS:        510
L2C PREFETCH  REQUESTED:    3232613  ISSUED:    3232524  USEFUL:     110163  USELESS:      44222
LLC TOTAL     ACCESS:    6258669  HIT:    4080493  MISS:    2178176
LLC LOAD      ACCESS:    1280790  HIT:     933103  MISS:     347687
LLC RFO       ACCESS:    1312795  HIT:      14614  MISS:    1298181
LLC PREFETCH  ACCESS:    2276739  HIT:    1745862  MISS:     530877
LLC WRITEBACK ACCESS:    1388345  HIT:    1386914  MISS:       1431
LLC PREFETCH  REQUESTED:          0  ISSUED:          0  USEFUL:    6680619  USELESS:    9561451
Major fault: 0 Minor fault: 32683

CPU 2 cumulative IPC: 0.801093 instructions: 100000000 cycles: 124829421
L1D TOTAL     ACCESS:   37724928  HIT:   37256585  MISS:     468343
L1D LOAD      ACCESS:   30074656  HIT:   29872793  MISS:     201863
L1D RFO       ACCESS:    7650272  HIT:    7383792  MISS:     266480
L1D PREFETCH  ACCESS:          0  HIT:          0  MISS:          0
L1D WRITEBACK ACCESS:          0  HIT:          0  MISS:          0
L1D PREFETCH  REQUESTED:          0  ISSUED:          0  USEFUL:          0  USELESS:          0
L1I TOTAL     ACCESS:   27143472  HIT:   27143449  MISS:         23
L1I LOAD      ACCESS:   27143472  HIT:   27143449  MISS:         23
L1I RFO       ACCESS:          0  HIT:          0  MISS:          0
L1I PREFETCH  ACCESS:          0  HIT:          0  MISS:          0
L1I WRITEBACK ACCESS:          0  HIT:          0  MISS:          0
L1I PREFETCH  REQUESTED:          0  ISSUED:          0  USEFUL:          0  USELESS:          0
L2C TOTAL     ACCESS:    1528882  HIT:    1238355  MISS:     290527
L2C LOAD      ACCESS:     201687  HIT:     186362  MISS:      15325
L2C RFO       ACCESS:     266479  HIT:        406  MISS:     266073
L2C PREFETCH  ACCESS:     793259  HIT:     784167  MISS:       9092
L2C WRITEBACK ACCESS:     267457  HIT:     267420  MISS:         37
L2C PREFETCH  REQUESTED:    3633389  ISSUED:    3633389  USEFUL:      37500  USELESS:       1092
LLC TOTAL     ACCESS:     653164  HIT:     374934  MISS:     278230
LLC LOAD      ACCESS:      15150  HIT:      11247  MISS:       3903
LLC RFO       ACCESS:     266070  HIT:       5711  MISS:     260359
LLC PREFETCH  ACCESS:     104901  HIT:      92408  MISS:      12493
LLC WRITEBACK ACCESS:     267043  HIT:     265568  MISS:       1475
LLC PREFETCH  REQUESTED:          0  ISSUED:          0  USEFUL:    6680619  USELESS:    9561451
Major fault: 0 Minor fault: 1357

CPU 3 cumulative IPC: 0.570447 instructions: 100000002 cycles: 175301129
L1D TOTAL     ACCESS:   13808254  HIT:   12187866  MISS:    1620388
L1D LOAD      ACCESS:   10036777  HIT:    8986580  MISS:    1050197
L1D RFO       ACCESS:    3771477  HIT:    3201286  MISS:     570191
L1D PREFETCH  ACCESS:          0  HIT:          0  MISS:          0
L1D WRITEBACK ACCESS:          0  HIT:          0  MISS:          0
L1D PREFETCH  REQUESTED:          0  ISSUED:          0  USEFUL:          0  USELESS:          0
L1I TOTAL     ACCESS:   22616270  HIT:   22616220  MISS:         50
L1I LOAD      ACCESS:   22616270  HIT:   22616220  MISS:         50
L1I RFO       ACCESS:          0  HIT:          0  MISS:          0
L1I PREFETCH  ACCESS:          0  HIT:          0  MISS:          0
L1I WRITEBACK ACCESS:          0  HIT:          0  MISS:          0
L1I PREFETCH  REQUESTED:          0  ISSUED:          0  USEFUL:          0  USELESS:          0
L2C TOTAL     ACCESS:    2431217  HIT:     779080  MISS:    1652137
L2C LOAD      ACCESS:    1050247  HIT:     142821  MISS:     907426
L2C RFO       ACCESS:     570191  HIT:          0  MISS:     570191
L2C PREFETCH  ACCESS:     174739  HIT:       1229  MISS:     173510
L2C WRITEBACK ACCESS:     636040  HIT:     635030  MISS:       1010
L2C PREFETCH  REQUESTED:   14125602  ISSUED:   14125602  USEFUL:     950066  USELESS:      77772
LLC TOTAL     ACCESS:    3976034  HIT:    2000794  MISS:    1975240
LLC LOAD      ACCESS:     831785  HIT:     503959  MISS:     327826
LLC RFO       ACCESS:     570191  HIT:          3  MISS:     570188
LLC PREFETCH  ACCESS:    1937990  HIT:     864503  MISS:    1073487
LLC WRITEBACK ACCESS:     636068  HIT:     632329  MISS:       3739
LLC PREFETCH  REQUESTED:          0  ISSUED:          0  USEFUL:    6680619  USELESS:    9561451
Major fault: 0 Minor fault: 109242

CPU 4 cumulative IPC: 0.490735 instructions: 100000000 cycles: 203776057
L1D TOTAL     ACCESS:   14297750  HIT:   11771719  MISS:    2526031
L1D LOAD      ACCESS:   11505243  HIT:    8979226  MISS:    2526017
L1D RFO       ACCESS:    2792507  HIT:    2792493  MISS:         14
L1D PREFETCH  ACCESS:          0  HIT:          0  MISS:          0
L1D WRITEBACK ACCESS:          0  HIT:          0  MISS:          0
L1D PREFETCH  REQUESTED:          0  ISSUED:          0  USEFUL:          0  USELESS:          0
L1I TOTAL     ACCESS:   27629528  HIT:   27629519  MISS:          9
L1I LOAD      ACCESS:   27629528  HIT:   27629519  MISS:          9
L1I RFO       ACCESS:          0  HIT:          0  MISS:          0
L1I PREFETCH  ACCESS:          0  HIT:          0  MISS:          0
L1I WRITEBACK ACCESS:          0  HIT:          0  MISS:          0
L1I PREFETCH  REQUESTED:          0  ISSUED:          0  USEFUL:          0  USELESS:          0
L2C TOTAL     ACCESS:    4173963  HIT:    1647919  MISS:    2526044
L2C LOAD      ACCESS:    2526026  HIT:     634116  MISS:    1891910
L2C RFO       ACCESS:         14  HIT:          0  MISS:         14
L2C PREFETCH  ACCESS:     634362  HIT:        242  MISS:     634120
L2C WRITEBACK ACCESS:    1013561  HIT:    1013561  MISS:          0
L2C PREFETCH  REQUESTED:   38998980  ISSUED:   38998980  USEFUL:    1945823  USELESS:         11
LLC TOTAL     ACCESS:    8051430  HIT:    5525333  MISS:    2526097
LLC LOAD      ACCESS:    1349556  HIT:    1041939  MISS:     307617
LLC RFO       ACCESS:         14  HIT:          0  MISS:         14
LLC PREFETCH  ACCESS:    5687636  HIT:    3469170  MISS:    2218466
LLC WRITEBACK ACCESS:    1014224  HIT:    1014224  MISS:          0
LLC PREFETCH  REQUESTED:          0  ISSUED:          0  USEFUL:    6680619  USELESS:    9561451
Major fault: 0 Minor fault: 8200

CPU 5 cumulative IPC: 1.26768 instructions: 100000001 cycles: 78884100
L1D TOTAL     ACCESS:   19858801  HIT:   18923137  MISS:     935664
L1D LOAD      ACCESS:   16179891  HIT:   15437285  MISS:     742606
L1D RFO       ACCESS:    3678910  HIT:    3485852  MISS:     193058
L1D PREFETCH  ACCESS:          0  HIT:          0  MISS:          0
L1D WRITEBACK ACCESS:          0  HIT:          0  MISS:          0
L1D PREFETCH  REQUESTED:          0  ISSUED:          0  USEFUL:          0  USELESS:          0
L1I TOTAL     ACCESS:   20636114  HIT:   20635890  MISS:        224
L1I LOAD      ACCESS:   20636114  HIT:   20635890  MISS:        224
L1I RFO       ACCESS:          0  HIT:          0  MISS:          0
L1I PREFETCH  ACCESS:          0  HIT:          0  MISS:          0
L1I WRITEBACK ACCESS:          0  HIT:          0  MISS:          0
L1I PREFETCH  REQUESTED:          0  ISSUED:          0  USEFUL:          0  USELESS:          0
L2C TOTAL     ACCESS:    3241386  HIT:    2675586  MISS:     565800
L2C LOAD      ACCESS:     742824  HIT:     535425  MISS:     207399
L2C RFO       ACCESS:     193058  HIT:      77532  MISS:     115526
L2C PREFETCH  ACCESS:    1973419  HIT:    1730615  MISS:     242804
L2C WRITEBACK ACCESS:     332085  HIT:     332014  MISS:         71
L2C PREFETCH  REQUESTED:   16696523  ISSUED:   16672006  USEFUL:    1148554  USELESS:       5816
LLC TOTAL     ACCESS:    2639298  HIT:    2095829  MISS:     543469
LLC LOAD      ACCESS:     153679  HIT:     135823  MISS:      17856
LLC RFO       ACCESS:     115526  HIT:      20077  MISS:      95449
LLC PREFETCH  ACCESS:    2128386  HIT:    1699627  MISS:     428759
LLC WRITEBACK ACCESS:     241707  HIT:     240302  MISS:       1405
LLC PREFETCH  REQUESTED:          0  ISSUED:          0  USEFUL:    6680619  USELESS:    9561451
Major fault: 0 Minor fault: 11799

CPU 6 cumulative IPC: 0.577314 instructions: 100000001 cycles: 173216015
L1D TOTAL     ACCESS:   26825247  HIT:   26691454  MISS:     133793
L1D LOAD      ACCESS:   18090739  HIT:   18006911  MISS:      83828
L1D RFO       ACCESS:    8734508  HIT:    8684543  MISS:      49965
L1D PREFETCH  ACCESS:          0  HIT:          0  MISS:          0
L1D WRITEBACK ACCESS:          0  HIT:          0  MISS:          0
L1D PREFETCH  REQUESTED:          0  ISSUED:          0  USEFUL:          0  USELESS:          0
L1I TOTAL     ACCESS:   22897018  HIT:   22891871  MISS:       5147
L1I LOAD      ACCESS:   22897018  HIT:   22891871  MISS:       5147
L1I RFO       ACCESS:          0  HIT:          0  MISS:          0
L1I PREFETCH  ACCESS:          0  HIT:          0  MISS:          0
L1I WRITEBACK ACCESS:          0  HIT:          0  MISS:          0
L1I PREFETCH  REQUESTED:          0  ISSUED:          0  USEFUL:          0  USELESS:          0
L2C TOTAL     ACCESS:     256585  HIT:     218420  MISS:      38165
L2C LOAD      ACCESS:      88973  HIT:      55919  MISS:      33054
L2C RFO       ACCESS:      49951  HIT:      46394  MISS:       3557
L2C PREFETCH  ACCESS:      36065  HIT:      34663  MISS:       1402
L2C WRITEBACK ACCESS:      81596  HIT:      81444  MISS:        152
L2C PREFETCH  REQUESTED:     257687  ISSUED:     257687  USEFUL:        419  USELESS:       4367
LLC TOTAL     ACCESS:     113356  HIT:      17649  MISS:      95707
LLC LOAD      ACCESS:      33047  HIT:        695  MISS:      32352
LLC RFO       ACCESS:       3556  HIT:        683  MISS:       2873
LLC PREFETCH  ACCESS:      47684  HIT:      14910  MISS:      32774
LLC WRITEBACK ACCESS:      29069  HIT:       1361  MISS:      27708
LLC PREFETCH  REQUESTED:          0  ISSUED:          0  USEFUL:    6680619  USELESS:    9561451
Major fault: 0 Minor fault: 29286

CPU 7 cumulative IPC: 0.218084 instructions: 100000002 cycles: 458538208
L1D TOTAL     ACCESS:   34842489  HIT:   32376789  MISS:    2465700
L1D LOAD      ACCESS:   19198285  HIT:   17069453  MISS:    2128832
L1D RFO       ACCESS:   15644204  HIT:   15307336  MISS:     336868
L1D PREFETCH  ACCESS:          0  HIT:          0  MISS:          0
L1D WRITEBACK ACCESS:          0  HIT:          0  MISS:          0
L1D PREFETCH  REQUESTED:          0  ISSUED:          0  USEFUL:          0  USELESS:          0
L1I TOTAL     ACCESS:   29981755  HIT:   29978764  MISS:       2991
L1I LOAD      ACCESS:   29981755  HIT:   29978764  MISS:       2991
L1I RFO       ACCESS:          0  HIT:          0  MISS:          0
L1I PREFETCH  ACCESS:          0  HIT:          0  MISS:          0
L1I WRITEBACK ACCESS:          0  HIT:          0  MISS:          0
L1I PREFETCH  REQUESTED:          0  ISSUED:          0  USEFUL:          0  USELESS:          0
L2C TOTAL     ACCESS:    3807847  HIT:    1583757  MISS:    2224090
L2C LOAD      ACCESS:    2131693  HIT:     311242  MISS:    1820451
L2C RFO       ACCESS:     336862  HIT:      15866  MISS:     320996
L2C PREFETCH  ACCESS:     290220  HIT:     211552  MISS:      78668
L2C WRITEBACK ACCESS:    1049072  HIT:    1045097  MISS:       3975
L2C PREFETCH  REQUESTED:    3556330  ISSUED:    3556325  USEFUL:      45488  USELESS:      53384
LLC TOTAL     ACCESS:    5031319  HIT:    2332373  MISS:    2698946
LLC LOAD      ACCESS:    1804515  HIT:     700367  MISS:    1104148
LLC RFO       ACCESS:     320835  HIT:      70998  MISS:     249837
LLC PREFETCH  ACCESS:    1973328  HIT:     630938  MISS:    1342390
LLC WRITEBACK ACCESS:     932641  HIT:     930070  MISS:       2571
LLC PREFETCH  REQUESTED:          0  ISSUED:          0  USEFUL:    6680619  USELESS:    9561451
Major fault: 0 Minor fault: 33700

DRAM Statistics
 CHANNEL 0
 RQ ROW_BUFFER_HIT:    4034205  ROW_BUFFER_MISS:    7737216
 DBUS_CONGESTED:   22762228
 WQ ROW_BUFFER_HIT:     389947  ROW_BUFFER_MISS:    3904497  FULL:          0

 CHANNEL 1
 RQ ROW_BUFFER_HIT:    3594453  ROW_BUFFER_MISS:    7485709
 DBUS_CONGESTED:   22762228
 WQ ROW_BUFFER_HIT:     414044  ROW_BUFFER_MISS:    3977531  FULL:          0

 AVG_CONGESTED_CYCLE: 13
