Initialize SIGNATURE TABLE
ST_SET: 1
ST_WAY: 256
ST_TAG_BIT: 16
ST_TAG_MASK: ffff

Initialize PATTERN TABLE
PT_SET: 512
PT_WAY: 4
SIG_DELTA_BIT: 7
C_SIG_BIT: 4
C_DELTA_BIT: 4

Initialize PREFETCH FILTER
FILTER_SET: 1024

Initialize PERCEPTRON
PERC_ENTRIES: 4096
PERC_FEATURES: 9

*** ChampSim Multicore Out-of-Order Simulator ***

Warmup Instructions: 200000000
Simulation Instructions: 1000000000
Number of CPUs: 4
LLC sets: 8192
LLC ways: 16
Off-chip DRAM Size: 8192 MB Channels: 2 Width: 64-bit Data Rate: 1600 MT/s

CPU 0 runs /scratch/user/djimenez/champsim-traces/speccpu2017/xz/607.cactuBSSN_s/607.cactuBSSN_s-4004B.champsimtrace.xz
CPU 1 runs /scratch/user/djimenez/champsim-traces/speccpu2017/xz/644.nab_s/644.nab_s-12459B.champsimtrace.xz
CPU 2 runs /scratch/user/djimenez/champsim-traces/speccpu2017/xz/654.roms_s/654.roms_s-1390B.champsimtrace.xz
CPU 3 runs /scratch/user/djimenez/champsim-traces/speccpu2017/xz/623.xalancbmk_s/623.xalancbmk_s-202B.champsimtrace.xz
Heartbeat CPU 3 instructions: 10000000 cycles: 4120194 heartbeat IPC: 2.42707 cumulative IPC: 2.42707 (Simulation time: 0 hr 1 min 33 sec) 
Heartbeat CPU 1 instructions: 10000000 cycles: 4635690 heartbeat IPC: 2.15718 cumulative IPC: 2.15718 (Simulation time: 0 hr 1 min 44 sec) 
Heartbeat CPU 0 instructions: 10000000 cycles: 5802225 heartbeat IPC: 1.72348 cumulative IPC: 1.72348 (Simulation time: 0 hr 2 min 10 sec) 
Heartbeat CPU 2 instructions: 10000001 cycles: 6743969 heartbeat IPC: 1.48281 cumulative IPC: 1.48281 (Simulation time: 0 hr 2 min 31 sec) 
Heartbeat CPU 3 instructions: 20000000 cycles: 8241889 heartbeat IPC: 2.42619 cumulative IPC: 2.42663 (Simulation time: 0 hr 3 min 5 sec) 
Heartbeat CPU 1 instructions: 20000000 cycles: 9297430 heartbeat IPC: 2.14512 cumulative IPC: 2.15113 (Simulation time: 0 hr 3 min 28 sec) 
Heartbeat CPU 0 instructions: 20000000 cycles: 11605106 heartbeat IPC: 1.72328 cumulative IPC: 1.72338 (Simulation time: 0 hr 4 min 20 sec) 
Heartbeat CPU 2 instructions: 20000000 cycles: 11881488 heartbeat IPC: 1.94646 cumulative IPC: 1.68329 (Simulation time: 0 hr 4 min 26 sec) 
Heartbeat CPU 3 instructions: 30000002 cycles: 12356294 heartbeat IPC: 2.43049 cumulative IPC: 2.42791 (Simulation time: 0 hr 4 min 37 sec) 
Heartbeat CPU 1 instructions: 30000001 cycles: 13991724 heartbeat IPC: 2.13025 cumulative IPC: 2.14412 (Simulation time: 0 hr 5 min 14 sec) 
Heartbeat CPU 2 instructions: 30000003 cycles: 16404557 heartbeat IPC: 2.21089 cumulative IPC: 1.82876 (Simulation time: 0 hr 6 min 9 sec) 
Heartbeat CPU 3 instructions: 40000000 cycles: 16466638 heartbeat IPC: 2.43289 cumulative IPC: 2.42915 (Simulation time: 0 hr 6 min 11 sec) 
Heartbeat CPU 0 instructions: 30000001 cycles: 17407731 heartbeat IPC: 1.72336 cumulative IPC: 1.72337 (Simulation time: 0 hr 6 min 33 sec) 
Heartbeat CPU 1 instructions: 40000000 cycles: 18644589 heartbeat IPC: 2.14921 cumulative IPC: 2.14539 (Simulation time: 0 hr 7 min 1 sec) 
Heartbeat CPU 3 instructions: 50000000 cycles: 20587551 heartbeat IPC: 2.42665 cumulative IPC: 2.42865 (Simulation time: 0 hr 7 min 44 sec) 
Heartbeat CPU 2 instructions: 40000000 cycles: 22613894 heartbeat IPC: 1.61048 cumulative IPC: 1.76882 (Simulation time: 0 hr 8 min 29 sec) 
Heartbeat CPU 0 instructions: 40000000 cycles: 23209485 heartbeat IPC: 1.72362 cumulative IPC: 1.72343 (Simulation time: 0 hr 8 min 42 sec) 
Heartbeat CPU 1 instructions: 50000002 cycles: 23345919 heartbeat IPC: 2.12706 cumulative IPC: 2.1417 (Simulation time: 0 hr 8 min 45 sec) 
Heartbeat CPU 3 instructions: 60000000 cycles: 24706918 heartbeat IPC: 2.42756 cumulative IPC: 2.42847 (Simulation time: 0 hr 9 min 15 sec) 
Heartbeat CPU 1 instructions: 60000000 cycles: 28114018 heartbeat IPC: 2.09727 cumulative IPC: 2.13417 (Simulation time: 0 hr 10 min 30 sec) 
Heartbeat CPU 3 instructions: 70000003 cycles: 28840092 heartbeat IPC: 2.41945 cumulative IPC: 2.42718 (Simulation time: 0 hr 10 min 46 sec) 
Heartbeat CPU 0 instructions: 50000001 cycles: 29012484 heartbeat IPC: 1.72325 cumulative IPC: 1.7234 (Simulation time: 0 hr 10 min 50 sec) 
Heartbeat CPU 2 instructions: 50000001 cycles: 29637883 heartbeat IPC: 1.42369 cumulative IPC: 1.68703 (Simulation time: 0 hr 11 min 5 sec) 
Heartbeat CPU 1 instructions: 70000001 cycles: 32938971 heartbeat IPC: 2.07256 cumulative IPC: 2.12514 (Simulation time: 0 hr 12 min 22 sec) 
Heartbeat CPU 3 instructions: 80000000 cycles: 32959652 heartbeat IPC: 2.42744 cumulative IPC: 2.42721 (Simulation time: 0 hr 12 min 22 sec) 
Heartbeat CPU 2 instructions: 60000000 cycles: 33062548 heartbeat IPC: 2.91999 cumulative IPC: 1.81474 (Simulation time: 0 hr 12 min 25 sec) 
Heartbeat CPU 0 instructions: 60000000 cycles: 34815109 heartbeat IPC: 1.72336 cumulative IPC: 1.72339 (Simulation time: 0 hr 13 min 5 sec) 
Heartbeat CPU 2 instructions: 70000002 cycles: 36457114 heartbeat IPC: 2.94589 cumulative IPC: 1.92006 (Simulation time: 0 hr 13 min 44 sec) 
Heartbeat CPU 3 instructions: 90000000 cycles: 37085105 heartbeat IPC: 2.42398 cumulative IPC: 2.42685 (Simulation time: 0 hr 13 min 58 sec) 
Heartbeat CPU 1 instructions: 80000000 cycles: 37743774 heartbeat IPC: 2.08125 cumulative IPC: 2.11955 (Simulation time: 0 hr 14 min 14 sec) 
Heartbeat CPU 2 instructions: 80000000 cycles: 39851244 heartbeat IPC: 2.94626 cumulative IPC: 2.00747 (Simulation time: 0 hr 15 min 3 sec) 
Heartbeat CPU 0 instructions: 70000002 cycles: 40617274 heartbeat IPC: 1.72349 cumulative IPC: 1.7234 (Simulation time: 0 hr 15 min 21 sec) 
Heartbeat CPU 3 instructions: 100000000 cycles: 41199095 heartbeat IPC: 2.43073 cumulative IPC: 2.42724 (Simulation time: 0 hr 15 min 34 sec) 
Heartbeat CPU 1 instructions: 90000000 cycles: 42506770 heartbeat IPC: 2.09952 cumulative IPC: 2.11731 (Simulation time: 0 hr 16 min 3 sec) 
Heartbeat CPU 3 instructions: 110000002 cycles: 45309017 heartbeat IPC: 2.43314 cumulative IPC: 2.42777 (Simulation time: 0 hr 17 min 6 sec) 
Heartbeat CPU 2 instructions: 90000003 cycles: 45357974 heartbeat IPC: 1.81596 cumulative IPC: 1.98422 (Simulation time: 0 hr 17 min 7 sec) 
Heartbeat CPU 0 instructions: 80000000 cycles: 46418949 heartbeat IPC: 1.72364 cumulative IPC: 1.72343 (Simulation time: 0 hr 17 min 30 sec) 
Heartbeat CPU 1 instructions: 100000000 cycles: 47352963 heartbeat IPC: 2.06348 cumulative IPC: 2.1118 (Simulation time: 0 hr 17 min 52 sec) 
Heartbeat CPU 3 instructions: 120000000 cycles: 49430988 heartbeat IPC: 2.42602 cumulative IPC: 2.42763 (Simulation time: 0 hr 18 min 39 sec) 
Heartbeat CPU 2 instructions: 100000000 cycles: 50179674 heartbeat IPC: 2.07396 cumulative IPC: 1.99284 (Simulation time: 0 hr 18 min 56 sec) 
Heartbeat CPU 0 instructions: 90000000 cycles: 52222135 heartbeat IPC: 1.72319 cumulative IPC: 1.72341 (Simulation time: 0 hr 19 min 43 sec) 
Heartbeat CPU 1 instructions: 110000001 cycles: 52291635 heartbeat IPC: 2.02484 cumulative IPC: 2.10359 (Simulation time: 0 hr 19 min 45 sec) 
Heartbeat CPU 3 instructions: 130000001 cycles: 53553017 heartbeat IPC: 2.42599 cumulative IPC: 2.4275 (Simulation time: 0 hr 20 min 14 sec) 
Heartbeat CPU 2 instructions: 110000001 cycles: 54208868 heartbeat IPC: 2.48189 cumulative IPC: 2.02919 (Simulation time: 0 hr 20 min 29 sec) 
Heartbeat CPU 1 instructions: 120000000 cycles: 57305684 heartbeat IPC: 1.9944 cumulative IPC: 2.09403 (Simulation time: 0 hr 21 min 41 sec) 
Heartbeat CPU 2 instructions: 120000000 cycles: 57531217 heartbeat IPC: 3.00992 cumulative IPC: 2.08582 (Simulation time: 0 hr 21 min 47 sec) 
Heartbeat CPU 3 instructions: 140000000 cycles: 57665344 heartbeat IPC: 2.43171 cumulative IPC: 2.4278 (Simulation time: 0 hr 21 min 50 sec) 
Heartbeat CPU 0 instructions: 100000000 cycles: 58024323 heartbeat IPC: 1.72349 cumulative IPC: 1.72342 (Simulation time: 0 hr 21 min 58 sec) 
Heartbeat CPU 2 instructions: 130000003 cycles: 61183065 heartbeat IPC: 2.73834 cumulative IPC: 2.12477 (Simulation time: 0 hr 23 min 9 sec) 
Heartbeat CPU 3 instructions: 150000000 cycles: 61789805 heartbeat IPC: 2.42456 cumulative IPC: 2.42758 (Simulation time: 0 hr 23 min 24 sec) 
Heartbeat CPU 1 instructions: 130000001 cycles: 62231231 heartbeat IPC: 2.03023 cumulative IPC: 2.08898 (Simulation time: 0 hr 23 min 34 sec) 
Heartbeat CPU 0 instructions: 110000002 cycles: 63826475 heartbeat IPC: 1.7235 cumulative IPC: 1.72342 (Simulation time: 0 hr 24 min 11 sec) 
Heartbeat CPU 3 instructions: 160000000 cycles: 65914300 heartbeat IPC: 2.42454 cumulative IPC: 2.42739 (Simulation time: 0 hr 24 min 58 sec) 
Heartbeat CPU 2 instructions: 140000000 cycles: 67034617 heartbeat IPC: 1.70895 cumulative IPC: 2.08847 (Simulation time: 0 hr 25 min 23 sec) 
Heartbeat CPU 1 instructions: 140000000 cycles: 67069945 heartbeat IPC: 2.06666 cumulative IPC: 2.08737 (Simulation time: 0 hr 25 min 24 sec) 
Heartbeat CPU 0 instructions: 120000000 cycles: 69628774 heartbeat IPC: 1.72345 cumulative IPC: 1.72343 (Simulation time: 0 hr 26 min 23 sec) 
Heartbeat CPU 3 instructions: 170000001 cycles: 70046280 heartbeat IPC: 2.42015 cumulative IPC: 2.42697 (Simulation time: 0 hr 26 min 33 sec) 
Heartbeat CPU 1 instructions: 150000000 cycles: 71906404 heartbeat IPC: 2.06763 cumulative IPC: 2.08605 (Simulation time: 0 hr 27 min 14 sec) 
Heartbeat CPU 2 instructions: 150000000 cycles: 72329489 heartbeat IPC: 1.88862 cumulative IPC: 2.07384 (Simulation time: 0 hr 27 min 24 sec) 
Heartbeat CPU 3 instructions: 180000000 cycles: 74171603 heartbeat IPC: 2.42405 cumulative IPC: 2.4268 (Simulation time: 0 hr 28 min 4 sec) 
Heartbeat CPU 0 instructions: 130000003 cycles: 75431947 heartbeat IPC: 1.7232 cumulative IPC: 1.72341 (Simulation time: 0 hr 28 min 31 sec) 
Heartbeat CPU 1 instructions: 160000000 cycles: 76737533 heartbeat IPC: 2.06991 cumulative IPC: 2.08503 (Simulation time: 0 hr 29 min 0 sec) 
Heartbeat CPU 3 instructions: 190000001 cycles: 78285867 heartbeat IPC: 2.43057 cumulative IPC: 2.427 (Simulation time: 0 hr 29 min 33 sec) 
Heartbeat CPU 2 instructions: 160000000 cycles: 80619844 heartbeat IPC: 1.20622 cumulative IPC: 1.98462 (Simulation time: 0 hr 30 min 24 sec) 
Heartbeat CPU 0 instructions: 140000000 cycles: 81233959 heartbeat IPC: 1.72354 cumulative IPC: 1.72342 (Simulation time: 0 hr 30 min 38 sec) 
Heartbeat CPU 1 instructions: 170000003 cycles: 81581798 heartbeat IPC: 2.0643 cumulative IPC: 2.0838 (Simulation time: 0 hr 30 min 46 sec) 
Heartbeat CPU 3 instructions: 200000000 cycles: 82406346 heartbeat IPC: 2.4269 cumulative IPC: 2.427 (Simulation time: 0 hr 31 min 4 sec) 
Heartbeat CPU 1 instructions: 180000000 cycles: 86392452 heartbeat IPC: 2.07872 cumulative IPC: 2.08352 (Simulation time: 0 hr 32 min 30 sec) 
Heartbeat CPU 3 instructions: 210000002 cycles: 86534678 heartbeat IPC: 2.42229 cumulative IPC: 0.115561 (Simulation time: 0 hr 32 min 33 sec) 
Heartbeat CPU 0 instructions: 150000001 cycles: 87036555 heartbeat IPC: 1.72337 cumulative IPC: 1.72341 (Simulation time: 0 hr 32 min 43 sec) 
Heartbeat CPU 2 instructions: 170000003 cycles: 89217728 heartbeat IPC: 1.16308 cumulative IPC: 1.90545 (Simulation time: 0 hr 33 min 30 sec) 
Heartbeat CPU 3 instructions: 220000000 cycles: 90669428 heartbeat IPC: 2.41853 cumulative IPC: 0.220582 (Simulation time: 0 hr 34 min 2 sec) 
Heartbeat CPU 1 instructions: 190000000 cycles: 91158983 heartbeat IPC: 2.09796 cumulative IPC: 2.08427 (Simulation time: 0 hr 34 min 12 sec) 
Heartbeat CPU 0 instructions: 160000000 cycles: 92838427 heartbeat IPC: 1.72358 cumulative IPC: 1.72342 (Simulation time: 0 hr 34 min 48 sec) 
Heartbeat CPU 3 instructions: 230000001 cycles: 94782878 heartbeat IPC: 2.43105 cumulative IPC: 0.316513 (Simulation time: 0 hr 35 min 30 sec) 
Heartbeat CPU 1 instructions: 200000000 cycles: 95935787 heartbeat IPC: 2.09345 cumulative IPC: 2.08473 (Simulation time: 0 hr 35 min 55 sec) 
Heartbeat CPU 2 instructions: 180000000 cycles: 97859125 heartbeat IPC: 1.15722 cumulative IPC: 1.83938 (Simulation time: 0 hr 36 min 37 sec) 
Heartbeat CPU 0 instructions: 170000000 cycles: 98640574 heartbeat IPC: 1.7235 cumulative IPC: 1.72343 (Simulation time: 0 hr 36 min 54 sec) 
Heartbeat CPU 3 instructions: 240000000 cycles: 98904551 heartbeat IPC: 2.4262 cumulative IPC: 0.40443 (Simulation time: 0 hr 37 min 0 sec) 
Heartbeat CPU 1 instructions: 210000000 cycles: 100731757 heartbeat IPC: 2.08508 cumulative IPC: 0.0992736 (Simulation time: 0 hr 37 min 40 sec) 
Heartbeat CPU 2 instructions: 190000001 cycles: 102918984 heartbeat IPC: 1.97634 cumulative IPC: 1.84611 (Simulation time: 0 hr 38 min 31 sec) 
Heartbeat CPU 3 instructions: 250000000 cycles: 103020020 heartbeat IPC: 2.42986 cumulative IPC: 0.485343 (Simulation time: 0 hr 38 min 33 sec) 
Heartbeat CPU 0 instructions: 180000000 cycles: 104442295 heartbeat IPC: 1.72363 cumulative IPC: 1.72344 (Simulation time: 0 hr 39 min 7 sec) 
Heartbeat CPU 1 instructions: 220000000 cycles: 105549586 heartbeat IPC: 2.07562 cumulative IPC: 0.189484 (Simulation time: 0 hr 39 min 33 sec) 
Heartbeat CPU 2 instructions: 200000000 cycles: 106691327 heartbeat IPC: 2.65087 cumulative IPC: 1.87457 (Simulation time: 0 hr 39 min 59 sec) 
Heartbeat CPU 3 instructions: 260000000 cycles: 107144451 heartbeat IPC: 2.42458 cumulative IPC: 0.559992 (Simulation time: 0 hr 40 min 9 sec) 
Heartbeat CPU 0 instructions: 190000002 cycles: 110245432 heartbeat IPC: 1.72321 cumulative IPC: 1.72343 (Simulation time: 0 hr 41 min 19 sec) 
Heartbeat CPU 1 instructions: 230000003 cycles: 110311308 heartbeat IPC: 2.10008 cumulative IPC: 0.271958 (Simulation time: 0 hr 41 min 21 sec) 
Heartbeat CPU 3 instructions: 270000003 cycles: 111275159 heartbeat IPC: 2.42089 cumulative IPC: 0.629071 (Simulation time: 0 hr 41 min 42 sec) 
Heartbeat CPU 2 instructions: 210000000 cycles: 113272301 heartbeat IPC: 1.51953 cumulative IPC: 0.0882828 (Simulation time: 0 hr 42 min 27 sec) 
Heartbeat CPU 1 instructions: 240000000 cycles: 115106600 heartbeat IPC: 2.08538 cumulative IPC: 0.347504 (Simulation time: 0 hr 43 min 8 sec) 
Heartbeat CPU 3 instructions: 280000000 cycles: 115396259 heartbeat IPC: 2.42654 cumulative IPC: 0.693263 (Simulation time: 0 hr 43 min 14 sec) 
Heartbeat CPU 0 instructions: 200000000 cycles: 116047597 heartbeat IPC: 1.72349 cumulative IPC: 1.72343 (Simulation time: 0 hr 43 min 29 sec) 

Warmup complete CPU 0 instructions: 200000001 cycles: 116047598 (Simulation time: 0 hr 43 min 29 sec) 
Warmup complete CPU 1 instructions: 241983509 cycles: 116047597 (Simulation time: 0 hr 43 min 29 sec) 
Warmup complete CPU 2 instructions: 213956875 cycles: 116047597 (Simulation time: 0 hr 43 min 29 sec) 
Warmup complete CPU 3 instructions: 281580034 cycles: 116047597 (Simulation time: 0 hr 43 min 29 sec) 

Heartbeat CPU 2 instructions: 220000000 cycles: 123328630 heartbeat IPC: 0.994399 cumulative IPC: 0.829982 (Simulation time: 0 hr 44 min 56 sec) 
Heartbeat CPU 0 instructions: 210000002 cycles: 125906054 heartbeat IPC: 1.01436 cumulative IPC: 1.01436 (Simulation time: 0 hr 45 min 24 sec) 
Heartbeat CPU 1 instructions: 250000001 cycles: 127978891 heartbeat IPC: 0.776863 cumulative IPC: 0.671888 (Simulation time: 0 hr 45 min 47 sec) 
Heartbeat CPU 3 instructions: 290000000 cycles: 129454326 heartbeat IPC: 0.711335 cumulative IPC: 0.62804 (Simulation time: 0 hr 46 min 4 sec) 
Heartbeat CPU 0 instructions: 220000000 cycles: 135689736 heartbeat IPC: 1.02211 cumulative IPC: 1.01822 (Simulation time: 0 hr 47 min 18 sec) 
Heartbeat CPU 2 instructions: 230000001 cycles: 136297875 heartbeat IPC: 0.771055 cumulative IPC: 0.792242 (Simulation time: 0 hr 47 min 25 sec) 
Heartbeat CPU 1 instructions: 260000000 cycles: 142787041 heartbeat IPC: 0.675304 cumulative IPC: 0.67378 (Simulation time: 0 hr 48 min 41 sec) 
Heartbeat CPU 3 instructions: 300000000 cycles: 144978086 heartbeat IPC: 0.644174 cumulative IPC: 0.636697 (Simulation time: 0 hr 49 min 8 sec) 
Heartbeat CPU 0 instructions: 230000000 cycles: 145470809 heartbeat IPC: 1.02238 cumulative IPC: 1.0196 (Simulation time: 0 hr 49 min 14 sec) 
Heartbeat CPU 2 instructions: 240000000 cycles: 149360130 heartbeat IPC: 0.765565 cumulative IPC: 0.781782 (Simulation time: 0 hr 50 min 1 sec) 
Heartbeat CPU 0 instructions: 240000000 cycles: 155279503 heartbeat IPC: 1.0195 cumulative IPC: 1.01958 (Simulation time: 0 hr 51 min 15 sec) 
Heartbeat CPU 1 instructions: 270000002 cycles: 157524941 heartbeat IPC: 0.678523 cumulative IPC: 0.675465 (Simulation time: 0 hr 51 min 44 sec) 
Heartbeat CPU 3 instructions: 310000003 cycles: 160900760 heartbeat IPC: 0.628035 cumulative IPC: 0.633622 (Simulation time: 0 hr 52 min 26 sec) 
Heartbeat CPU 2 instructions: 250000003 cycles: 162327382 heartbeat IPC: 0.771174 cumulative IPC: 0.778809 (Simulation time: 0 hr 52 min 44 sec) 
Heartbeat CPU 0 instructions: 250000003 cycles: 165018930 heartbeat IPC: 1.02675 cumulative IPC: 1.02101 (Simulation time: 0 hr 53 min 17 sec) 
Heartbeat CPU 1 instructions: 280000000 cycles: 172379638 heartbeat IPC: 0.673188 cumulative IPC: 0.674864 (Simulation time: 0 hr 54 min 47 sec) 
Heartbeat CPU 2 instructions: 260000000 cycles: 173879890 heartbeat IPC: 0.865613 cumulative IPC: 0.796149 (Simulation time: 0 hr 55 min 6 sec) 
Heartbeat CPU 0 instructions: 260000000 cycles: 174779268 heartbeat IPC: 1.02455 cumulative IPC: 1.0216 (Simulation time: 0 hr 55 min 17 sec) 
Heartbeat CPU 3 instructions: 320000000 cycles: 176522772 heartbeat IPC: 0.640122 cumulative IPC: 0.635301 (Simulation time: 0 hr 55 min 40 sec) 
Heartbeat CPU 2 instructions: 270000000 cycles: 181575898 heartbeat IPC: 1.29937 cumulative IPC: 0.855251 (Simulation time: 0 hr 56 min 46 sec) 
Heartbeat CPU 0 instructions: 270000003 cycles: 184378849 heartbeat IPC: 1.04171 cumulative IPC: 1.02442 (Simulation time: 0 hr 57 min 23 sec) 
Heartbeat CPU 1 instructions: 290000001 cycles: 187199147 heartbeat IPC: 0.674786 cumulative IPC: 0.674848 (Simulation time: 0 hr 58 min 1 sec) 
Heartbeat CPU 2 instructions: 280000000 cycles: 189232971 heartbeat IPC: 1.30598 cumulative IPC: 0.902409 (Simulation time: 0 hr 58 min 26 sec) 
Heartbeat CPU 3 instructions: 330000002 cycles: 189746240 heartbeat IPC: 0.756231 cumulative IPC: 0.656999 (Simulation time: 0 hr 58 min 33 sec) 
Heartbeat CPU 0 instructions: 280000000 cycles: 194015594 heartbeat IPC: 1.03769 cumulative IPC: 1.02606 (Simulation time: 0 hr 59 min 28 sec) 
Heartbeat CPU 2 instructions: 290000000 cycles: 197470134 heartbeat IPC: 1.21401 cumulative IPC: 0.933932 (Simulation time: 1 hr 0 min 13 sec) 
Heartbeat CPU 1 instructions: 300000000 cycles: 202115678 heartbeat IPC: 0.670397 cumulative IPC: 0.674077 (Simulation time: 1 hr 1 min 10 sec) 
Heartbeat CPU 3 instructions: 340000000 cycles: 203393054 heartbeat IPC: 0.732772 cumulative IPC: 0.668838 (Simulation time: 1 hr 1 min 27 sec) 
Heartbeat CPU 0 instructions: 290000001 cycles: 203787468 heartbeat IPC: 1.02335 cumulative IPC: 1.02576 (Simulation time: 1 hr 1 min 32 sec) 
Heartbeat CPU 2 instructions: 300000000 cycles: 209022672 heartbeat IPC: 0.865611 cumulative IPC: 0.925443 (Simulation time: 1 hr 2 min 36 sec) 
Heartbeat CPU 0 instructions: 300000000 cycles: 213547037 heartbeat IPC: 1.02464 cumulative IPC: 1.02565 (Simulation time: 1 hr 3 min 33 sec) 
Heartbeat CPU 1 instructions: 310000002 cycles: 217224298 heartbeat IPC: 0.661874 cumulative IPC: 0.672255 (Simulation time: 1 hr 4 min 17 sec) 
Heartbeat CPU 3 instructions: 350000001 cycles: 217690913 heartbeat IPC: 0.699405 cumulative IPC: 0.673138 (Simulation time: 1 hr 4 min 23 sec) 
Heartbeat CPU 2 instructions: 310000002 cycles: 218876351 heartbeat IPC: 1.01485 cumulative IPC: 0.93401 (Simulation time: 1 hr 4 min 37 sec) 
Heartbeat CPU 0 instructions: 310000000 cycles: 223379420 heartbeat IPC: 1.01705 cumulative IPC: 1.02486 (Simulation time: 1 hr 5 min 29 sec) 
Heartbeat CPU 2 instructions: 320000000 cycles: 228775157 heartbeat IPC: 1.01022 cumulative IPC: 0.940703 (Simulation time: 1 hr 6 min 35 sec) 
Heartbeat CPU 1 instructions: 320000000 cycles: 232425396 heartbeat IPC: 0.657847 cumulative IPC: 0.670373 (Simulation time: 1 hr 7 min 20 sec) 
Heartbeat CPU 0 instructions: 320000000 cycles: 233183314 heartbeat IPC: 1.02 cumulative IPC: 1.02445 (Simulation time: 1 hr 7 min 30 sec) 
Heartbeat CPU 3 instructions: 360000000 cycles: 233735474 heartbeat IPC: 0.623264 cumulative IPC: 0.666339 (Simulation time: 1 hr 7 min 37 sec) 
Heartbeat CPU 2 instructions: 330000003 cycles: 236610424 heartbeat IPC: 1.27628 cumulative IPC: 0.962512 (Simulation time: 1 hr 8 min 13 sec) 
Heartbeat CPU 0 instructions: 330000000 cycles: 242970527 heartbeat IPC: 1.02174 cumulative IPC: 1.02424 (Simulation time: 1 hr 9 min 33 sec) 
Heartbeat CPU 2 instructions: 340000000 cycles: 247296003 heartbeat IPC: 0.93584 cumulative IPC: 0.96034 (Simulation time: 1 hr 10 min 22 sec) 
Heartbeat CPU 1 instructions: 330000003 cycles: 247780500 heartbeat IPC: 0.651249 cumulative IPC: 0.668144 (Simulation time: 1 hr 10 min 27 sec) 
Heartbeat CPU 3 instructions: 370000001 cycles: 249122353 heartbeat IPC: 0.649904 cumulative IPC: 0.664438 (Simulation time: 1 hr 10 min 43 sec) 
Heartbeat CPU 0 instructions: 340000000 cycles: 252805101 heartbeat IPC: 1.01682 cumulative IPC: 1.02371 (Simulation time: 1 hr 11 min 27 sec) 
Heartbeat CPU 2 instructions: 350000003 cycles: 260726118 heartbeat IPC: 0.744595 cumulative IPC: 0.940313 (Simulation time: 1 hr 13 min 3 sec) 
Heartbeat CPU 0 instructions: 350000002 cycles: 262623903 heartbeat IPC: 1.01845 cumulative IPC: 1.02336 (Simulation time: 1 hr 13 min 24 sec) 
Heartbeat CPU 1 instructions: 340000000 cycles: 263097021 heartbeat IPC: 0.65289 cumulative IPC: 0.666555 (Simulation time: 1 hr 13 min 29 sec) 
Heartbeat CPU 3 instructions: 380000000 cycles: 266267095 heartbeat IPC: 0.583269 cumulative IPC: 0.655174 (Simulation time: 1 hr 14 min 6 sec) 
Heartbeat CPU 0 instructions: 360000000 cycles: 272399207 heartbeat IPC: 1.02299 cumulative IPC: 1.02333 (Simulation time: 1 hr 15 min 21 sec) 
Heartbeat CPU 2 instructions: 360000000 cycles: 273011250 heartbeat IPC: 0.813992 cumulative IPC: 0.930426 (Simulation time: 1 hr 15 min 29 sec) 
Heartbeat CPU 1 instructions: 350000003 cycles: 278129982 heartbeat IPC: 0.665205 cumulative IPC: 0.66643 (Simulation time: 1 hr 16 min 32 sec) 
Heartbeat CPU 0 instructions: 370000001 cycles: 282056247 heartbeat IPC: 1.03551 cumulative IPC: 1.02404 (Simulation time: 1 hr 17 min 21 sec) 
Heartbeat CPU 3 instructions: 390000003 cycles: 282092812 heartbeat IPC: 0.631883 cumulative IPC: 0.652955 (Simulation time: 1 hr 17 min 21 sec) 
Heartbeat CPU 2 instructions: 370000000 cycles: 286281172 heartbeat IPC: 0.753584 cumulative IPC: 0.916641 (Simulation time: 1 hr 18 min 13 sec) 
Heartbeat CPU 0 instructions: 380000000 cycles: 291710496 heartbeat IPC: 1.03581 cumulative IPC: 1.02469 (Simulation time: 1 hr 19 min 23 sec) 
Heartbeat CPU 1 instructions: 360000000 cycles: 293082059 heartbeat IPC: 0.668803 cumulative IPC: 0.66663 (Simulation time: 1 hr 19 min 41 sec) 
Heartbeat CPU 3 instructions: 400000000 cycles: 295939761 heartbeat IPC: 0.722181 cumulative IPC: 0.658283 (Simulation time: 1 hr 20 min 16 sec) 
Heartbeat CPU 2 instructions: 380000000 cycles: 299470606 heartbeat IPC: 0.758183 cumulative IPC: 0.905247 (Simulation time: 1 hr 21 min 1 sec) 
Heartbeat CPU 0 instructions: 390000001 cycles: 301416248 heartbeat IPC: 1.03032 cumulative IPC: 1.02498 (Simulation time: 1 hr 21 min 26 sec) 
Heartbeat CPU 1 instructions: 370000001 cycles: 308112331 heartbeat IPC: 0.665324 cumulative IPC: 0.666528 (Simulation time: 1 hr 22 min 48 sec) 
Heartbeat CPU 3 instructions: 410000000 cycles: 310449508 heartbeat IPC: 0.689192 cumulative IPC: 0.66059 (Simulation time: 1 hr 23 min 17 sec) 
Heartbeat CPU 0 instructions: 400000000 cycles: 311094588 heartbeat IPC: 1.03323 cumulative IPC: 1.02539 (Simulation time: 1 hr 23 min 25 sec) 
Heartbeat CPU 2 instructions: 390000000 cycles: 312621446 heartbeat IPC: 0.760408 cumulative IPC: 0.895557 (Simulation time: 1 hr 23 min 44 sec) 
Heartbeat CPU 0 instructions: 410000002 cycles: 320770731 heartbeat IPC: 1.03347 cumulative IPC: 1.02578 (Simulation time: 1 hr 25 min 24 sec) 
Heartbeat CPU 2 instructions: 400000000 cycles: 322153807 heartbeat IPC: 1.04906 cumulative IPC: 0.902657 (Simulation time: 1 hr 25 min 41 sec) 
Heartbeat CPU 1 instructions: 380000000 cycles: 323309411 heartbeat IPC: 0.658021 cumulative IPC: 0.665904 (Simulation time: 1 hr 25 min 56 sec) 
Heartbeat CPU 3 instructions: 420000000 cycles: 324517186 heartbeat IPC: 0.710849 cumulative IPC: 0.663982 (Simulation time: 1 hr 26 min 10 sec) 
Heartbeat CPU 0 instructions: 420000000 cycles: 330539929 heartbeat IPC: 1.02363 cumulative IPC: 1.02568 (Simulation time: 1 hr 27 min 21 sec) 
Heartbeat CPU 2 instructions: 410000000 cycles: 334157080 heartbeat IPC: 0.833106 cumulative IPC: 0.898829 (Simulation time: 1 hr 28 min 9 sec) 
Heartbeat CPU 3 instructions: 430000001 cycles: 337221890 heartbeat IPC: 0.78711 cumulative IPC: 0.671054 (Simulation time: 1 hr 28 min 49 sec) 
Heartbeat CPU 1 instructions: 390000000 cycles: 338331931 heartbeat IPC: 0.665667 cumulative IPC: 0.665888 (Simulation time: 1 hr 29 min 4 sec) 
Heartbeat CPU 0 instructions: 430000001 cycles: 340224156 heartbeat IPC: 1.03261 cumulative IPC: 1.02598 (Simulation time: 1 hr 29 min 29 sec) 
Heartbeat CPU 2 instructions: 420000000 cycles: 344386729 heartbeat IPC: 0.977551 cumulative IPC: 0.902356 (Simulation time: 1 hr 30 min 25 sec) 
Heartbeat CPU 0 instructions: 440000000 cycles: 349889637 heartbeat IPC: 1.03461 cumulative IPC: 1.02633 (Simulation time: 1 hr 31 min 38 sec) 
Heartbeat CPU 3 instructions: 440000000 cycles: 349974987 heartbeat IPC: 0.784123 cumulative IPC: 0.677219 (Simulation time: 1 hr 31 min 39 sec) 
Heartbeat CPU 1 instructions: 400000000 cycles: 353421180 heartbeat IPC: 0.662723 cumulative IPC: 0.665687 (Simulation time: 1 hr 32 min 24 sec) 
Heartbeat CPU 2 instructions: 430000003 cycles: 355059749 heartbeat IPC: 0.936942 cumulative IPC: 0.9039 (Simulation time: 1 hr 32 min 43 sec) 
Heartbeat CPU 0 instructions: 450000001 cycles: 359633157 heartbeat IPC: 1.02632 cumulative IPC: 1.02633 (Simulation time: 1 hr 33 min 39 sec) 
Heartbeat CPU 3 instructions: 450000003 cycles: 362824092 heartbeat IPC: 0.778265 cumulative IPC: 0.68248 (Simulation time: 1 hr 34 min 17 sec) 
Heartbeat CPU 2 instructions: 440000000 cycles: 367522417 heartbeat IPC: 0.802396 cumulative IPC: 0.89887 (Simulation time: 1 hr 35 min 13 sec) 
Heartbeat CPU 1 instructions: 410000001 cycles: 368637994 heartbeat IPC: 0.657168 cumulative IPC: 0.665174 (Simulation time: 1 hr 35 min 27 sec) 
Heartbeat CPU 0 instructions: 460000000 cycles: 369437767 heartbeat IPC: 1.01993 cumulative IPC: 1.02609 (Simulation time: 1 hr 35 min 36 sec) 
Heartbeat CPU 3 instructions: 460000000 cycles: 375698963 heartbeat IPC: 0.776707 cumulative IPC: 0.687152 (Simulation time: 1 hr 36 min 56 sec) 
Heartbeat CPU 0 instructions: 470000002 cycles: 379216456 heartbeat IPC: 1.02263 cumulative IPC: 1.02596 (Simulation time: 1 hr 37 min 42 sec) 
Heartbeat CPU 2 instructions: 450000000 cycles: 380471883 heartbeat IPC: 0.772233 cumulative IPC: 0.892668 (Simulation time: 1 hr 37 min 58 sec) 
Heartbeat CPU 1 instructions: 420000000 cycles: 383637043 heartbeat IPC: 0.666709 cumulative IPC: 0.66526 (Simulation time: 1 hr 38 min 39 sec) 
Heartbeat CPU 3 instructions: 470000000 cycles: 388608027 heartbeat IPC: 0.77465 cumulative IPC: 0.691296 (Simulation time: 1 hr 39 min 44 sec) 
Heartbeat CPU 0 instructions: 480000000 cycles: 388960587 heartbeat IPC: 1.02626 cumulative IPC: 1.02597 (Simulation time: 1 hr 39 min 48 sec) 
Heartbeat CPU 2 instructions: 460000000 cycles: 393329896 heartbeat IPC: 0.777725 cumulative IPC: 0.887338 (Simulation time: 1 hr 40 min 45 sec) 
Heartbeat CPU 1 instructions: 430000001 cycles: 398662497 heartbeat IPC: 0.665537 cumulative IPC: 0.665275 (Simulation time: 1 hr 41 min 54 sec) 
Heartbeat CPU 0 instructions: 490000003 cycles: 398722701 heartbeat IPC: 1.02437 cumulative IPC: 1.02591 (Simulation time: 1 hr 41 min 55 sec) 
Heartbeat CPU 3 instructions: 480000000 cycles: 401455763 heartbeat IPC: 0.778347 cumulative IPC: 0.695215 (Simulation time: 1 hr 42 min 29 sec) 
Heartbeat CPU 2 instructions: 470000002 cycles: 404139842 heartbeat IPC: 0.925074 cumulative IPC: 0.888754 (Simulation time: 1 hr 43 min 4 sec) 
Heartbeat CPU 0 instructions: 500000000 cycles: 408445829 heartbeat IPC: 1.02848 cumulative IPC: 1.026 (Simulation time: 1 hr 44 min 0 sec) 
Heartbeat CPU 2 instructions: 480000000 cycles: 411861909 heartbeat IPC: 1.29499 cumulative IPC: 0.899359 (Simulation time: 1 hr 44 min 45 sec) 
Heartbeat CPU 1 instructions: 440000000 cycles: 413711599 heartbeat IPC: 0.664491 cumulative IPC: 0.665235 (Simulation time: 1 hr 45 min 10 sec) 
Heartbeat CPU 3 instructions: 490000000 cycles: 414186433 heartbeat IPC: 0.785505 cumulative IPC: 0.69907 (Simulation time: 1 hr 45 min 16 sec) 
Heartbeat CPU 0 instructions: 510000001 cycles: 418051971 heartbeat IPC: 1.041 cumulative IPC: 1.02648 (Simulation time: 1 hr 46 min 7 sec) 
Heartbeat CPU 2 instructions: 490000003 cycles: 419522408 heartbeat IPC: 1.3054 cumulative IPC: 0.909608 (Simulation time: 1 hr 46 min 26 sec) 
Heartbeat CPU 3 instructions: 500000000 cycles: 426879003 heartbeat IPC: 0.787862 cumulative IPC: 0.702696 (Simulation time: 1 hr 48 min 3 sec) 
Heartbeat CPU 0 instructions: 520000000 cycles: 427662494 heartbeat IPC: 1.04053 cumulative IPC: 1.02691 (Simulation time: 1 hr 48 min 13 sec) 
Heartbeat CPU 2 instructions: 500000000 cycles: 428390483 heartbeat IPC: 1.12764 cumulative IPC: 0.915798 (Simulation time: 1 hr 48 min 22 sec) 
Heartbeat CPU 1 instructions: 450000002 cycles: 428403195 heartbeat IPC: 0.680661 cumulative IPC: 0.66596 (Simulation time: 1 hr 48 min 22 sec) 
Heartbeat CPU 0 instructions: 530000000 cycles: 437468162 heartbeat IPC: 1.01982 cumulative IPC: 1.02669 (Simulation time: 1 hr 50 min 19 sec) 
Heartbeat CPU 3 instructions: 510000000 cycles: 439555762 heartbeat IPC: 0.788845 cumulative IPC: 0.706072 (Simulation time: 1 hr 50 min 45 sec) 
Heartbeat CPU 2 instructions: 510000001 cycles: 439641498 heartbeat IPC: 0.888809 cumulative IPC: 0.91486 (Simulation time: 1 hr 50 min 46 sec) 
Heartbeat CPU 1 instructions: 460000000 cycles: 443117023 heartbeat IPC: 0.679633 cumulative IPC: 0.666576 (Simulation time: 1 hr 51 min 29 sec) 
Heartbeat CPU 0 instructions: 540000000 cycles: 447333137 heartbeat IPC: 1.01369 cumulative IPC: 1.0263 (Simulation time: 1 hr 52 min 23 sec) 
Heartbeat CPU 2 instructions: 520000000 cycles: 449502043 heartbeat IPC: 1.01414 cumulative IPC: 0.917796 (Simulation time: 1 hr 52 min 50 sec) 
Heartbeat CPU 3 instructions: 520000000 cycles: 452203753 heartbeat IPC: 0.790639 cumulative IPC: 0.709254 (Simulation time: 1 hr 53 min 23 sec) 
Heartbeat CPU 0 instructions: 550000000 cycles: 457188147 heartbeat IPC: 1.01471 cumulative IPC: 1.02597 (Simulation time: 1 hr 54 min 27 sec) 
Heartbeat CPU 1 instructions: 470000002 cycles: 457928659 heartbeat IPC: 0.675145 cumulative IPC: 0.666947 (Simulation time: 1 hr 54 min 37 sec) 
Heartbeat CPU 2 instructions: 530000001 cycles: 458568543 heartbeat IPC: 1.10296 cumulative IPC: 0.922697 (Simulation time: 1 hr 54 min 45 sec) 
Heartbeat CPU 3 instructions: 530000002 cycles: 464816811 heartbeat IPC: 0.792829 cumulative IPC: 0.712276 (Simulation time: 1 hr 56 min 8 sec) 
Heartbeat CPU 2 instructions: 540000000 cycles: 466402503 heartbeat IPC: 1.27649 cumulative IPC: 0.930608 (Simulation time: 1 hr 56 min 28 sec) 
Heartbeat CPU 0 instructions: 560000000 cycles: 466946636 heartbeat IPC: 1.02475 cumulative IPC: 1.02594 (Simulation time: 1 hr 56 min 35 sec) 
Heartbeat CPU 1 instructions: 480000000 cycles: 472725404 heartbeat IPC: 0.675824 cumulative IPC: 0.667315 (Simulation time: 1 hr 57 min 49 sec) 
Heartbeat CPU 0 instructions: 570000000 cycles: 476728497 heartbeat IPC: 1.0223 cumulative IPC: 1.02584 (Simulation time: 1 hr 58 min 38 sec) 
Heartbeat CPU 2 instructions: 550000002 cycles: 477343416 heartbeat IPC: 0.914001 cumulative IPC: 0.930105 (Simulation time: 1 hr 58 min 46 sec) 
Heartbeat CPU 3 instructions: 540000000 cycles: 477400872 heartbeat IPC: 0.794656 cumulative IPC: 0.715145 (Simulation time: 1 hr 58 min 47 sec) 
Heartbeat CPU 0 instructions: 580000000 cycles: 486459063 heartbeat IPC: 1.02769 cumulative IPC: 1.02589 (Simulation time: 2 hr 0 min 44 sec) 
Heartbeat CPU 1 instructions: 490000000 cycles: 487307621 heartbeat IPC: 0.685767 cumulative IPC: 0.66804 (Simulation time: 2 hr 0 min 55 sec) 
Heartbeat CPU 3 instructions: 550000002 cycles: 489980911 heartbeat IPC: 0.79491 cumulative IPC: 0.717828 (Simulation time: 2 hr 1 min 27 sec) 
Heartbeat CPU 2 instructions: 560000000 cycles: 490530264 heartbeat IPC: 0.758331 cumulative IPC: 0.924056 (Simulation time: 2 hr 1 min 34 sec) 
Heartbeat CPU 0 instructions: 590000003 cycles: 496273681 heartbeat IPC: 1.01889 cumulative IPC: 1.02571 (Simulation time: 2 hr 2 min 47 sec) 
Heartbeat CPU 1 instructions: 500000000 cycles: 502063838 heartbeat IPC: 0.67768 cumulative IPC: 0.668408 (Simulation time: 2 hr 4 min 2 sec) 
Heartbeat CPU 2 instructions: 570000000 cycles: 502377745 heartbeat IPC: 0.844061 cumulative IPC: 0.921603 (Simulation time: 2 hr 4 min 6 sec) 
Heartbeat CPU 3 instructions: 560000000 cycles: 502568438 heartbeat IPC: 0.794437 cumulative IPC: 0.720323 (Simulation time: 2 hr 4 min 8 sec) 
Heartbeat CPU 0 instructions: 600000000 cycles: 505958668 heartbeat IPC: 1.03253 cumulative IPC: 1.02587 (Simulation time: 2 hr 4 min 52 sec) 
Heartbeat CPU 3 instructions: 570000001 cycles: 515141147 heartbeat IPC: 0.795374 cumulative IPC: 0.722688 (Simulation time: 2 hr 6 min 51 sec) 
Heartbeat CPU 2 instructions: 580000000 cycles: 515488589 heartbeat IPC: 0.762727 cumulative IPC: 0.916389 (Simulation time: 2 hr 6 min 56 sec) 
Heartbeat CPU 0 instructions: 610000000 cycles: 515627705 heartbeat IPC: 1.03423 cumulative IPC: 1.02608 (Simulation time: 2 hr 6 min 58 sec) 
Heartbeat CPU 1 instructions: 510000002 cycles: 516668752 heartbeat IPC: 0.684701 cumulative IPC: 0.669002 (Simulation time: 2 hr 7 min 11 sec) 
Heartbeat CPU 0 instructions: 620000000 cycles: 525295870 heartbeat IPC: 1.03432 cumulative IPC: 1.02627 (Simulation time: 2 hr 9 min 2 sec) 
Heartbeat CPU 3 instructions: 580000000 cycles: 527701701 heartbeat IPC: 0.796143 cumulative IPC: 0.724929 (Simulation time: 2 hr 9 min 33 sec) 
Heartbeat CPU 2 instructions: 590000001 cycles: 528674350 heartbeat IPC: 0.758394 cumulative IPC: 0.91134 (Simulation time: 2 hr 9 min 46 sec) 
Heartbeat CPU 1 instructions: 520000000 cycles: 531065898 heartbeat IPC: 0.694582 cumulative IPC: 0.66989 (Simulation time: 2 hr 10 min 17 sec) 
Heartbeat CPU 0 instructions: 630000003 cycles: 534933686 heartbeat IPC: 1.03758 cumulative IPC: 1.02653 (Simulation time: 2 hr 11 min 7 sec) 
Heartbeat CPU 3 instructions: 590000002 cycles: 540236457 heartbeat IPC: 0.797782 cumulative IPC: 0.727082 (Simulation time: 2 hr 12 min 15 sec) 
Heartbeat CPU 2 instructions: 600000000 cycles: 541644262 heartbeat IPC: 0.771015 cumulative IPC: 0.907063 (Simulation time: 2 hr 12 min 33 sec) 
Heartbeat CPU 0 instructions: 640000000 cycles: 544573427 heartbeat IPC: 1.03737 cumulative IPC: 1.02678 (Simulation time: 2 hr 13 min 11 sec) 
Heartbeat CPU 1 instructions: 530000000 cycles: 545585391 heartbeat IPC: 0.688729 cumulative IPC: 0.670527 (Simulation time: 2 hr 13 min 24 sec) 
Heartbeat CPU 2 instructions: 610000000 cycles: 550610947 heartbeat IPC: 1.11524 cumulative IPC: 0.911359 (Simulation time: 2 hr 14 min 29 sec) 
Heartbeat CPU 3 instructions: 600000000 cycles: 552731042 heartbeat IPC: 0.800347 cumulative IPC: 0.729178 (Simulation time: 2 hr 14 min 55 sec) 
Heartbeat CPU 0 instructions: 650000002 cycles: 554271836 heartbeat IPC: 1.0311 cumulative IPC: 1.02687 (Simulation time: 2 hr 15 min 13 sec) 
Heartbeat CPU 1 instructions: 540000000 cycles: 560336631 heartbeat IPC: 0.677909 cumulative IPC: 0.670772 (Simulation time: 2 hr 16 min 28 sec) 
Heartbeat CPU 2 instructions: 620000000 cycles: 562864160 heartbeat IPC: 0.816112 cumulative IPC: 0.908747 (Simulation time: 2 hr 17 min 2 sec) 
Heartbeat CPU 0 instructions: 660000000 cycles: 564072250 heartbeat IPC: 1.02036 cumulative IPC: 1.02673 (Simulation time: 2 hr 17 min 18 sec) 
Heartbeat CPU 3 instructions: 610000002 cycles: 565232255 heartbeat IPC: 0.799923 cumulative IPC: 0.731147 (Simulation time: 2 hr 17 min 34 sec) 
Heartbeat CPU 2 instructions: 630000000 cycles: 572918235 heartbeat IPC: 0.994622 cumulative IPC: 0.910637 (Simulation time: 2 hr 19 min 18 sec) 
Heartbeat CPU 0 instructions: 670000003 cycles: 573720456 heartbeat IPC: 1.03646 cumulative IPC: 1.02693 (Simulation time: 2 hr 19 min 29 sec) 
Heartbeat CPU 1 instructions: 550000002 cycles: 575048743 heartbeat IPC: 0.679712 cumulative IPC: 0.671058 (Simulation time: 2 hr 19 min 46 sec) 
Heartbeat CPU 3 instructions: 620000000 cycles: 577791473 heartbeat IPC: 0.796228 cumulative IPC: 0.732917 (Simulation time: 2 hr 20 min 23 sec) 
Heartbeat CPU 0 instructions: 680000000 cycles: 583424697 heartbeat IPC: 1.03048 cumulative IPC: 1.02701 (Simulation time: 2 hr 21 min 34 sec) 
Heartbeat CPU 2 instructions: 640000000 cycles: 583695829 heartbeat IPC: 0.927851 cumulative IPC: 0.911033 (Simulation time: 2 hr 21 min 38 sec) 
Heartbeat CPU 1 instructions: 560000000 cycles: 589861736 heartbeat IPC: 0.675083 cumulative IPC: 0.671184 (Simulation time: 2 hr 22 min 52 sec) 
Heartbeat CPU 3 instructions: 630000002 cycles: 590462880 heartbeat IPC: 0.789178 cumulative IPC: 0.73442 (Simulation time: 2 hr 23 min 0 sec) 
Heartbeat CPU 0 instructions: 690000000 cycles: 593316634 heartbeat IPC: 1.01092 cumulative IPC: 1.02667 (Simulation time: 2 hr 23 min 34 sec) 
Heartbeat CPU 2 instructions: 650000002 cycles: 596196406 heartbeat IPC: 0.799963 cumulative IPC: 0.908142 (Simulation time: 2 hr 24 min 9 sec) 
Heartbeat CPU 0 instructions: 700000000 cycles: 603126238 heartbeat IPC: 1.01941 cumulative IPC: 1.02653 (Simulation time: 2 hr 25 min 38 sec) 
Heartbeat CPU 3 instructions: 640000000 cycles: 603135574 heartbeat IPC: 0.789098 cumulative IPC: 0.735842 (Simulation time: 2 hr 25 min 38 sec) 
Heartbeat CPU 1 instructions: 570000001 cycles: 604874250 heartbeat IPC: 0.666111 cumulative IPC: 0.671028 (Simulation time: 2 hr 26 min 1 sec) 
Heartbeat CPU 2 instructions: 660000000 cycles: 609063857 heartbeat IPC: 0.777155 cumulative IPC: 0.904723 (Simulation time: 2 hr 26 min 56 sec) 
Heartbeat CPU 0 instructions: 710000000 cycles: 612846884 heartbeat IPC: 1.02874 cumulative IPC: 1.02657 (Simulation time: 2 hr 27 min 45 sec) 
Heartbeat CPU 3 instructions: 650000001 cycles: 615831259 heartbeat IPC: 0.787669 cumulative IPC: 0.737159 (Simulation time: 2 hr 28 min 24 sec) 
Heartbeat CPU 1 instructions: 580000000 cycles: 619644565 heartbeat IPC: 0.677034 cumulative IPC: 0.671204 (Simulation time: 2 hr 29 min 14 sec) 
Heartbeat CPU 2 instructions: 670000002 cycles: 621842817 heartbeat IPC: 0.782536 cumulative IPC: 0.901636 (Simulation time: 2 hr 29 min 43 sec) 
Heartbeat CPU 0 instructions: 720000000 cycles: 622574120 heartbeat IPC: 1.02804 cumulative IPC: 1.0266 (Simulation time: 2 hr 29 min 53 sec) 
Heartbeat CPU 3 instructions: 660000000 cycles: 628511341 heartbeat IPC: 0.788638 cumulative IPC: 0.738433 (Simulation time: 2 hr 31 min 8 sec) 
Heartbeat CPU 2 instructions: 680000000 cycles: 632064575 heartbeat IPC: 0.978305 cumulative IPC: 0.903155 (Simulation time: 2 hr 31 min 55 sec) 
Heartbeat CPU 0 instructions: 730000003 cycles: 632315782 heartbeat IPC: 1.02652 cumulative IPC: 1.0266 (Simulation time: 2 hr 31 min 58 sec) 
Heartbeat CPU 1 instructions: 590000000 cycles: 634401466 heartbeat IPC: 0.677649 cumulative IPC: 0.671388 (Simulation time: 2 hr 32 min 26 sec) 
Heartbeat CPU 2 instructions: 690000001 cycles: 639762171 heartbeat IPC: 1.29911 cumulative IPC: 0.908974 (Simulation time: 2 hr 33 min 36 sec) 
Heartbeat CPU 3 instructions: 670000000 cycles: 641153880 heartbeat IPC: 0.79098 cumulative IPC: 0.739698 (Simulation time: 2 hr 33 min 54 sec) 
Heartbeat CPU 0 instructions: 740000000 cycles: 641957077 heartbeat IPC: 1.0372 cumulative IPC: 1.02679 (Simulation time: 2 hr 34 min 4 sec) 
Heartbeat CPU 2 instructions: 700000000 cycles: 647429181 heartbeat IPC: 1.30429 cumulative IPC: 0.914678 (Simulation time: 2 hr 35 min 16 sec) 
Heartbeat CPU 1 instructions: 600000000 cycles: 649188067 heartbeat IPC: 0.676288 cumulative IPC: 0.671524 (Simulation time: 2 hr 35 min 39 sec) 
Heartbeat CPU 0 instructions: 750000003 cycles: 651526919 heartbeat IPC: 1.04495 cumulative IPC: 1.02712 (Simulation time: 2 hr 36 min 10 sec) 
Heartbeat CPU 3 instructions: 680000000 cycles: 653773898 heartbeat IPC: 0.792392 cumulative IPC: 0.740934 (Simulation time: 2 hr 36 min 38 sec) 
Heartbeat CPU 2 instructions: 710000000 cycles: 656835716 heartbeat IPC: 1.06309 cumulative IPC: 0.91726 (Simulation time: 2 hr 37 min 17 sec) 
Heartbeat CPU 0 instructions: 760000000 cycles: 661311201 heartbeat IPC: 1.02205 cumulative IPC: 1.02703 (Simulation time: 2 hr 38 min 14 sec) 
Heartbeat CPU 1 instructions: 610000000 cycles: 663842165 heartbeat IPC: 0.682403 cumulative IPC: 0.671815 (Simulation time: 2 hr 38 min 46 sec) 
Heartbeat CPU 3 instructions: 690000001 cycles: 666395076 heartbeat IPC: 0.792319 cumulative IPC: 0.742113 (Simulation time: 2 hr 39 min 18 sec) 
Heartbeat CPU 2 instructions: 720000000 cycles: 667978004 heartbeat IPC: 0.897482 cumulative IPC: 0.91686 (Simulation time: 2 hr 39 min 37 sec) 
Heartbeat CPU 0 instructions: 770000002 cycles: 671092867 heartbeat IPC: 1.02232 cumulative IPC: 1.02694 (Simulation time: 2 hr 40 min 16 sec) 
Heartbeat CPU 2 instructions: 730000003 cycles: 677983608 heartbeat IPC: 0.99944 cumulative IPC: 0.918331 (Simulation time: 2 hr 41 min 42 sec) 
Heartbeat CPU 1 instructions: 620000000 cycles: 678479550 heartbeat IPC: 0.683182 cumulative IPC: 0.672111 (Simulation time: 2 hr 41 min 48 sec) 
Heartbeat CPU 3 instructions: 700000000 cycles: 679007700 heartbeat IPC: 0.792856 cumulative IPC: 0.74325 (Simulation time: 2 hr 41 min 54 sec) 
Heartbeat CPU 0 instructions: 780000000 cycles: 680892549 heartbeat IPC: 1.02044 cumulative IPC: 1.02683 (Simulation time: 2 hr 42 min 18 sec) 
Heartbeat CPU 2 instructions: 740000000 cycles: 686551062 heartbeat IPC: 1.16721 cumulative IPC: 0.922068 (Simulation time: 2 hr 43 min 31 sec) 
Heartbeat CPU 0 instructions: 790000001 cycles: 690629476 heartbeat IPC: 1.02702 cumulative IPC: 1.02683 (Simulation time: 2 hr 44 min 25 sec) 
Heartbeat CPU 3 instructions: 710000000 cycles: 691606775 heartbeat IPC: 0.793709 cumulative IPC: 0.744354 (Simulation time: 2 hr 44 min 38 sec) 
Heartbeat CPU 1 instructions: 630000003 cycles: 693074636 heartbeat IPC: 0.685162 cumulative IPC: 0.672441 (Simulation time: 2 hr 44 min 56 sec) 
Heartbeat CPU 2 instructions: 750000002 cycles: 694580856 heartbeat IPC: 1.24536 cumulative IPC: 0.926555 (Simulation time: 2 hr 45 min 15 sec) 
Heartbeat CPU 0 instructions: 800000000 cycles: 700413087 heartbeat IPC: 1.02212 cumulative IPC: 1.02675 (Simulation time: 2 hr 46 min 29 sec) 
Heartbeat CPU 3 instructions: 720000000 cycles: 704181546 heartbeat IPC: 0.795243 cumulative IPC: 0.745442 (Simulation time: 2 hr 47 min 15 sec) 
Heartbeat CPU 2 instructions: 760000000 cycles: 706067436 heartbeat IPC: 0.870581 cumulative IPC: 0.925466 (Simulation time: 2 hr 47 min 39 sec) 
Heartbeat CPU 1 instructions: 640000000 cycles: 708158936 heartbeat IPC: 0.662941 cumulative IPC: 0.672199 (Simulation time: 2 hr 48 min 6 sec) 
Heartbeat CPU 0 instructions: 810000000 cycles: 710184014 heartbeat IPC: 1.02344 cumulative IPC: 1.0267 (Simulation time: 2 hr 48 min 32 sec) 
Heartbeat CPU 3 instructions: 730000003 cycles: 716790810 heartbeat IPC: 0.793068 cumulative IPC: 0.746442 (Simulation time: 2 hr 49 min 55 sec) 
Heartbeat CPU 2 instructions: 770000001 cycles: 718811678 heartbeat IPC: 0.784668 cumulative IPC: 0.922489 (Simulation time: 2 hr 50 min 20 sec) 
Heartbeat CPU 0 instructions: 820000000 cycles: 719983105 heartbeat IPC: 1.0205 cumulative IPC: 1.0266 (Simulation time: 2 hr 50 min 34 sec) 
Heartbeat CPU 1 instructions: 650000002 cycles: 722974676 heartbeat IPC: 0.674958 cumulative IPC: 0.672266 (Simulation time: 2 hr 51 min 12 sec) 
Heartbeat CPU 3 instructions: 740000000 cycles: 729397251 heartbeat IPC: 0.793245 cumulative IPC: 0.747404 (Simulation time: 2 hr 52 min 34 sec) 
Heartbeat CPU 0 instructions: 830000000 cycles: 729706616 heartbeat IPC: 1.02844 cumulative IPC: 1.02663 (Simulation time: 2 hr 52 min 38 sec) 
Heartbeat CPU 2 instructions: 780000000 cycles: 731155965 heartbeat IPC: 0.810091 cumulative IPC: 0.920233 (Simulation time: 2 hr 52 min 57 sec) 
Heartbeat CPU 1 instructions: 660000000 cycles: 737686881 heartbeat IPC: 0.679708 cumulative IPC: 0.672442 (Simulation time: 2 hr 54 min 20 sec) 
Heartbeat CPU 0 instructions: 840000000 cycles: 739428209 heartbeat IPC: 1.02864 cumulative IPC: 1.02666 (Simulation time: 2 hr 54 min 43 sec) 
Heartbeat CPU 3 instructions: 750000000 cycles: 742015871 heartbeat IPC: 0.79248 cumulative IPC: 0.748313 (Simulation time: 2 hr 55 min 16 sec) 
Heartbeat CPU 2 instructions: 790000003 cycles: 744292147 heartbeat IPC: 0.761256 cumulative IPC: 0.916909 (Simulation time: 2 hr 55 min 45 sec) 
Heartbeat CPU 0 instructions: 850000003 cycles: 749083570 heartbeat IPC: 1.03569 cumulative IPC: 1.0268 (Simulation time: 2 hr 56 min 46 sec) 
Heartbeat CPU 1 instructions: 670000003 cycles: 752541279 heartbeat IPC: 0.673202 cumulative IPC: 0.67246 (Simulation time: 2 hr 57 min 30 sec) 
Heartbeat CPU 3 instructions: 760000000 cycles: 754638533 heartbeat IPC: 0.792226 cumulative IPC: 0.749181 (Simulation time: 2 hr 57 min 57 sec) 
Heartbeat CPU 2 instructions: 800000000 cycles: 757512124 heartbeat IPC: 0.756431 cumulative IPC: 0.913602 (Simulation time: 2 hr 58 min 33 sec) 
Heartbeat CPU 0 instructions: 860000000 cycles: 758727208 heartbeat IPC: 1.03695 cumulative IPC: 1.02695 (Simulation time: 2 hr 58 min 49 sec) 
Heartbeat CPU 1 instructions: 680000000 cycles: 767213392 heartbeat IPC: 0.681565 cumulative IPC: 0.672665 (Simulation time: 3 hr 0 min 37 sec) 
Heartbeat CPU 3 instructions: 770000002 cycles: 767243355 heartbeat IPC: 0.793347 cumulative IPC: 0.750036 (Simulation time: 3 hr 0 min 37 sec) 
Heartbeat CPU 0 instructions: 870000000 cycles: 768393580 heartbeat IPC: 1.03451 cumulative IPC: 1.02706 (Simulation time: 3 hr 0 min 52 sec) 
Heartbeat CPU 2 instructions: 810000000 cycles: 770095170 heartbeat IPC: 0.79472 cumulative IPC: 0.911315 (Simulation time: 3 hr 1 min 13 sec) 
Heartbeat CPU 0 instructions: 880000000 cycles: 778065230 heartbeat IPC: 1.03395 cumulative IPC: 1.02716 (Simulation time: 3 hr 2 min 55 sec) 
Heartbeat CPU 2 instructions: 820000000 cycles: 779489744 heartbeat IPC: 1.06444 cumulative IPC: 0.913483 (Simulation time: 3 hr 3 min 12 sec) 
Heartbeat CPU 3 instructions: 780000000 cycles: 779817528 heartbeat IPC: 0.795281 cumulative IPC: 0.750893 (Simulation time: 3 hr 3 min 16 sec) 
Heartbeat CPU 1 instructions: 690000000 cycles: 782377248 heartbeat IPC: 0.659463 cumulative IPC: 0.672365 (Simulation time: 3 hr 3 min 46 sec) 
Heartbeat CPU 0 instructions: 890000002 cycles: 787910412 heartbeat IPC: 1.01573 cumulative IPC: 1.027 (Simulation time: 3 hr 4 min 53 sec) 
Heartbeat CPU 2 instructions: 830000002 cycles: 791599636 heartbeat IPC: 0.825771 cumulative IPC: 0.911911 (Simulation time: 3 hr 5 min 42 sec) 
Heartbeat CPU 3 instructions: 790000002 cycles: 792403190 heartbeat IPC: 0.794555 cumulative IPC: 0.751705 (Simulation time: 3 hr 5 min 53 sec) 
Heartbeat CPU 1 instructions: 700000000 cycles: 797556329 heartbeat IPC: 0.658801 cumulative IPC: 0.672063 (Simulation time: 3 hr 7 min 2 sec) 
Heartbeat CPU 0 instructions: 900000000 cycles: 797592712 heartbeat IPC: 1.03281 cumulative IPC: 1.02708 (Simulation time: 3 hr 7 min 2 sec) 
Heartbeat CPU 2 instructions: 840000000 cycles: 801665248 heartbeat IPC: 0.993481 cumulative IPC: 0.913108 (Simulation time: 3 hr 7 min 57 sec) 
Heartbeat CPU 3 instructions: 800000000 cycles: 804993740 heartbeat IPC: 0.794246 cumulative IPC: 0.752483 (Simulation time: 3 hr 8 min 41 sec) 
Heartbeat CPU 0 instructions: 910000001 cycles: 807251597 heartbeat IPC: 1.03532 cumulative IPC: 1.02719 (Simulation time: 3 hr 9 min 11 sec) 
Heartbeat CPU 1 instructions: 710000000 cycles: 812574355 heartbeat IPC: 0.665866 cumulative IPC: 0.671929 (Simulation time: 3 hr 10 min 15 sec) 
Heartbeat CPU 2 instructions: 850000000 cycles: 812761478 heartbeat IPC: 0.901207 cumulative IPC: 0.912919 (Simulation time: 3 hr 10 min 18 sec) 
Heartbeat CPU 0 instructions: 920000000 cycles: 817055090 heartbeat IPC: 1.02004 cumulative IPC: 1.02709 (Simulation time: 3 hr 11 min 10 sec) 
Heartbeat CPU 3 instructions: 810000002 cycles: 817589548 heartbeat IPC: 0.793915 cumulative IPC: 0.753226 (Simulation time: 3 hr 11 min 16 sec) 
Heartbeat CPU 2 instructions: 860000000 cycles: 825365943 heartbeat IPC: 0.79337 cumulative IPC: 0.910794 (Simulation time: 3 hr 12 min 50 sec) 
Heartbeat CPU 0 instructions: 930000003 cycles: 826840525 heartbeat IPC: 1.02193 cumulative IPC: 1.02702 (Simulation time: 3 hr 13 min 9 sec) 
Heartbeat CPU 1 instructions: 720000000 cycles: 827440951 heartbeat IPC: 0.672649 cumulative IPC: 0.671944 (Simulation time: 3 hr 13 min 16 sec) 
Heartbeat CPU 3 instructions: 820000000 cycles: 830190913 heartbeat IPC: 0.793565 cumulative IPC: 0.753938 (Simulation time: 3 hr 13 min 52 sec) 
Heartbeat CPU 0 instructions: 940000000 cycles: 836599793 heartbeat IPC: 1.02467 cumulative IPC: 1.02699 (Simulation time: 3 hr 15 min 15 sec) 
Heartbeat CPU 2 instructions: 870000002 cycles: 838186343 heartbeat IPC: 0.780007 cumulative IPC: 0.908472 (Simulation time: 3 hr 15 min 35 sec) 
Heartbeat CPU 3 instructions: 830000000 cycles: 842835474 heartbeat IPC: 0.790854 cumulative IPC: 0.75458 (Simulation time: 3 hr 16 min 35 sec) 
Heartbeat CPU 1 instructions: 730000003 cycles: 843086981 heartbeat IPC: 0.63914 cumulative IPC: 0.671238 (Simulation time: 3 hr 16 min 38 sec) 
Heartbeat CPU 0 instructions: 950000002 cycles: 846353414 heartbeat IPC: 1.02526 cumulative IPC: 1.02697 (Simulation time: 3 hr 17 min 20 sec) 
Heartbeat CPU 2 instructions: 880000000 cycles: 851050749 heartbeat IPC: 0.777339 cumulative IPC: 0.906177 (Simulation time: 3 hr 18 min 21 sec) 
Heartbeat CPU 3 instructions: 840000000 cycles: 855482476 heartbeat IPC: 0.790701 cumulative IPC: 0.755198 (Simulation time: 3 hr 19 min 16 sec) 
Heartbeat CPU 0 instructions: 960000000 cycles: 856141969 heartbeat IPC: 1.0216 cumulative IPC: 1.0269 (Simulation time: 3 hr 19 min 24 sec) 
Heartbeat CPU 1 instructions: 740000000 cycles: 858970902 heartbeat IPC: 0.629567 cumulative IPC: 0.670347 (Simulation time: 3 hr 20 min 1 sec) 
Heartbeat CPU 2 instructions: 890000000 cycles: 860600884 heartbeat IPC: 1.04711 cumulative IPC: 0.907985 (Simulation time: 3 hr 20 min 23 sec) 
Heartbeat CPU 0 instructions: 970000001 cycles: 865725171 heartbeat IPC: 1.04349 cumulative IPC: 1.02711 (Simulation time: 3 hr 21 min 30 sec) 
Heartbeat CPU 3 instructions: 850000002 cycles: 868086594 heartbeat IPC: 0.793392 cumulative IPC: 0.755838 (Simulation time: 3 hr 22 min 1 sec) 
Heartbeat CPU 2 instructions: 900000000 cycles: 868240263 heartbeat IPC: 1.30901 cumulative IPC: 0.912058 (Simulation time: 3 hr 22 min 3 sec) 
Heartbeat CPU 1 instructions: 750000003 cycles: 874475727 heartbeat IPC: 0.644961 cumulative IPC: 0.669828 (Simulation time: 3 hr 23 min 24 sec) 
Heartbeat CPU 0 instructions: 980000000 cycles: 875267884 heartbeat IPC: 1.04792 cumulative IPC: 1.02737 (Simulation time: 3 hr 23 min 35 sec) 
Heartbeat CPU 2 instructions: 910000003 cycles: 875872664 heartbeat IPC: 1.3102 cumulative IPC: 0.916057 (Simulation time: 3 hr 23 min 43 sec) 
Heartbeat CPU 3 instructions: 860000000 cycles: 880761735 heartbeat IPC: 0.788946 cumulative IPC: 0.756387 (Simulation time: 3 hr 24 min 46 sec) 
Heartbeat CPU 0 instructions: 990000003 cycles: 885002390 heartbeat IPC: 1.02727 cumulative IPC: 1.02737 (Simulation time: 3 hr 25 min 38 sec) 
Heartbeat CPU 2 instructions: 920000000 cycles: 885800654 heartbeat IPC: 1.00725 cumulative IPC: 0.917233 (Simulation time: 3 hr 25 min 49 sec) 
Heartbeat CPU 1 instructions: 760000000 cycles: 889711490 heartbeat IPC: 0.65635 cumulative IPC: 0.669563 (Simulation time: 3 hr 26 min 39 sec) 
Heartbeat CPU 3 instructions: 870000000 cycles: 893482977 heartbeat IPC: 0.786087 cumulative IPC: 0.756873 (Simulation time: 3 hr 27 min 26 sec) 
Heartbeat CPU 0 instructions: 1000000000 cycles: 894785631 heartbeat IPC: 1.02216 cumulative IPC: 1.0273 (Simulation time: 3 hr 27 min 42 sec) 
Heartbeat CPU 2 instructions: 930000000 cycles: 896805263 heartbeat IPC: 0.90871 cumulative IPC: 0.917113 (Simulation time: 3 hr 28 min 7 sec) 
Heartbeat CPU 0 instructions: 1010000002 cycles: 904549909 heartbeat IPC: 1.02414 cumulative IPC: 1.02726 (Simulation time: 3 hr 29 min 43 sec) 
Heartbeat CPU 1 instructions: 770000000 cycles: 905138624 heartbeat IPC: 0.648209 cumulative IPC: 0.669145 (Simulation time: 3 hr 29 min 50 sec) 
Heartbeat CPU 3 instructions: 880000000 cycles: 906209214 heartbeat IPC: 0.785778 cumulative IPC: 0.757339 (Simulation time: 3 hr 30 min 3 sec) 
Heartbeat CPU 2 instructions: 940000000 cycles: 907168207 heartbeat IPC: 0.964977 cumulative IPC: 0.91774 (Simulation time: 3 hr 30 min 15 sec) 
Heartbeat CPU 0 instructions: 1020000000 cycles: 914372158 heartbeat IPC: 1.0181 cumulative IPC: 1.02715 (Simulation time: 3 hr 31 min 47 sec) 
Heartbeat CPU 2 instructions: 950000003 cycles: 915010522 heartbeat IPC: 1.27513 cumulative IPC: 0.921248 (Simulation time: 3 hr 31 min 55 sec) 
Heartbeat CPU 3 instructions: 890000001 cycles: 918947427 heartbeat IPC: 0.78504 cumulative IPC: 0.757778 (Simulation time: 3 hr 32 min 46 sec) 
Heartbeat CPU 1 instructions: 780000000 cycles: 921350948 heartbeat IPC: 0.616815 cumulative IPC: 0.668092 (Simulation time: 3 hr 33 min 17 sec) 
Heartbeat CPU 2 instructions: 960000000 cycles: 923267697 heartbeat IPC: 1.21107 cumulative IPC: 0.924213 (Simulation time: 3 hr 33 min 41 sec) 
Heartbeat CPU 0 instructions: 1030000002 cycles: 924153241 heartbeat IPC: 1.02238 cumulative IPC: 1.02709 (Simulation time: 3 hr 33 min 52 sec) 
Heartbeat CPU 3 instructions: 900000000 cycles: 931648674 heartbeat IPC: 0.787324 cumulative IPC: 0.758238 (Simulation time: 3 hr 35 min 24 sec) 
Heartbeat CPU 0 instructions: 1040000000 cycles: 933969930 heartbeat IPC: 1.01867 cumulative IPC: 1.02699 (Simulation time: 3 hr 35 min 54 sec) 
Heartbeat CPU 2 instructions: 970000002 cycles: 935297402 heartbeat IPC: 0.831276 cumulative IPC: 0.922848 (Simulation time: 3 hr 36 min 11 sec) 
Heartbeat CPU 1 instructions: 790000000 cycles: 936962972 heartbeat IPC: 0.640532 cumulative IPC: 0.667568 (Simulation time: 3 hr 36 min 32 sec) 
Heartbeat CPU 0 instructions: 1050000001 cycles: 943721228 heartbeat IPC: 1.0255 cumulative IPC: 1.02697 (Simulation time: 3 hr 37 min 57 sec) 
Heartbeat CPU 3 instructions: 910000003 cycles: 944361154 heartbeat IPC: 0.786629 cumulative IPC: 0.758674 (Simulation time: 3 hr 38 min 4 sec) 
Heartbeat CPU 2 instructions: 980000000 cycles: 947669096 heartbeat IPC: 0.808297 cumulative IPC: 0.921144 (Simulation time: 3 hr 38 min 44 sec) 
Heartbeat CPU 1 instructions: 800000000 cycles: 952574032 heartbeat IPC: 0.640571 cumulative IPC: 0.667064 (Simulation time: 3 hr 39 min 47 sec) 
Heartbeat CPU 0 instructions: 1060000000 cycles: 953561938 heartbeat IPC: 1.01619 cumulative IPC: 1.02685 (Simulation time: 3 hr 39 min 59 sec) 
Heartbeat CPU 3 instructions: 920000000 cycles: 957095318 heartbeat IPC: 0.785289 cumulative IPC: 0.759077 (Simulation time: 3 hr 40 min 44 sec) 
Heartbeat CPU 2 instructions: 990000000 cycles: 960502585 heartbeat IPC: 0.779211 cumulative IPC: 0.918987 (Simulation time: 3 hr 41 min 28 sec) 
Heartbeat CPU 0 instructions: 1070000003 cycles: 963232563 heartbeat IPC: 1.03406 cumulative IPC: 1.02693 (Simulation time: 3 hr 42 min 3 sec) 
Heartbeat CPU 1 instructions: 810000001 cycles: 967931603 heartbeat IPC: 0.651145 cumulative IPC: 0.666777 (Simulation time: 3 hr 43 min 3 sec) 
Heartbeat CPU 3 instructions: 930000000 cycles: 969841181 heartbeat IPC: 0.784568 cumulative IPC: 0.759458 (Simulation time: 3 hr 43 min 27 sec) 
Heartbeat CPU 0 instructions: 1080000000 cycles: 972875442 heartbeat IPC: 1.03703 cumulative IPC: 1.02704 (Simulation time: 3 hr 44 min 6 sec) 
Heartbeat CPU 2 instructions: 1000000000 cycles: 973658923 heartbeat IPC: 0.76009 cumulative IPC: 0.916549 (Simulation time: 3 hr 44 min 16 sec) 
Heartbeat CPU 0 instructions: 1090000000 cycles: 982556535 heartbeat IPC: 1.03294 cumulative IPC: 1.02711 (Simulation time: 3 hr 46 min 8 sec) 
Heartbeat CPU 3 instructions: 940000000 cycles: 982584631 heartbeat IPC: 0.784717 cumulative IPC: 0.759829 (Simulation time: 3 hr 46 min 9 sec) 
Heartbeat CPU 1 instructions: 820000000 cycles: 983722130 heartbeat IPC: 0.633291 cumulative IPC: 0.666167 (Simulation time: 3 hr 46 min 23 sec) 
Heartbeat CPU 2 instructions: 1010000003 cycles: 986902829 heartbeat IPC: 0.755064 cumulative IPC: 0.914093 (Simulation time: 3 hr 47 min 4 sec) 
Heartbeat CPU 0 instructions: 1100000000 cycles: 992225603 heartbeat IPC: 1.03423 cumulative IPC: 1.02719 (Simulation time: 3 hr 48 min 10 sec) 
Heartbeat CPU 3 instructions: 950000001 cycles: 995312572 heartbeat IPC: 0.785673 cumulative IPC: 0.760203 (Simulation time: 3 hr 48 min 49 sec) 
Heartbeat CPU 2 instructions: 1020000000 cycles: 998951068 heartbeat IPC: 0.829997 cumulative IPC: 0.912946 (Simulation time: 3 hr 49 min 35 sec) 
Heartbeat CPU 1 instructions: 830000001 cycles: 999603877 heartbeat IPC: 0.629654 cumulative IPC: 0.665511 (Simulation time: 3 hr 49 min 43 sec) 
Heartbeat CPU 0 instructions: 1110000001 cycles: 1001923324 heartbeat IPC: 1.03117 cumulative IPC: 1.02723 (Simulation time: 3 hr 50 min 12 sec) 
Heartbeat CPU 3 instructions: 960000000 cycles: 1008009715 heartbeat IPC: 0.787579 cumulative IPC: 0.760593 (Simulation time: 3 hr 51 min 27 sec) 
Heartbeat CPU 2 instructions: 1030000003 cycles: 1008905676 heartbeat IPC: 1.00456 cumulative IPC: 0.913967 (Simulation time: 3 hr 51 min 38 sec) 
Heartbeat CPU 0 instructions: 1120000000 cycles: 1011692904 heartbeat IPC: 1.02359 cumulative IPC: 1.02719 (Simulation time: 3 hr 52 min 10 sec) 
Heartbeat CPU 1 instructions: 840000000 cycles: 1015416007 heartbeat IPC: 0.632426 cumulative IPC: 0.664929 (Simulation time: 3 hr 52 min 56 sec) 
Heartbeat CPU 2 instructions: 1040000000 cycles: 1020578773 heartbeat IPC: 0.85667 cumulative IPC: 0.913228 (Simulation time: 3 hr 54 min 4 sec) 
Heartbeat CPU 3 instructions: 970000001 cycles: 1020735463 heartbeat IPC: 0.785809 cumulative IPC: 0.760948 (Simulation time: 3 hr 54 min 6 sec) 
Heartbeat CPU 0 instructions: 1130000002 cycles: 1021448599 heartbeat IPC: 1.02504 cumulative IPC: 1.02717 (Simulation time: 3 hr 54 min 16 sec) 
Heartbeat CPU 2 instructions: 1050000001 cycles: 1030753836 heartbeat IPC: 0.982795 cumulative IPC: 0.914002 (Simulation time: 3 hr 56 min 19 sec) 
Heartbeat CPU 0 instructions: 1140000000 cycles: 1031111880 heartbeat IPC: 1.03484 cumulative IPC: 1.02725 (Simulation time: 3 hr 56 min 24 sec) 
Heartbeat CPU 1 instructions: 850000000 cycles: 1031372966 heartbeat IPC: 0.626686 cumulative IPC: 0.664263 (Simulation time: 3 hr 56 min 27 sec) 
Heartbeat CPU 3 instructions: 980000000 cycles: 1033447930 heartbeat IPC: 0.786629 cumulative IPC: 0.761303 (Simulation time: 3 hr 56 min 54 sec) 
Heartbeat CPU 0 instructions: 1150000001 cycles: 1040900064 heartbeat IPC: 1.02164 cumulative IPC: 1.02719 (Simulation time: 3 hr 58 min 24 sec) 
Heartbeat CPU 2 instructions: 1060000000 cycles: 1042869911 heartbeat IPC: 0.82535 cumulative IPC: 0.912843 (Simulation time: 3 hr 58 min 47 sec) 
Heartbeat CPU 3 instructions: 990000000 cycles: 1046169492 heartbeat IPC: 0.786067 cumulative IPC: 0.761642 (Simulation time: 3 hr 59 min 26 sec) 
Heartbeat CPU 1 instructions: 860000000 cycles: 1047678715 heartbeat IPC: 0.613281 cumulative IPC: 0.66337 (Simulation time: 3 hr 59 min 44 sec) 
Heartbeat CPU 0 instructions: 1160000000 cycles: 1050687219 heartbeat IPC: 1.02175 cumulative IPC: 1.02713 (Simulation time: 4 hr 0 min 20 sec) 
Heartbeat CPU 2 instructions: 1070000002 cycles: 1055783299 heartbeat IPC: 0.77439 cumulative IPC: 0.91094 (Simulation time: 4 hr 1 min 21 sec) 
Heartbeat CPU 3 instructions: 1000000000 cycles: 1058843802 heartbeat IPC: 0.788998 cumulative IPC: 0.76201 (Simulation time: 4 hr 1 min 57 sec) 
Heartbeat CPU 0 instructions: 1170000001 cycles: 1060568578 heartbeat IPC: 1.01201 cumulative IPC: 1.02698 (Simulation time: 4 hr 2 min 19 sec) 
Heartbeat CPU 1 instructions: 870000001 cycles: 1063931831 heartbeat IPC: 0.615267 cumulative IPC: 0.662546 (Simulation time: 4 hr 3 min 2 sec) 
Heartbeat CPU 2 instructions: 1080000000 cycles: 1068948345 heartbeat IPC: 0.759587 cumulative IPC: 0.908849 (Simulation time: 4 hr 4 min 6 sec) 
Heartbeat CPU 0 instructions: 1180000000 cycles: 1070496140 heartbeat IPC: 1.0073 cumulative IPC: 1.02677 (Simulation time: 4 hr 4 min 26 sec) 
Heartbeat CPU 3 instructions: 1010000000 cycles: 1071631139 heartbeat IPC: 0.782024 cumulative IPC: 0.762278 (Simulation time: 4 hr 4 min 41 sec) 
Heartbeat CPU 0 instructions: 1190000003 cycles: 1080428564 heartbeat IPC: 1.0068 cumulative IPC: 1.02657 (Simulation time: 4 hr 6 min 29 sec) 
Heartbeat CPU 1 instructions: 880000000 cycles: 1080540144 heartbeat IPC: 0.602108 cumulative IPC: 0.661505 (Simulation time: 4 hr 6 min 31 sec) 
Heartbeat CPU 2 instructions: 1090000000 cycles: 1081632951 heartbeat IPC: 0.788357 cumulative IPC: 0.907266 (Simulation time: 4 hr 6 min 44 sec) 
Heartbeat CPU 3 instructions: 1020000000 cycles: 1084388102 heartbeat IPC: 0.783886 cumulative IPC: 0.762562 (Simulation time: 4 hr 7 min 20 sec) 
Heartbeat CPU 2 instructions: 1100000000 cycles: 1089362104 heartbeat IPC: 1.2938 cumulative IPC: 0.910336 (Simulation time: 4 hr 8 min 25 sec) 
Heartbeat CPU 0 instructions: 1200000000 cycles: 1090111213 heartbeat IPC: 1.03277 cumulative IPC: 1.02663 (Simulation time: 4 hr 8 min 34 sec) 
Finished CPU 0 instructions: 1000000000 cycles: 974063639 cumulative IPC: 1.02663 (Simulation time: 4 hr 8 min 34 sec) 
Heartbeat CPU 1 instructions: 890000003 cycles: 1096244919 heartbeat IPC: 0.636749 cumulative IPC: 0.661108 (Simulation time: 4 hr 9 min 54 sec) 
Heartbeat CPU 2 instructions: 1110000001 cycles: 1097005460 heartbeat IPC: 1.30833 cumulative IPC: 0.913437 (Simulation time: 4 hr 10 min 4 sec) 
Heartbeat CPU 3 instructions: 1030000001 cycles: 1097088237 heartbeat IPC: 0.787393 cumulative IPC: 0.762884 (Simulation time: 4 hr 10 min 5 sec) 
Heartbeat CPU 0 instructions: 1210000000 cycles: 1099718550 heartbeat IPC: 1.04087 cumulative IPC: 1.02677 (Simulation time: 4 hr 10 min 40 sec) 
Heartbeat CPU 2 instructions: 1120000000 cycles: 1104648812 heartbeat IPC: 1.30833 cumulative IPC: 0.91649 (Simulation time: 4 hr 11 min 44 sec) 
Heartbeat CPU 0 instructions: 1220000000 cycles: 1109383511 heartbeat IPC: 1.03467 cumulative IPC: 1.02684 (Simulation time: 4 hr 12 min 43 sec) 
Heartbeat CPU 3 instructions: 1040000000 cycles: 1109798226 heartbeat IPC: 0.786783 cumulative IPC: 0.763189 (Simulation time: 4 hr 12 min 48 sec) 
Heartbeat CPU 1 instructions: 900000000 cycles: 1112286401 heartbeat IPC: 0.623384 cumulative IPC: 0.660501 (Simulation time: 4 hr 13 min 20 sec) 
Heartbeat CPU 2 instructions: 1130000000 cycles: 1115998738 heartbeat IPC: 0.881063 cumulative IPC: 0.916088 (Simulation time: 4 hr 14 min 8 sec) 
Heartbeat CPU 0 instructions: 1230000000 cycles: 1119156185 heartbeat IPC: 1.02326 cumulative IPC: 1.02681 (Simulation time: 4 hr 14 min 46 sec) 
Heartbeat CPU 3 instructions: 1050000002 cycles: 1122492098 heartbeat IPC: 0.787782 cumulative IPC: 0.7635 (Simulation time: 4 hr 15 min 27 sec) 
Heartbeat CPU 2 instructions: 1140000000 cycles: 1126346167 heartbeat IPC: 0.966424 cumulative IPC: 0.916603 (Simulation time: 4 hr 16 min 16 sec) 
Heartbeat CPU 1 instructions: 910000001 cycles: 1128287921 heartbeat IPC: 0.624941 cumulative IPC: 0.659939 (Simulation time: 4 hr 16 min 40 sec) 
Heartbeat CPU 0 instructions: 1240000000 cycles: 1128907749 heartbeat IPC: 1.02548 cumulative IPC: 1.0268 (Simulation time: 4 hr 16 min 47 sec) 
Heartbeat CPU 3 instructions: 1060000000 cycles: 1135187817 heartbeat IPC: 0.787667 cumulative IPC: 0.763801 (Simulation time: 4 hr 18 min 5 sec) 
Heartbeat CPU 2 instructions: 1150000002 cycles: 1136353284 heartbeat IPC: 0.999289 cumulative IPC: 0.917414 (Simulation time: 4 hr 18 min 19 sec) 
Heartbeat CPU 0 instructions: 1250000003 cycles: 1138710697 heartbeat IPC: 1.0201 cumulative IPC: 1.02673 (Simulation time: 4 hr 18 min 49 sec) 
Heartbeat CPU 1 instructions: 920000000 cycles: 1143866458 heartbeat IPC: 0.641909 cumulative IPC: 0.659665 (Simulation time: 4 hr 19 min 57 sec) 
Heartbeat CPU 2 instructions: 1160000000 cycles: 1144167041 heartbeat IPC: 1.27979 cumulative IPC: 0.920169 (Simulation time: 4 hr 20 min 1 sec) 
Heartbeat CPU 3 instructions: 1070000000 cycles: 1147889662 heartbeat IPC: 0.787287 cumulative IPC: 0.76409 (Simulation time: 4 hr 20 min 48 sec) 
Heartbeat CPU 0 instructions: 1260000000 cycles: 1148442947 heartbeat IPC: 1.02751 cumulative IPC: 1.02674 (Simulation time: 4 hr 20 min 55 sec) 
Heartbeat CPU 2 instructions: 1170000002 cycles: 1153763737 heartbeat IPC: 1.04203 cumulative IPC: 0.921295 (Simulation time: 4 hr 22 min 2 sec) 
Heartbeat CPU 0 instructions: 1270000000 cycles: 1158220129 heartbeat IPC: 1.02279 cumulative IPC: 1.0267 (Simulation time: 4 hr 22 min 56 sec) 
Heartbeat CPU 1 instructions: 930000001 cycles: 1159737582 heartbeat IPC: 0.630075 cumulative IPC: 0.659215 (Simulation time: 4 hr 23 min 15 sec) 
Heartbeat CPU 3 instructions: 1080000000 cycles: 1160594836 heartbeat IPC: 0.787081 cumulative IPC: 0.764369 (Simulation time: 4 hr 23 min 26 sec) 
Heartbeat CPU 2 instructions: 1180000000 cycles: 1167162417 heartbeat IPC: 0.746342 cumulative IPC: 0.919065 (Simulation time: 4 hr 24 min 50 sec) 
Heartbeat CPU 0 instructions: 1280000000 cycles: 1167951518 heartbeat IPC: 1.0276 cumulative IPC: 1.02671 (Simulation time: 4 hr 25 min 0 sec) 
Heartbeat CPU 3 instructions: 1090000002 cycles: 1173290604 heartbeat IPC: 0.787664 cumulative IPC: 0.764649 (Simulation time: 4 hr 26 min 4 sec) 
Heartbeat CPU 1 instructions: 940000000 cycles: 1175815472 heartbeat IPC: 0.621972 cumulative IPC: 0.65865 (Simulation time: 4 hr 26 min 35 sec) 
Heartbeat CPU 0 instructions: 1290000001 cycles: 1177814439 heartbeat IPC: 1.0139 cumulative IPC: 1.02659 (Simulation time: 4 hr 27 min 1 sec) 
Heartbeat CPU 2 instructions: 1190000002 cycles: 1179753340 heartbeat IPC: 0.794223 cumulative IPC: 0.917588 (Simulation time: 4 hr 27 min 25 sec) 
Heartbeat CPU 3 instructions: 1100000000 cycles: 1186042760 heartbeat IPC: 0.784181 cumulative IPC: 0.764882 (Simulation time: 4 hr 28 min 44 sec) 
Heartbeat CPU 0 instructions: 1300000000 cycles: 1187572324 heartbeat IPC: 1.02481 cumulative IPC: 1.02657 (Simulation time: 4 hr 29 min 4 sec) 
Heartbeat CPU 1 instructions: 950000000 cycles: 1191094731 heartbeat IPC: 0.654482 cumulative IPC: 0.658591 (Simulation time: 4 hr 29 min 48 sec) 
Heartbeat CPU 2 instructions: 1200000000 cycles: 1194282131 heartbeat IPC: 0.688288 cumulative IPC: 0.914498 (Simulation time: 4 hr 30 min 28 sec) 
Heartbeat CPU 0 instructions: 1310000000 cycles: 1197211945 heartbeat IPC: 1.03739 cumulative IPC: 1.02667 (Simulation time: 4 hr 31 min 5 sec) 
Heartbeat CPU 3 instructions: 1110000003 cycles: 1198783575 heartbeat IPC: 0.784879 cumulative IPC: 0.765117 (Simulation time: 4 hr 31 min 25 sec) 
Heartbeat CPU 1 instructions: 960000000 cycles: 1206589226 heartbeat IPC: 0.645391 cumulative IPC: 0.658404 (Simulation time: 4 hr 33 min 3 sec) 
Heartbeat CPU 0 instructions: 1320000000 cycles: 1206830150 heartbeat IPC: 1.0397 cumulative IPC: 1.02679 (Simulation time: 4 hr 33 min 7 sec) 
Heartbeat CPU 2 instructions: 1210000002 cycles: 1208625020 heartbeat IPC: 0.69721 cumulative IPC: 0.911645 (Simulation time: 4 hr 33 min 29 sec) 
Heartbeat CPU 3 instructions: 1120000000 cycles: 1211549396 heartbeat IPC: 0.783341 cumulative IPC: 0.76533 (Simulation time: 4 hr 34 min 6 sec) 
Finished CPU 2 instructions: 1000000001 cycles: 1098235527 cumulative IPC: 0.910551 (Simulation time: 4 hr 34 min 40 sec) 
Heartbeat CPU 0 instructions: 1330000002 cycles: 1216458182 heartbeat IPC: 1.03863 cumulative IPC: 1.02689 (Simulation time: 4 hr 35 min 8 sec) 
Heartbeat CPU 1 instructions: 970000001 cycles: 1222225390 heartbeat IPC: 0.639543 cumulative IPC: 0.658137 (Simulation time: 4 hr 36 min 20 sec) 
Heartbeat CPU 2 instructions: 1220000000 cycles: 1222584069 heartbeat IPC: 0.716381 cumulative IPC: 0.909182 (Simulation time: 4 hr 36 min 25 sec) 
Heartbeat CPU 3 instructions: 1130000002 cycles: 1224278295 heartbeat IPC: 0.785614 cumulative IPC: 0.765563 (Simulation time: 4 hr 36 min 46 sec) 
Heartbeat CPU 0 instructions: 1340000000 cycles: 1226086715 heartbeat IPC: 1.03858 cumulative IPC: 1.02699 (Simulation time: 4 hr 37 min 9 sec) 
Heartbeat CPU 2 instructions: 1230000001 cycles: 1232668347 heartbeat IPC: 0.991643 cumulative IPC: 0.909927 (Simulation time: 4 hr 38 min 32 sec) 
Heartbeat CPU 0 instructions: 1350000001 cycles: 1235775168 heartbeat IPC: 1.03216 cumulative IPC: 1.02704 (Simulation time: 4 hr 39 min 11 sec) 
Heartbeat CPU 3 instructions: 1140000000 cycles: 1236937163 heartbeat IPC: 0.78996 cumulative IPC: 0.765838 (Simulation time: 4 hr 39 min 25 sec) 
Heartbeat CPU 1 instructions: 980000000 cycles: 1237991982 heartbeat IPC: 0.634252 cumulative IPC: 0.657801 (Simulation time: 4 hr 39 min 37 sec) 
Heartbeat CPU 2 instructions: 1240000000 cycles: 1244826006 heartbeat IPC: 0.822527 cumulative IPC: 0.908985 (Simulation time: 4 hr 40 min 59 sec) 
Heartbeat CPU 0 instructions: 1360000000 cycles: 1245582281 heartbeat IPC: 1.01967 cumulative IPC: 1.02697 (Simulation time: 4 hr 41 min 9 sec) 
Heartbeat CPU 3 instructions: 1150000003 cycles: 1249637533 heartbeat IPC: 0.787379 cumulative IPC: 0.766079 (Simulation time: 4 hr 42 min 2 sec) 
Heartbeat CPU 1 instructions: 990000000 cycles: 1253702756 heartbeat IPC: 0.636506 cumulative IPC: 0.657507 (Simulation time: 4 hr 42 min 55 sec) 
Heartbeat CPU 0 instructions: 1370000003 cycles: 1255281625 heartbeat IPC: 1.031 cumulative IPC: 1.02701 (Simulation time: 4 hr 43 min 16 sec) 
Heartbeat CPU 2 instructions: 1250000003 cycles: 1255859910 heartbeat IPC: 0.906298 cumulative IPC: 0.908959 (Simulation time: 4 hr 43 min 24 sec) 
Heartbeat CPU 3 instructions: 1160000000 cycles: 1262365524 heartbeat IPC: 0.78567 cumulative IPC: 0.766297 (Simulation time: 4 hr 44 min 47 sec) 
Heartbeat CPU 0 instructions: 1380000000 cycles: 1265084119 heartbeat IPC: 1.02015 cumulative IPC: 1.02695 (Simulation time: 4 hr 45 min 18 sec) 
Heartbeat CPU 2 instructions: 1260000000 cycles: 1268556224 heartbeat IPC: 0.78763 cumulative IPC: 0.907623 (Simulation time: 4 hr 45 min 58 sec) 
Heartbeat CPU 1 instructions: 1000000000 cycles: 1269003149 heartbeat IPC: 0.653578 cumulative IPC: 0.657455 (Simulation time: 4 hr 46 min 3 sec) 
Heartbeat CPU 0 instructions: 1390000003 cycles: 1274911602 heartbeat IPC: 1.01755 cumulative IPC: 1.02687 (Simulation time: 4 hr 47 min 14 sec) 
Heartbeat CPU 3 instructions: 1170000002 cycles: 1275100760 heartbeat IPC: 0.785223 cumulative IPC: 0.766505 (Simulation time: 4 hr 47 min 16 sec) 
Heartbeat CPU 2 instructions: 1270000000 cycles: 1281603410 heartbeat IPC: 0.766449 cumulative IPC: 0.906043 (Simulation time: 4 hr 48 min 33 sec) 
Heartbeat CPU 1 instructions: 1010000001 cycles: 1284343293 heartbeat IPC: 0.651884 cumulative IPC: 0.657382 (Simulation time: 4 hr 49 min 5 sec) 
Heartbeat CPU 0 instructions: 1400000000 cycles: 1284746370 heartbeat IPC: 1.0168 cumulative IPC: 1.02678 (Simulation time: 4 hr 49 min 10 sec) 
Heartbeat CPU 3 instructions: 1180000000 cycles: 1287765548 heartbeat IPC: 0.789591 cumulative IPC: 0.766754 (Simulation time: 4 hr 49 min 46 sec) 
Heartbeat CPU 0 instructions: 1410000000 cycles: 1294668238 heartbeat IPC: 1.00787 cumulative IPC: 1.02662 (Simulation time: 4 hr 51 min 11 sec) 
Heartbeat CPU 2 instructions: 1280000000 cycles: 1295002403 heartbeat IPC: 0.746325 cumulative IPC: 0.904227 (Simulation time: 4 hr 51 min 16 sec) 
Heartbeat CPU 1 instructions: 1020000000 cycles: 1300355947 heartbeat IPC: 0.624506 cumulative IPC: 0.656937 (Simulation time: 4 hr 52 min 24 sec) 
Heartbeat CPU 3 instructions: 1190000002 cycles: 1300747802 heartbeat IPC: 0.770282 cumulative IPC: 0.766793 (Simulation time: 4 hr 52 min 29 sec) 
Heartbeat CPU 0 instructions: 1420000000 cycles: 1304560382 heartbeat IPC: 1.0109 cumulative IPC: 1.02649 (Simulation time: 4 hr 53 min 18 sec) 
Heartbeat CPU 2 instructions: 1290000003 cycles: 1308058896 heartbeat IPC: 0.765903 cumulative IPC: 0.902712 (Simulation time: 4 hr 54 min 2 sec) 
Heartbeat CPU 3 instructions: 1200000000 cycles: 1313647473 heartbeat IPC: 0.775213 cumulative IPC: 0.766884 (Simulation time: 4 hr 55 min 9 sec) 
Heartbeat CPU 0 instructions: 1430000001 cycles: 1314425820 heartbeat IPC: 1.01364 cumulative IPC: 1.02639 (Simulation time: 4 hr 55 min 19 sec) 
Heartbeat CPU 1 instructions: 1030000003 cycles: 1316248526 heartbeat IPC: 0.629225 cumulative IPC: 0.65657 (Simulation time: 4 hr 55 min 42 sec) 
Heartbeat CPU 2 instructions: 1300000000 cycles: 1317187207 heartbeat IPC: 1.09549 cumulative IPC: 0.904177 (Simulation time: 4 hr 55 min 55 sec) 
Heartbeat CPU 0 instructions: 1440000000 cycles: 1324024653 heartbeat IPC: 1.04179 cumulative IPC: 1.02651 (Simulation time: 4 hr 57 min 24 sec) 
Heartbeat CPU 2 instructions: 1310000002 cycles: 1324841976 heartbeat IPC: 1.30638 cumulative IPC: 0.906724 (Simulation time: 4 hr 57 min 34 sec) 
Heartbeat CPU 3 instructions: 1210000000 cycles: 1326418754 heartbeat IPC: 0.783007 cumulative IPC: 0.767054 (Simulation time: 4 hr 57 min 55 sec) 
Heartbeat CPU 1 instructions: 1040000000 cycles: 1331551011 heartbeat IPC: 0.653488 cumulative IPC: 0.656532 (Simulation time: 4 hr 59 min 2 sec) 
Heartbeat CPU 2 instructions: 1320000000 cycles: 1332480773 heartbeat IPC: 1.30911 cumulative IPC: 0.909251 (Simulation time: 4 hr 59 min 14 sec) 
Heartbeat CPU 0 instructions: 1450000001 cycles: 1333689434 heartbeat IPC: 1.03468 cumulative IPC: 1.02657 (Simulation time: 4 hr 59 min 29 sec) 
Heartbeat CPU 3 instructions: 1220000000 cycles: 1339207276 heartbeat IPC: 0.781951 cumulative IPC: 0.76721 (Simulation time: 5 hr 0 min 38 sec) 
Heartbeat CPU 2 instructions: 1330000002 cycles: 1342943741 heartbeat IPC: 0.955752 cumulative IPC: 0.909648 (Simulation time: 5 hr 1 min 26 sec) 
Heartbeat CPU 0 instructions: 1460000000 cycles: 1343427718 heartbeat IPC: 1.02687 cumulative IPC: 1.02658 (Simulation time: 5 hr 1 min 32 sec) 
Heartbeat CPU 1 instructions: 1050000002 cycles: 1347505885 heartbeat IPC: 0.626768 cumulative IPC: 0.656146 (Simulation time: 5 hr 2 min 23 sec) 
Heartbeat CPU 3 instructions: 1230000000 cycles: 1351974465 heartbeat IPC: 0.783258 cumulative IPC: 0.767375 (Simulation time: 5 hr 3 min 18 sec) 
Heartbeat CPU 0 instructions: 1470000001 cycles: 1353203700 heartbeat IPC: 1.02292 cumulative IPC: 1.02655 (Simulation time: 5 hr 3 min 33 sec) 
Heartbeat CPU 2 instructions: 1340000000 cycles: 1353845290 heartbeat IPC: 0.917301 cumulative IPC: 0.909715 (Simulation time: 5 hr 3 min 41 sec) 
Heartbeat CPU 1 instructions: 1060000000 cycles: 1362769639 heartbeat IPC: 0.655147 cumulative IPC: 0.656134 (Simulation time: 5 hr 5 min 31 sec) 
Heartbeat CPU 0 instructions: 1480000000 cycles: 1362980958 heartbeat IPC: 1.02278 cumulative IPC: 1.02652 (Simulation time: 5 hr 5 min 33 sec) 
Heartbeat CPU 2 instructions: 1350000003 cycles: 1364320004 heartbeat IPC: 0.95468 cumulative IPC: 0.910092 (Simulation time: 5 hr 5 min 50 sec) 
Heartbeat CPU 3 instructions: 1240000000 cycles: 1364804382 heartbeat IPC: 0.779428 cumulative IPC: 0.767499 (Simulation time: 5 hr 5 min 56 sec) 
Heartbeat CPU 2 instructions: 1360000000 cycles: 1372274085 heartbeat IPC: 1.25722 cumulative IPC: 0.91229 (Simulation time: 5 hr 7 min 31 sec) 
Heartbeat CPU 0 instructions: 1490000001 cycles: 1372745430 heartbeat IPC: 1.02412 cumulative IPC: 1.0265 (Simulation time: 5 hr 7 min 38 sec) 
Heartbeat CPU 3 instructions: 1250000000 cycles: 1377614903 heartbeat IPC: 0.780608 cumulative IPC: 0.767632 (Simulation time: 5 hr 8 min 40 sec) 
Heartbeat CPU 1 instructions: 1070000000 cycles: 1378034861 heartbeat IPC: 0.655084 cumulative IPC: 0.656121 (Simulation time: 5 hr 8 min 46 sec) 
Heartbeat CPU 2 instructions: 1370000003 cycles: 1380821116 heartbeat IPC: 1.17 cumulative IPC: 0.914032 (Simulation time: 5 hr 9 min 21 sec) 
Heartbeat CPU 0 instructions: 1500000000 cycles: 1382486660 heartbeat IPC: 1.02656 cumulative IPC: 1.0265 (Simulation time: 5 hr 9 min 42 sec) 
Heartbeat CPU 3 instructions: 1260000000 cycles: 1390484503 heartbeat IPC: 0.777025 cumulative IPC: 0.767727 (Simulation time: 5 hr 11 min 20 sec) 
Heartbeat CPU 0 instructions: 1510000001 cycles: 1392255073 heartbeat IPC: 1.02371 cumulative IPC: 1.02648 (Simulation time: 5 hr 11 min 42 sec) 
Heartbeat CPU 1 instructions: 1080000000 cycles: 1393515624 heartbeat IPC: 0.645963 cumulative IPC: 0.655998 (Simulation time: 5 hr 11 min 58 sec) 
Heartbeat CPU 2 instructions: 1380000000 cycles: 1393516105 heartbeat IPC: 0.787712 cumulative IPC: 0.912776 (Simulation time: 5 hr 11 min 58 sec) 
Heartbeat CPU 0 instructions: 1520000000 cycles: 1402032943 heartbeat IPC: 1.02272 cumulative IPC: 1.02645 (Simulation time: 5 hr 13 min 43 sec) 
Heartbeat CPU 3 instructions: 1270000000 cycles: 1403299179 heartbeat IPC: 0.780355 cumulative IPC: 0.767853 (Simulation time: 5 hr 13 min 59 sec) 
Heartbeat CPU 2 instructions: 1390000002 cycles: 1405622779 heartbeat IPC: 0.825991 cumulative IPC: 0.911962 (Simulation time: 5 hr 14 min 27 sec) 
Heartbeat CPU 1 instructions: 1090000000 cycles: 1409554778 heartbeat IPC: 0.623474 cumulative IPC: 0.655595 (Simulation time: 5 hr 15 min 17 sec) 
Heartbeat CPU 0 instructions: 1530000000 cycles: 1411796835 heartbeat IPC: 1.02418 cumulative IPC: 1.02643 (Simulation time: 5 hr 15 min 45 sec) 
Heartbeat CPU 3 instructions: 1280000000 cycles: 1416126031 heartbeat IPC: 0.779615 cumulative IPC: 0.767969 (Simulation time: 5 hr 16 min 40 sec) 
Finished CPU 3 instructions: 1000000000 cycles: 1302110547 cumulative IPC: 0.767984 (Simulation time: 5 hr 17 min 6 sec) 
Heartbeat CPU 2 instructions: 1400000000 cycles: 1420188517 heartbeat IPC: 0.686543 cumulative IPC: 0.909444 (Simulation time: 5 hr 17 min 32 sec) 
Heartbeat CPU 0 instructions: 1540000000 cycles: 1421431553 heartbeat IPC: 1.03791 cumulative IPC: 1.02652 (Simulation time: 5 hr 17 min 48 sec) 
Heartbeat CPU 1 instructions: 1100000000 cycles: 1425023909 heartbeat IPC: 0.646449 cumulative IPC: 0.655487 (Simulation time: 5 hr 18 min 34 sec) 
Heartbeat CPU 3 instructions: 1290000000 cycles: 1428988474 heartbeat IPC: 0.777457 cumulative IPC: 0.768062 (Simulation time: 5 hr 19 min 24 sec) 
Heartbeat CPU 0 instructions: 1550000001 cycles: 1431063532 heartbeat IPC: 1.03821 cumulative IPC: 1.0266 (Simulation time: 5 hr 19 min 51 sec) 
Heartbeat CPU 2 instructions: 1410000003 cycles: 1434559808 heartbeat IPC: 0.695832 cumulative IPC: 0.907116 (Simulation time: 5 hr 20 min 36 sec) 
Heartbeat CPU 1 instructions: 1110000000 cycles: 1440147835 heartbeat IPC: 0.661204 cumulative IPC: 0.655552 (Simulation time: 5 hr 21 min 46 sec) 
Heartbeat CPU 0 instructions: 1560000000 cycles: 1440681190 heartbeat IPC: 1.03975 cumulative IPC: 1.0267 (Simulation time: 5 hr 21 min 53 sec) 
Heartbeat CPU 3 instructions: 1300000000 cycles: 1441815969 heartbeat IPC: 0.779575 cumulative IPC: 0.768173 (Simulation time: 5 hr 22 min 8 sec) 
Heartbeat CPU 2 instructions: 1420000000 cycles: 1448885739 heartbeat IPC: 0.698035 cumulative IPC: 0.904868 (Simulation time: 5 hr 23 min 37 sec) 
Heartbeat CPU 0 instructions: 1570000002 cycles: 1450312252 heartbeat IPC: 1.03831 cumulative IPC: 1.02678 (Simulation time: 5 hr 23 min 55 sec) 
[...]
Heartbeat CPU 2 instructions: 1510000003 cycles: 1552992707 heartbeat IPC: 1.29938 cumulative IPC: 0.901943 (Simulation time: 5 hr 45 min 28 sec) 
Heartbeat CPU 3 instructions: 1390000002 cycles: 1557776929 heartbeat IPC: 0.783704 cumulative IPC: 0.768813 (Simulation time: 5 hr 46 min 31 sec) 
Heartbeat CPU 0 instructions: 1680000000 cycles: 1557925597 heartbeat IPC: 1.03893 cumulative IPC: 1.02644 (Simulation time: 5 hr 46 min 33 sec) 
Heartbeat CPU 2 instructions: 1520000000 cycles: 1560647836 heartbeat IPC: 1.30631 cumulative IPC: 0.904086 (Simulation time: 5 hr 47 min 9 sec) 
Heartbeat CPU 1 instructions: 1190000000 cycles: 1561764413 heartbeat IPC: 0.661137 cumulative IPC: 0.655742 (Simulation time: 5 hr 47 min 24 sec) 
Heartbeat CPU 0 instructions: 1690000000 cycles: 1567555501 heartbeat IPC: 1.03843 cumulative IPC: 1.02652 (Simulation time: 5 hr 48 min 39 sec) 
Heartbeat CPU 2 instructions: 1530000000 cycles: 1569776947 heartbeat IPC: 1.0954 cumulative IPC: 0.905288 (Simulation time: 5 hr 49 min 7 sec) 
Heartbeat CPU 3 instructions: 1400000000 cycles: 1570558253 heartbeat IPC: 0.782391 cumulative IPC: 0.768932 (Simulation time: 5 hr 49 min 17 sec) 
Heartbeat CPU 1 instructions: 1200000000 cycles: 1577246652 heartbeat IPC: 0.645901 cumulative IPC: 0.655637 (Simulation time: 5 hr 50 min 44 sec) 
Heartbeat CPU 0 instructions: 1700000000 cycles: 1577337073 heartbeat IPC: 1.02233 cumulative IPC: 1.02649 (Simulation time: 5 hr 50 min 45 sec) 
Heartbeat CPU 2 instructions: 1540000000 cycles: 1581131182 heartbeat IPC: 0.880729 cumulative IPC: 0.905097 (Simulation time: 5 hr 51 min 31 sec) 
Heartbeat CPU 3 instructions: 1410000000 cycles: 1583434201 heartbeat IPC: 0.776642 cumulative IPC: 0.769 (Simulation time: 5 hr 52 min 0 sec) 
Heartbeat CPU 0 instructions: 1710000002 cycles: 1587147785 heartbeat IPC: 1.01929 cumulative IPC: 1.02644 (Simulation time: 5 hr 52 min 47 sec) 
Heartbeat CPU 2 instructions: 1550000000 cycles: 1591193960 heartbeat IPC: 0.993761 cumulative IPC: 0.905702 (Simulation time: 5 hr 53 min 38 sec) 
Heartbeat CPU 1 instructions: 1210000001 cycles: 1592706151 heartbeat IPC: 0.646852 cumulative IPC: 0.655545 (Simulation time: 5 hr 53 min 56 sec) 
Heartbeat CPU 3 instructions: 1420000000 cycles: 1596362518 heartbeat IPC: 0.773496 cumulative IPC: 0.769039 (Simulation time: 5 hr 54 min 43 sec) 
Heartbeat CPU 0 instructions: 1720000000 cycles: 1596952875 heartbeat IPC: 1.01988 cumulative IPC: 1.0264 (Simulation time: 5 hr 54 min 50 sec) 
Heartbeat CPU 2 instructions: 1560000000 cycles: 1600328293 heartbeat IPC: 1.09477 cumulative IPC: 0.906866 (Simulation time: 5 hr 55 min 34 sec) 
Heartbeat CPU 0 instructions: 1730000000 cycles: 1606719149 heartbeat IPC: 1.02393 cumulative IPC: 1.02638 (Simulation time: 5 hr 56 min 59 sec) 
Heartbeat CPU 1 instructions: 1220000000 cycles: 1607436150 heartbeat IPC: 0.678887 cumulative IPC: 0.655776 (Simulation time: 5 hr 57 min 8 sec) 
Heartbeat CPU 2 instructions: 1570000003 cycles: 1608378780 heartbeat IPC: 1.24216 cumulative IPC: 0.908674 (Simulation time: 5 hr 57 min 20 sec) 
Heartbeat CPU 3 instructions: 1430000002 cycles: 1609203451 heartbeat IPC: 0.77876 cumulative IPC: 0.769123 (Simulation time: 5 hr 57 min 31 sec) 
Heartbeat CPU 0 instructions: 1740000000 cycles: 1616502471 heartbeat IPC: 1.02215 cumulative IPC: 1.02636 (Simulation time: 5 hr 59 min 1 sec) 
Heartbeat CPU 2 instructions: 1580000000 cycles: 1619729959 heartbeat IPC: 0.880965 cumulative IPC: 0.908465 (Simulation time: 5 hr 59 min 42 sec) 
Heartbeat CPU 3 instructions: 1440000000 cycles: 1622366338 heartbeat IPC: 0.759712 cumulative IPC: 0.76904 (Simulation time: 6 hr 0 min 16 sec) 
Heartbeat CPU 1 instructions: 1230000001 cycles: 1622874826 heartbeat IPC: 0.647724 cumulative IPC: 0.655693 (Simulation time: 6 hr 0 min 22 sec) 
Heartbeat CPU 0 instructions: 1750000003 cycles: 1626339910 heartbeat IPC: 1.01653 cumulative IPC: 1.02629 (Simulation time: 6 hr 1 min 7 sec) 
Heartbeat CPU 2 instructions: 1590000002 cycles: 1632905339 heartbeat IPC: 0.758992 cumulative IPC: 0.907167 (Simulation time: 6 hr 2 min 28 sec) 
Heartbeat CPU 3 instructions: 1450000001 cycles: 1635253675 heartbeat IPC: 0.775956 cumulative IPC: 0.769099 (Simulation time: 6 hr 2 min 58 sec) 
Heartbeat CPU 0 instructions: 1760000000 cycles: 1636214168 heartbeat IPC: 1.01273 cumulative IPC: 1.0262 (Simulation time: 6 hr 3 min 10 sec) 
Heartbeat CPU 1 instructions: 1240000000 cycles: 1638080126 heartbeat IPC: 0.657665 cumulative IPC: 0.655713 (Simulation time: 6 hr 3 min 34 sec) 
Finished CPU 1 instructions: 1000000001 cycles: 1525063997 cumulative IPC: 0.65571 (Simulation time: 6 hr 4 min 13 sec) 

CPU 0 Branch Prediction Accuracy: 99.9779% MPKI: 0.00148813

CPU 1 Branch Prediction Accuracy: 96.5708% MPKI: 4.30842

CPU 2 Branch Prediction Accuracy: 99.7524% MPKI: 0.0898108

CPU 3 Branch Prediction Accuracy: 99.9486% MPKI: 0.12248

ChampSim completed all CPUs

Total Simulation Statistics (not including warmup)

CPU 0 cumulative IPC: 1.02622 instructions: 1565051339 cycles: 1525063996
L1D TOTAL     ACCESS:  627797554  HIT:  502311739  MISS:  125485815
L1D LOAD      ACCESS:  502461869  HIT:  387256215  MISS:  115205654
L1D RFO       ACCESS:  125335685  HIT:  115055524  MISS:   10280161
L1D PREFETCH  ACCESS:          0  HIT:          0  MISS:          0
L1D WRITEBACK ACCESS:          0  HIT:          0  MISS:          0
L1I TOTAL     ACCESS:  373835877  HIT:  333144765  MISS:   40691112
L1I LOAD      ACCESS:  373835877  HIT:  333144765  MISS:   40691112
L1I RFO       ACCESS:          0  HIT:          0  MISS:          0
L1I PREFETCH  ACCESS:          0  HIT:          0  MISS:          0
L1I WRITEBACK ACCESS:          0  HIT:          0  MISS:          0
L2C TOTAL     ACCESS:  327579677  HIT:  309790342  MISS:   17789335
L2C LOAD      ACCESS:  155888526  HIT:  151917272  MISS:    3971254
L2C RFO       ACCESS:   10270875  HIT:    8802937  MISS:    1467938
L2C PREFETCH  ACCESS:  149882254  HIT:  137543448  MISS:   12338806
L2C WRITEBACK ACCESS:   11538022  HIT:   11526685  MISS:      11337

Avg Lookahead Depth:	3.22009
TOTAL: 3.37123e+08	L2C: 2.61883e+08	LLC: 7.52405e+07	GOOD_L2C: 1.52888e+08
Printing all the perceptron weights to: perc_weights_0.csv
LLC TOTAL     ACCESS:   29951156  HIT:   25660427  MISS:    4290729
LLC LOAD      ACCESS:    3751029  HIT:    3169726  MISS:     581303
LLC RFO       ACCESS:    1345661  HIT:     424464  MISS:     921197
LLC PREFETCH  ACCESS:   23362954  HIT:   20583913  MISS:    2779041
LLC WRITEBACK ACCESS:    1491512  HIT:    1482324  MISS:       9188

CPU 1 cumulative IPC: 0.65571 instructions: 1000000001 cycles: 1525063997
L1D TOTAL     ACCESS:  264166802  HIT:  256822808  MISS:    7343994
L1D LOAD      ACCESS:  158291074  HIT:  151244053  MISS:    7047021
L1D RFO       ACCESS:  105875728  HIT:  105578755  MISS:     296973
L1D PREFETCH  ACCESS:          0  HIT:          0  MISS:          0
L1D WRITEBACK ACCESS:          0  HIT:          0  MISS:          0
L1I TOTAL     ACCESS:  222835151  HIT:  222835148  MISS:          3
L1I LOAD      ACCESS:  222835151  HIT:  222835148  MISS:          3
L1I RFO       ACCESS:          0  HIT:          0  MISS:          0
L1I PREFETCH  ACCESS:          0  HIT:          0  MISS:          0
L1I WRITEBACK ACCESS:          0  HIT:          0  MISS:          0
L2C TOTAL     ACCESS:   16709197  HIT:    8884099  MISS:    7825098
L2C LOAD      ACCESS:    7047024  HIT:    3342804  MISS:    3704220
L2C RFO       ACCESS:     296957  HIT:     130479  MISS:     166478
L2C PREFETCH  ACCESS:    8890791  HIT:    4944916  MISS:    3945875
L2C WRITEBACK ACCESS:     474425  HIT:     465900  MISS:       8525

Avg Lookahead Depth:	3.22009
TOTAL: 3.37123e+08	L2C: 2.61883e+08	LLC: 7.52405e+07	GOOD_L2C: 1.52888e+08
Printing all the perceptron weights to: perc_weights_0.csv
LLC TOTAL     ACCESS:   10436374  HIT:    9532449  MISS:     903925
LLC LOAD      ACCESS:    3628298  HIT:    3529253  MISS:      99045
LLC RFO       ACCESS:     166452  HIT:      32847  MISS:     133605
LLC PREFETCH  ACCESS:    6376646  HIT:    5714678  MISS:     661968
LLC WRITEBACK ACCESS:     264978  HIT:     255671  MISS:       9307

CPU 2 cumulative IPC: 0.906666 instructions: 1382723064 cycles: 1525063997
L1D TOTAL     ACCESS:  398956190  HIT:  351415666  MISS:   47540524
L1D LOAD      ACCESS:  347526711  HIT:  308115604  MISS:   39411107
L1D RFO       ACCESS:   51429479  HIT:   43300062  MISS:    8129417
L1D PREFETCH  ACCESS:          0  HIT:          0  MISS:          0
L1D WRITEBACK ACCESS:          0  HIT:          0  MISS:          0
L1I TOTAL     ACCESS:  326371131  HIT:  326365901  MISS:       5230
L1I LOAD      ACCESS:  326371131  HIT:  326365901  MISS:       5230
L1I RFO       ACCESS:          0  HIT:          0  MISS:          0
L1I PREFETCH  ACCESS:          0  HIT:          0  MISS:          0
L1I WRITEBACK ACCESS:          0  HIT:          0  MISS:          0
L2C TOTAL     ACCESS:  109020626  HIT:   71237704  MISS:   37782922
L2C LOAD      ACCESS:   39413523  HIT:   37170485  MISS:    2243038
L2C RFO       ACCESS:    8128222  HIT:      29868  MISS:    8098354
L2C PREFETCH  ACCESS:   50762251  HIT:   23322102  MISS:   27440149
L2C WRITEBACK ACCESS:   10716630  HIT:   10715249  MISS:       1381

Avg Lookahead Depth:	3.22009
TOTAL: 3.37123e+08	L2C: 2.61883e+08	LLC: 7.52405e+07	GOOD_L2C: 1.52888e+08
Printing all the perceptron weights to: perc_weights_0.csv
LLC TOTAL     ACCESS:   51118735  HIT:   13403762  MISS:   37714973
LLC LOAD      ACCESS:    1377999  HIT:      40866  MISS:    1337133
LLC RFO       ACCESS:    8098328  HIT:     108728  MISS:    7989600
LLC PREFETCH  ACCESS:   31049030  HIT:    2661299  MISS:   28387731
LLC WRITEBACK ACCESS:   10593378  HIT:   10592869  MISS:        509

CPU 3 cumulative IPC: 0.769129 instructions: 1172970728 cycles: 1525063997
L1D TOTAL     ACCESS:  242812029  HIT:  210970932  MISS:   31841097
L1D LOAD      ACCESS:  219259778  HIT:  187418682  MISS:   31841096
L1D RFO       ACCESS:   23552251  HIT:   23552250  MISS:          1
L1D PREFETCH  ACCESS:          0  HIT:          0  MISS:          0
L1D WRITEBACK ACCESS:          0  HIT:          0  MISS:          0
L1I TOTAL     ACCESS:  405770404  HIT:  405770393  MISS:         11
L1I LOAD      ACCESS:  405770404  HIT:  405770393  MISS:         11
L1I RFO       ACCESS:          0  HIT:          0  MISS:          0
L1I PREFETCH  ACCESS:          0  HIT:          0  MISS:          0
L1I WRITEBACK ACCESS:          0  HIT:          0  MISS:          0
L2C TOTAL     ACCESS:   65417008  HIT:   32735197  MISS:   32681811
L2C LOAD      ACCESS:   31841107  HIT:   28494728  MISS:    3346379
L2C RFO       ACCESS:          1  HIT:          0  MISS:          1
L2C PREFETCH  ACCESS:   33573559  HIT:    4238128  MISS:   29335431
L2C WRITEBACK ACCESS:       2341  HIT:       2341  MISS:          0

Avg Lookahead Depth:	3.22009
TOTAL: 3.37123e+08	L2C: 2.61883e+08	LLC: 7.52405e+07	GOOD_L2C: 1.52888e+08
Printing all the perceptron weights to: perc_weights_0.csv
LLC TOTAL     ACCESS:   35207098  HIT:   32638136  MISS:    2568962
LLC LOAD      ACCESS:    1868483  HIT:    1749683  MISS:     118800
LLC RFO       ACCESS:          1  HIT:          0  MISS:          1
LLC PREFETCH  ACCESS:   33336535  HIT:   30886376  MISS:    2450159
LLC WRITEBACK ACCESS:       2079  HIT:       2077  MISS:          2

Region of Interest Statistics

CPU 0 cumulative IPC: 1.02663 instructions: 1000000000 cycles: 974063639
L1D TOTAL     ACCESS:  401130823  HIT:  320953785  MISS:   80177038
L1D LOAD      ACCESS:  321045798  HIT:  247437140  MISS:   73608658
L1D RFO       ACCESS:   80085025  HIT:   73516645  MISS:    6568380
L1D PREFETCH  ACCESS:          0  HIT:          0  MISS:          0
L1D WRITEBACK ACCESS:          0  HIT:          0  MISS:          0
L1D PREFETCH  REQUESTED:          0  ISSUED:          0  USEFUL:          0  USELESS:          0
L1I TOTAL     ACCESS:  238864439  HIT:  212864425  MISS:   26000014
L1I LOAD      ACCESS:  238864439  HIT:  212864425  MISS:   26000014
L1I RFO       ACCESS:          0  HIT:          0  MISS:          0
L1I PREFETCH  ACCESS:          0  HIT:          0  MISS:          0
L1I WRITEBACK ACCESS:          0  HIT:          0  MISS:          0
L1I PREFETCH  REQUESTED:          0  ISSUED:          0  USEFUL:          0  USELESS:          0
L2C TOTAL     ACCESS:  209303473  HIT:  197932110  MISS:   11371363
L2C LOAD      ACCESS:   99603286  HIT:   97081424  MISS:    2521862
L2C RFO       ACCESS:    6562463  HIT:    5619555  MISS:     942908
L2C PREFETCH  ACCESS:   95765314  HIT:   87866141  MISS:    7899173
L2C WRITEBACK ACCESS:    7372410  HIT:    7364990  MISS:       7420
L2C PREFETCH  REQUESTED:  210575151  ISSUED:  199902305  USEFUL:   11508259  USELESS:    2533886
LLC TOTAL     ACCESS:   19098199  HIT:   16360681  MISS:    2737518
LLC LOAD      ACCESS:    2383903  HIT:    2012419  MISS:     371484
LLC RFO       ACCESS:     862864  HIT:     274194  MISS:     588670
LLC PREFETCH  ACCESS:   14893312  HIT:   13121654  MISS:    1771658
LLC WRITEBACK ACCESS:     958120  HIT:     952414  MISS:       5706
LLC PREFETCH  REQUESTED:          0  ISSUED:          0  USEFUL:    1728025  USELESS:   40339809
Major fault: 0 Minor fault: 37468

CPU 1 cumulative IPC: 0.65571 instructions: 1000000001 cycles: 1525063997
L1D TOTAL     ACCESS:  264166802  HIT:  256822808  MISS:    7343994
L1D LOAD      ACCESS:  158291074  HIT:  151244053  MISS:    7047021
L1D RFO       ACCESS:  105875728  HIT:  105578755  MISS:     296973
L1D PREFETCH  ACCESS:          0  HIT:          0  MISS:          0
L1D WRITEBACK ACCESS:          0  HIT:          0  MISS:          0
L1D PREFETCH  REQUESTED:          0  ISSUED:          0  USEFUL:          0  USELESS:          0
L1I TOTAL     ACCESS:  222835151  HIT:  222835148  MISS:          3
L1I LOAD      ACCESS:  222835151  HIT:  222835148  MISS:          3
L1I RFO       ACCESS:          0  HIT:          0  MISS:          0
L1I PREFETCH  ACCESS:          0  HIT:          0  MISS:          0
L1I WRITEBACK ACCESS:          0  HIT:          0  MISS:          0
L1I PREFETCH  REQUESTED:          0  ISSUED:          0  USEFUL:          0  USELESS:          0
L2C TOTAL     ACCESS:   16709197  HIT:    8884099  MISS:    7825098
L2C LOAD      ACCESS:    7047024  HIT:    3342804  MISS:    3704220
L2C RFO       ACCESS:     296957  HIT:     130479  MISS:     166478
L2C PREFETCH  ACCESS:    8890791  HIT:    4944916  MISS:    3945875
L2C WRITEBACK ACCESS:     474425  HIT:     465900  MISS:       8525
L2C PREFETCH  REQUESTED:   14428760  ISSUED:   14428760  USEFUL:    3170022  USELESS:    1652881
LLC TOTAL     ACCESS:   10436374  HIT:    9532449  MISS:     903925
LLC LOAD      ACCESS:    3628298  HIT:    3529253  MISS:      99045
LLC RFO       ACCESS:     166452  HIT:      32847  MISS:     133605
LLC PREFETCH  ACCESS:    6376646  HIT:    5714678  MISS:     661968
LLC WRITEBACK ACCESS:     264978  HIT:     255671  MISS:       9307
LLC PREFETCH  REQUESTED:          0  ISSUED:          0  USEFUL:    1728025  USELESS:   40339809
Major fault: 0 Minor fault: 3008

CPU 2 cumulative IPC: 0.910551 instructions: 1000000001 cycles: 1098235527
L1D TOTAL     ACCESS:  297885438  HIT:  264701849  MISS:   33183589
L1D LOAD      ACCESS:  257881647  HIT:  230388478  MISS:   27493169
L1D RFO       ACCESS:   40003791  HIT:   34313371  MISS:    5690420
L1D PREFETCH  ACCESS:          0  HIT:          0  MISS:          0
L1D WRITEBACK ACCESS:          0  HIT:          0  MISS:          0
L1D PREFETCH  REQUESTED:          0  ISSUED:          0  USEFUL:          0  USELESS:          0
L1I TOTAL     ACCESS:  237246055  HIT:  237242290  MISS:       3765
L1I LOAD      ACCESS:  237246055  HIT:  237242290  MISS:       3765
L1I RFO       ACCESS:          0  HIT:          0  MISS:          0
L1I PREFETCH  ACCESS:          0  HIT:          0  MISS:          0
L1I WRITEBACK ACCESS:          0  HIT:          0  MISS:          0
L1I PREFETCH  REQUESTED:          0  ISSUED:          0  USEFUL:          0  USELESS:          0
L2C TOTAL     ACCESS:   77298669  HIT:   50340757  MISS:   26957912
L2C LOAD      ACCESS:   27495174  HIT:   25928118  MISS:    1567056
L2C RFO       ACCESS:    5689428  HIT:      14304  MISS:    5675124
L2C PREFETCH  ACCESS:   36726762  HIT:   17012163  MISS:   19714599
L2C WRITEBACK ACCESS:    7387305  HIT:    7386172  MISS:       1133
L2C PREFETCH  REQUESTED:   64548444  ISSUED:   64528866  USEFUL:   29788245  USELESS:    2200030
LLC TOTAL     ACCESS:   36329052  HIT:    9438507  MISS:   26890545
LLC LOAD      ACCESS:     999023  HIT:      31461  MISS:     967562
LLC RFO       ACCESS:    5675107  HIT:      82791  MISS:    5592316
LLC PREFETCH  ACCESS:   22349522  HIT:    2019238  MISS:   20330284
LLC WRITEBACK ACCESS:    7305400  HIT:    7305017  MISS:        383
LLC PREFETCH  REQUESTED:          0  ISSUED:          0  USEFUL:    1728025  USELESS:   40339809
Major fault: 0 Minor fault: 96900

CPU 3 cumulative IPC: 0.767984 instructions: 1000000000 cycles: 1302110547
L1D TOTAL     ACCESS:  207090696  HIT:  179903264  MISS:   27187432
L1D LOAD      ACCESS:  187063789  HIT:  159876358  MISS:   27187431
L1D RFO       ACCESS:   20026907  HIT:   20026906  MISS:          1
L1D PREFETCH  ACCESS:          0  HIT:          0  MISS:          0
L1D WRITEBACK ACCESS:          0  HIT:          0  MISS:          0
L1D PREFETCH  REQUESTED:          0  ISSUED:          0  USEFUL:          0  USELESS:          0
L1I TOTAL     ACCESS:  345890459  HIT:  345890448  MISS:         11
L1I LOAD      ACCESS:  345890459  HIT:  345890448  MISS:         11
L1I RFO       ACCESS:          0  HIT:          0  MISS:          0
L1I PREFETCH  ACCESS:          0  HIT:          0  MISS:          0
L1I WRITEBACK ACCESS:          0  HIT:          0  MISS:          0
L1I PREFETCH  REQUESTED:          0  ISSUED:          0  USEFUL:          0  USELESS:          0
L2C TOTAL     ACCESS:   55950337  HIT:   28212757  MISS:   27737580
L2C LOAD      ACCESS:   27187442  HIT:   24431061  MISS:    2756381
L2C RFO       ACCESS:          1  HIT:          0  MISS:          1
L2C PREFETCH  ACCESS:   28760752  HIT:    3779554  MISS:   24981198
L2C WRITEBACK ACCESS:       2142  HIT:       2142  MISS:          0
L2C PREFETCH  REQUESTED:   47571134  ISSUED:   47571134  USEFUL:   34456727  USELESS:    1815222
LLC TOTAL     ACCESS:   29711441  HIT:   27243701  MISS:    2467740
LLC LOAD      ACCESS:    1530644  HIT:    1416428  MISS:     114216
LLC RFO       ACCESS:          1  HIT:          0  MISS:          1
LLC PREFETCH  ACCESS:   28178916  HIT:   25825395  MISS:    2353521
LLC WRITEBACK ACCESS:       1880  HIT:       1878  MISS:          2
LLC PREFETCH  REQUESTED:          0  ISSUED:          0  USEFUL:    1728025  USELESS:   40339809
Major fault: 0 Minor fault: 4958

Avg Lookahead Depth:	3.22009
TOTAL: 3.37123e+08	L2C: 2.61883e+08	LLC: 7.52405e+07	GOOD_L2C: 1.52888e+08
Printing all the perceptron weights to: perc_weights_0.csv

Avg Lookahead Depth:	3.22009
TOTAL: 3.37123e+08	L2C: 2.61883e+08	LLC: 7.52405e+07	GOOD_L2C: 1.52888e+08
Printing all the perceptron weights to: perc_weights_0.csv

Avg Lookahead Depth:	3.22009
TOTAL: 3.37123e+08	L2C: 2.61883e+08	LLC: 7.52405e+07	GOOD_L2C: 1.52888e+08
Printing all the perceptron weights to: perc_weights_0.csv

Avg Lookahead Depth:	3.22009
TOTAL: 3.37123e+08	L2C: 2.61883e+08	LLC: 7.52405e+07	GOOD_L2C: 1.52888e+08
Printing all the perceptron weights to: perc_weights_0.csv

DRAM Statistics
 CHANNEL 0
 RQ ROW_BUFFER_HIT:   11199273  ROW_BUFFER_MISS:   11468925
 DBUS_CONGESTED:   28891117
 WQ ROW_BUFFER_HIT:     776065  ROW_BUFFER_MISS:    5053396  FULL:          0

 CHANNEL 1
 RQ ROW_BUFFER_HIT:   11120693  ROW_BUFFER_MISS:   11670059
 DBUS_CONGESTED:   28891117
 WQ ROW_BUFFER_HIT:     756631  ROW_BUFFER_MISS:    5072954  FULL:          0

 AVG_CONGESTED_CYCLE: 13
