Initialize SIGNATURE TABLE
ST_SET: 1
ST_WAY: 256
ST_TAG_BIT: 16
ST_TAG_MASK: ffff

Initialize PATTERN TABLE
PT_SET: 512
PT_WAY: 4
SIG_DELTA_BIT: 7
C_SIG_BIT: 4
C_DELTA_BIT: 4

Initialize PREFETCH FILTER
FILTER_SET: 1024

Initialize PERCEPTRON
PERC_ENTRIES: 4096
PERC_FEATURES: 9

*** ChampSim Multicore Out-of-Order Simulator ***

Warmup Instructions: 200000000
Simulation Instructions: 1000000000
Number of CPUs: 4
LLC sets: 8192
LLC ways: 16
Off-chip DRAM Size: 8192 MB Channels: 2 Width: 64-bit Data Rate: 1600 MT/s

CPU 0 runs /scratch/user/djimenez/champsim-traces/speccpu2017/xz/605.mcf_s/605.mcf_s-1536B.champsimtrace.xz
CPU 1 runs /scratch/user/djimenez/champsim-traces/speccpu2017/xz/627.cam4_s/627.cam4_s-490B.champsimtrace.xz
CPU 2 runs /scratch/user/djimenez/champsim-traces/speccpu2017/xz/623.xalancbmk_s/623.xalancbmk_s-592B.champsimtrace.xz
CPU 3 runs /scratch/user/djimenez/champsim-traces/speccpu2017/xz/603.bwaves_s/603.bwaves_s-1740B.champsimtrace.xz
Heartbeat CPU 0 instructions: 10000002 cycles: 3658167 heartbeat IPC: 2.73361 cumulative IPC: 2.73361 (Simulation time: 0 hr 1 min 20 sec) 
Heartbeat CPU 1 instructions: 10000002 cycles: 3991750 heartbeat IPC: 2.50517 cumulative IPC: 2.50517 (Simulation time: 0 hr 1 min 28 sec) 
Heartbeat CPU 2 instructions: 10000002 cycles: 5037290 heartbeat IPC: 1.98519 cumulative IPC: 1.98519 (Simulation time: 0 hr 1 min 51 sec) 
Heartbeat CPU 3 instructions: 10000001 cycles: 5273873 heartbeat IPC: 1.89614 cumulative IPC: 1.89614 (Simulation time: 0 hr 1 min 56 sec) 
Heartbeat CPU 0 instructions: 20000000 cycles: 7312131 heartbeat IPC: 2.73675 cumulative IPC: 2.73518 (Simulation time: 0 hr 2 min 42 sec) 
Heartbeat CPU 1 instructions: 20000000 cycles: 7769074 heartbeat IPC: 2.64738 cumulative IPC: 2.57431 (Simulation time: 0 hr 2 min 52 sec) 
Heartbeat CPU 2 instructions: 20000000 cycles: 10158880 heartbeat IPC: 1.95252 cumulative IPC: 1.96872 (Simulation time: 0 hr 3 min 45 sec) 
Heartbeat CPU 3 instructions: 20000000 cycles: 10550154 heartbeat IPC: 1.89527 cumulative IPC: 1.89571 (Simulation time: 0 hr 3 min 54 sec) 
Heartbeat CPU 0 instructions: 30000002 cycles: 10982645 heartbeat IPC: 2.72441 cumulative IPC: 2.73158 (Simulation time: 0 hr 4 min 4 sec) 
Heartbeat CPU 1 instructions: 30000000 cycles: 11740434 heartbeat IPC: 2.51803 cumulative IPC: 2.55527 (Simulation time: 0 hr 4 min 20 sec) 
Heartbeat CPU 0 instructions: 40000000 cycles: 14645727 heartbeat IPC: 2.72994 cumulative IPC: 2.73117 (Simulation time: 0 hr 5 min 25 sec) 
Heartbeat CPU 1 instructions: 40000000 cycles: 15541111 heartbeat IPC: 2.63111 cumulative IPC: 2.57382 (Simulation time: 0 hr 5 min 46 sec) 
Heartbeat CPU 3 instructions: 30000002 cycles: 15824792 heartbeat IPC: 1.89587 cumulative IPC: 1.89576 (Simulation time: 0 hr 5 min 52 sec) 
Heartbeat CPU 2 instructions: 30000003 cycles: 16153333 heartbeat IPC: 1.66821 cumulative IPC: 1.8572 (Simulation time: 0 hr 5 min 59 sec) 
Heartbeat CPU 0 instructions: 50000002 cycles: 18316367 heartbeat IPC: 2.72432 cumulative IPC: 2.7298 (Simulation time: 0 hr 6 min 48 sec) 
Heartbeat CPU 1 instructions: 50000000 cycles: 19397501 heartbeat IPC: 2.5931 cumulative IPC: 2.57765 (Simulation time: 0 hr 7 min 12 sec) 
Heartbeat CPU 3 instructions: 40000000 cycles: 21098216 heartbeat IPC: 1.8963 cumulative IPC: 1.89589 (Simulation time: 0 hr 7 min 50 sec) 
Heartbeat CPU 0 instructions: 60000000 cycles: 21985592 heartbeat IPC: 2.72537 cumulative IPC: 2.72906 (Simulation time: 0 hr 8 min 9 sec) 
Heartbeat CPU 2 instructions: 40000000 cycles: 22649551 heartbeat IPC: 1.53936 cumulative IPC: 1.76604 (Simulation time: 0 hr 8 min 24 sec) 
Heartbeat CPU 1 instructions: 60000000 cycles: 23330540 heartbeat IPC: 2.54256 cumulative IPC: 2.57174 (Simulation time: 0 hr 8 min 40 sec) 
Heartbeat CPU 0 instructions: 70000002 cycles: 25656341 heartbeat IPC: 2.72424 cumulative IPC: 2.72837 (Simulation time: 0 hr 9 min 31 sec) 
Heartbeat CPU 3 instructions: 50000003 cycles: 26373451 heartbeat IPC: 1.89565 cumulative IPC: 1.89585 (Simulation time: 0 hr 9 min 47 sec) 
Heartbeat CPU 1 instructions: 70000002 cycles: 27110063 heartbeat IPC: 2.64584 cumulative IPC: 2.58207 (Simulation time: 0 hr 10 min 3 sec) 
Heartbeat CPU 2 instructions: 50000000 cycles: 28908491 heartbeat IPC: 1.59771 cumulative IPC: 1.7296 (Simulation time: 0 hr 10 min 43 sec) 
Heartbeat CPU 0 instructions: 80000000 cycles: 29324453 heartbeat IPC: 2.7262 cumulative IPC: 2.7281 (Simulation time: 0 hr 10 min 53 sec) 
Heartbeat CPU 1 instructions: 80000000 cycles: 31029033 heartbeat IPC: 2.55169 cumulative IPC: 2.57823 (Simulation time: 0 hr 11 min 31 sec) 
Heartbeat CPU 3 instructions: 60000000 cycles: 31646115 heartbeat IPC: 1.89657 cumulative IPC: 1.89597 (Simulation time: 0 hr 11 min 44 sec) 
Heartbeat CPU 0 instructions: 90000002 cycles: 32996437 heartbeat IPC: 2.72332 cumulative IPC: 2.72757 (Simulation time: 0 hr 12 min 15 sec) 
Heartbeat CPU 1 instructions: 90000001 cycles: 34835708 heartbeat IPC: 2.62696 cumulative IPC: 2.58356 (Simulation time: 0 hr 12 min 56 sec) 
Heartbeat CPU 2 instructions: 60000000 cycles: 35086475 heartbeat IPC: 1.61865 cumulative IPC: 1.71006 (Simulation time: 0 hr 13 min 1 sec) 
Heartbeat CPU 0 instructions: 100000000 cycles: 36667447 heartbeat IPC: 2.72405 cumulative IPC: 2.72721 (Simulation time: 0 hr 13 min 36 sec) 
Heartbeat CPU 3 instructions: 70000000 cycles: 36920558 heartbeat IPC: 1.89593 cumulative IPC: 1.89596 (Simulation time: 0 hr 13 min 42 sec) 
Heartbeat CPU 1 instructions: 100000000 cycles: 38757889 heartbeat IPC: 2.5496 cumulative IPC: 2.58012 (Simulation time: 0 hr 14 min 23 sec) 
Heartbeat CPU 0 instructions: 110000001 cycles: 40342415 heartbeat IPC: 2.72111 cumulative IPC: 2.72666 (Simulation time: 0 hr 14 min 58 sec) 
Heartbeat CPU 2 instructions: 70000000 cycles: 41196880 heartbeat IPC: 1.63655 cumulative IPC: 1.69916 (Simulation time: 0 hr 15 min 17 sec) 
Heartbeat CPU 3 instructions: 80000000 cycles: 42195758 heartbeat IPC: 1.89566 cumulative IPC: 1.89593 (Simulation time: 0 hr 15 min 39 sec) 
Heartbeat CPU 1 instructions: 110000000 cycles: 42633214 heartbeat IPC: 2.58043 cumulative IPC: 2.58015 (Simulation time: 0 hr 15 min 49 sec) 
Heartbeat CPU 0 instructions: 120000000 cycles: 44015765 heartbeat IPC: 2.72231 cumulative IPC: 2.7263 (Simulation time: 0 hr 16 min 19 sec) 
Heartbeat CPU 1 instructions: 120000000 cycles: 46538765 heartbeat IPC: 2.56046 cumulative IPC: 2.5785 (Simulation time: 0 hr 17 min 16 sec) 
Heartbeat CPU 2 instructions: 80000000 cycles: 46576636 heartbeat IPC: 1.85882 cumulative IPC: 1.7176 (Simulation time: 0 hr 17 min 16 sec) 
Heartbeat CPU 3 instructions: 90000000 cycles: 47470716 heartbeat IPC: 1.89575 cumulative IPC: 1.89591 (Simulation time: 0 hr 17 min 36 sec) 
Heartbeat CPU 0 instructions: 130000000 cycles: 47685968 heartbeat IPC: 2.72464 cumulative IPC: 2.72617 (Simulation time: 0 hr 17 min 41 sec) 
Heartbeat CPU 1 instructions: 130000001 cycles: 50411754 heartbeat IPC: 2.58199 cumulative IPC: 2.57876 (Simulation time: 0 hr 18 min 42 sec) 
Heartbeat CPU 0 instructions: 140000000 cycles: 51361319 heartbeat IPC: 2.72083 cumulative IPC: 2.72579 (Simulation time: 0 hr 19 min 3 sec) 
Heartbeat CPU 2 instructions: 90000000 cycles: 51602648 heartbeat IPC: 1.98965 cumulative IPC: 1.7441 (Simulation time: 0 hr 19 min 9 sec) 
Heartbeat CPU 3 instructions: 100000000 cycles: 52745552 heartbeat IPC: 1.89579 cumulative IPC: 1.89589 (Simulation time: 0 hr 19 min 34 sec) 
Heartbeat CPU 1 instructions: 140000000 cycles: 54317267 heartbeat IPC: 2.56048 cumulative IPC: 2.57745 (Simulation time: 0 hr 20 min 10 sec) 
Heartbeat CPU 0 instructions: 150000003 cycles: 55037422 heartbeat IPC: 2.72027 cumulative IPC: 2.72542 (Simulation time: 0 hr 20 min 27 sec) 
Heartbeat CPU 2 instructions: 100000000 cycles: 56583626 heartbeat IPC: 2.00764 cumulative IPC: 1.7673 (Simulation time: 0 hr 21 min 2 sec) 
Heartbeat CPU 3 instructions: 110000001 cycles: 58019429 heartbeat IPC: 1.89614 cumulative IPC: 1.89592 (Simulation time: 0 hr 21 min 35 sec) 
Heartbeat CPU 1 instructions: 150000002 cycles: 58253566 heartbeat IPC: 2.54046 cumulative IPC: 2.57495 (Simulation time: 0 hr 21 min 40 sec) 
Heartbeat CPU 0 instructions: 160000000 cycles: 58718098 heartbeat IPC: 2.71689 cumulative IPC: 2.72488 (Simulation time: 0 hr 21 min 51 sec) 
Heartbeat CPU 2 instructions: 110000001 cycles: 62011842 heartbeat IPC: 1.84223 cumulative IPC: 1.77385 (Simulation time: 0 hr 23 min 5 sec) 
Heartbeat CPU 1 instructions: 160000000 cycles: 62179646 heartbeat IPC: 2.54707 cumulative IPC: 2.57319 (Simulation time: 0 hr 23 min 9 sec) 
Heartbeat CPU 0 instructions: 170000003 cycles: 62403180 heartbeat IPC: 2.71364 cumulative IPC: 2.72422 (Simulation time: 0 hr 23 min 14 sec) 
Heartbeat CPU 3 instructions: 120000000 cycles: 63293580 heartbeat IPC: 1.89604 cumulative IPC: 1.89593 (Simulation time: 0 hr 23 min 34 sec) 
Heartbeat CPU 0 instructions: 180000000 cycles: 66088628 heartbeat IPC: 2.71337 cumulative IPC: 2.72362 (Simulation time: 0 hr 24 min 37 sec) 
Heartbeat CPU 1 instructions: 170000001 cycles: 66152079 heartbeat IPC: 2.51735 cumulative IPC: 2.56984 (Simulation time: 0 hr 24 min 38 sec) 
Heartbeat CPU 2 instructions: 120000000 cycles: 68449257 heartbeat IPC: 1.55342 cumulative IPC: 1.75312 (Simulation time: 0 hr 25 min 30 sec) 
Heartbeat CPU 3 instructions: 130000003 cycles: 68567189 heartbeat IPC: 1.89624 cumulative IPC: 1.89595 (Simulation time: 0 hr 25 min 33 sec) 
Heartbeat CPU 0 instructions: 190000002 cycles: 69776167 heartbeat IPC: 2.71184 cumulative IPC: 2.72299 (Simulation time: 0 hr 25 min 59 sec) 
Heartbeat CPU 1 instructions: 180000000 cycles: 70022699 heartbeat IPC: 2.58357 cumulative IPC: 2.5706 (Simulation time: 0 hr 26 min 5 sec) 
Heartbeat CPU 0 instructions: 200000000 cycles: 73462630 heartbeat IPC: 2.71263 cumulative IPC: 2.72247 (Simulation time: 0 hr 27 min 21 sec) 
Heartbeat CPU 3 instructions: 140000000 cycles: 73841833 heartbeat IPC: 1.89586 cumulative IPC: 1.89594 (Simulation time: 0 hr 27 min 30 sec) 
Heartbeat CPU 1 instructions: 190000000 cycles: 74018555 heartbeat IPC: 2.50259 cumulative IPC: 2.56692 (Simulation time: 0 hr 27 min 34 sec) 
Heartbeat CPU 2 instructions: 130000002 cycles: 74693985 heartbeat IPC: 1.60135 cumulative IPC: 1.74043 (Simulation time: 0 hr 27 min 49 sec) 
Heartbeat CPU 0 instructions: 210000002 cycles: 77148733 heartbeat IPC: 2.71289 cumulative IPC: 0.12962 (Simulation time: 0 hr 28 min 43 sec) 
Heartbeat CPU 1 instructions: 200000000 cycles: 77950388 heartbeat IPC: 2.54334 cumulative IPC: 2.56573 (Simulation time: 0 hr 29 min 1 sec) 
Heartbeat CPU 3 instructions: 150000002 cycles: 79116988 heartbeat IPC: 1.89568 cumulative IPC: 1.89593 (Simulation time: 0 hr 29 min 26 sec) 
Heartbeat CPU 0 instructions: 220000000 cycles: 80836870 heartbeat IPC: 2.7114 cumulative IPC: 0.247412 (Simulation time: 0 hr 30 min 4 sec) 
Heartbeat CPU 2 instructions: 140000000 cycles: 80856784 heartbeat IPC: 1.62264 cumulative IPC: 1.73146 (Simulation time: 0 hr 30 min 4 sec) 
Heartbeat CPU 1 instructions: 210000001 cycles: 81959292 heartbeat IPC: 2.49445 cumulative IPC: 0.122012 (Simulation time: 0 hr 30 min 29 sec) 
Heartbeat CPU 3 instructions: 160000000 cycles: 84391647 heartbeat IPC: 1.89586 cumulative IPC: 1.89592 (Simulation time: 0 hr 31 min 22 sec) 
Heartbeat CPU 0 instructions: 230000002 cycles: 84522806 heartbeat IPC: 2.71302 cumulative IPC: 0.354934 (Simulation time: 0 hr 31 min 25 sec) 
Heartbeat CPU 1 instructions: 220000000 cycles: 85912536 heartbeat IPC: 2.52957 cumulative IPC: 0.232795 (Simulation time: 0 hr 31 min 55 sec) 
Heartbeat CPU 2 instructions: 150000000 cycles: 86552674 heartbeat IPC: 1.75565 cumulative IPC: 1.73305 (Simulation time: 0 hr 32 min 9 sec) 
Heartbeat CPU 0 instructions: 240000000 cycles: 88209029 heartbeat IPC: 2.7128 cumulative IPC: 0.453468 (Simulation time: 0 hr 32 min 45 sec) 
Heartbeat CPU 3 instructions: 170000000 cycles: 89666283 heartbeat IPC: 1.89587 cumulative IPC: 1.89592 (Simulation time: 0 hr 33 min 18 sec) 
Heartbeat CPU 1 instructions: 230000001 cycles: 89930860 heartbeat IPC: 2.4886 cumulative IPC: 0.33359 (Simulation time: 0 hr 33 min 23 sec) 
Heartbeat CPU 2 instructions: 160000000 cycles: 91547303 heartbeat IPC: 2.00215 cumulative IPC: 1.74773 (Simulation time: 0 hr 33 min 59 sec) 
Heartbeat CPU 0 instructions: 250000002 cycles: 91893170 heartbeat IPC: 2.71434 cumulative IPC: 0.54411 (Simulation time: 0 hr 34 min 7 sec) 
Heartbeat CPU 1 instructions: 240000000 cycles: 93879796 heartbeat IPC: 2.53233 cumulative IPC: 0.426077 (Simulation time: 0 hr 34 min 51 sec) 
Heartbeat CPU 3 instructions: 180000000 cycles: 94939555 heartbeat IPC: 1.89636 cumulative IPC: 1.89594 (Simulation time: 0 hr 35 min 15 sec) 
Heartbeat CPU 0 instructions: 260000000 cycles: 95576661 heartbeat IPC: 2.71482 cumulative IPC: 0.627768 (Simulation time: 0 hr 35 min 29 sec) 
Heartbeat CPU 2 instructions: 170000000 cycles: 96500654 heartbeat IPC: 2.01884 cumulative IPC: 1.76165 (Simulation time: 0 hr 35 min 50 sec) 
Heartbeat CPU 1 instructions: 250000001 cycles: 97857666 heartbeat IPC: 2.51391 cumulative IPC: 0.510946 (Simulation time: 0 hr 36 min 21 sec) 
Heartbeat CPU 0 instructions: 270000002 cycles: 99262875 heartbeat IPC: 2.71281 cumulative IPC: 0.705198 (Simulation time: 0 hr 36 min 52 sec) 
Heartbeat CPU 3 instructions: 190000002 cycles: 100213399 heartbeat IPC: 1.89615 cumulative IPC: 1.89595 (Simulation time: 0 hr 37 min 13 sec) 
Heartbeat CPU 1 instructions: 260000000 cycles: 101910957 heartbeat IPC: 2.46713 cumulative IPC: 0.588749 (Simulation time: 0 hr 37 min 50 sec) 
Heartbeat CPU 2 instructions: 180000000 cycles: 102366189 heartbeat IPC: 1.70487 cumulative IPC: 1.75839 (Simulation time: 0 hr 38 min 0 sec) 
Heartbeat CPU 0 instructions: 280000000 cycles: 102943731 heartbeat IPC: 2.71676 cumulative IPC: 0.777124 (Simulation time: 0 hr 38 min 13 sec) 
Heartbeat CPU 3 instructions: 200000000 cycles: 105489079 heartbeat IPC: 1.89549 cumulative IPC: 1.89593 (Simulation time: 0 hr 39 min 9 sec) 
Heartbeat CPU 1 instructions: 270000000 cycles: 105831355 heartbeat IPC: 2.55076 cumulative IPC: 0.66143 (Simulation time: 0 hr 39 min 17 sec) 
Heartbeat CPU 0 instructions: 290000000 cycles: 106623138 heartbeat IPC: 2.71783 cumulative IPC: 0.844094 (Simulation time: 0 hr 39 min 34 sec) 
Heartbeat CPU 2 instructions: 190000000 cycles: 108671633 heartbeat IPC: 1.58593 cumulative IPC: 1.74839 (Simulation time: 0 hr 40 min 19 sec) 
Heartbeat CPU 1 instructions: 280000000 cycles: 109919828 heartbeat IPC: 2.4459 cumulative IPC: 0.727803 (Simulation time: 0 hr 40 min 47 sec) 
Heartbeat CPU 0 instructions: 300000000 cycles: 110311020 heartbeat IPC: 2.71158 cumulative IPC: 0.906528 (Simulation time: 0 hr 40 min 56 sec) 
Heartbeat CPU 3 instructions: 210000002 cycles: 110763958 heartbeat IPC: 1.89578 cumulative IPC: 0.0902821 (Simulation time: 0 hr 41 min 6 sec) 
Heartbeat CPU 1 instructions: 290000001 cycles: 113845316 heartbeat IPC: 2.54745 cumulative IPC: 0.790546 (Simulation time: 0 hr 42 min 16 sec) 
Heartbeat CPU 2 instructions: 200000000 cycles: 113931062 heartbeat IPC: 1.90135 cumulative IPC: 1.75545 (Simulation time: 0 hr 42 min 18 sec) 

Warmup complete CPU 0 instructions: 309839375 cycles: 113931063 (Simulation time: 0 hr 42 min 18 sec) 
Warmup complete CPU 1 instructions: 290219972 cycles: 113931063 (Simulation time: 0 hr 42 min 18 sec) 
Warmup complete CPU 2 instructions: 200000001 cycles: 113931063 (Simulation time: 0 hr 42 min 18 sec) 
Warmup complete CPU 3 instructions: 216005488 cycles: 113931062 (Simulation time: 0 hr 42 min 18 sec) 

Heartbeat CPU 0 instructions: 310000002 cycles: 114903130 heartbeat IPC: 2.17765 cumulative IPC: 0.165243 (Simulation time: 0 hr 42 min 27 sec) 
Heartbeat CPU 3 instructions: 220000000 cycles: 117234718 heartbeat IPC: 1.54541 cumulative IPC: 1.20912 (Simulation time: 0 hr 42 min 49 sec) 
Heartbeat CPU 1 instructions: 300000000 cycles: 123432602 heartbeat IPC: 1.04305 cumulative IPC: 1.02931 (Simulation time: 0 hr 43 min 46 sec) 
Heartbeat CPU 3 instructions: 230000002 cycles: 125139869 heartbeat IPC: 1.265 cumulative IPC: 1.24853 (Simulation time: 0 hr 44 min 2 sec) 
Heartbeat CPU 1 instructions: 310000000 cycles: 132821134 heartbeat IPC: 1.06513 cumulative IPC: 1.04711 (Simulation time: 0 hr 45 min 12 sec) 
Heartbeat CPU 3 instructions: 240000000 cycles: 133078482 heartbeat IPC: 1.25967 cumulative IPC: 1.25315 (Simulation time: 0 hr 45 min 14 sec) 
Heartbeat CPU 3 instructions: 250000003 cycles: 140991982 heartbeat IPC: 1.26366 cumulative IPC: 1.25622 (Simulation time: 0 hr 46 min 25 sec) 
Heartbeat CPU 1 instructions: 320000000 cycles: 142561134 heartbeat IPC: 1.02669 cumulative IPC: 1.04017 (Simulation time: 0 hr 46 min 40 sec) 
Heartbeat CPU 2 instructions: 210000000 cycles: 146561274 heartbeat IPC: 0.306464 cumulative IPC: 0.306464 (Simulation time: 0 hr 47 min 17 sec) 
Heartbeat CPU 3 instructions: 260000000 cycles: 148989322 heartbeat IPC: 1.25042 cumulative IPC: 1.2549 (Simulation time: 0 hr 47 min 39 sec) 
Heartbeat CPU 1 instructions: 330000001 cycles: 151906364 heartbeat IPC: 1.07006 cumulative IPC: 1.04752 (Simulation time: 0 hr 48 min 6 sec) 
Heartbeat CPU 3 instructions: 270000001 cycles: 156969559 heartbeat IPC: 1.2531 cumulative IPC: 1.25456 (Simulation time: 0 hr 48 min 53 sec) 
Heartbeat CPU 1 instructions: 340000000 cycles: 161306348 heartbeat IPC: 1.06383 cumulative IPC: 1.05076 (Simulation time: 0 hr 49 min 34 sec) 
Heartbeat CPU 3 instructions: 280000000 cycles: 164987018 heartbeat IPC: 1.24728 cumulative IPC: 1.25342 (Simulation time: 0 hr 50 min 7 sec) 
Heartbeat CPU 0 instructions: 320000000 cycles: 169862508 heartbeat IPC: 0.181953 cumulative IPC: 0.181662 (Simulation time: 0 hr 50 min 53 sec) 
Heartbeat CPU 1 instructions: 350000001 cycles: 170834687 heartbeat IPC: 1.0495 cumulative IPC: 1.05055 (Simulation time: 0 hr 51 min 2 sec) 
Heartbeat CPU 3 instructions: 290000002 cycles: 172926747 heartbeat IPC: 1.25949 cumulative IPC: 1.25424 (Simulation time: 0 hr 51 min 21 sec) 
Heartbeat CPU 2 instructions: 220000000 cycles: 177098374 heartbeat IPC: 0.327471 cumulative IPC: 0.316619 (Simulation time: 0 hr 52 min 0 sec) 
Heartbeat CPU 1 instructions: 360000000 cycles: 180210123 heartbeat IPC: 1.06662 cumulative IPC: 1.05282 (Simulation time: 0 hr 52 min 30 sec) 
Heartbeat CPU 3 instructions: 300000000 cycles: 180924454 heartbeat IPC: 1.25036 cumulative IPC: 1.25377 (Simulation time: 0 hr 52 min 36 sec) 
Heartbeat CPU 3 instructions: 310000001 cycles: 188906706 heartbeat IPC: 1.25278 cumulative IPC: 1.25367 (Simulation time: 0 hr 53 min 50 sec) 
Heartbeat CPU 1 instructions: 370000000 cycles: 190102358 heartbeat IPC: 1.01089 cumulative IPC: 1.04738 (Simulation time: 0 hr 54 min 2 sec) 
Heartbeat CPU 3 instructions: 320000000 cycles: 196938720 heartbeat IPC: 1.24502 cumulative IPC: 1.25283 (Simulation time: 0 hr 55 min 7 sec) 
Heartbeat CPU 1 instructions: 380000000 cycles: 199125960 heartbeat IPC: 1.1082 cumulative IPC: 1.05382 (Simulation time: 0 hr 55 min 27 sec) 
Heartbeat CPU 3 instructions: 330000003 cycles: 204942623 heartbeat IPC: 1.24939 cumulative IPC: 1.25253 (Simulation time: 0 hr 56 min 21 sec) 
Heartbeat CPU 2 instructions: 230000000 cycles: 205186531 heartbeat IPC: 0.356022 cumulative IPC: 0.328747 (Simulation time: 0 hr 56 min 23 sec) 
Heartbeat CPU 3 instructions: 340000000 cycles: 213023307 heartbeat IPC: 1.23752 cumulative IPC: 1.2513 (Simulation time: 0 hr 57 min 27 sec) 
Heartbeat CPU 1 instructions: 390000002 cycles: 220674341 heartbeat IPC: 0.464072 cumulative IPC: 0.934766 (Simulation time: 0 hr 58 min 33 sec) 
Heartbeat CPU 3 instructions: 350000002 cycles: 221070901 heartbeat IPC: 1.24261 cumulative IPC: 1.25065 (Simulation time: 0 hr 58 min 37 sec) 
Heartbeat CPU 0 instructions: 330000000 cycles: 225699660 heartbeat IPC: 0.179092 cumulative IPC: 0.180378 (Simulation time: 0 hr 59 min 24 sec) 
Heartbeat CPU 3 instructions: 360000000 cycles: 228982947 heartbeat IPC: 1.2639 cumulative IPC: 1.25156 (Simulation time: 0 hr 59 min 57 sec) 
Heartbeat CPU 2 instructions: 240000000 cycles: 231517553 heartbeat IPC: 0.37978 cumulative IPC: 0.340175 (Simulation time: 1 hr 0 min 23 sec) 
Heartbeat CPU 1 instructions: 400000000 cycles: 232336764 heartbeat IPC: 0.857455 cumulative IPC: 0.927152 (Simulation time: 1 hr 0 min 31 sec) 
Heartbeat CPU 3 instructions: 370000000 cycles: 236899001 heartbeat IPC: 1.26326 cumulative IPC: 1.25231 (Simulation time: 1 hr 1 min 17 sec) 
Heartbeat CPU 1 instructions: 410000001 cycles: 244017782 heartbeat IPC: 0.85609 cumulative IPC: 0.920771 (Simulation time: 1 hr 2 min 30 sec) 
Heartbeat CPU 3 instructions: 380000000 cycles: 244803317 heartbeat IPC: 1.26513 cumulative IPC: 1.25309 (Simulation time: 1 hr 2 min 38 sec) 
Heartbeat CPU 3 instructions: 390000001 cycles: 252747690 heartbeat IPC: 1.25875 cumulative IPC: 1.25341 (Simulation time: 1 hr 3 min 59 sec) 
Heartbeat CPU 1 instructions: 420000000 cycles: 255687382 heartbeat IPC: 0.856927 cumulative IPC: 0.915515 (Simulation time: 1 hr 4 min 29 sec) 
Heartbeat CPU 2 instructions: 250000003 cycles: 256385576 heartbeat IPC: 0.402123 cumulative IPC: 0.350989 (Simulation time: 1 hr 4 min 36 sec) 
Heartbeat CPU 3 instructions: 400000000 cycles: 260636335 heartbeat IPC: 1.26764 cumulative IPC: 1.25418 (Simulation time: 1 hr 5 min 19 sec) 
Heartbeat CPU 1 instructions: 430000000 cycles: 267357254 heartbeat IPC: 0.856907 cumulative IPC: 0.911057 (Simulation time: 1 hr 6 min 28 sec) 
Heartbeat CPU 3 instructions: 410000000 cycles: 268552864 heartbeat IPC: 1.26318 cumulative IPC: 1.25464 (Simulation time: 1 hr 6 min 40 sec) 
Heartbeat CPU 3 instructions: 420000000 cycles: 276452011 heartbeat IPC: 1.26596 cumulative IPC: 1.25519 (Simulation time: 1 hr 8 min 1 sec) 
Heartbeat CPU 0 instructions: 340000000 cycles: 278776018 heartbeat IPC: 0.188408 cumulative IPC: 0.182964 (Simulation time: 1 hr 8 min 25 sec) 
Heartbeat CPU 1 instructions: 440000000 cycles: 279005565 heartbeat IPC: 0.858494 cumulative IPC: 0.907348 (Simulation time: 1 hr 8 min 27 sec) 
Heartbeat CPU 2 instructions: 260000000 cycles: 280254652 heartbeat IPC: 0.418952 cumulative IPC: 0.360743 (Simulation time: 1 hr 8 min 40 sec) 
Heartbeat CPU 3 instructions: 430000000 cycles: 284382888 heartbeat IPC: 1.26089 cumulative IPC: 1.25545 (Simulation time: 1 hr 9 min 22 sec) 
Heartbeat CPU 1 instructions: 450000002 cycles: 290668232 heartbeat IPC: 0.857437 cumulative IPC: 0.904054 (Simulation time: 1 hr 10 min 27 sec) 
Heartbeat CPU 3 instructions: 440000000 cycles: 292305030 heartbeat IPC: 1.26228 cumulative IPC: 1.25576 (Simulation time: 1 hr 10 min 44 sec) 
Heartbeat CPU 3 instructions: 450000000 cycles: 300236979 heartbeat IPC: 1.26072 cumulative IPC: 1.25597 (Simulation time: 1 hr 12 min 5 sec) 
Heartbeat CPU 1 instructions: 460000000 cycles: 302325262 heartbeat IPC: 0.857851 cumulative IPC: 0.901196 (Simulation time: 1 hr 12 min 26 sec) 
Heartbeat CPU 2 instructions: 270000000 cycles: 303327988 heartbeat IPC: 0.433401 cumulative IPC: 0.369594 (Simulation time: 1 hr 12 min 37 sec) 
Heartbeat CPU 3 instructions: 460000000 cycles: 308193903 heartbeat IPC: 1.25677 cumulative IPC: 1.256 (Simulation time: 1 hr 13 min 27 sec) 
Heartbeat CPU 1 instructions: 470000003 cycles: 313984705 heartbeat IPC: 0.857674 cumulative IPC: 0.898659 (Simulation time: 1 hr 14 min 26 sec) 
Heartbeat CPU 3 instructions: 470000000 cycles: 316114855 heartbeat IPC: 1.26247 cumulative IPC: 1.25626 (Simulation time: 1 hr 14 min 48 sec) 
Heartbeat CPU 3 instructions: 480000000 cycles: 324029894 heartbeat IPC: 1.26342 cumulative IPC: 1.25653 (Simulation time: 1 hr 16 min 10 sec) 
Heartbeat CPU 1 instructions: 480000000 cycles: 325634787 heartbeat IPC: 0.858363 cumulative IPC: 0.896442 (Simulation time: 1 hr 16 min 26 sec) 
Heartbeat CPU 2 instructions: 280000000 cycles: 325864285 heartbeat IPC: 0.443729 cumulative IPC: 0.377477 (Simulation time: 1 hr 16 min 28 sec) 
Heartbeat CPU 0 instructions: 350000003 cycles: 331665511 heartbeat IPC: 0.189074 cumulative IPC: 0.184448 (Simulation time: 1 hr 17 min 28 sec) 
Heartbeat CPU 3 instructions: 490000003 cycles: 331977679 heartbeat IPC: 1.25821 cumulative IPC: 1.25659 (Simulation time: 1 hr 17 min 31 sec) 
Heartbeat CPU 1 instructions: 490000003 cycles: 337309301 heartbeat IPC: 0.856567 cumulative IPC: 0.894358 (Simulation time: 1 hr 18 min 29 sec) 
Heartbeat CPU 3 instructions: 500000000 cycles: 339940205 heartbeat IPC: 1.25588 cumulative IPC: 1.25656 (Simulation time: 1 hr 18 min 58 sec) 
Heartbeat CPU 2 instructions: 290000002 cycles: 342925889 heartbeat IPC: 0.586111 cumulative IPC: 0.393022 (Simulation time: 1 hr 19 min 31 sec) 
Heartbeat CPU 3 instructions: 510000002 cycles: 347910555 heartbeat IPC: 1.25465 cumulative IPC: 1.2565 (Simulation time: 1 hr 20 min 26 sec) 
Heartbeat CPU 1 instructions: 500000000 cycles: 348930694 heartbeat IPC: 0.860482 cumulative IPC: 0.892682 (Simulation time: 1 hr 20 min 37 sec) 
Heartbeat CPU 3 instructions: 520000000 cycles: 355888024 heartbeat IPC: 1.25353 cumulative IPC: 1.2564 (Simulation time: 1 hr 21 min 53 sec) 
Heartbeat CPU 2 instructions: 300000000 cycles: 357686301 heartbeat IPC: 0.677488 cumulative IPC: 0.410248 (Simulation time: 1 hr 22 min 13 sec) 
Heartbeat CPU 3 instructions: 530000003 cycles: 363969618 heartbeat IPC: 1.23738 cumulative IPC: 1.25578 (Simulation time: 1 hr 23 min 8 sec) 
Heartbeat CPU 3 instructions: 540000000 cycles: 372101149 heartbeat IPC: 1.22978 cumulative IPC: 1.25497 (Simulation time: 1 hr 24 min 21 sec) 
Heartbeat CPU 1 instructions: 510000001 cycles: 372624211 heartbeat IPC: 0.422056 cumulative IPC: 0.849578 (Simulation time: 1 hr 24 min 26 sec) 
Heartbeat CPU 2 instructions: 310000003 cycles: 373342520 heartbeat IPC: 0.638724 cumulative IPC: 0.424037 (Simulation time: 1 hr 24 min 34 sec) 
Heartbeat CPU 3 instructions: 550000001 cycles: 380141383 heartbeat IPC: 1.24374 cumulative IPC: 1.25463 (Simulation time: 1 hr 25 min 44 sec) 
Heartbeat CPU 1 instructions: 520000000 cycles: 383890764 heartbeat IPC: 0.887583 cumulative IPC: 0.851164 (Simulation time: 1 hr 26 min 22 sec) 
Heartbeat CPU 0 instructions: 360000000 cycles: 385121884 heartbeat IPC: 0.187068 cumulative IPC: 0.184964 (Simulation time: 1 hr 26 min 35 sec) 
Heartbeat CPU 3 instructions: 560000000 cycles: 388130278 heartbeat IPC: 1.25174 cumulative IPC: 1.25454 (Simulation time: 1 hr 27 min 6 sec) 
Heartbeat CPU 2 instructions: 320000000 cycles: 390011016 heartbeat IPC: 0.599934 cumulative IPC: 0.434657 (Simulation time: 1 hr 27 min 25 sec) 
Heartbeat CPU 1 instructions: 530000001 cycles: 396052010 heartbeat IPC: 0.822284 cumulative IPC: 0.849919 (Simulation time: 1 hr 28 min 26 sec) 
Heartbeat CPU 3 instructions: 570000003 cycles: 396183887 heartbeat IPC: 1.24168 cumulative IPC: 1.25418 (Simulation time: 1 hr 28 min 27 sec) 
Heartbeat CPU 3 instructions: 580000000 cycles: 404399909 heartbeat IPC: 1.21713 cumulative IPC: 1.25313 (Simulation time: 1 hr 29 min 51 sec) 
Heartbeat CPU 1 instructions: 540000000 cycles: 406845512 heartbeat IPC: 0.926483 cumulative IPC: 0.852741 (Simulation time: 1 hr 30 min 16 sec) 
Heartbeat CPU 2 instructions: 330000001 cycles: 408380959 heartbeat IPC: 0.544368 cumulative IPC: 0.441501 (Simulation time: 1 hr 30 min 32 sec) 
Heartbeat CPU 3 instructions: 590000001 cycles: 412576895 heartbeat IPC: 1.22294 cumulative IPC: 1.2523 (Simulation time: 1 hr 31 min 15 sec) 
Heartbeat CPU 1 instructions: 550000001 cycles: 416449209 heartbeat IPC: 1.04127 cumulative IPC: 0.858725 (Simulation time: 1 hr 31 min 56 sec) 
Heartbeat CPU 3 instructions: 600000000 cycles: 420497509 heartbeat IPC: 1.26253 cumulative IPC: 1.25257 (Simulation time: 1 hr 32 min 38 sec) 
Heartbeat CPU 1 instructions: 560000000 cycles: 425410169 heartbeat IPC: 1.11595 cumulative IPC: 0.866126 (Simulation time: 1 hr 33 min 30 sec) 
Heartbeat CPU 3 instructions: 610000000 cycles: 428412509 heartbeat IPC: 1.26342 cumulative IPC: 1.25284 (Simulation time: 1 hr 34 min 1 sec) 
Heartbeat CPU 2 instructions: 340000000 cycles: 428491364 heartbeat IPC: 0.497255 cumulative IPC: 0.445066 (Simulation time: 1 hr 34 min 2 sec) 
Heartbeat CPU 1 instructions: 570000000 cycles: 434528064 heartbeat IPC: 1.09674 cumulative IPC: 0.872684 (Simulation time: 1 hr 35 min 4 sec) 
Heartbeat CPU 3 instructions: 620000000 cycles: 436334632 heartbeat IPC: 1.26229 cumulative IPC: 1.25307 (Simulation time: 1 hr 35 min 22 sec) 
Heartbeat CPU 0 instructions: 370000000 cycles: 439814766 heartbeat IPC: 0.182839 cumulative IPC: 0.184608 (Simulation time: 1 hr 35 min 58 sec) 
Heartbeat CPU 1 instructions: 580000000 cycles: 443681287 heartbeat IPC: 1.09251 cumulative IPC: 0.878786 (Simulation time: 1 hr 36 min 37 sec) 
Heartbeat CPU 3 instructions: 630000002 cycles: 444278245 heartbeat IPC: 1.25887 cumulative IPC: 1.25321 (Simulation time: 1 hr 36 min 43 sec) 
Heartbeat CPU 2 instructions: 350000000 cycles: 451905609 heartbeat IPC: 0.42709 cumulative IPC: 0.44382 (Simulation time: 1 hr 38 min 0 sec) 
Heartbeat CPU 3 instructions: 640000000 cycles: 452212568 heartbeat IPC: 1.26035 cumulative IPC: 1.25338 (Simulation time: 1 hr 38 min 3 sec) 
Heartbeat CPU 1 instructions: 590000002 cycles: 452765537 heartbeat IPC: 1.10081 cumulative IPC: 0.884739 (Simulation time: 1 hr 38 min 9 sec) 
Heartbeat CPU 3 instructions: 650000000 cycles: 460160233 heartbeat IPC: 1.25823 cumulative IPC: 1.25349 (Simulation time: 1 hr 39 min 22 sec) 
Heartbeat CPU 1 instructions: 600000000 cycles: 461734462 heartbeat IPC: 1.11496 cumulative IPC: 0.890676 (Simulation time: 1 hr 39 min 38 sec) 
Heartbeat CPU 3 instructions: 660000000 cycles: 468355732 heartbeat IPC: 1.22018 cumulative IPC: 1.25272 (Simulation time: 1 hr 40 min 36 sec) 
Heartbeat CPU 3 instructions: 670000001 cycles: 476626063 heartbeat IPC: 1.20914 cumulative IPC: 1.25173 (Simulation time: 1 hr 41 min 47 sec) 
Heartbeat CPU 1 instructions: 610000000 cycles: 476965544 heartbeat IPC: 0.656552 cumulative IPC: 0.880853 (Simulation time: 1 hr 41 min 50 sec) 
Heartbeat CPU 2 instructions: 360000000 cycles: 483104570 heartbeat IPC: 0.320524 cumulative IPC: 0.433401 (Simulation time: 1 hr 42 min 48 sec) 
Heartbeat CPU 3 instructions: 680000000 cycles: 484623384 heartbeat IPC: 1.25042 cumulative IPC: 1.2517 (Simulation time: 1 hr 43 min 2 sec) 
Heartbeat CPU 1 instructions: 620000000 cycles: 488357496 heartbeat IPC: 0.877813 cumulative IPC: 0.880761 (Simulation time: 1 hr 43 min 38 sec) 
Heartbeat CPU 3 instructions: 690000003 cycles: 492627846 heartbeat IPC: 1.2493 cumulative IPC: 1.25165 (Simulation time: 1 hr 44 min 19 sec) 
Heartbeat CPU 0 instructions: 380000000 cycles: 495524548 heartbeat IPC: 0.179502 cumulative IPC: 0.183862 (Simulation time: 1 hr 44 min 46 sec) 
Heartbeat CPU 1 instructions: 630000000 cycles: 499696547 heartbeat IPC: 0.881908 cumulative IPC: 0.880794 (Simulation time: 1 hr 45 min 27 sec) 
Heartbeat CPU 3 instructions: 700000000 cycles: 500632884 heartbeat IPC: 1.24921 cumulative IPC: 1.2516 (Simulation time: 1 hr 45 min 36 sec) 
Heartbeat CPU 3 instructions: 710000002 cycles: 508647385 heartbeat IPC: 1.24774 cumulative IPC: 1.25152 (Simulation time: 1 hr 46 min 52 sec) 
Heartbeat CPU 1 instructions: 640000000 cycles: 510503816 heartbeat IPC: 0.925303 cumulative IPC: 0.882007 (Simulation time: 1 hr 47 min 11 sec) 
Heartbeat CPU 2 instructions: 370000001 cycles: 513191170 heartbeat IPC: 0.332374 cumulative IPC: 0.425788 (Simulation time: 1 hr 47 min 37 sec) 
Heartbeat CPU 3 instructions: 720000000 cycles: 516597494 heartbeat IPC: 1.25784 cumulative IPC: 1.25164 (Simulation time: 1 hr 48 min 10 sec) 
Heartbeat CPU 1 instructions: 650000001 cycles: 521282853 heartbeat IPC: 0.927727 cumulative IPC: 0.883217 (Simulation time: 1 hr 48 min 56 sec) 
Heartbeat CPU 3 instructions: 730000000 cycles: 524562461 heartbeat IPC: 1.2555 cumulative IPC: 1.25172 (Simulation time: 1 hr 49 min 25 sec) 
Heartbeat CPU 3 instructions: 740000000 cycles: 532600700 heartbeat IPC: 1.24405 cumulative IPC: 1.25157 (Simulation time: 1 hr 50 min 41 sec) 
Heartbeat CPU 1 instructions: 660000000 cycles: 532852281 heartbeat IPC: 0.864347 cumulative IPC: 0.882696 (Simulation time: 1 hr 50 min 43 sec) 
Heartbeat CPU 3 instructions: 750000001 cycles: 540582337 heartbeat IPC: 1.25288 cumulative IPC: 1.25159 (Simulation time: 1 hr 51 min 58 sec) 
Heartbeat CPU 1 instructions: 670000001 cycles: 543723638 heartbeat IPC: 0.919848 cumulative IPC: 0.883636 (Simulation time: 1 hr 52 min 28 sec) 
Heartbeat CPU 2 instructions: 380000000 cycles: 544931547 heartbeat IPC: 0.315056 cumulative IPC: 0.417633 (Simulation time: 1 hr 52 min 39 sec) 
Heartbeat CPU 3 instructions: 760000000 cycles: 548582719 heartbeat IPC: 1.24994 cumulative IPC: 1.25156 (Simulation time: 1 hr 53 min 15 sec) 
Heartbeat CPU 0 instructions: 390000000 cycles: 550956857 heartbeat IPC: 0.1804 cumulative IPC: 0.183423 (Simulation time: 1 hr 53 min 37 sec) 
Heartbeat CPU 1 instructions: 680000000 cycles: 554691829 heartbeat IPC: 0.911727 cumulative IPC: 0.884335 (Simulation time: 1 hr 54 min 13 sec) 
Heartbeat CPU 3 instructions: 770000003 cycles: 556617271 heartbeat IPC: 1.24462 cumulative IPC: 1.25144 (Simulation time: 1 hr 54 min 32 sec) 
Heartbeat CPU 3 instructions: 780000000 cycles: 564651287 heartbeat IPC: 1.24471 cumulative IPC: 1.25132 (Simulation time: 1 hr 55 min 49 sec) 
Heartbeat CPU 1 instructions: 690000003 cycles: 565745850 heartbeat IPC: 0.904648 cumulative IPC: 0.884832 (Simulation time: 1 hr 55 min 59 sec) 
Heartbeat CPU 3 instructions: 790000002 cycles: 572666308 heartbeat IPC: 1.24766 cumulative IPC: 1.25125 (Simulation time: 1 hr 57 min 7 sec) 
Heartbeat CPU 2 instructions: 390000003 cycles: 574291575 heartbeat IPC: 0.340599 cumulative IPC: 0.41272 (Simulation time: 1 hr 57 min 23 sec) 
Heartbeat CPU 1 instructions: 700000000 cycles: 576636885 heartbeat IPC: 0.918186 cumulative IPC: 0.885617 (Simulation time: 1 hr 57 min 46 sec) 
Heartbeat CPU 3 instructions: 800000000 cycles: 580673654 heartbeat IPC: 1.24885 cumulative IPC: 1.25121 (Simulation time: 1 hr 58 min 25 sec) 
Heartbeat CPU 1 instructions: 710000002 cycles: 587433912 heartbeat IPC: 0.926181 cumulative IPC: 0.886542 (Simulation time: 1 hr 59 min 31 sec) 
Heartbeat CPU 3 instructions: 810000000 cycles: 588675251 heartbeat IPC: 1.24975 cumulative IPC: 1.25119 (Simulation time: 1 hr 59 min 43 sec) 
Heartbeat CPU 3 instructions: 820000000 cycles: 596659484 heartbeat IPC: 1.25247 cumulative IPC: 1.25121 (Simulation time: 2 hr 1 min 2 sec) 
Heartbeat CPU 1 instructions: 720000000 cycles: 598998566 heartbeat IPC: 0.864704 cumulative IPC: 0.886021 (Simulation time: 2 hr 1 min 23 sec) 
Heartbeat CPU 2 instructions: 400000000 cycles: 601469281 heartbeat IPC: 0.367949 cumulative IPC: 0.410224 (Simulation time: 2 hr 1 min 48 sec) 
Heartbeat CPU 3 instructions: 830000002 cycles: 604671612 heartbeat IPC: 1.24811 cumulative IPC: 1.25116 (Simulation time: 2 hr 2 min 19 sec) 
Heartbeat CPU 0 instructions: 400000000 cycles: 606562913 heartbeat IPC: 0.179837 cumulative IPC: 0.183018 (Simulation time: 2 hr 2 min 38 sec) 
Heartbeat CPU 1 instructions: 730000003 cycles: 609822553 heartbeat IPC: 0.923874 cumulative IPC: 0.886847 (Simulation time: 2 hr 3 min 10 sec) 
Heartbeat CPU 3 instructions: 840000000 cycles: 612693592 heartbeat IPC: 1.24657 cumulative IPC: 1.25109 (Simulation time: 2 hr 3 min 38 sec) 
Heartbeat CPU 3 instructions: 850000001 cycles: 620755933 heartbeat IPC: 1.24033 cumulative IPC: 1.25091 (Simulation time: 2 hr 4 min 57 sec) 
Heartbeat CPU 1 instructions: 740000000 cycles: 620805728 heartbeat IPC: 0.910483 cumulative IPC: 0.887359 (Simulation time: 2 hr 4 min 57 sec) 
Heartbeat CPU 2 instructions: 410000001 cycles: 627211206 heartbeat IPC: 0.388471 cumulative IPC: 0.409133 (Simulation time: 2 hr 6 min 0 sec) 
Heartbeat CPU 3 instructions: 860000000 cycles: 628792126 heartbeat IPC: 1.24437 cumulative IPC: 1.25081 (Simulation time: 2 hr 6 min 16 sec) 
Heartbeat CPU 1 instructions: 750000001 cycles: 631843790 heartbeat IPC: 0.905956 cumulative IPC: 0.887756 (Simulation time: 2 hr 6 min 46 sec) 
Heartbeat CPU 3 instructions: 870000001 cycles: 636847083 heartbeat IPC: 1.24147 cumulative IPC: 1.25067 (Simulation time: 2 hr 7 min 35 sec) 
Heartbeat CPU 1 instructions: 760000000 cycles: 642712275 heartbeat IPC: 0.920091 cumulative IPC: 0.88842 (Simulation time: 2 hr 8 min 33 sec) 
Heartbeat CPU 3 instructions: 880000000 cycles: 644892415 heartbeat IPC: 1.24296 cumulative IPC: 1.25055 (Simulation time: 2 hr 8 min 54 sec) 
Heartbeat CPU 2 instructions: 420000000 cycles: 650644796 heartbeat IPC: 0.426738 cumulative IPC: 0.409902 (Simulation time: 2 hr 9 min 52 sec) 
Heartbeat CPU 3 instructions: 890000003 cycles: 652877740 heartbeat IPC: 1.2523 cumulative IPC: 1.25058 (Simulation time: 2 hr 10 min 16 sec) 
Heartbeat CPU 1 instructions: 770000000 cycles: 653508653 heartbeat IPC: 0.926237 cumulative IPC: 0.889177 (Simulation time: 2 hr 10 min 23 sec) 
Heartbeat CPU 3 instructions: 900000000 cycles: 660829650 heartbeat IPC: 1.25756 cumulative IPC: 1.25068 (Simulation time: 2 hr 11 min 38 sec) 
Heartbeat CPU 0 instructions: 410000000 cycles: 661978324 heartbeat IPC: 0.180455 cumulative IPC: 0.182759 (Simulation time: 2 hr 11 min 50 sec) 
Heartbeat CPU 1 instructions: 780000000 cycles: 665039448 heartbeat IPC: 0.867243 cumulative IPC: 0.888718 (Simulation time: 2 hr 12 min 21 sec) 
Heartbeat CPU 2 instructions: 430000001 cycles: 667217796 heartbeat IPC: 0.603391 cumulative IPC: 0.415698 (Simulation time: 2 hr 12 min 44 sec) 
Heartbeat CPU 3 instructions: 910000002 cycles: 668814248 heartbeat IPC: 1.25241 cumulative IPC: 1.2507 (Simulation time: 2 hr 13 min 1 sec) 
Heartbeat CPU 1 instructions: 790000000 cycles: 675912303 heartbeat IPC: 0.919722 cumulative IPC: 0.889318 (Simulation time: 2 hr 14 min 13 sec) 
Heartbeat CPU 3 instructions: 920000000 cycles: 676789054 heartbeat IPC: 1.25395 cumulative IPC: 1.25075 (Simulation time: 2 hr 14 min 22 sec) 
Heartbeat CPU 3 instructions: 930000000 cycles: 684751412 heartbeat IPC: 1.25591 cumulative IPC: 1.25082 (Simulation time: 2 hr 15 min 43 sec) 
Heartbeat CPU 2 instructions: 440000000 cycles: 685456432 heartbeat IPC: 0.548287 cumulative IPC: 0.419929 (Simulation time: 2 hr 15 min 50 sec) 
Heartbeat CPU 1 instructions: 800000000 cycles: 686887765 heartbeat IPC: 0.911123 cumulative IPC: 0.889736 (Simulation time: 2 hr 16 min 4 sec) 
Heartbeat CPU 3 instructions: 940000000 cycles: 692734867 heartbeat IPC: 1.25259 cumulative IPC: 1.25085 (Simulation time: 2 hr 17 min 2 sec) 
Heartbeat CPU 1 instructions: 810000000 cycles: 697915027 heartbeat IPC: 0.906843 cumulative IPC: 0.890059 (Simulation time: 2 hr 17 min 53 sec) 
Heartbeat CPU 3 instructions: 950000002 cycles: 700686382 heartbeat IPC: 1.25762 cumulative IPC: 1.25094 (Simulation time: 2 hr 18 min 21 sec) 
Heartbeat CPU 2 instructions: 450000001 cycles: 707597070 heartbeat IPC: 0.451658 cumulative IPC: 0.421112 (Simulation time: 2 hr 19 min 27 sec) 
Heartbeat CPU 3 instructions: 960000000 cycles: 708635031 heartbeat IPC: 1.25808 cumulative IPC: 1.25103 (Simulation time: 2 hr 19 min 37 sec) 
Heartbeat CPU 1 instructions: 820000000 cycles: 708777263 heartbeat IPC: 0.920621 cumulative IPC: 0.890617 (Simulation time: 2 hr 19 min 39 sec) 
Heartbeat CPU 3 instructions: 970000000 cycles: 716643153 heartbeat IPC: 1.24873 cumulative IPC: 1.251 (Simulation time: 2 hr 20 min 48 sec) 
Heartbeat CPU 0 instructions: 420000000 cycles: 717452857 heartbeat IPC: 0.180263 cumulative IPC: 0.18253 (Simulation time: 2 hr 20 min 55 sec) 
Heartbeat CPU 3 instructions: 980000000 cycles: 724700422 heartbeat IPC: 1.24112 cumulative IPC: 1.25087 (Simulation time: 2 hr 21 min 49 sec) 
Heartbeat CPU 1 instructions: 830000002 cycles: 731863847 heartbeat IPC: 0.433152 cumulative IPC: 0.873526 (Simulation time: 2 hr 22 min 56 sec) 
Heartbeat CPU 3 instructions: 990000003 cycles: 732656301 heartbeat IPC: 1.25693 cumulative IPC: 1.25095 (Simulation time: 2 hr 23 min 3 sec) 
Heartbeat CPU 2 instructions: 460000000 cycles: 738704830 heartbeat IPC: 0.321463 cumulative IPC: 0.416151 (Simulation time: 2 hr 24 min 4 sec) 
Heartbeat CPU 3 instructions: 1000000000 cycles: 740557941 heartbeat IPC: 1.26556 cumulative IPC: 1.25113 (Simulation time: 2 hr 24 min 22 sec) 
Heartbeat CPU 1 instructions: 840000000 cycles: 743554500 heartbeat IPC: 0.855384 cumulative IPC: 0.873189 (Simulation time: 2 hr 24 min 52 sec) 
Heartbeat CPU 3 instructions: 1010000000 cycles: 748435167 heartbeat IPC: 1.26948 cumulative IPC: 1.25136 (Simulation time: 2 hr 25 min 41 sec) 
Heartbeat CPU 1 instructions: 850000001 cycles: 755253108 heartbeat IPC: 0.854803 cumulative IPC: 0.872853 (Simulation time: 2 hr 26 min 48 sec) 
Heartbeat CPU 3 instructions: 1020000000 cycles: 756351772 heartbeat IPC: 1.26317 cumulative IPC: 1.25151 (Simulation time: 2 hr 26 min 59 sec) 
Heartbeat CPU 3 instructions: 1030000002 cycles: 764280534 heartbeat IPC: 1.26123 cumulative IPC: 1.25163 (Simulation time: 2 hr 28 min 18 sec) 
Heartbeat CPU 1 instructions: 860000000 cycles: 766957200 heartbeat IPC: 0.854402 cumulative IPC: 0.872523 (Simulation time: 2 hr 28 min 45 sec) 
Heartbeat CPU 2 instructions: 470000000 cycles: 769649713 heartbeat IPC: 0.323155 cumulative IPC: 0.411762 (Simulation time: 2 hr 29 min 12 sec) 
Heartbeat CPU 0 instructions: 430000002 cycles: 771871524 heartbeat IPC: 0.183761 cumulative IPC: 0.182631 (Simulation time: 2 hr 29 min 34 sec) 
Heartbeat CPU 3 instructions: 1040000000 cycles: 772207032 heartbeat IPC: 1.26159 cumulative IPC: 1.25175 (Simulation time: 2 hr 29 min 37 sec) 
Heartbeat CPU 1 instructions: 870000002 cycles: 778710059 heartbeat IPC: 0.850857 cumulative IPC: 0.87214 (Simulation time: 2 hr 30 min 42 sec) 
Heartbeat CPU 3 instructions: 1050000002 cycles: 780147677 heartbeat IPC: 1.25934 cumulative IPC: 1.25184 (Simulation time: 2 hr 30 min 57 sec) 
Heartbeat CPU 3 instructions: 1060000000 cycles: 788074468 heartbeat IPC: 1.26154 cumulative IPC: 1.25195 (Simulation time: 2 hr 32 min 16 sec) 
Heartbeat CPU 1 instructions: 880000000 cycles: 790398092 heartbeat IPC: 0.855576 cumulative IPC: 0.871853 (Simulation time: 2 hr 32 min 39 sec) 
Heartbeat CPU 3 instructions: 1070000000 cycles: 796008168 heartbeat IPC: 1.26045 cumulative IPC: 1.25205 (Simulation time: 2 hr 33 min 35 sec) 
Heartbeat CPU 2 instructions: 480000000 cycles: 798218754 heartbeat IPC: 0.350029 cumulative IPC: 0.409185 (Simulation time: 2 hr 33 min 58 sec) 
Heartbeat CPU 1 instructions: 890000002 cycles: 802116969 heartbeat IPC: 0.853324 cumulative IPC: 0.871538 (Simulation time: 2 hr 34 min 37 sec) 
Heartbeat CPU 3 instructions: 1080000000 cycles: 803957164 heartbeat IPC: 1.25802 cumulative IPC: 1.25212 (Simulation time: 2 hr 34 min 55 sec) 
Heartbeat CPU 3 instructions: 1090000000 cycles: 811936690 heartbeat IPC: 1.25321 cumulative IPC: 1.25213 (Simulation time: 2 hr 36 min 15 sec) 
Heartbeat CPU 1 instructions: 900000000 cycles: 813804026 heartbeat IPC: 0.855647 cumulative IPC: 0.871272 (Simulation time: 2 hr 36 min 34 sec) 
Heartbeat CPU 3 instructions: 1100000000 cycles: 819906993 heartbeat IPC: 1.25466 cumulative IPC: 1.25216 (Simulation time: 2 hr 37 min 36 sec) 
Heartbeat CPU 2 instructions: 490000001 cycles: 824871914 heartbeat IPC: 0.37519 cumulative IPC: 0.40791 (Simulation time: 2 hr 38 min 26 sec) 
Heartbeat CPU 1 instructions: 910000001 cycles: 825466927 heartbeat IPC: 0.85742 cumulative IPC: 0.871045 (Simulation time: 2 hr 38 min 32 sec) 
Heartbeat CPU 0 instructions: 440000000 cycles: 826627780 heartbeat IPC: 0.182627 cumulative IPC: 0.182631 (Simulation time: 2 hr 38 min 43 sec) 
Heartbeat CPU 3 instructions: 1110000000 cycles: 827904142 heartbeat IPC: 1.25045 cumulative IPC: 1.25214 (Simulation time: 2 hr 38 min 56 sec) 
Heartbeat CPU 3 instructions: 1120000000 cycles: 835867916 heartbeat IPC: 1.25569 cumulative IPC: 1.25218 (Simulation time: 2 hr 40 min 17 sec) 
Heartbeat CPU 1 instructions: 920000000 cycles: 837148766 heartbeat IPC: 0.85603 cumulative IPC: 0.870803 (Simulation time: 2 hr 40 min 30 sec) 
Heartbeat CPU 3 instructions: 1130000000 cycles: 843862878 heartbeat IPC: 1.25079 cumulative IPC: 1.25216 (Simulation time: 2 hr 41 min 38 sec) 
Heartbeat CPU 1 instructions: 930000001 cycles: 848814416 heartbeat IPC: 0.857218 cumulative IPC: 0.870587 (Simulation time: 2 hr 42 min 28 sec) 
Heartbeat CPU 2 instructions: 500000000 cycles: 850185084 heartbeat IPC: 0.395051 cumulative IPC: 0.407468 (Simulation time: 2 hr 42 min 42 sec) 
Heartbeat CPU 3 instructions: 1140000000 cycles: 851854479 heartbeat IPC: 1.25131 cumulative IPC: 1.25216 (Simulation time: 2 hr 42 min 59 sec) 
Heartbeat CPU 3 instructions: 1150000001 cycles: 859844241 heartbeat IPC: 1.2516 cumulative IPC: 1.25215 (Simulation time: 2 hr 44 min 20 sec) 
Heartbeat CPU 1 instructions: 940000000 cycles: 860493403 heartbeat IPC: 0.856239 cumulative IPC: 0.870363 (Simulation time: 2 hr 44 min 27 sec) 
Heartbeat CPU 3 instructions: 1160000000 cycles: 867902369 heartbeat IPC: 1.24098 cumulative IPC: 1.25203 (Simulation time: 2 hr 45 min 37 sec) 
Heartbeat CPU 2 instructions: 510000001 cycles: 874534606 heartbeat IPC: 0.410686 cumulative IPC: 0.407571 (Simulation time: 2 hr 46 min 31 sec) 
Heartbeat CPU 3 instructions: 1170000000 cycles: 876172143 heartbeat IPC: 1.20922 cumulative IPC: 1.25157 (Simulation time: 2 hr 46 min 44 sec) 
Heartbeat CPU 1 instructions: 950000000 cycles: 882880752 heartbeat IPC: 0.446681 cumulative IPC: 0.858028 (Simulation time: 2 hr 47 min 47 sec) 
Heartbeat CPU 3 instructions: 1180000000 cycles: 884367584 heartbeat IPC: 1.22019 cumulative IPC: 1.25123 (Simulation time: 2 hr 48 min 2 sec) 
Heartbeat CPU 0 instructions: 450000001 cycles: 884806630 heartbeat IPC: 0.171884 cumulative IPC: 0.18182 (Simulation time: 2 hr 48 min 7 sec) 
Heartbeat CPU 1 instructions: 960000000 cycles: 892025030 heartbeat IPC: 1.09358 cumulative IPC: 0.860796 (Simulation time: 2 hr 49 min 20 sec) 
Heartbeat CPU 3 instructions: 1190000003 cycles: 892501906 heartbeat IPC: 1.22936 cumulative IPC: 1.251 (Simulation time: 2 hr 49 min 26 sec) 
Heartbeat CPU 2 instructions: 520000000 cycles: 898225525 heartbeat IPC: 0.422103 cumulative IPC: 0.40801 (Simulation time: 2 hr 50 min 24 sec) 
Heartbeat CPU 3 instructions: 1200000000 cycles: 900624784 heartbeat IPC: 1.23109 cumulative IPC: 1.2508 (Simulation time: 2 hr 50 min 49 sec) 
Heartbeat CPU 1 instructions: 970000001 cycles: 900818783 heartbeat IPC: 1.13717 cumulative IPC: 0.863884 (Simulation time: 2 hr 50 min 51 sec) 
Heartbeat CPU 3 instructions: 1210000001 cycles: 908766638 heartbeat IPC: 1.22822 cumulative IPC: 1.25057 (Simulation time: 2 hr 52 min 13 sec) 
Heartbeat CPU 1 instructions: 980000000 cycles: 910038665 heartbeat IPC: 1.08461 cumulative IPC: 0.866441 (Simulation time: 2 hr 52 min 26 sec) 
Finished CPU 3 instructions: 1000000000 cycles: 799715199 cumulative IPC: 1.25045 (Simulation time: 2 hr 53 min 4 sec) 
Heartbeat CPU 3 instructions: 1220000000 cycles: 916889320 heartbeat IPC: 1.23112 cumulative IPC: 1.25037 (Simulation time: 2 hr 53 min 37 sec) 
Heartbeat CPU 1 instructions: 990000003 cycles: 919068511 heartbeat IPC: 1.10744 cumulative IPC: 0.869144 (Simulation time: 2 hr 54 min 1 sec) 
Heartbeat CPU 2 instructions: 530000001 cycles: 921170439 heartbeat IPC: 0.435826 cumulative IPC: 0.408801 (Simulation time: 2 hr 54 min 22 sec) 
Heartbeat CPU 3 instructions: 1230000002 cycles: 925001868 heartbeat IPC: 1.23266 cumulative IPC: 1.25019 (Simulation time: 2 hr 55 min 2 sec) 
Heartbeat CPU 1 instructions: 1000000000 cycles: 928277380 heartbeat IPC: 1.08591 cumulative IPC: 0.871595 (Simulation time: 2 hr 55 min 34 sec) 
Heartbeat CPU 3 instructions: 1240000000 cycles: 933130963 heartbeat IPC: 1.23015 cumulative IPC: 1.24999 (Simulation time: 2 hr 56 min 23 sec) 
Heartbeat CPU 1 instructions: 1010000001 cycles: 939081223 heartbeat IPC: 0.925597 cumulative IPC: 0.872302 (Simulation time: 2 hr 57 min 19 sec) 
Heartbeat CPU 3 instructions: 1250000000 cycles: 941268898 heartbeat IPC: 1.22881 cumulative IPC: 1.24979 (Simulation time: 2 hr 57 min 40 sec) 
Heartbeat CPU 2 instructions: 540000000 cycles: 943505134 heartbeat IPC: 0.447734 cumulative IPC: 0.409849 (Simulation time: 2 hr 58 min 1 sec) 
Heartbeat CPU 1 instructions: 1020000000 cycles: 947778256 heartbeat IPC: 1.14982 cumulative IPC: 0.875196 (Simulation time: 2 hr 58 min 46 sec) 
Heartbeat CPU 3 instructions: 1260000000 cycles: 949547961 heartbeat IPC: 1.20787 cumulative IPC: 1.24937 (Simulation time: 2 hr 59 min 6 sec) 
Heartbeat CPU 0 instructions: 460000000 cycles: 951699158 heartbeat IPC: 0.149494 cumulative IPC: 0.179239 (Simulation time: 2 hr 59 min 29 sec) 
Heartbeat CPU 1 instructions: 1030000002 cycles: 956586160 heartbeat IPC: 1.13534 cumulative IPC: 0.877916 (Simulation time: 3 hr 0 min 22 sec) 
Heartbeat CPU 3 instructions: 1270000002 cycles: 957853496 heartbeat IPC: 1.20402 cumulative IPC: 1.24892 (Simulation time: 3 hr 0 min 36 sec) 
Heartbeat CPU 2 instructions: 550000001 cycles: 965637947 heartbeat IPC: 0.451818 cumulative IPC: 0.410939 (Simulation time: 3 hr 1 min 59 sec) 
Heartbeat CPU 1 instructions: 1040000000 cycles: 965749536 heartbeat IPC: 1.0913 cumulative IPC: 0.880211 (Simulation time: 3 hr 2 min 0 sec) 
Heartbeat CPU 3 instructions: 1280000000 cycles: 966122353 heartbeat IPC: 1.20936 cumulative IPC: 1.24854 (Simulation time: 3 hr 2 min 4 sec) 
Heartbeat CPU 3 instructions: 1290000001 cycles: 974375877 heartbeat IPC: 1.2116 cumulative IPC: 1.24819 (Simulation time: 3 hr 3 min 34 sec) 
Heartbeat CPU 1 instructions: 1050000001 cycles: 974625026 heartbeat IPC: 1.1267 cumulative IPC: 0.882753 (Simulation time: 3 hr 3 min 36 sec) 
Heartbeat CPU 3 instructions: 1300000000 cycles: 982648918 heartbeat IPC: 1.20875 cumulative IPC: 1.24781 (Simulation time: 3 hr 5 min 1 sec) 
Heartbeat CPU 1 instructions: 1060000000 cycles: 984344127 heartbeat IPC: 1.0289 cumulative IPC: 0.884385 (Simulation time: 3 hr 5 min 19 sec) 
Heartbeat CPU 2 instructions: 560000000 cycles: 987305820 heartbeat IPC: 0.461513 cumulative IPC: 0.412194 (Simulation time: 3 hr 5 min 52 sec) 
Heartbeat CPU 3 instructions: 1310000000 cycles: 990951804 heartbeat IPC: 1.2044 cumulative IPC: 1.2474 (Simulation time: 3 hr 6 min 32 sec) 
Heartbeat CPU 1 instructions: 1070000003 cycles: 992897783 heartbeat IPC: 1.16909 cumulative IPC: 0.887155 (Simulation time: 3 hr 6 min 53 sec) 
Heartbeat CPU 0 instructions: 470000002 cycles: 994029757 heartbeat IPC: 0.236236 cumulative IPC: 0.18198 (Simulation time: 3 hr 7 min 5 sec) 
Heartbeat CPU 3 instructions: 1320000000 cycles: 999213622 heartbeat IPC: 1.21039 cumulative IPC: 1.24705 (Simulation time: 3 hr 7 min 59 sec) 
Heartbeat CPU 1 instructions: 1080000000 cycles: 1002403910 heartbeat IPC: 1.05195 cumulative IPC: 0.888919 (Simulation time: 3 hr 8 min 34 sec) 
Heartbeat CPU 3 instructions: 1330000000 cycles: 1007470098 heartbeat IPC: 1.21117 cumulative IPC: 1.24672 (Simulation time: 3 hr 9 min 29 sec) 
Heartbeat CPU 2 instructions: 570000000 cycles: 1008528950 heartbeat IPC: 0.471184 cumulative IPC: 0.413594 (Simulation time: 3 hr 9 min 40 sec) 
Heartbeat CPU 1 instructions: 1090000000 cycles: 1011298506 heartbeat IPC: 1.12428 cumulative IPC: 0.891251 (Simulation time: 3 hr 10 min 10 sec) 
Heartbeat CPU 3 instructions: 1340000000 cycles: 1015773459 heartbeat IPC: 1.20433 cumulative IPC: 1.24633 (Simulation time: 3 hr 10 min 57 sec) 
Heartbeat CPU 1 instructions: 1100000000 cycles: 1020770641 heartbeat IPC: 1.05573 cumulative IPC: 0.892969 (Simulation time: 3 hr 11 min 51 sec) 
Heartbeat CPU 3 instructions: 1350000002 cycles: 1024044674 heartbeat IPC: 1.20901 cumulative IPC: 1.24599 (Simulation time: 3 hr 12 min 27 sec) 
Heartbeat CPU 2 instructions: 580000000 cycles: 1029249137 heartbeat IPC: 0.482621 cumulative IPC: 0.415156 (Simulation time: 3 hr 13 min 23 sec) 
Heartbeat CPU 1 instructions: 1110000003 cycles: 1030191755 heartbeat IPC: 1.06145 cumulative IPC: 0.894702 (Simulation time: 3 hr 13 min 32 sec) 
Heartbeat CPU 3 instructions: 1360000000 cycles: 1032377761 heartbeat IPC: 1.20004 cumulative IPC: 1.24558 (Simulation time: 3 hr 13 min 56 sec) 
Heartbeat CPU 0 instructions: 480000000 cycles: 1036287363 heartbeat IPC: 0.236644 cumulative IPC: 0.184485 (Simulation time: 3 hr 14 min 38 sec) 
Heartbeat CPU 1 instructions: 1120000000 cycles: 1039075460 heartbeat IPC: 1.12566 cumulative IPC: 0.896919 (Simulation time: 3 hr 15 min 8 sec) 
Heartbeat CPU 3 instructions: 1370000003 cycles: 1040655568 heartbeat IPC: 1.20805 cumulative IPC: 1.24524 (Simulation time: 3 hr 15 min 26 sec) 
Heartbeat CPU 1 instructions: 1130000002 cycles: 1048513987 heartbeat IPC: 1.05949 cumulative IPC: 0.898561 (Simulation time: 3 hr 16 min 49 sec) 
Heartbeat CPU 3 instructions: 1380000000 cycles: 1048961906 heartbeat IPC: 1.2039 cumulative IPC: 1.24487 (Simulation time: 3 hr 16 min 54 sec) 
Heartbeat CPU 2 instructions: 590000000 cycles: 1049659983 heartbeat IPC: 0.489936 cumulative IPC: 0.416787 (Simulation time: 3 hr 17 min 2 sec) 
Heartbeat CPU 3 instructions: 1390000003 cycles: 1057244476 heartbeat IPC: 1.20736 cumulative IPC: 1.24454 (Simulation time: 3 hr 18 min 24 sec) 
Heartbeat CPU 1 instructions: 1140000000 cycles: 1057481834 heartbeat IPC: 1.11509 cumulative IPC: 0.900619 (Simulation time: 3 hr 18 min 27 sec) 
Heartbeat CPU 3 instructions: 1400000000 cycles: 1065545486 heartbeat IPC: 1.20467 cumulative IPC: 1.2442 (Simulation time: 3 hr 19 min 53 sec) 
Heartbeat CPU 1 instructions: 1150000003 cycles: 1066991380 heartbeat IPC: 1.05158 cumulative IPC: 0.902126 (Simulation time: 3 hr 20 min 9 sec) 
Heartbeat CPU 2 instructions: 600000000 cycles: 1069747118 heartbeat IPC: 0.497831 cumulative IPC: 0.418491 (Simulation time: 3 hr 20 min 39 sec) 
Heartbeat CPU 3 instructions: 1410000001 cycles: 1073840141 heartbeat IPC: 1.2056 cumulative IPC: 1.24386 (Simulation time: 3 hr 21 min 24 sec) 
Heartbeat CPU 1 instructions: 1160000000 cycles: 1076186840 heartbeat IPC: 1.08749 cumulative IPC: 0.903897 (Simulation time: 3 hr 21 min 50 sec) 
Heartbeat CPU 0 instructions: 490000002 cycles: 1078190672 heartbeat IPC: 0.238645 cumulative IPC: 0.186838 (Simulation time: 3 hr 22 min 12 sec) 
Heartbeat CPU 3 instructions: 1420000000 cycles: 1082124926 heartbeat IPC: 1.20703 cumulative IPC: 1.24355 (Simulation time: 3 hr 22 min 54 sec) 
Heartbeat CPU 1 instructions: 1170000001 cycles: 1085657225 heartbeat IPC: 1.05592 cumulative IPC: 0.905379 (Simulation time: 3 hr 23 min 33 sec) 
Heartbeat CPU 2 instructions: 610000001 cycles: 1089379973 heartbeat IPC: 0.50935 cumulative IPC: 0.420319 (Simulation time: 3 hr 24 min 13 sec) 
Heartbeat CPU 3 instructions: 1430000002 cycles: 1090399800 heartbeat IPC: 1.20848 cumulative IPC: 1.24325 (Simulation time: 3 hr 24 min 25 sec) 
Heartbeat CPU 1 instructions: 1180000000 cycles: 1094835213 heartbeat IPC: 1.08956 cumulative IPC: 0.907102 (Simulation time: 3 hr 25 min 13 sec) 
Heartbeat CPU 3 instructions: 1440000000 cycles: 1098696555 heartbeat IPC: 1.20529 cumulative IPC: 1.24293 (Simulation time: 3 hr 25 min 54 sec) 
Heartbeat CPU 1 instructions: 1190000003 cycles: 1104342573 heartbeat IPC: 1.05182 cumulative IPC: 0.908491 (Simulation time: 3 hr 26 min 56 sec) 
Heartbeat CPU 3 instructions: 1450000001 cycles: 1106983802 heartbeat IPC: 1.20667 cumulative IPC: 1.24263 (Simulation time: 3 hr 27 min 24 sec) 
Heartbeat CPU 2 instructions: 620000000 cycles: 1108819290 heartbeat IPC: 0.514421 cumulative IPC: 0.422158 (Simulation time: 3 hr 27 min 44 sec) 
Heartbeat CPU 1 instructions: 1200000000 cycles: 1113610559 heartbeat IPC: 1.07898 cumulative IPC: 0.910072 (Simulation time: 3 hr 28 min 36 sec) 
Heartbeat CPU 3 instructions: 1460000000 cycles: 1115257476 heartbeat IPC: 1.20865 cumulative IPC: 1.24235 (Simulation time: 3 hr 28 min 53 sec) 
Heartbeat CPU 0 instructions: 500000000 cycles: 1120186485 heartbeat IPC: 0.238119 cumulative IPC: 0.188978 (Simulation time: 3 hr 29 min 47 sec) 
Heartbeat CPU 1 instructions: 1210000001 cycles: 1123292995 heartbeat IPC: 1.0328 cumulative IPC: 0.911249 (Simulation time: 3 hr 30 min 21 sec) 
Heartbeat CPU 3 instructions: 1470000003 cycles: 1123549597 heartbeat IPC: 1.20596 cumulative IPC: 1.24205 (Simulation time: 3 hr 30 min 23 sec) 
Heartbeat CPU 2 instructions: 630000001 cycles: 1127954662 heartbeat IPC: 0.522592 cumulative IPC: 0.424053 (Simulation time: 3 hr 31 min 12 sec) 
Heartbeat CPU 3 instructions: 1480000000 cycles: 1131811193 heartbeat IPC: 1.21042 cumulative IPC: 1.24179 (Simulation time: 3 hr 31 min 53 sec) 
Heartbeat CPU 1 instructions: 1220000000 cycles: 1132837924 heartbeat IPC: 1.04768 cumulative IPC: 0.912527 (Simulation time: 3 hr 32 min 4 sec) 
Heartbeat CPU 3 instructions: 1490000002 cycles: 1140127834 heartbeat IPC: 1.20241 cumulative IPC: 1.24147 (Simulation time: 3 hr 33 min 24 sec) 
Heartbeat CPU 1 instructions: 1230000001 cycles: 1142166204 heartbeat IPC: 1.07201 cumulative IPC: 0.913974 (Simulation time: 3 hr 33 min 47 sec) 
Heartbeat CPU 2 instructions: 640000000 cycles: 1146664325 heartbeat IPC: 0.534483 cumulative IPC: 0.426054 (Simulation time: 3 hr 34 min 36 sec) 
Heartbeat CPU 3 instructions: 1500000000 cycles: 1148391377 heartbeat IPC: 1.21013 cumulative IPC: 1.24122 (Simulation time: 3 hr 34 min 55 sec) 
Heartbeat CPU 1 instructions: 1240000000 cycles: 1151980572 heartbeat IPC: 1.01891 cumulative IPC: 0.914966 (Simulation time: 3 hr 35 min 34 sec) 
Heartbeat CPU 3 instructions: 1510000000 cycles: 1156683186 heartbeat IPC: 1.20601 cumulative IPC: 1.24094 (Simulation time: 3 hr 36 min 26 sec) 
Heartbeat CPU 1 instructions: 1250000003 cycles: 1161309358 heartbeat IPC: 1.07195 cumulative IPC: 0.916364 (Simulation time: 3 hr 37 min 16 sec) 
Heartbeat CPU 0 instructions: 510000000 cycles: 1161970626 heartbeat IPC: 0.239325 cumulative IPC: 0.190986 (Simulation time: 3 hr 37 min 24 sec) 
Heartbeat CPU 3 instructions: 1520000000 cycles: 1164942055 heartbeat IPC: 1.21082 cumulative IPC: 1.2407 (Simulation time: 3 hr 37 min 56 sec) 
Heartbeat CPU 2 instructions: 650000001 cycles: 1165194820 heartbeat IPC: 0.539651 cumulative IPC: 0.428056 (Simulation time: 3 hr 37 min 59 sec) 
Heartbeat CPU 1 instructions: 1260000000 cycles: 1171166071 heartbeat IPC: 1.01454 cumulative IPC: 0.91728 (Simulation time: 3 hr 39 min 7 sec) 
Heartbeat CPU 3 instructions: 1530000000 cycles: 1173278898 heartbeat IPC: 1.19949 cumulative IPC: 1.24038 (Simulation time: 3 hr 39 min 31 sec) 
Heartbeat CPU 2 instructions: 660000000 cycles: 1178578629 heartbeat IPC: 0.747171 cumulative IPC: 0.432068 (Simulation time: 3 hr 40 min 34 sec) 
Heartbeat CPU 1 instructions: 1270000000 cycles: 1180587479 heartbeat IPC: 1.06141 cumulative IPC: 0.918553 (Simulation time: 3 hr 40 min 58 sec) 
Heartbeat CPU 3 instructions: 1540000000 cycles: 1181581551 heartbeat IPC: 1.20443 cumulative IPC: 1.2401 (Simulation time: 3 hr 41 min 9 sec) 
Heartbeat CPU 3 instructions: 1550000002 cycles: 1189913400 heartbeat IPC: 1.20021 cumulative IPC: 1.23979 (Simulation time: 3 hr 42 min 47 sec) 
Heartbeat CPU 1 instructions: 1280000000 cycles: 1190434781 heartbeat IPC: 1.01551 cumulative IPC: 0.919439 (Simulation time: 3 hr 42 min 53 sec) 
Heartbeat CPU 2 instructions: 670000000 cycles: 1191179503 heartbeat IPC: 0.793596 cumulative IPC: 0.436297 (Simulation time: 3 hr 43 min 1 sec) 
Heartbeat CPU 3 instructions: 1560000000 cycles: 1198275330 heartbeat IPC: 1.1959 cumulative IPC: 1.23945 (Simulation time: 3 hr 44 min 25 sec) 
Heartbeat CPU 1 instructions: 1290000002 cycles: 1199845110 heartbeat IPC: 1.06266 cumulative IPC: 0.920681 (Simulation time: 3 hr 44 min 43 sec) 
Finished CPU 1 instructions: 1000000000 cycles: 1086122688 cumulative IPC: 0.920706 (Simulation time: 3 hr 44 min 45 sec) 
Heartbeat CPU 0 instructions: 520000000 cycles: 1201976795 heartbeat IPC: 0.249961 cumulative IPC: 0.193154 (Simulation time: 3 hr 45 min 7 sec) 
Heartbeat CPU 2 instructions: 680000000 cycles: 1203975541 heartbeat IPC: 0.781492 cumulative IPC: 0.440349 (Simulation time: 3 hr 45 min 30 sec) 
Heartbeat CPU 3 instructions: 1570000002 cycles: 1206617669 heartbeat IPC: 1.1987 cumulative IPC: 1.23914 (Simulation time: 3 hr 46 min 1 sec) 
Heartbeat CPU 1 instructions: 1300000000 cycles: 1209562905 heartbeat IPC: 1.02904 cumulative IPC: 0.921642 (Simulation time: 3 hr 46 min 35 sec) 
Heartbeat CPU 3 instructions: 1580000000 cycles: 1214906408 heartbeat IPC: 1.20646 cumulative IPC: 1.2389 (Simulation time: 3 hr 47 min 37 sec) 
Heartbeat CPU 2 instructions: 690000002 cycles: 1216969275 heartbeat IPC: 0.769602 cumulative IPC: 0.444228 (Simulation time: 3 hr 48 min 0 sec) 
Heartbeat CPU 1 instructions: 1310000001 cycles: 1219173792 heartbeat IPC: 1.04049 cumulative IPC: 0.922675 (Simulation time: 3 hr 48 min 25 sec) 
Heartbeat CPU 3 instructions: 1590000000 cycles: 1223257151 heartbeat IPC: 1.1975 cumulative IPC: 1.23858 (Simulation time: 3 hr 49 min 11 sec) 
Heartbeat CPU 1 instructions: 1320000000 cycles: 1228817563 heartbeat IPC: 1.03694 cumulative IPC: 0.923664 (Simulation time: 3 hr 50 min 15 sec) 
Heartbeat CPU 2 instructions: 700000000 cycles: 1230348972 heartbeat IPC: 0.747401 cumulative IPC: 0.447861 (Simulation time: 3 hr 50 min 33 sec) 
Heartbeat CPU 3 instructions: 1600000000 cycles: 1231548520 heartbeat IPC: 1.20607 cumulative IPC: 1.23834 (Simulation time: 3 hr 50 min 47 sec) 
Heartbeat CPU 1 instructions: 1330000003 cycles: 1238757729 heartbeat IPC: 1.00602 cumulative IPC: 0.924391 (Simulation time: 3 hr 52 min 8 sec) 
Heartbeat CPU 3 instructions: 1610000001 cycles: 1239871478 heartbeat IPC: 1.2015 cumulative IPC: 1.23807 (Simulation time: 3 hr 52 min 21 sec) 
Heartbeat CPU 0 instructions: 530000002 cycles: 1241563946 heartbeat IPC: 0.252607 cumulative IPC: 0.195241 (Simulation time: 3 hr 52 min 40 sec) 
Heartbeat CPU 2 instructions: 710000001 cycles: 1243856061 heartbeat IPC: 0.740352 cumulative IPC: 0.451357 (Simulation time: 3 hr 53 min 6 sec) 
Heartbeat CPU 3 instructions: 1620000000 cycles: 1248581521 heartbeat IPC: 1.1481 cumulative IPC: 1.23738 (Simulation time: 3 hr 53 min 58 sec) 
Heartbeat CPU 1 instructions: 1340000000 cycles: 1248605177 heartbeat IPC: 1.01549 cumulative IPC: 0.925182 (Simulation time: 3 hr 53 min 59 sec) 
Heartbeat CPU 3 instructions: 1630000002 cycles: 1257452280 heartbeat IPC: 1.1273 cumulative IPC: 1.23653 (Simulation time: 3 hr 55 min 36 sec) 
Heartbeat CPU 2 instructions: 720000000 cycles: 1257626911 heartbeat IPC: 0.726171 cumulative IPC: 0.454666 (Simulation time: 3 hr 55 min 38 sec) 
Heartbeat CPU 1 instructions: 1350000003 cycles: 1258878818 heartbeat IPC: 0.973365 cumulative IPC: 0.925614 (Simulation time: 3 hr 55 min 52 sec) 
Heartbeat CPU 3 instructions: 1640000000 cycles: 1266252183 heartbeat IPC: 1.13638 cumulative IPC: 1.23576 (Simulation time: 3 hr 57 min 13 sec) 
Heartbeat CPU 1 instructions: 1360000000 cycles: 1268981719 heartbeat IPC: 0.989814 cumulative IPC: 0.926176 (Simulation time: 3 hr 57 min 43 sec) 
Heartbeat CPU 2 instructions: 730000000 cycles: 1271787934 heartbeat IPC: 0.706164 cumulative IPC: 0.457742 (Simulation time: 3 hr 58 min 13 sec) 
Heartbeat CPU 3 instructions: 1650000000 cycles: 1275337655 heartbeat IPC: 1.10066 cumulative IPC: 1.2347 (Simulation time: 3 hr 58 min 53 sec) 
Heartbeat CPU 0 instructions: 540000000 cycles: 1275597842 heartbeat IPC: 0.293825 cumulative IPC: 0.19813 (Simulation time: 3 hr 58 min 56 sec) 
Heartbeat CPU 1 instructions: 1370000003 cycles: 1279942119 heartbeat IPC: 0.912376 cumulative IPC: 0.926046 (Simulation time: 3 hr 59 min 45 sec) 
Heartbeat CPU 3 instructions: 1660000000 cycles: 1284626881 heartbeat IPC: 1.07652 cumulative IPC: 1.23345 (Simulation time: 4 hr 0 min 37 sec) 
Heartbeat CPU 2 instructions: 740000000 cycles: 1286280402 heartbeat IPC: 0.690014 cumulative IPC: 0.460614 (Simulation time: 4 hr 0 min 56 sec) 
Heartbeat CPU 0 instructions: 550000001 cycles: 1288055016 heartbeat IPC: 0.80275 cumulative IPC: 0.204545 (Simulation time: 4 hr 1 min 16 sec) 
Heartbeat CPU 1 instructions: 1380000000 cycles: 1290219237 heartbeat IPC: 0.973035 cumulative IPC: 0.926457 (Simulation time: 4 hr 1 min 40 sec) 
Heartbeat CPU 3 instructions: 1670000003 cycles: 1293930376 heartbeat IPC: 1.07487 cumulative IPC: 1.2322 (Simulation time: 4 hr 2 min 21 sec) 
Heartbeat CPU 1 instructions: 1390000002 cycles: 1300817922 heartbeat IPC: 0.943513 cumulative IPC: 0.926609 (Simulation time: 4 hr 3 min 38 sec) 
Heartbeat CPU 0 instructions: 560000000 cycles: 1300839162 heartbeat IPC: 0.782219 cumulative IPC: 0.210767 (Simulation time: 4 hr 3 min 38 sec) 
Heartbeat CPU 2 instructions: 750000002 cycles: 1301213394 heartbeat IPC: 0.669658 cumulative IPC: 0.463243 (Simulation time: 4 hr 3 min 42 sec) 
Heartbeat CPU 3 instructions: 1680000000 cycles: 1303252966 heartbeat IPC: 1.07266 cumulative IPC: 1.23095 (Simulation time: 4 hr 4 min 5 sec) 
Heartbeat CPU 1 instructions: 1400000000 cycles: 1311229429 heartbeat IPC: 0.960476 cumulative IPC: 0.926903 (Simulation time: 4 hr 5 min 34 sec) 
Heartbeat CPU 3 instructions: 1690000001 cycles: 1312471168 heartbeat IPC: 1.08481 cumulative IPC: 1.22982 (Simulation time: 4 hr 5 min 47 sec) 
Heartbeat CPU 0 instructions: 570000001 cycles: 1313421892 heartbeat IPC: 0.79474 cumulative IPC: 0.216893 (Simulation time: 4 hr 5 min 57 sec) 
Heartbeat CPU 2 instructions: 760000000 cycles: 1316228108 heartbeat IPC: 0.666013 cumulative IPC: 0.465775 (Simulation time: 4 hr 6 min 29 sec) 
Heartbeat CPU 1 instructions: 1410000003 cycles: 1321730507 heartbeat IPC: 0.952283 cumulative IPC: 0.927124 (Simulation time: 4 hr 7 min 30 sec) 
Heartbeat CPU 3 instructions: 1700000000 cycles: 1321819587 heartbeat IPC: 1.0697 cumulative IPC: 1.22859 (Simulation time: 4 hr 7 min 31 sec) 
Heartbeat CPU 0 instructions: 580000000 cycles: 1325939873 heartbeat IPC: 0.798851 cumulative IPC: 0.222903 (Simulation time: 4 hr 8 min 17 sec) 
Heartbeat CPU 3 instructions: 1710000003 cycles: 1331047668 heartbeat IPC: 1.08365 cumulative IPC: 1.22749 (Simulation time: 4 hr 9 min 12 sec) 
Heartbeat CPU 2 instructions: 770000000 cycles: 1332099590 heartbeat IPC: 0.630061 cumulative IPC: 0.467916 (Simulation time: 4 hr 9 min 23 sec) 
Heartbeat CPU 1 instructions: 1420000000 cycles: 1332754950 heartbeat IPC: 0.907075 cumulative IPC: 0.926943 (Simulation time: 4 hr 9 min 30 sec) 
Heartbeat CPU 0 instructions: 590000003 cycles: 1338671481 heartbeat IPC: 0.785447 cumulative IPC: 0.228751 (Simulation time: 4 hr 10 min 36 sec) 
Heartbeat CPU 3 instructions: 1720000000 cycles: 1340330223 heartbeat IPC: 1.07729 cumulative IPC: 1.22635 (Simulation time: 4 hr 10 min 55 sec) 
Heartbeat CPU 1 instructions: 1430000001 cycles: 1342884880 heartbeat IPC: 0.987174 cumulative IPC: 0.927439 (Simulation time: 4 hr 11 min 23 sec) 
Heartbeat CPU 2 instructions: 780000000 cycles: 1348087887 heartbeat IPC: 0.625457 cumulative IPC: 0.469956 (Simulation time: 4 hr 12 min 20 sec) 
Heartbeat CPU 3 instructions: 1730000002 cycles: 1349518442 heartbeat IPC: 1.08835 cumulative IPC: 1.22532 (Simulation time: 4 hr 12 min 36 sec) 
Heartbeat CPU 0 instructions: 600000000 cycles: 1351318544 heartbeat IPC: 0.790697 cumulative IPC: 0.234495 (Simulation time: 4 hr 12 min 54 sec) 
Heartbeat CPU 1 instructions: 1440000000 cycles: 1353634400 heartbeat IPC: 0.930274 cumulative IPC: 0.927464 (Simulation time: 4 hr 13 min 20 sec) 
Heartbeat CPU 3 instructions: 1740000000 cycles: 1358824102 heartbeat IPC: 1.07461 cumulative IPC: 1.2242 (Simulation time: 4 hr 14 min 18 sec) 
Heartbeat CPU 0 instructions: 610000002 cycles: 1363845192 heartbeat IPC: 0.798298 cumulative IPC: 0.240145 (Simulation time: 4 hr 15 min 13 sec) 
Heartbeat CPU 1 instructions: 1450000000 cycles: 1363850902 heartbeat IPC: 0.978809 cumulative IPC: 0.927884 (Simulation time: 4 hr 15 min 13 sec) 
Heartbeat CPU 2 instructions: 790000001 cycles: 1364421602 heartbeat IPC: 0.612231 cumulative IPC: 0.471815 (Simulation time: 4 hr 15 min 20 sec) 
Heartbeat CPU 3 instructions: 1750000002 cycles: 1368030001 heartbeat IPC: 1.08626 cumulative IPC: 1.22318 (Simulation time: 4 hr 15 min 59 sec) 
Heartbeat CPU 0 instructions: 620000000 cycles: 1377098013 heartbeat IPC: 0.754556 cumulative IPC: 0.245542 (Simulation time: 4 hr 17 min 29 sec) 
Heartbeat CPU 3 instructions: 1760000000 cycles: 1377325911 heartbeat IPC: 1.07574 cumulative IPC: 1.2221 (Simulation time: 4 hr 17 min 31 sec) 
Heartbeat CPU 2 instructions: 800000000 cycles: 1381326958 heartbeat IPC: 0.591528 cumulative IPC: 0.473412 (Simulation time: 4 hr 18 min 9 sec) 
Heartbeat CPU 3 instructions: 1770000002 cycles: 1386504845 heartbeat IPC: 1.08945 cumulative IPC: 1.22114 (Simulation time: 4 hr 19 min 7 sec) 
Heartbeat CPU 1 instructions: 1460000000 cycles: 1387278258 heartbeat IPC: 0.426851 cumulative IPC: 0.918665 (Simulation time: 4 hr 19 min 16 sec) 
Heartbeat CPU 0 instructions: 630000003 cycles: 1389634637 heartbeat IPC: 0.797663 cumulative IPC: 0.250968 (Simulation time: 4 hr 19 min 44 sec) 
Heartbeat CPU 3 instructions: 1780000000 cycles: 1395494261 heartbeat IPC: 1.11242 cumulative IPC: 1.22038 (Simulation time: 4 hr 20 min 54 sec) 
Heartbeat CPU 2 instructions: 810000000 cycles: 1398473618 heartbeat IPC: 0.583204 cumulative IPC: 0.474877 (Simulation time: 4 hr 21 min 29 sec) 
Heartbeat CPU 1 instructions: 1470000001 cycles: 1399330252 heartbeat IPC: 0.829738 cumulative IPC: 0.917832 (Simulation time: 4 hr 21 min 39 sec) 
Heartbeat CPU 0 instructions: 640000000 cycles: 1401321871 heartbeat IPC: 0.855634 cumulative IPC: 0.256457 (Simulation time: 4 hr 22 min 3 sec) 
Heartbeat CPU 3 instructions: 1790000001 cycles: 1404481255 heartbeat IPC: 1.11272 cumulative IPC: 1.21963 (Simulation time: 4 hr 22 min 40 sec) 
Heartbeat CPU 1 instructions: 1480000000 cycles: 1411310983 heartbeat IPC: 0.834674 cumulative IPC: 0.917064 (Simulation time: 4 hr 23 min 57 sec) 
Heartbeat CPU 3 instructions: 1800000000 cycles: 1412970577 heartbeat IPC: 1.17795 cumulative IPC: 1.21936 (Simulation time: 4 hr 24 min 16 sec) 
Heartbeat CPU 2 instructions: 820000000 cycles: 1416422231 heartbeat IPC: 0.557146 cumulative IPC: 0.476011 (Simulation time: 4 hr 24 min 54 sec) 
Heartbeat CPU 3 instructions: 1810000001 cycles: 1420868088 heartbeat IPC: 1.26622 cumulative IPC: 1.21964 (Simulation time: 4 hr 25 min 44 sec) 
Heartbeat CPU 1 instructions: 1490000000 cycles: 1422825106 heartbeat IPC: 0.868499 cumulative IPC: 0.916636 (Simulation time: 4 hr 26 min 7 sec) 
Heartbeat CPU 0 instructions: 650000002 cycles: 1423053812 heartbeat IPC: 0.460152 cumulative IPC: 0.259839 (Simulation time: 4 hr 26 min 9 sec) 
Heartbeat CPU 3 instructions: 1820000000 cycles: 1428730432 heartbeat IPC: 1.27189 cumulative IPC: 1.21995 (Simulation time: 4 hr 27 min 15 sec) 
Heartbeat CPU 2 instructions: 830000001 cycles: 1434033159 heartbeat IPC: 0.567829 cumulative IPC: 0.477236 (Simulation time: 4 hr 28 min 15 sec) 
Heartbeat CPU 1 instructions: 1500000000 cycles: 1434359693 heartbeat IPC: 0.866958 cumulative IPC: 0.916202 (Simulation time: 4 hr 28 min 19 sec) 
Heartbeat CPU 3 instructions: 1830000003 cycles: 1436563083 heartbeat IPC: 1.27671 cumulative IPC: 1.22029 (Simulation time: 4 hr 28 min 44 sec) 
Heartbeat CPU 3 instructions: 1840000000 cycles: 1444393101 heartbeat IPC: 1.27714 cumulative IPC: 1.22062 (Simulation time: 4 hr 30 min 15 sec) 
Heartbeat CPU 1 instructions: 1510000002 cycles: 1445921861 heartbeat IPC: 0.86489 cumulative IPC: 0.915757 (Simulation time: 4 hr 30 min 32 sec) 
Heartbeat CPU 0 instructions: 660000000 cycles: 1450695358 heartbeat IPC: 0.361774 cumulative IPC: 0.261946 (Simulation time: 4 hr 31 min 28 sec) 
Heartbeat CPU 3 instructions: 1850000001 cycles: 1452224171 heartbeat IPC: 1.27696 cumulative IPC: 1.22095 (Simulation time: 4 hr 31 min 46 sec) 
Heartbeat CPU 2 instructions: 840000000 cycles: 1452570718 heartbeat IPC: 0.539445 cumulative IPC: 0.478097 (Simulation time: 4 hr 31 min 50 sec) 
Heartbeat CPU 1 instructions: 1520000000 cycles: 1457418192 heartbeat IPC: 0.869843 cumulative IPC: 0.915364 (Simulation time: 4 hr 32 min 46 sec) 
Heartbeat CPU 3 instructions: 1860000000 cycles: 1460031383 heartbeat IPC: 1.28087 cumulative IPC: 1.2213 (Simulation time: 4 hr 33 min 16 sec) 
Heartbeat CPU 3 instructions: 1870000000 cycles: 1467842905 heartbeat IPC: 1.28016 cumulative IPC: 1.22164 (Simulation time: 4 hr 34 min 48 sec) 
Heartbeat CPU 1 instructions: 1530000001 cycles: 1468938603 heartbeat IPC: 0.868025 cumulative IPC: 0.914962 (Simulation time: 4 hr 35 min 0 sec) 
Heartbeat CPU 2 instructions: 850000001 cycles: 1472181039 heartbeat IPC: 0.509936 cumulative IPC: 0.478557 (Simulation time: 4 hr 35 min 38 sec) 
Heartbeat CPU 3 instructions: 1880000000 cycles: 1475654854 heartbeat IPC: 1.28009 cumulative IPC: 1.22198 (Simulation time: 4 hr 36 min 18 sec) 
Heartbeat CPU 0 instructions: 670000000 cycles: 1476232712 heartbeat IPC: 0.391583 cumulative IPC: 0.264377 (Simulation time: 4 hr 36 min 25 sec) 
Heartbeat CPU 1 instructions: 1540000000 cycles: 1480493253 heartbeat IPC: 0.865452 cumulative IPC: 0.914543 (Simulation time: 4 hr 37 min 13 sec) 
Heartbeat CPU 3 instructions: 1890000001 cycles: 1483462785 heartbeat IPC: 1.28075 cumulative IPC: 1.22231 (Simulation time: 4 hr 37 min 48 sec) 
Heartbeat CPU 3 instructions: 1900000000 cycles: 1491249451 heartbeat IPC: 1.28425 cumulative IPC: 1.22266 (Simulation time: 4 hr 39 min 17 sec) 
Heartbeat CPU 1 instructions: 1550000001 cycles: 1492072806 heartbeat IPC: 0.863591 cumulative IPC: 0.914115 (Simulation time: 4 hr 39 min 27 sec) 
Heartbeat CPU 2 instructions: 860000000 cycles: 1493242903 heartbeat IPC: 0.474792 cumulative IPC: 0.478499 (Simulation time: 4 hr 39 min 40 sec) 
Heartbeat CPU 3 instructions: 1910000003 cycles: 1499023144 heartbeat IPC: 1.28639 cumulative IPC: 1.22302 (Simulation time: 4 hr 40 min 47 sec) 
Heartbeat CPU 0 instructions: 680000000 cycles: 1501073674 heartbeat IPC: 0.402561 cumulative IPC: 0.266851 (Simulation time: 4 hr 41 min 10 sec) 
Heartbeat CPU 1 instructions: 1560000000 cycles: 1503641992 heartbeat IPC: 0.864365 cumulative IPC: 0.913701 (Simulation time: 4 hr 41 min 40 sec) 
Heartbeat CPU 3 instructions: 1920000000 cycles: 1506792528 heartbeat IPC: 1.2871 cumulative IPC: 1.22338 (Simulation time: 4 hr 42 min 17 sec) 
Heartbeat CPU 3 instructions: 1930000002 cycles: 1514593516 heartbeat IPC: 1.28189 cumulative IPC: 1.2237 (Simulation time: 4 hr 43 min 46 sec) 
Heartbeat CPU 1 instructions: 1570000003 cycles: 1515185433 heartbeat IPC: 0.866293 cumulative IPC: 0.91331 (Simulation time: 4 hr 43 min 53 sec) 
Heartbeat CPU 2 instructions: 870000000 cycles: 1516034742 heartbeat IPC: 0.438754 cumulative IPC: 0.477853 (Simulation time: 4 hr 44 min 2 sec) 
Heartbeat CPU 3 instructions: 1940000000 cycles: 1522395120 heartbeat IPC: 1.28179 cumulative IPC: 1.22402 (Simulation time: 4 hr 45 min 12 sec) 
Heartbeat CPU 0 instructions: 690000001 cycles: 1525091570 heartbeat IPC: 0.416356 cumulative IPC: 0.269396 (Simulation time: 4 hr 45 min 37 sec) 
Heartbeat CPU 3 instructions: 1950000002 cycles: 1530372228 heartbeat IPC: 1.25359 cumulative IPC: 1.22419 (Simulation time: 4 hr 46 min 26 sec) 
Heartbeat CPU 3 instructions: 1960000000 cycles: 1538341489 heartbeat IPC: 1.25482 cumulative IPC: 1.22436 (Simulation time: 4 hr 47 min 44 sec) 
Heartbeat CPU 1 instructions: 1580000000 cycles: 1538673316 heartbeat IPC: 0.425751 cumulative IPC: 0.905273 (Simulation time: 4 hr 47 min 47 sec) 
Heartbeat CPU 2 instructions: 880000000 cycles: 1542273025 heartbeat IPC: 0.381122 cumulative IPC: 0.476076 (Simulation time: 4 hr 48 min 26 sec) 
Heartbeat CPU 3 instructions: 1970000002 cycles: 1546222931 heartbeat IPC: 1.2688 cumulative IPC: 1.22461 (Simulation time: 4 hr 49 min 9 sec) 
Heartbeat CPU 0 instructions: 700000000 cycles: 1549028578 heartbeat IPC: 0.417763 cumulative IPC: 0.27187 (Simulation time: 4 hr 49 min 39 sec) 
Heartbeat CPU 1 instructions: 1590000002 cycles: 1549832349 heartbeat IPC: 0.896135 cumulative IPC: 0.905201 (Simulation time: 4 hr 49 min 48 sec) 
Heartbeat CPU 3 instructions: 1980000000 cycles: 1554081023 heartbeat IPC: 1.27257 cumulative IPC: 1.22487 (Simulation time: 4 hr 50 min 32 sec) 
Heartbeat CPU 3 instructions: 1990000001 cycles: 1562075820 heartbeat IPC: 1.25081 cumulative IPC: 1.22501 (Simulation time: 4 hr 51 min 56 sec) 
Heartbeat CPU 1 instructions: 1600000000 cycles: 1562264481 heartbeat IPC: 0.804367 cumulative IPC: 0.904336 (Simulation time: 4 hr 51 min 58 sec) 
*** Reached end of trace for Core: 3 Repeating trace: /scratch/user/djimenez/champsim-traces/speccpu2017/xz/603.bwaves_s/603.bwaves_s-1740B.champsimtrace.xz
Heartbeat CPU 3 instructions: 2000000000 cycles: 1570199823 heartbeat IPC: 1.23092 cumulative IPC: 1.22504 (Simulation time: 4 hr 53 min 24 sec) 
Heartbeat CPU 1 instructions: 1610000003 cycles: 1572040766 heartbeat IPC: 1.02288 cumulative IPC: 0.905131 (Simulation time: 4 hr 53 min 43 sec) 
Heartbeat CPU 0 instructions: 710000000 cycles: 1573842102 heartbeat IPC: 0.403006 cumulative IPC: 0.274099 (Simulation time: 4 hr 54 min 2 sec) 
Heartbeat CPU 2 instructions: 890000000 cycles: 1574008860 heartbeat IPC: 0.315101 cumulative IPC: 0.472578 (Simulation time: 4 hr 54 min 4 sec) 
Heartbeat CPU 3 instructions: 2010000002 cycles: 1578247636 heartbeat IPC: 1.24257 cumulative IPC: 1.22514 (Simulation time: 4 hr 54 min 51 sec) 
Heartbeat CPU 1 instructions: 1620000000 cycles: 1581178332 heartbeat IPC: 1.09438 cumulative IPC: 0.906309 (Simulation time: 4 hr 55 min 23 sec) 
Heartbeat CPU 3 instructions: 2020000000 cycles: 1586115376 heartbeat IPC: 1.27101 cumulative IPC: 1.22539 (Simulation time: 4 hr 56 min 17 sec) 
Heartbeat CPU 1 instructions: 1630000000 cycles: 1589899889 heartbeat IPC: 1.14658 cumulative IPC: 0.907729 (Simulation time: 4 hr 57 min 0 sec) 
Heartbeat CPU 3 instructions: 2030000003 cycles: 1593992709 heartbeat IPC: 1.26947 cumulative IPC: 1.22562 (Simulation time: 4 hr 57 min 47 sec) 
Heartbeat CPU 0 instructions: 720000000 cycles: 1597700724 heartbeat IPC: 0.419136 cumulative IPC: 0.276431 (Simulation time: 4 hr 58 min 30 sec) 
Heartbeat CPU 1 instructions: 1640000000 cycles: 1598846447 heartbeat IPC: 1.11775 cumulative IPC: 0.908995 (Simulation time: 4 hr 58 min 43 sec) 
Heartbeat CPU 3 instructions: 2040000000 cycles: 1601864545 heartbeat IPC: 1.27035 cumulative IPC: 1.22586 (Simulation time: 4 hr 59 min 19 sec) 
Heartbeat CPU 2 instructions: 900000000 cycles: 1607485992 heartbeat IPC: 0.298711 cumulative IPC: 0.46868 (Simulation time: 5 hr 0 min 24 sec) 
Heartbeat CPU 1 instructions: 1650000001 cycles: 1607679584 heartbeat IPC: 1.1321 cumulative IPC: 0.910314 (Simulation time: 5 hr 0 min 26 sec) 
Heartbeat CPU 3 instructions: 2050000003 cycles: 1609745303 heartbeat IPC: 1.26891 cumulative IPC: 1.22608 (Simulation time: 5 hr 0 min 51 sec) 
Heartbeat CPU 1 instructions: 1660000000 cycles: 1616421321 heartbeat IPC: 1.14394 cumulative IPC: 0.911673 (Simulation time: 5 hr 2 min 9 sec) 
Heartbeat CPU 3 instructions: 2060000000 cycles: 1617644994 heartbeat IPC: 1.26587 cumulative IPC: 1.22629 (Simulation time: 5 hr 2 min 23 sec) 
Heartbeat CPU 0 instructions: 730000000 cycles: 1621091282 heartbeat IPC: 0.427523 cumulative IPC: 0.278776 (Simulation time: 5 hr 3 min 3 sec) 
Heartbeat CPU 1 instructions: 1670000001 cycles: 1625405022 heartbeat IPC: 1.11313 cumulative IPC: 0.912871 (Simulation time: 5 hr 3 min 53 sec) 
Heartbeat CPU 3 instructions: 2070000001 cycles: 1625522652 heartbeat IPC: 1.26941 cumulative IPC: 1.22652 (Simulation time: 5 hr 3 min 55 sec) 
Heartbeat CPU 3 instructions: 2080000000 cycles: 1633815984 heartbeat IPC: 1.20579 cumulative IPC: 1.22641 (Simulation time: 5 hr 5 min 22 sec) 
Heartbeat CPU 2 instructions: 910000001 cycles: 1635930567 heartbeat IPC: 0.351561 cumulative IPC: 0.466492 (Simulation time: 5 hr 5 min 44 sec) 
Heartbeat CPU 1 instructions: 1680000000 cycles: 1640124170 heartbeat IPC: 0.679387 cumulative IPC: 0.910619 (Simulation time: 5 hr 6 min 29 sec) 
[...]
Heartbeat CPU 3 instructions: 3360000000 cycles: 2650811628 heartbeat IPC: 1.2399 cumulative IPC: 1.23932 (Simulation time: 8 hr 20 min 14 sec) 
Heartbeat CPU 3 instructions: 3370000003 cycles: 2658834987 heartbeat IPC: 1.24636 cumulative IPC: 1.23934 (Simulation time: 8 hr 21 min 49 sec) 
Heartbeat CPU 1 instructions: 2630000000 cycles: 2659683517 heartbeat IPC: 0.868303 cumulative IPC: 0.919092 (Simulation time: 8 hr 21 min 59 sec) 
Heartbeat CPU 0 instructions: 1260000000 cycles: 2663094671 heartbeat IPC: 0.54452 cumulative IPC: 0.372734 (Simulation time: 8 hr 22 min 39 sec) 
Heartbeat CPU 3 instructions: 3380000000 cycles: 2666914993 heartbeat IPC: 1.23762 cumulative IPC: 1.23933 (Simulation time: 8 hr 23 min 23 sec) 
Heartbeat CPU 1 instructions: 2640000000 cycles: 2670727796 heartbeat IPC: 0.905446 cumulative IPC: 0.919033 (Simulation time: 8 hr 24 min 9 sec) 
Heartbeat CPU 3 instructions: 3390000003 cycles: 2674970439 heartbeat IPC: 1.2414 cumulative IPC: 1.23934 (Simulation time: 8 hr 24 min 59 sec) 
Heartbeat CPU 2 instructions: 1280000000 cycles: 2677430230 heartbeat IPC: 0.365461 cumulative IPC: 0.421299 (Simulation time: 8 hr 25 min 27 sec) 
Heartbeat CPU 1 instructions: 2650000001 cycles: 2681679919 heartbeat IPC: 0.913065 cumulative IPC: 0.919007 (Simulation time: 8 hr 26 min 18 sec) 
Heartbeat CPU 0 instructions: 1270000000 cycles: 2681741103 heartbeat IPC: 0.536296 cumulative IPC: 0.373922 (Simulation time: 8 hr 26 min 19 sec) 
Heartbeat CPU 3 instructions: 3400000000 cycles: 2683024646 heartbeat IPC: 1.24159 cumulative IPC: 1.23935 (Simulation time: 8 hr 26 min 33 sec) 
Heartbeat CPU 3 instructions: 3410000001 cycles: 2691028667 heartbeat IPC: 1.24937 cumulative IPC: 1.23938 (Simulation time: 8 hr 28 min 9 sec) 
Heartbeat CPU 1 instructions: 2660000000 cycles: 2693338350 heartbeat IPC: 0.857748 cumulative IPC: 0.91873 (Simulation time: 8 hr 28 min 36 sec) 
Heartbeat CPU 3 instructions: 3420000000 cycles: 2699088244 heartbeat IPC: 1.24076 cumulative IPC: 1.23938 (Simulation time: 8 hr 29 min 45 sec) 
Heartbeat CPU 0 instructions: 1280000000 cycles: 2700084164 heartbeat IPC: 0.545165 cumulative IPC: 0.375137 (Simulation time: 8 hr 29 min 58 sec) 
Heartbeat CPU 2 instructions: 1290000002 cycles: 2703384720 heartbeat IPC: 0.38529 cumulative IPC: 0.420938 (Simulation time: 8 hr 30 min 37 sec) 
Heartbeat CPU 1 instructions: 2670000001 cycles: 2704266617 heartbeat IPC: 0.915058 cumulative IPC: 0.918715 (Simulation time: 8 hr 30 min 47 sec) 
Heartbeat CPU 3 instructions: 3430000002 cycles: 2707086595 heartbeat IPC: 1.25026 cumulative IPC: 1.23941 (Simulation time: 8 hr 31 min 22 sec) 
Heartbeat CPU 3 instructions: 3440000000 cycles: 2715159654 heartbeat IPC: 1.23869 cumulative IPC: 1.23941 (Simulation time: 8 hr 33 min 1 sec) 
Heartbeat CPU 1 instructions: 2680000000 cycles: 2715510276 heartbeat IPC: 0.88939 cumulative IPC: 0.918588 (Simulation time: 8 hr 33 min 5 sec) 
Heartbeat CPU 0 instructions: 1290000001 cycles: 2718508897 heartbeat IPC: 0.542749 cumulative IPC: 0.376322 (Simulation time: 8 hr 33 min 43 sec) 
Heartbeat CPU 2 instructions: 1300000000 cycles: 2721352954 heartbeat IPC: 0.556538 cumulative IPC: 0.421873 (Simulation time: 8 hr 34 min 18 sec) 
Heartbeat CPU 3 instructions: 3450000001 cycles: 2723160686 heartbeat IPC: 1.24984 cumulative IPC: 1.23944 (Simulation time: 8 hr 34 min 40 sec) 
Heartbeat CPU 1 instructions: 2690000003 cycles: 2726593402 heartbeat IPC: 0.902273 cumulative IPC: 0.918519 (Simulation time: 8 hr 35 min 23 sec) 
Heartbeat CPU 3 instructions: 3460000000 cycles: 2731148196 heartbeat IPC: 1.25195 cumulative IPC: 1.23948 (Simulation time: 8 hr 36 min 19 sec) 
Heartbeat CPU 0 instructions: 1300000000 cycles: 2736910365 heartbeat IPC: 0.543435 cumulative IPC: 0.377495 (Simulation time: 8 hr 37 min 30 sec) 
Heartbeat CPU 1 instructions: 2700000000 cycles: 2737532837 heartbeat IPC: 0.914124 cumulative IPC: 0.918501 (Simulation time: 8 hr 37 min 37 sec) 
Heartbeat CPU 3 instructions: 3470000003 cycles: 2739159203 heartbeat IPC: 1.24828 cumulative IPC: 1.23951 (Simulation time: 8 hr 37 min 57 sec) 
Heartbeat CPU 2 instructions: 1310000000 cycles: 2740437952 heartbeat IPC: 0.523972 cumulative IPC: 0.422615 (Simulation time: 8 hr 38 min 12 sec) 
Heartbeat CPU 3 instructions: 3480000000 cycles: 2747152982 heartbeat IPC: 1.25097 cumulative IPC: 1.23954 (Simulation time: 8 hr 39 min 33 sec) 
Heartbeat CPU 1 instructions: 2710000002 cycles: 2748431245 heartbeat IPC: 0.917565 cumulative IPC: 0.918497 (Simulation time: 8 hr 39 min 49 sec) 
Finished CPU 0 instructions: 1000000001 cycles: 2641034657 cumulative IPC: 0.378639 (Simulation time: 8 hr 41 min 5 sec) 

CPU 0 Branch Prediction Accuracy: 98.3063% MPKI: 2.60084

CPU 1 Branch Prediction Accuracy: 96.7996% MPKI: 2.30329

CPU 2 Branch Prediction Accuracy: 99.3519% MPKI: 1.81198

CPU 3 Branch Prediction Accuracy: 99.9709% MPKI: 0.00723942

ChampSim completed all CPUs

Total Simulation Statistics (not including warmup)

CPU 0 cumulative IPC: 0.378639 instructions: 1000000001 cycles: 2641034657
L1D TOTAL     ACCESS:  300522878  HIT:  163166883  MISS:  137355995
L1D LOAD      ACCESS:  252901906  HIT:  121114008  MISS:  131787898
L1D RFO       ACCESS:   47620972  HIT:   42052875  MISS:    5568097
L1D PREFETCH  ACCESS:          0  HIT:          0  MISS:          0
L1D WRITEBACK ACCESS:          0  HIT:          0  MISS:          0
L1I TOTAL     ACCESS:  332709105  HIT:  332708957  MISS:        148
L1I LOAD      ACCESS:  332709105  HIT:  332708957  MISS:        148
L1I RFO       ACCESS:          0  HIT:          0  MISS:          0
L1I PREFETCH  ACCESS:          0  HIT:          0  MISS:          0
L1I WRITEBACK ACCESS:          0  HIT:          0  MISS:          0
L2C TOTAL     ACCESS:  268605256  HIT:  110055725  MISS:  158549531
L2C LOAD      ACCESS:  131788025  HIT:   87352683  MISS:   44435342
L2C RFO       ACCESS:    5568094  HIT:     237091  MISS:    5331003
L2C PREFETCH  ACCESS:  121827030  HIT:   13055132  MISS:  108771898
L2C WRITEBACK ACCESS:    9422107  HIT:    9410819  MISS:      11288

Avg Lookahead Depth:	4.15741
TOTAL: 4.44603e+08	L2C: 3.60464e+08	LLC: 8.41394e+07	GOOD_L2C: 2.42012e+08
Printing all the perceptron weights to: perc_weights_0.csv
LLC TOTAL     ACCESS:  185229835  HIT:  160558072  MISS:   24671763
LLC LOAD      ACCESS:   22668107  HIT:   16056276  MISS:    6611831
LLC RFO       ACCESS:    5329692  HIT:     548902  MISS:    4780790
LLC PREFETCH  ACCESS:  147927493  HIT:  134649771  MISS:   13277722
LLC WRITEBACK ACCESS:    9304543  HIT:    9303123  MISS:       1420

CPU 1 cumulative IPC: 0.918303 instructions: 2425270959 cycles: 2641034657
L1D TOTAL     ACCESS:  447297265  HIT:  388498747  MISS:   58798518
L1D LOAD      ACCESS:  297581899  HIT:  260691123  MISS:   36890776
L1D RFO       ACCESS:  149715366  HIT:  127807624  MISS:   21907742
L1D PREFETCH  ACCESS:          0  HIT:          0  MISS:          0
L1D WRITEBACK ACCESS:          0  HIT:          0  MISS:          0
L1I TOTAL     ACCESS:  624607246  HIT:  624541203  MISS:      66043
L1I LOAD      ACCESS:  624607246  HIT:  624541203  MISS:      66043
L1I RFO       ACCESS:          0  HIT:          0  MISS:          0
L1I PREFETCH  ACCESS:          0  HIT:          0  MISS:          0
L1I WRITEBACK ACCESS:          0  HIT:          0  MISS:          0
L2C TOTAL     ACCESS:  129428598  HIT:   88146388  MISS:   41282210
L2C LOAD      ACCESS:   36956139  HIT:   34107811  MISS:    2848328
L2C RFO       ACCESS:   21898969  HIT:    6892479  MISS:   15006490
L2C PREFETCH  ACCESS:   44697611  HIT:   21307932  MISS:   23389679
L2C WRITEBACK ACCESS:   25875879  HIT:   25838166  MISS:      37713

Avg Lookahead Depth:	4.15741
TOTAL: 4.44603e+08	L2C: 3.60464e+08	LLC: 8.41394e+07	GOOD_L2C: 2.42012e+08
Printing all the perceptron weights to: perc_weights_0.csv
LLC TOTAL     ACCESS:   60390113  HIT:   42173438  MISS:   18216675
LLC LOAD      ACCESS:    1336567  HIT:     932241  MISS:     404326
LLC RFO       ACCESS:   15006153  HIT:    5743800  MISS:    9262353
LLC PREFETCH  ACCESS:   25908373  HIT:   17511734  MISS:    8396639
LLC WRITEBACK ACCESS:   18139020  HIT:   17985663  MISS:     153357

CPU 2 cumulative IPC: 0.422686 instructions: 1116328816 cycles: 2641034657
L1D TOTAL     ACCESS:  230902067  HIT:  168934228  MISS:   61967839
L1D LOAD      ACCESS:  171809089  HIT:  112103522  MISS:   59705567
L1D RFO       ACCESS:   59092978  HIT:   56830706  MISS:    2262272
L1D PREFETCH  ACCESS:          0  HIT:          0  MISS:          0
L1D WRITEBACK ACCESS:          0  HIT:          0  MISS:          0
L1I TOTAL     ACCESS:  501171286  HIT:  499101237  MISS:    2070049
L1I LOAD      ACCESS:  501171286  HIT:  499101237  MISS:    2070049
L1I RFO       ACCESS:          0  HIT:          0  MISS:          0
L1I PREFETCH  ACCESS:          0  HIT:          0  MISS:          0
L1I WRITEBACK ACCESS:          0  HIT:          0  MISS:          0
L2C TOTAL     ACCESS:  114872139  HIT:   78622636  MISS:   36249503
L2C LOAD      ACCESS:   61775418  HIT:   40336367  MISS:   21439051
L2C RFO       ACCESS:    2262242  HIT:     397800  MISS:    1864442
L2C PREFETCH  ACCESS:   47341287  HIT:   34397219  MISS:   12944068
L2C WRITEBACK ACCESS:    3493192  HIT:    3491250  MISS:       1942

Avg Lookahead Depth:	4.15741
TOTAL: 4.44603e+08	L2C: 3.60464e+08	LLC: 8.41394e+07	GOOD_L2C: 2.42012e+08
Printing all the perceptron weights to: perc_weights_0.csv
LLC TOTAL     ACCESS:   53447655  HIT:   48322226  MISS:    5125429
LLC LOAD      ACCESS:   20580852  HIT:   20123471  MISS:     457381
LLC RFO       ACCESS:    1860978  HIT:     131830  MISS:    1729148
LLC PREFETCH  ACCESS:   28546943  HIT:   25624782  MISS:    2922161
LLC WRITEBACK ACCESS:    2458882  HIT:    2442143  MISS:      16739

CPU 3 cumulative IPC: 1.23957 instructions: 3273760042 cycles: 2641034658
L1D TOTAL     ACCESS: 1251058440  HIT: 1183049825  MISS:   68008615
L1D LOAD      ACCESS: 1069452699  HIT: 1003510962  MISS:   65941737
L1D RFO       ACCESS:  181605741  HIT:  179538863  MISS:    2066878
L1D PREFETCH  ACCESS:          0  HIT:          0  MISS:          0
L1D WRITEBACK ACCESS:          0  HIT:          0  MISS:          0
L1I TOTAL     ACCESS:  803990712  HIT:  803990712  MISS:          0
L1I LOAD      ACCESS:  803990712  HIT:  803990712  MISS:          0
L1I RFO       ACCESS:          0  HIT:          0  MISS:          0
L1I PREFETCH  ACCESS:          0  HIT:          0  MISS:          0
L1I WRITEBACK ACCESS:          0  HIT:          0  MISS:          0
L2C TOTAL     ACCESS:  162940646  HIT:  100625121  MISS:   62315525
L2C LOAD      ACCESS:   65921917  HIT:   62752021  MISS:    3169896
L2C RFO       ACCESS:    2025965  HIT:     430846  MISS:    1595119
L2C PREFETCH  ACCESS:   92738145  HIT:   35190472  MISS:   57547673
L2C WRITEBACK ACCESS:    2254619  HIT:    2251782  MISS:       2837

Avg Lookahead Depth:	4.15741
TOTAL: 4.44603e+08	L2C: 3.60464e+08	LLC: 8.41394e+07	GOOD_L2C: 2.42012e+08
Printing all the perceptron weights to: perc_weights_0.csv
LLC TOTAL     ACCESS:   70501263  HIT:    8278655  MISS:   62222608
LLC LOAD      ACCESS:    2759099  HIT:     149159  MISS:    2609940
LLC RFO       ACCESS:    1595119  HIT:          0  MISS:    1595119
LLC PREFETCH  ACCESS:   64545762  HIT:    6529605  MISS:   58016157
LLC WRITEBACK ACCESS:    1601283  HIT:    1599891  MISS:       1392

Region of Interest Statistics

CPU 0 cumulative IPC: 0.378639 instructions: 1000000001 cycles: 2641034657
L1D TOTAL     ACCESS:  300522878  HIT:  163166883  MISS:  137355995
L1D LOAD      ACCESS:  252901906  HIT:  121114008  MISS:  131787898
L1D RFO       ACCESS:   47620972  HIT:   42052875  MISS:    5568097
L1D PREFETCH  ACCESS:          0  HIT:          0  MISS:          0
L1D WRITEBACK ACCESS:          0  HIT:          0  MISS:          0
L1D PREFETCH  REQUESTED:          0  ISSUED:          0  USEFUL:          0  USELESS:          0
L1I TOTAL     ACCESS:  332709105  HIT:  332708957  MISS:        148
L1I LOAD      ACCESS:  332709105  HIT:  332708957  MISS:        148
L1I RFO       ACCESS:          0  HIT:          0  MISS:          0
L1I PREFETCH  ACCESS:          0  HIT:          0  MISS:          0
L1I WRITEBACK ACCESS:          0  HIT:          0  MISS:          0
L1I PREFETCH  REQUESTED:          0  ISSUED:          0  USEFUL:          0  USELESS:          0
L2C TOTAL     ACCESS:  268605256  HIT:  110055725  MISS:  158549531
L2C LOAD      ACCESS:  131788025  HIT:   87352683  MISS:   44435342
L2C RFO       ACCESS:    5568094  HIT:     237091  MISS:    5331003
L2C PREFETCH  ACCESS:  121827030  HIT:   13055132  MISS:  108771898
L2C WRITEBACK ACCESS:    9422107  HIT:    9410819  MISS:      11288
L2C PREFETCH  REQUESTED:  195499781  ISSUED:  195426360  USEFUL:   88189780  USELESS:   26821838
LLC TOTAL     ACCESS:  185229835  HIT:  160558072  MISS:   24671763
LLC LOAD      ACCESS:   22668107  HIT:   16056276  MISS:    6611831
LLC RFO       ACCESS:    5329692  HIT:     548902  MISS:    4780790
LLC PREFETCH  ACCESS:  147927493  HIT:  134649771  MISS:   13277722
LLC WRITEBACK ACCESS:    9304543  HIT:    9303123  MISS:       1420
LLC PREFETCH  REQUESTED:          0  ISSUED:          0  USEFUL:    1991807  USELESS:   86519193
Major fault: 0 Minor fault: 268499

CPU 1 cumulative IPC: 0.920706 instructions: 1000000000 cycles: 1086122688
L1D TOTAL     ACCESS:  185200335  HIT:  160879964  MISS:   24320371
L1D LOAD      ACCESS:  123356304  HIT:  108067847  MISS:   15288457
L1D RFO       ACCESS:   61844031  HIT:   52812117  MISS:    9031914
L1D PREFETCH  ACCESS:          0  HIT:          0  MISS:          0
L1D WRITEBACK ACCESS:          0  HIT:          0  MISS:          0
L1D PREFETCH  REQUESTED:          0  ISSUED:          0  USEFUL:          0  USELESS:          0
L1I TOTAL     ACCESS:  257888097  HIT:  257861212  MISS:      26885
L1I LOAD      ACCESS:  257888097  HIT:  257861212  MISS:      26885
L1I RFO       ACCESS:          0  HIT:          0  MISS:          0
L1I PREFETCH  ACCESS:          0  HIT:          0  MISS:          0
L1I WRITEBACK ACCESS:          0  HIT:          0  MISS:          0
L1I PREFETCH  REQUESTED:          0  ISSUED:          0  USEFUL:          0  USELESS:          0
L2C TOTAL     ACCESS:   52792424  HIT:   35980843  MISS:   16811581
L2C LOAD      ACCESS:   15315040  HIT:   14211964  MISS:    1103076
L2C RFO       ACCESS:    9028258  HIT:    2969454  MISS:    6058804
L2C PREFETCH  ACCESS:   17747847  HIT:    8113601  MISS:    9634246
L2C WRITEBACK ACCESS:   10701279  HIT:   10685824  MISS:      15455
L2C PREFETCH  REQUESTED:   53989518  ISSUED:   53956944  USEFUL:   25980565  USELESS:     497339
LLC TOTAL     ACCESS:   24412459  HIT:   16928387  MISS:    7484072
LLC LOAD      ACCESS:     512069  HIT:     353960  MISS:     158109
LLC RFO       ACCESS:    6058670  HIT:    2257028  MISS:    3801642
LLC PREFETCH  ACCESS:   10482323  HIT:    7016222  MISS:    3466101
LLC WRITEBACK ACCESS:    7359397  HIT:    7301177  MISS:      58220
LLC PREFETCH  REQUESTED:          0  ISSUED:          0  USEFUL:    1991807  USELESS:   86519193
Major fault: 0 Minor fault: 20277

CPU 2 cumulative IPC: 0.431425 instructions: 1000000000 cycles: 2317900371
L1D TOTAL     ACCESS:  200803485  HIT:  145022135  MISS:   55781350
L1D LOAD      ACCESS:  150389843  HIT:   96693824  MISS:   53696019
L1D RFO       ACCESS:   50413642  HIT:   48328311  MISS:    2085331
L1D PREFETCH  ACCESS:          0  HIT:          0  MISS:          0
L1D WRITEBACK ACCESS:          0  HIT:          0  MISS:          0
L1D PREFETCH  REQUESTED:          0  ISSUED:          0  USEFUL:          0  USELESS:          0
L1I TOTAL     ACCESS:  450465661  HIT:  448701176  MISS:    1764485
L1I LOAD      ACCESS:  450465661  HIT:  448701176  MISS:    1764485
L1I RFO       ACCESS:          0  HIT:          0  MISS:          0
L1I PREFETCH  ACCESS:          0  HIT:          0  MISS:          0
L1I WRITEBACK ACCESS:          0  HIT:          0  MISS:          0
L1I PREFETCH  REQUESTED:          0  ISSUED:          0  USEFUL:          0  USELESS:          0
L2C TOTAL     ACCESS:  103606481  HIT:   71891283  MISS:   31715198
L2C LOAD      ACCESS:   55460315  HIT:   36907427  MISS:   18552888
L2C RFO       ACCESS:    2085305  HIT:     365916  MISS:    1719389
L2C PREFETCH  ACCESS:   42866391  HIT:   31425215  MISS:   11441176
L2C WRITEBACK ACCESS:    3194470  HIT:    3192725  MISS:       1745
L2C PREFETCH  REQUESTED:   79210989  ISSUED:   79210840  USEFUL:    6350735  USELESS:    9102534
LLC TOTAL     ACCESS:   46676721  HIT:   42222061  MISS:    4454660
LLC LOAD      ACCESS:   17810233  HIT:   17434787  MISS:     375446
LLC RFO       ACCESS:    1716456  HIT:     114232  MISS:    1602224
LLC PREFETCH  ACCESS:   24915633  HIT:   22451891  MISS:    2463742
LLC WRITEBACK ACCESS:    2234399  HIT:    2221151  MISS:      13248
LLC PREFETCH  REQUESTED:          0  ISSUED:          0  USEFUL:    1991807  USELESS:   86519193
Major fault: 0 Minor fault: 16884

CPU 3 cumulative IPC: 1.25045 instructions: 1000000000 cycles: 799715199
L1D TOTAL     ACCESS:  382138689  HIT:  361365148  MISS:   20773541
L1D LOAD      ACCESS:  326705447  HIT:  306563160  MISS:   20142287
L1D RFO       ACCESS:   55433242  HIT:   54801988  MISS:     631254
L1D PREFETCH  ACCESS:          0  HIT:          0  MISS:          0
L1D WRITEBACK ACCESS:          0  HIT:          0  MISS:          0
L1D PREFETCH  REQUESTED:          0  ISSUED:          0  USEFUL:          0  USELESS:          0
L1I TOTAL     ACCESS:  245534429  HIT:  245534429  MISS:          0
L1I LOAD      ACCESS:  245534429  HIT:  245534429  MISS:          0
L1I RFO       ACCESS:          0  HIT:          0  MISS:          0
L1I PREFETCH  ACCESS:          0  HIT:          0  MISS:          0
L1I WRITEBACK ACCESS:          0  HIT:          0  MISS:          0
L1I PREFETCH  REQUESTED:          0  ISSUED:          0  USEFUL:          0  USELESS:          0
L2C TOTAL     ACCESS:   47107695  HIT:   28076140  MISS:   19031555
L2C LOAD      ACCESS:   20136230  HIT:   19263743  MISS:     872487
L2C RFO       ACCESS:     618715  HIT:     131471  MISS:     487244
L2C PREFETCH  ACCESS:   25664212  HIT:    7993152  MISS:   17671060
L2C WRITEBACK ACCESS:     688538  HIT:     687774  MISS:        764
L2C PREFETCH  REQUESTED:  115902988  ISSUED:  114134094  USEFUL:   61377290  USELESS:      37823
LLC TOTAL     ACCESS:   20503715  HIT:    1497277  MISS:   19006438
LLC LOAD      ACCESS:     749199  HIT:      10544  MISS:     738655
LLC RFO       ACCESS:     487244  HIT:          0  MISS:     487244
LLC PREFETCH  ACCESS:   18778280  HIT:     998175  MISS:   17780105
LLC WRITEBACK ACCESS:     488992  HIT:     488558  MISS:        434
LLC PREFETCH  REQUESTED:          0  ISSUED:          0  USEFUL:    1991807  USELESS:   86519193
Major fault: 0 Minor fault: 563665

Avg Lookahead Depth:	4.15741
TOTAL: 4.44603e+08	L2C: 3.60464e+08	LLC: 8.41394e+07	GOOD_L2C: 2.42012e+08
Printing all the perceptron weights to: perc_weights_0.csv

Avg Lookahead Depth:	4.15741
TOTAL: 4.44603e+08	L2C: 3.60464e+08	LLC: 8.41394e+07	GOOD_L2C: 2.42012e+08
Printing all the perceptron weights to: perc_weights_0.csv

Avg Lookahead Depth:	4.15741
TOTAL: 4.44603e+08	L2C: 3.60464e+08	LLC: 8.41394e+07	GOOD_L2C: 2.42012e+08
Printing all the perceptron weights to: perc_weights_0.csv

Avg Lookahead Depth:	4.15741
TOTAL: 4.44603e+08	L2C: 3.60464e+08	LLC: 8.41394e+07	GOOD_L2C: 2.42012e+08
Printing all the perceptron weights to: perc_weights_0.csv

DRAM Statistics
 CHANNEL 0
 RQ ROW_BUFFER_HIT:   34123492  ROW_BUFFER_MISS:   20885666
 DBUS_CONGESTED:   78024026
 WQ ROW_BUFFER_HIT:    1511059  ROW_BUFFER_MISS:   10383399  FULL:          0

 CHANNEL 1
 RQ ROW_BUFFER_HIT:   34054197  ROW_BUFFER_MISS:   20987797
 DBUS_CONGESTED:   78024026
 WQ ROW_BUFFER_HIT:    1506218  ROW_BUFFER_MISS:   10387337  FULL:          0

 AVG_CONGESTED_CYCLE: 13
