Initialize SIGNATURE TABLE
ST_SET: 1
ST_WAY: 256
ST_TAG_BIT: 16
ST_TAG_MASK: ffff

Initialize PATTERN TABLE
PT_SET: 512
PT_WAY: 4
SIG_DELTA_BIT: 7
C_SIG_BIT: 4
C_DELTA_BIT: 4

Initialize PREFETCH FILTER
FILTER_SET: 1024

Initialize PERCEPTRON
PERC_ENTRIES: 4096
PERC_FEATURES: 9

*** ChampSim Multicore Out-of-Order Simulator ***

Warmup Instructions: 200000000
Simulation Instructions: 1000000000
Number of CPUs: 4
LLC sets: 8192
LLC ways: 16
Off-chip DRAM Size: 8192 MB Channels: 2 Width: 64-bit Data Rate: 1600 MT/s

CPU 0 runs /scratch/user/djimenez/champsim-traces/speccpu2017/xz/605.mcf_s/605.mcf_s-1536B.champsimtrace.xz
CPU 1 runs /scratch/user/djimenez/champsim-traces/speccpu2017/xz/602.gcc_s/602.gcc_s-2375B.champsimtrace.xz
CPU 2 runs /scratch/user/djimenez/champsim-traces/speccpu2017/xz/649.fotonik3d_s/649.fotonik3d_s-8225B.champsimtrace.xz
CPU 3 runs /scratch/user/djimenez/champsim-traces/speccpu2017/xz/607.cactuBSSN_s/607.cactuBSSN_s-3477B.champsimtrace.xz
Heartbeat CPU 0 instructions: 10000002 cycles: 3656875 heartbeat IPC: 2.73458 cumulative IPC: 2.73458 (Simulation time: 0 hr 1 min 22 sec) 
Heartbeat CPU 2 instructions: 10000001 cycles: 4400382 heartbeat IPC: 2.27253 cumulative IPC: 2.27253 (Simulation time: 0 hr 1 min 39 sec) 
Heartbeat CPU 3 instructions: 10000003 cycles: 5769069 heartbeat IPC: 1.73338 cumulative IPC: 1.73338 (Simulation time: 0 hr 2 min 10 sec) 
Heartbeat CPU 1 instructions: 10000002 cycles: 6792416 heartbeat IPC: 1.47223 cumulative IPC: 1.47223 (Simulation time: 0 hr 2 min 34 sec) 
Heartbeat CPU 0 instructions: 20000000 cycles: 7309750 heartbeat IPC: 2.73757 cumulative IPC: 2.73607 (Simulation time: 0 hr 2 min 45 sec) 
Heartbeat CPU 2 instructions: 20000000 cycles: 8800016 heartbeat IPC: 2.27292 cumulative IPC: 2.27272 (Simulation time: 0 hr 3 min 20 sec) 
Heartbeat CPU 0 instructions: 30000002 cycles: 10981173 heartbeat IPC: 2.72374 cumulative IPC: 2.73195 (Simulation time: 0 hr 4 min 11 sec) 
Heartbeat CPU 3 instructions: 20000000 cycles: 11537127 heartbeat IPC: 1.73369 cumulative IPC: 1.73353 (Simulation time: 0 hr 4 min 23 sec) 
Heartbeat CPU 2 instructions: 30000003 cycles: 13199407 heartbeat IPC: 2.27304 cumulative IPC: 2.27283 (Simulation time: 0 hr 5 min 1 sec) 
Heartbeat CPU 1 instructions: 20000000 cycles: 13341467 heartbeat IPC: 1.52694 cumulative IPC: 1.49909 (Simulation time: 0 hr 5 min 4 sec) 
Heartbeat CPU 0 instructions: 40000000 cycles: 14643849 heartbeat IPC: 2.73024 cumulative IPC: 2.73152 (Simulation time: 0 hr 5 min 33 sec) 
Heartbeat CPU 3 instructions: 30000000 cycles: 17306676 heartbeat IPC: 1.73324 cumulative IPC: 1.73344 (Simulation time: 0 hr 6 min 33 sec) 
Heartbeat CPU 2 instructions: 40000000 cycles: 17598767 heartbeat IPC: 2.27306 cumulative IPC: 2.27289 (Simulation time: 0 hr 6 min 39 sec) 
Heartbeat CPU 0 instructions: 50000002 cycles: 18312950 heartbeat IPC: 2.72546 cumulative IPC: 2.73031 (Simulation time: 0 hr 6 min 56 sec) 
Heartbeat CPU 1 instructions: 30000001 cycles: 20199672 heartbeat IPC: 1.45811 cumulative IPC: 1.48517 (Simulation time: 0 hr 7 min 39 sec) 
Heartbeat CPU 0 instructions: 60000000 cycles: 21981372 heartbeat IPC: 2.72597 cumulative IPC: 2.72958 (Simulation time: 0 hr 8 min 20 sec) 
Heartbeat CPU 2 instructions: 50000002 cycles: 21998356 heartbeat IPC: 2.27294 cumulative IPC: 2.2729 (Simulation time: 0 hr 8 min 21 sec) 
Heartbeat CPU 3 instructions: 40000000 cycles: 23076984 heartbeat IPC: 1.73301 cumulative IPC: 1.73333 (Simulation time: 0 hr 8 min 45 sec) 
Heartbeat CPU 0 instructions: 70000002 cycles: 25652243 heartbeat IPC: 2.72415 cumulative IPC: 2.72881 (Simulation time: 0 hr 9 min 45 sec) 
Heartbeat CPU 1 instructions: 40000000 cycles: 26370751 heartbeat IPC: 1.62046 cumulative IPC: 1.51683 (Simulation time: 0 hr 10 min 1 sec) 
Heartbeat CPU 2 instructions: 60000000 cycles: 26398306 heartbeat IPC: 2.27275 cumulative IPC: 2.27287 (Simulation time: 0 hr 10 min 2 sec) 
Heartbeat CPU 3 instructions: 50000001 cycles: 28846726 heartbeat IPC: 1.73318 cumulative IPC: 1.7333 (Simulation time: 0 hr 10 min 59 sec) 
Heartbeat CPU 0 instructions: 80000000 cycles: 29322618 heartbeat IPC: 2.72452 cumulative IPC: 2.72827 (Simulation time: 0 hr 11 min 11 sec) 
Heartbeat CPU 2 instructions: 70000001 cycles: 30798893 heartbeat IPC: 2.27242 cumulative IPC: 2.27281 (Simulation time: 0 hr 11 min 46 sec) 
Heartbeat CPU 1 instructions: 50000001 cycles: 32245022 heartbeat IPC: 1.70234 cumulative IPC: 1.55063 (Simulation time: 0 hr 12 min 20 sec) 
Heartbeat CPU 0 instructions: 90000002 cycles: 32994674 heartbeat IPC: 2.72327 cumulative IPC: 2.72771 (Simulation time: 0 hr 12 min 37 sec) 
Heartbeat CPU 3 instructions: 60000000 cycles: 34617494 heartbeat IPC: 1.73287 cumulative IPC: 1.73323 (Simulation time: 0 hr 13 min 15 sec) 
Heartbeat CPU 2 instructions: 80000000 cycles: 35198530 heartbeat IPC: 2.27291 cumulative IPC: 2.27282 (Simulation time: 0 hr 13 min 28 sec) 
Heartbeat CPU 0 instructions: 100000000 cycles: 36665533 heartbeat IPC: 2.72416 cumulative IPC: 2.72736 (Simulation time: 0 hr 14 min 2 sec) 
Heartbeat CPU 1 instructions: 60000000 cycles: 37919781 heartbeat IPC: 1.76219 cumulative IPC: 1.58229 (Simulation time: 0 hr 14 min 31 sec) 
Heartbeat CPU 2 instructions: 90000002 cycles: 39597793 heartbeat IPC: 2.27311 cumulative IPC: 2.27285 (Simulation time: 0 hr 15 min 10 sec) 
Heartbeat CPU 0 instructions: 110000001 cycles: 40340063 heartbeat IPC: 2.72144 cumulative IPC: 2.72682 (Simulation time: 0 hr 15 min 27 sec) 
Heartbeat CPU 3 instructions: 70000001 cycles: 40389188 heartbeat IPC: 1.73259 cumulative IPC: 1.73314 (Simulation time: 0 hr 15 min 28 sec) 
Heartbeat CPU 2 instructions: 100000000 cycles: 43997012 heartbeat IPC: 2.27313 cumulative IPC: 2.27288 (Simulation time: 0 hr 16 min 51 sec) 
Heartbeat CPU 0 instructions: 120000000 cycles: 44013616 heartbeat IPC: 2.72216 cumulative IPC: 2.72643 (Simulation time: 0 hr 16 min 52 sec) 
Heartbeat CPU 1 instructions: 70000001 cycles: 44538630 heartbeat IPC: 1.51084 cumulative IPC: 1.57167 (Simulation time: 0 hr 17 min 4 sec) 
Heartbeat CPU 3 instructions: 80000000 cycles: 46160846 heartbeat IPC: 1.7326 cumulative IPC: 1.73307 (Simulation time: 0 hr 17 min 42 sec) 
Heartbeat CPU 0 instructions: 130000000 cycles: 47683024 heartbeat IPC: 2.72524 cumulative IPC: 2.72634 (Simulation time: 0 hr 18 min 17 sec) 
Heartbeat CPU 2 instructions: 110000000 cycles: 48396480 heartbeat IPC: 2.273 cumulative IPC: 2.27289 (Simulation time: 0 hr 18 min 33 sec) 
Heartbeat CPU 1 instructions: 80000000 cycles: 50323685 heartbeat IPC: 1.72859 cumulative IPC: 1.58971 (Simulation time: 0 hr 19 min 17 sec) 
Heartbeat CPU 0 instructions: 140000000 cycles: 51356615 heartbeat IPC: 2.72213 cumulative IPC: 2.72604 (Simulation time: 0 hr 19 min 41 sec) 
Heartbeat CPU 3 instructions: 90000001 cycles: 51932623 heartbeat IPC: 1.73257 cumulative IPC: 1.73301 (Simulation time: 0 hr 19 min 53 sec) 
Heartbeat CPU 2 instructions: 120000000 cycles: 52796981 heartbeat IPC: 2.27247 cumulative IPC: 2.27286 (Simulation time: 0 hr 20 min 13 sec) 
Heartbeat CPU 0 instructions: 150000003 cycles: 55030672 heartbeat IPC: 2.72179 cumulative IPC: 2.72575 (Simulation time: 0 hr 21 min 4 sec) 
Heartbeat CPU 1 instructions: 90000003 cycles: 55916189 heartbeat IPC: 1.78811 cumulative IPC: 1.60955 (Simulation time: 0 hr 21 min 24 sec) 
Heartbeat CPU 2 instructions: 130000002 cycles: 57197120 heartbeat IPC: 2.27266 cumulative IPC: 2.27284 (Simulation time: 0 hr 21 min 53 sec) 
Heartbeat CPU 3 instructions: 100000000 cycles: 57703938 heartbeat IPC: 1.73271 cumulative IPC: 1.73298 (Simulation time: 0 hr 22 min 4 sec) 
Heartbeat CPU 0 instructions: 160000000 cycles: 58709815 heartbeat IPC: 2.71802 cumulative IPC: 2.72527 (Simulation time: 0 hr 22 min 27 sec) 
Heartbeat CPU 2 instructions: 140000000 cycles: 61597004 heartbeat IPC: 2.27279 cumulative IPC: 2.27284 (Simulation time: 0 hr 23 min 36 sec) 
Heartbeat CPU 1 instructions: 100000000 cycles: 62332091 heartbeat IPC: 1.55863 cumulative IPC: 1.60431 (Simulation time: 0 hr 23 min 54 sec) 
Heartbeat CPU 0 instructions: 170000003 cycles: 62392660 heartbeat IPC: 2.71529 cumulative IPC: 2.72468 (Simulation time: 0 hr 23 min 55 sec) 
Heartbeat CPU 3 instructions: 110000003 cycles: 63475195 heartbeat IPC: 1.73273 cumulative IPC: 1.73296 (Simulation time: 0 hr 24 min 20 sec) 
Heartbeat CPU 2 instructions: 150000000 cycles: 65996318 heartbeat IPC: 2.27308 cumulative IPC: 2.27285 (Simulation time: 0 hr 25 min 18 sec) 
Heartbeat CPU 0 instructions: 180000000 cycles: 66077361 heartbeat IPC: 2.71392 cumulative IPC: 2.72408 (Simulation time: 0 hr 25 min 20 sec) 
Heartbeat CPU 1 instructions: 110000003 cycles: 68824915 heartbeat IPC: 1.54016 cumulative IPC: 1.59826 (Simulation time: 0 hr 26 min 22 sec) 
Heartbeat CPU 3 instructions: 120000000 cycles: 69247124 heartbeat IPC: 1.73252 cumulative IPC: 1.73292 (Simulation time: 0 hr 26 min 32 sec) 
Heartbeat CPU 0 instructions: 190000002 cycles: 69764762 heartbeat IPC: 2.71194 cumulative IPC: 2.72344 (Simulation time: 0 hr 26 min 44 sec) 
Heartbeat CPU 2 instructions: 160000000 cycles: 70395261 heartbeat IPC: 2.27327 cumulative IPC: 2.27288 (Simulation time: 0 hr 26 min 59 sec) 
Heartbeat CPU 0 instructions: 200000000 cycles: 73453235 heartbeat IPC: 2.71115 cumulative IPC: 2.72282 (Simulation time: 0 hr 28 min 11 sec) 
Heartbeat CPU 2 instructions: 170000002 cycles: 74794586 heartbeat IPC: 2.27308 cumulative IPC: 2.27289 (Simulation time: 0 hr 28 min 42 sec) 
Heartbeat CPU 3 instructions: 130000003 cycles: 75014458 heartbeat IPC: 1.7339 cumulative IPC: 1.733 (Simulation time: 0 hr 28 min 47 sec) 
Heartbeat CPU 1 instructions: 120000000 cycles: 75580294 heartbeat IPC: 1.4803 cumulative IPC: 1.58772 (Simulation time: 0 hr 29 min 0 sec) 
Heartbeat CPU 0 instructions: 210000002 cycles: 77139701 heartbeat IPC: 2.71263 cumulative IPC: 0.129635 (Simulation time: 0 hr 29 min 36 sec) 
Heartbeat CPU 2 instructions: 180000000 cycles: 79194973 heartbeat IPC: 2.27253 cumulative IPC: 2.27287 (Simulation time: 0 hr 30 min 25 sec) 
Heartbeat CPU 3 instructions: 140000000 cycles: 80784010 heartbeat IPC: 1.73324 cumulative IPC: 1.73302 (Simulation time: 0 hr 31 min 2 sec) 
Heartbeat CPU 0 instructions: 220000000 cycles: 80827272 heartbeat IPC: 2.71181 cumulative IPC: 0.247441 (Simulation time: 0 hr 31 min 3 sec) 
Heartbeat CPU 1 instructions: 130000002 cycles: 81711658 heartbeat IPC: 1.63096 cumulative IPC: 1.59096 (Simulation time: 0 hr 31 min 24 sec) 
Heartbeat CPU 2 instructions: 190000000 cycles: 83594746 heartbeat IPC: 2.27284 cumulative IPC: 2.27287 (Simulation time: 0 hr 32 min 8 sec) 
Heartbeat CPU 0 instructions: 230000002 cycles: 84514885 heartbeat IPC: 2.71178 cumulative IPC: 0.354967 (Simulation time: 0 hr 32 min 29 sec) 
Heartbeat CPU 3 instructions: 150000001 cycles: 86554309 heartbeat IPC: 1.73301 cumulative IPC: 1.73302 (Simulation time: 0 hr 33 min 17 sec) 
Heartbeat CPU 2 instructions: 200000000 cycles: 87994151 heartbeat IPC: 2.27303 cumulative IPC: 2.27288 (Simulation time: 0 hr 33 min 50 sec) 
Heartbeat CPU 0 instructions: 240000000 cycles: 88201224 heartbeat IPC: 2.71272 cumulative IPC: 0.453508 (Simulation time: 0 hr 33 min 55 sec) 
Heartbeat CPU 1 instructions: 140000000 cycles: 88263364 heartbeat IPC: 1.52632 cumulative IPC: 1.58616 (Simulation time: 0 hr 33 min 56 sec) 
Heartbeat CPU 0 instructions: 250000002 cycles: 91885646 heartbeat IPC: 2.71413 cumulative IPC: 0.544155 (Simulation time: 0 hr 35 min 21 sec) 
Heartbeat CPU 3 instructions: 160000000 cycles: 92322749 heartbeat IPC: 1.73357 cumulative IPC: 1.73305 (Simulation time: 0 hr 35 min 31 sec) 
Heartbeat CPU 2 instructions: 210000002 cycles: 92393600 heartbeat IPC: 2.27301 cumulative IPC: 0.108233 (Simulation time: 0 hr 35 min 33 sec) 
Heartbeat CPU 1 instructions: 150000000 cycles: 94802905 heartbeat IPC: 1.52916 cumulative IPC: 1.58223 (Simulation time: 0 hr 36 min 29 sec) 
Heartbeat CPU 0 instructions: 260000000 cycles: 95567702 heartbeat IPC: 2.71587 cumulative IPC: 0.627827 (Simulation time: 0 hr 36 min 47 sec) 
Heartbeat CPU 2 instructions: 220000000 cycles: 96792620 heartbeat IPC: 2.27323 cumulative IPC: 0.206627 (Simulation time: 0 hr 37 min 16 sec) 
Heartbeat CPU 3 instructions: 170000001 cycles: 98092963 heartbeat IPC: 1.73304 cumulative IPC: 1.73305 (Simulation time: 0 hr 37 min 47 sec) 
Heartbeat CPU 0 instructions: 270000002 cycles: 99255170 heartbeat IPC: 2.71189 cumulative IPC: 0.705253 (Simulation time: 0 hr 38 min 15 sec) 
Heartbeat CPU 1 instructions: 160000000 cycles: 100543101 heartbeat IPC: 1.7421 cumulative IPC: 1.59136 (Simulation time: 0 hr 38 min 46 sec) 
Heartbeat CPU 2 instructions: 230000001 cycles: 101192181 heartbeat IPC: 2.27295 cumulative IPC: 0.296466 (Simulation time: 0 hr 39 min 1 sec) 
Heartbeat CPU 0 instructions: 280000000 cycles: 102937469 heartbeat IPC: 2.71569 cumulative IPC: 0.777171 (Simulation time: 0 hr 39 min 40 sec) 
Heartbeat CPU 3 instructions: 180000000 cycles: 103862959 heartbeat IPC: 1.7331 cumulative IPC: 1.73305 (Simulation time: 0 hr 40 min 1 sec) 
Heartbeat CPU 2 instructions: 240000000 cycles: 105592655 heartbeat IPC: 2.27248 cumulative IPC: 0.378814 (Simulation time: 0 hr 40 min 40 sec) 
Heartbeat CPU 0 instructions: 290000000 cycles: 106618290 heartbeat IPC: 2.71679 cumulative IPC: 0.844133 (Simulation time: 0 hr 41 min 4 sec) 
Heartbeat CPU 1 instructions: 170000000 cycles: 107432095 heartbeat IPC: 1.45159 cumulative IPC: 1.58239 (Simulation time: 0 hr 41 min 22 sec) 
Heartbeat CPU 3 instructions: 190000000 cycles: 109633138 heartbeat IPC: 1.73305 cumulative IPC: 1.73305 (Simulation time: 0 hr 42 min 12 sec) 
Heartbeat CPU 2 instructions: 250000000 cycles: 109992754 heartbeat IPC: 2.27268 cumulative IPC: 0.454575 (Simulation time: 0 hr 42 min 20 sec) 
Heartbeat CPU 0 instructions: 300000000 cycles: 110306142 heartbeat IPC: 2.71161 cumulative IPC: 0.906568 (Simulation time: 0 hr 42 min 27 sec) 
Heartbeat CPU 1 instructions: 180000000 cycles: 113658154 heartbeat IPC: 1.60615 cumulative IPC: 1.5837 (Simulation time: 0 hr 43 min 43 sec) 
Heartbeat CPU 0 instructions: 310000002 cycles: 113988136 heartbeat IPC: 2.71592 cumulative IPC: 0.965013 (Simulation time: 0 hr 43 min 50 sec) 
Heartbeat CPU 2 instructions: 260000000 cycles: 114392027 heartbeat IPC: 2.2731 cumulative IPC: 0.524512 (Simulation time: 0 hr 43 min 59 sec) 
Heartbeat CPU 3 instructions: 200000000 cycles: 115403126 heartbeat IPC: 1.73311 cumulative IPC: 1.73306 (Simulation time: 0 hr 44 min 22 sec) 
Heartbeat CPU 0 instructions: 320000000 cycles: 117668658 heartbeat IPC: 2.71701 cumulative IPC: 1.01981 (Simulation time: 0 hr 45 min 13 sec) 
Heartbeat CPU 2 instructions: 270000001 cycles: 118791386 heartbeat IPC: 2.27306 cumulative IPC: 0.589268 (Simulation time: 0 hr 45 min 39 sec) 
Heartbeat CPU 1 instructions: 190000001 cycles: 120583783 heartbeat IPC: 1.44391 cumulative IPC: 1.57567 (Simulation time: 0 hr 46 min 20 sec) 
Heartbeat CPU 3 instructions: 210000000 cycles: 121178183 heartbeat IPC: 1.73158 cumulative IPC: 0.0825231 (Simulation time: 0 hr 46 min 33 sec) 
Heartbeat CPU 0 instructions: 330000000 cycles: 121349289 heartbeat IPC: 2.71693 cumulative IPC: 1.07129 (Simulation time: 0 hr 46 min 37 sec) 
Heartbeat CPU 2 instructions: 280000000 cycles: 123190470 heartbeat IPC: 2.2732 cumulative IPC: 0.649401 (Simulation time: 0 hr 47 min 19 sec) 
Heartbeat CPU 0 instructions: 340000000 cycles: 125030094 heartbeat IPC: 2.7168 cumulative IPC: 1.11973 (Simulation time: 0 hr 48 min 1 sec) 
Heartbeat CPU 3 instructions: 220000000 cycles: 126953514 heartbeat IPC: 1.7315 cumulative IPC: 0.157538 (Simulation time: 0 hr 48 min 44 sec) 
Heartbeat CPU 1 instructions: 200000000 cycles: 127349016 heartbeat IPC: 1.47815 cumulative IPC: 1.57049 (Simulation time: 0 hr 48 min 53 sec) 

Warmup complete CPU 0 instructions: 346302749 cycles: 127349017 (Simulation time: 0 hr 48 min 53 sec) 
Warmup complete CPU 1 instructions: 200000001 cycles: 127349017 (Simulation time: 0 hr 48 min 53 sec) 
Warmup complete CPU 2 instructions: 289452293 cycles: 127349016 (Simulation time: 0 hr 48 min 53 sec) 
Warmup complete CPU 3 instructions: 220684642 cycles: 127349016 (Simulation time: 0 hr 48 min 53 sec) 

Heartbeat CPU 2 instructions: 290000001 cycles: 127891747 heartbeat IPC: 2.12708 cumulative IPC: 1.00917 (Simulation time: 0 hr 48 min 58 sec) 
Heartbeat CPU 3 instructions: 230000003 cycles: 136307190 heartbeat IPC: 1.0691 cumulative IPC: 1.03987 (Simulation time: 0 hr 50 min 14 sec) 
Heartbeat CPU 2 instructions: 300000000 cycles: 137673932 heartbeat IPC: 1.02227 cumulative IPC: 1.02158 (Simulation time: 0 hr 50 min 27 sec) 
Heartbeat CPU 3 instructions: 240000000 cycles: 145915328 heartbeat IPC: 1.04078 cumulative IPC: 1.04034 (Simulation time: 0 hr 51 min 44 sec) 
Heartbeat CPU 2 instructions: 310000000 cycles: 147362624 heartbeat IPC: 1.03213 cumulative IPC: 1.02669 (Simulation time: 0 hr 51 min 58 sec) 
Heartbeat CPU 0 instructions: 350000000 cycles: 148045617 heartbeat IPC: 0.434489 cumulative IPC: 0.17864 (Simulation time: 0 hr 52 min 5 sec) 
Heartbeat CPU 1 instructions: 210000000 cycles: 155466221 heartbeat IPC: 0.355654 cumulative IPC: 0.355654 (Simulation time: 0 hr 53 min 13 sec) 
Heartbeat CPU 3 instructions: 250000002 cycles: 155629232 heartbeat IPC: 1.02945 cumulative IPC: 1.0366 (Simulation time: 0 hr 53 min 15 sec) 
Heartbeat CPU 2 instructions: 320000000 cycles: 157070224 heartbeat IPC: 1.03012 cumulative IPC: 1.02781 (Simulation time: 0 hr 53 min 28 sec) 
Heartbeat CPU 3 instructions: 260000000 cycles: 165166715 heartbeat IPC: 1.04849 cumulative IPC: 1.0396 (Simulation time: 0 hr 54 min 45 sec) 
Heartbeat CPU 2 instructions: 330000002 cycles: 166807478 heartbeat IPC: 1.02698 cumulative IPC: 1.0276 (Simulation time: 0 hr 55 min 0 sec) 
Heartbeat CPU 3 instructions: 270000000 cycles: 174866986 heartbeat IPC: 1.0309 cumulative IPC: 1.03783 (Simulation time: 0 hr 56 min 15 sec) 
Heartbeat CPU 2 instructions: 340000000 cycles: 176541147 heartbeat IPC: 1.02736 cumulative IPC: 1.02756 (Simulation time: 0 hr 56 min 30 sec) 
Heartbeat CPU 1 instructions: 220000000 cycles: 184128661 heartbeat IPC: 0.348889 cumulative IPC: 0.352239 (Simulation time: 0 hr 57 min 42 sec) 
Heartbeat CPU 3 instructions: 280000000 cycles: 184408543 heartbeat IPC: 1.04805 cumulative IPC: 1.03953 (Simulation time: 0 hr 57 min 44 sec) 
Heartbeat CPU 2 instructions: 350000001 cycles: 186330292 heartbeat IPC: 1.02154 cumulative IPC: 1.02656 (Simulation time: 0 hr 58 min 2 sec) 
Heartbeat CPU 3 instructions: 290000003 cycles: 193959252 heartbeat IPC: 1.04704 cumulative IPC: 1.04061 (Simulation time: 0 hr 59 min 14 sec) 
Heartbeat CPU 2 instructions: 360000000 cycles: 196100860 heartbeat IPC: 1.02348 cumulative IPC: 1.02612 (Simulation time: 0 hr 59 min 34 sec) 
Heartbeat CPU 3 instructions: 300000000 cycles: 203530157 heartbeat IPC: 1.04483 cumulative IPC: 1.04114 (Simulation time: 1 hr 0 min 43 sec) 
Heartbeat CPU 0 instructions: 360000000 cycles: 203769756 heartbeat IPC: 0.179455 cumulative IPC: 0.179235 (Simulation time: 1 hr 0 min 45 sec) 
Heartbeat CPU 2 instructions: 370000000 cycles: 205890811 heartbeat IPC: 1.02146 cumulative IPC: 1.02554 (Simulation time: 1 hr 1 min 4 sec) 
Heartbeat CPU 3 instructions: 310000003 cycles: 213090070 heartbeat IPC: 1.04603 cumulative IPC: 1.04169 (Simulation time: 1 hr 2 min 11 sec) 
Heartbeat CPU 1 instructions: 230000003 cycles: 213895778 heartbeat IPC: 0.335941 cumulative IPC: 0.346633 (Simulation time: 1 hr 2 min 18 sec) 
Heartbeat CPU 2 instructions: 380000000 cycles: 215660541 heartbeat IPC: 1.02357 cumulative IPC: 1.02532 (Simulation time: 1 hr 2 min 34 sec) 
Heartbeat CPU 3 instructions: 320000000 cycles: 222810389 heartbeat IPC: 1.02877 cumulative IPC: 1.04037 (Simulation time: 1 hr 3 min 40 sec) 
Heartbeat CPU 2 instructions: 390000003 cycles: 225386854 heartbeat IPC: 1.02814 cumulative IPC: 1.0256 (Simulation time: 1 hr 4 min 3 sec) 
Heartbeat CPU 3 instructions: 330000002 cycles: 232431264 heartbeat IPC: 1.03941 cumulative IPC: 1.04028 (Simulation time: 1 hr 5 min 8 sec) 
Heartbeat CPU 2 instructions: 400000000 cycles: 235174110 heartbeat IPC: 1.02174 cumulative IPC: 1.02525 (Simulation time: 1 hr 5 min 33 sec) 
Heartbeat CPU 3 instructions: 340000000 cycles: 242039456 heartbeat IPC: 1.04078 cumulative IPC: 1.04033 (Simulation time: 1 hr 6 min 37 sec) 
Heartbeat CPU 1 instructions: 240000000 cycles: 244184370 heartbeat IPC: 0.330157 cumulative IPC: 0.342362 (Simulation time: 1 hr 6 min 56 sec) 
Heartbeat CPU 2 instructions: 410000000 cycles: 244861283 heartbeat IPC: 1.03229 cumulative IPC: 1.02583 (Simulation time: 1 hr 7 min 3 sec) 
Heartbeat CPU 3 instructions: 350000003 cycles: 251678383 heartbeat IPC: 1.03746 cumulative IPC: 1.0401 (Simulation time: 1 hr 8 min 6 sec) 
Heartbeat CPU 2 instructions: 420000000 cycles: 254619310 heartbeat IPC: 1.0248 cumulative IPC: 1.02575 (Simulation time: 1 hr 8 min 32 sec) 
Heartbeat CPU 0 instructions: 370000000 cycles: 259939709 heartbeat IPC: 0.178031 cumulative IPC: 0.178725 (Simulation time: 1 hr 9 min 21 sec) 
Heartbeat CPU 3 instructions: 360000000 cycles: 261351811 heartbeat IPC: 1.03376 cumulative IPC: 1.03965 (Simulation time: 1 hr 9 min 34 sec) 
Heartbeat CPU 2 instructions: 430000003 cycles: 264322296 heartbeat IPC: 1.03061 cumulative IPC: 1.0261 (Simulation time: 1 hr 10 min 1 sec) 
Heartbeat CPU 3 instructions: 370000000 cycles: 270992100 heartbeat IPC: 1.03731 cumulative IPC: 1.03949 (Simulation time: 1 hr 11 min 2 sec) 
Heartbeat CPU 1 instructions: 250000001 cycles: 273188769 heartbeat IPC: 0.344775 cumulative IPC: 0.342842 (Simulation time: 1 hr 11 min 24 sec) 
Heartbeat CPU 2 instructions: 440000000 cycles: 273999826 heartbeat IPC: 1.03332 cumulative IPC: 1.02657 (Simulation time: 1 hr 11 min 31 sec) 
Heartbeat CPU 3 instructions: 380000000 cycles: 280691273 heartbeat IPC: 1.03102 cumulative IPC: 1.03895 (Simulation time: 1 hr 12 min 34 sec) 
Heartbeat CPU 2 instructions: 450000000 cycles: 283717107 heartbeat IPC: 1.02909 cumulative IPC: 1.02673 (Simulation time: 1 hr 13 min 2 sec) 
Heartbeat CPU 3 instructions: 390000000 cycles: 290302025 heartbeat IPC: 1.0405 cumulative IPC: 1.03904 (Simulation time: 1 hr 14 min 3 sec) 
Heartbeat CPU 2 instructions: 460000000 cycles: 293454923 heartbeat IPC: 1.02692 cumulative IPC: 1.02674 (Simulation time: 1 hr 14 min 32 sec) 
Heartbeat CPU 3 instructions: 400000000 cycles: 299916365 heartbeat IPC: 1.04011 cumulative IPC: 1.0391 (Simulation time: 1 hr 15 min 32 sec) 
Heartbeat CPU 1 instructions: 260000000 cycles: 300940788 heartbeat IPC: 0.360334 cumulative IPC: 0.345638 (Simulation time: 1 hr 15 min 42 sec) 
Heartbeat CPU 2 instructions: 470000000 cycles: 303167859 heartbeat IPC: 1.02955 cumulative IPC: 1.0269 (Simulation time: 1 hr 16 min 3 sec) 
Heartbeat CPU 3 instructions: 410000000 cycles: 309502431 heartbeat IPC: 1.04318 cumulative IPC: 1.03932 (Simulation time: 1 hr 17 min 3 sec) 
Heartbeat CPU 2 instructions: 480000000 cycles: 312936543 heartbeat IPC: 1.02368 cumulative IPC: 1.02673 (Simulation time: 1 hr 17 min 34 sec) 
Heartbeat CPU 0 instructions: 380000000 cycles: 316141134 heartbeat IPC: 0.177931 cumulative IPC: 0.178489 (Simulation time: 1 hr 18 min 3 sec) 
Heartbeat CPU 3 instructions: 420000000 cycles: 319071281 heartbeat IPC: 1.04506 cumulative IPC: 1.0396 (Simulation time: 1 hr 18 min 30 sec) 
Heartbeat CPU 2 instructions: 490000001 cycles: 322699838 heartbeat IPC: 1.02424 cumulative IPC: 1.0266 (Simulation time: 1 hr 19 min 3 sec) 
Heartbeat CPU 3 instructions: 430000000 cycles: 328653381 heartbeat IPC: 1.04361 cumulative IPC: 1.0398 (Simulation time: 1 hr 19 min 56 sec) 
Heartbeat CPU 1 instructions: 270000000 cycles: 331606918 heartbeat IPC: 0.326093 cumulative IPC: 0.342704 (Simulation time: 1 hr 20 min 23 sec) 
Heartbeat CPU 2 instructions: 500000000 cycles: 332451408 heartbeat IPC: 1.02548 cumulative IPC: 1.02655 (Simulation time: 1 hr 20 min 30 sec) 
Heartbeat CPU 3 instructions: 440000000 cycles: 338340197 heartbeat IPC: 1.03233 cumulative IPC: 1.03945 (Simulation time: 1 hr 21 min 23 sec) 
Heartbeat CPU 2 instructions: 510000000 cycles: 342151938 heartbeat IPC: 1.03087 cumulative IPC: 1.02674 (Simulation time: 1 hr 21 min 58 sec) 
Heartbeat CPU 3 instructions: 450000003 cycles: 348028313 heartbeat IPC: 1.03219 cumulative IPC: 1.03913 (Simulation time: 1 hr 22 min 51 sec) 
Heartbeat CPU 2 instructions: 520000000 cycles: 351885040 heartbeat IPC: 1.02742 cumulative IPC: 1.02677 (Simulation time: 1 hr 23 min 26 sec) 
Heartbeat CPU 3 instructions: 460000000 cycles: 357699754 heartbeat IPC: 1.03397 cumulative IPC: 1.03892 (Simulation time: 1 hr 24 min 19 sec) 
Heartbeat CPU 2 instructions: 530000002 cycles: 361596583 heartbeat IPC: 1.0297 cumulative IPC: 1.0269 (Simulation time: 1 hr 24 min 56 sec) 
Heartbeat CPU 1 instructions: 280000000 cycles: 362161784 heartbeat IPC: 0.32728 cumulative IPC: 0.340697 (Simulation time: 1 hr 25 min 1 sec) 
Heartbeat CPU 3 instructions: 470000003 cycles: 367373574 heartbeat IPC: 1.03372 cumulative IPC: 1.03871 (Simulation time: 1 hr 25 min 49 sec) 
Heartbeat CPU 2 instructions: 540000000 cycles: 371314763 heartbeat IPC: 1.029 cumulative IPC: 1.02698 (Simulation time: 1 hr 26 min 25 sec) 
Heartbeat CPU 0 instructions: 390000000 cycles: 372267327 heartbeat IPC: 0.17817 cumulative IPC: 0.178416 (Simulation time: 1 hr 26 min 34 sec) 
Heartbeat CPU 3 instructions: 480000000 cycles: 377028784 heartbeat IPC: 1.03571 cumulative IPC: 1.03859 (Simulation time: 1 hr 27 min 19 sec) 
Heartbeat CPU 2 instructions: 550000003 cycles: 381014004 heartbeat IPC: 1.03101 cumulative IPC: 1.02713 (Simulation time: 1 hr 27 min 56 sec) 
Heartbeat CPU 3 instructions: 490000000 cycles: 386719657 heartbeat IPC: 1.0319 cumulative IPC: 1.03834 (Simulation time: 1 hr 28 min 49 sec) 
Heartbeat CPU 2 instructions: 560000000 cycles: 390749313 heartbeat IPC: 1.02719 cumulative IPC: 1.02714 (Simulation time: 1 hr 29 min 26 sec) 
Heartbeat CPU 1 instructions: 290000001 cycles: 391576620 heartbeat IPC: 0.339965 cumulative IPC: 0.340615 (Simulation time: 1 hr 29 min 34 sec) 
Heartbeat CPU 3 instructions: 500000000 cycles: 396302030 heartbeat IPC: 1.04358 cumulative IPC: 1.03853 (Simulation time: 1 hr 30 min 17 sec) 
Heartbeat CPU 2 instructions: 570000003 cycles: 400584238 heartbeat IPC: 1.01678 cumulative IPC: 1.02676 (Simulation time: 1 hr 30 min 57 sec) 
Heartbeat CPU 3 instructions: 510000000 cycles: 405894821 heartbeat IPC: 1.04245 cumulative IPC: 1.03866 (Simulation time: 1 hr 31 min 47 sec) 
Heartbeat CPU 2 instructions: 580000000 cycles: 410304662 heartbeat IPC: 1.02876 cumulative IPC: 1.02683 (Simulation time: 1 hr 32 min 28 sec) 
Heartbeat CPU 3 instructions: 520000000 cycles: 415526387 heartbeat IPC: 1.03825 cumulative IPC: 1.03865 (Simulation time: 1 hr 33 min 17 sec) 
Heartbeat CPU 1 instructions: 300000000 cycles: 419944748 heartbeat IPC: 0.352508 cumulative IPC: 0.341768 (Simulation time: 1 hr 33 min 59 sec) 
Heartbeat CPU 2 instructions: 590000001 cycles: 420053697 heartbeat IPC: 1.02574 cumulative IPC: 1.0268 (Simulation time: 1 hr 34 min 0 sec) 
Heartbeat CPU 3 instructions: 530000002 cycles: 425185686 heartbeat IPC: 1.03527 cumulative IPC: 1.03854 (Simulation time: 1 hr 34 min 47 sec) 
Heartbeat CPU 0 instructions: 400000000 cycles: 428142856 heartbeat IPC: 0.178969 cumulative IPC: 0.178518 (Simulation time: 1 hr 35 min 15 sec) 
Heartbeat CPU 2 instructions: 600000000 cycles: 429719145 heartbeat IPC: 1.03461 cumulative IPC: 1.02704 (Simulation time: 1 hr 35 min 29 sec) 
Heartbeat CPU 3 instructions: 540000000 cycles: 434789023 heartbeat IPC: 1.0413 cumulative IPC: 1.03863 (Simulation time: 1 hr 36 min 17 sec) 
Heartbeat CPU 2 instructions: 610000003 cycles: 439523151 heartbeat IPC: 1.01999 cumulative IPC: 1.02682 (Simulation time: 1 hr 37 min 1 sec) 
Heartbeat CPU 3 instructions: 550000002 cycles: 444399338 heartbeat IPC: 1.04055 cumulative IPC: 1.03868 (Simulation time: 1 hr 37 min 46 sec) 
Heartbeat CPU 1 instructions: 310000000 cycles: 445526726 heartbeat IPC: 0.3909 cumulative IPC: 0.345719 (Simulation time: 1 hr 37 min 56 sec) 
Heartbeat CPU 2 instructions: 620000000 cycles: 449288833 heartbeat IPC: 1.02399 cumulative IPC: 1.02674 (Simulation time: 1 hr 38 min 31 sec) 
Heartbeat CPU 3 instructions: 560000000 cycles: 453885182 heartbeat IPC: 1.0542 cumulative IPC: 1.03914 (Simulation time: 1 hr 39 min 15 sec) 
Heartbeat CPU 2 instructions: 630000001 cycles: 459024610 heartbeat IPC: 1.02714 cumulative IPC: 1.02675 (Simulation time: 1 hr 40 min 2 sec) 
Heartbeat CPU 3 instructions: 570000003 cycles: 463358332 heartbeat IPC: 1.05562 cumulative IPC: 1.0396 (Simulation time: 1 hr 40 min 43 sec) 
Heartbeat CPU 2 instructions: 640000000 cycles: 468744626 heartbeat IPC: 1.0288 cumulative IPC: 1.02681 (Simulation time: 1 hr 41 min 34 sec) 
Heartbeat CPU 3 instructions: 580000000 cycles: 472888457 heartbeat IPC: 1.0493 cumulative IPC: 1.03987 (Simulation time: 1 hr 42 min 13 sec) 
Heartbeat CPU 1 instructions: 320000000 cycles: 475276098 heartbeat IPC: 0.336142 cumulative IPC: 0.3449 (Simulation time: 1 hr 42 min 35 sec) 
Heartbeat CPU 2 instructions: 650000003 cycles: 478531467 heartbeat IPC: 1.02178 cumulative IPC: 1.02667 (Simulation time: 1 hr 43 min 5 sec) 
Heartbeat CPU 3 instructions: 590000003 cycles: 482378554 heartbeat IPC: 1.05373 cumulative IPC: 1.04024 (Simulation time: 1 hr 43 min 40 sec) 
Heartbeat CPU 0 instructions: 410000000 cycles: 483166169 heartbeat IPC: 0.181741 cumulative IPC: 0.179017 (Simulation time: 1 hr 43 min 48 sec) 
Heartbeat CPU 2 instructions: 660000000 cycles: 488391945 heartbeat IPC: 1.01415 cumulative IPC: 1.02633 (Simulation time: 1 hr 44 min 36 sec) 
Heartbeat CPU 3 instructions: 600000000 cycles: 491944582 heartbeat IPC: 1.04537 cumulative IPC: 1.04037 (Simulation time: 1 hr 45 min 10 sec) 
Heartbeat CPU 2 instructions: 670000000 cycles: 498090158 heartbeat IPC: 1.03112 cumulative IPC: 1.02645 (Simulation time: 1 hr 46 min 9 sec) 
Heartbeat CPU 3 instructions: 610000001 cycles: 501683891 heartbeat IPC: 1.02677 cumulative IPC: 1.04002 (Simulation time: 1 hr 46 min 41 sec) 
Heartbeat CPU 1 instructions: 330000002 cycles: 506152891 heartbeat IPC: 0.323868 cumulative IPC: 0.343186 (Simulation time: 1 hr 47 min 23 sec) 
Heartbeat CPU 2 instructions: 680000000 cycles: 507777845 heartbeat IPC: 1.03224 cumulative IPC: 1.0266 (Simulation time: 1 hr 47 min 38 sec) 
Heartbeat CPU 3 instructions: 620000000 cycles: 511274864 heartbeat IPC: 1.04265 cumulative IPC: 1.04008 (Simulation time: 1 hr 48 min 10 sec) 
Heartbeat CPU 2 instructions: 690000001 cycles: 517579877 heartbeat IPC: 1.0202 cumulative IPC: 1.02644 (Simulation time: 1 hr 49 min 9 sec) 
Heartbeat CPU 3 instructions: 630000003 cycles: 520866003 heartbeat IPC: 1.04263 cumulative IPC: 1.04015 (Simulation time: 1 hr 49 min 39 sec) 
Heartbeat CPU 2 instructions: 700000000 cycles: 527280755 heartbeat IPC: 1.03083 cumulative IPC: 1.02654 (Simulation time: 1 hr 50 min 39 sec) 
Heartbeat CPU 3 instructions: 640000000 cycles: 530575906 heartbeat IPC: 1.02988 cumulative IPC: 1.0399 (Simulation time: 1 hr 51 min 10 sec) 
Heartbeat CPU 2 instructions: 710000000 cycles: 536926691 heartbeat IPC: 1.03671 cumulative IPC: 1.02678 (Simulation time: 1 hr 52 min 10 sec) 
Heartbeat CPU 1 instructions: 340000000 cycles: 537484135 heartbeat IPC: 0.31917 cumulative IPC: 0.341351 (Simulation time: 1 hr 52 min 15 sec) 
Heartbeat CPU 0 instructions: 420000000 cycles: 539394202 heartbeat IPC: 0.177847 cumulative IPC: 0.178857 (Simulation time: 1 hr 52 min 33 sec) 
Heartbeat CPU 3 instructions: 650000002 cycles: 540292397 heartbeat IPC: 1.02918 cumulative IPC: 1.03965 (Simulation time: 1 hr 52 min 41 sec) 
Heartbeat CPU 2 instructions: 720000000 cycles: 546662860 heartbeat IPC: 1.0271 cumulative IPC: 1.02679 (Simulation time: 1 hr 53 min 40 sec) 
Heartbeat CPU 3 instructions: 660000000 cycles: 550071373 heartbeat IPC: 1.0226 cumulative IPC: 1.03925 (Simulation time: 1 hr 54 min 12 sec) 
Heartbeat CPU 2 instructions: 730000000 cycles: 556355987 heartbeat IPC: 1.03166 cumulative IPC: 1.0269 (Simulation time: 1 hr 55 min 10 sec) 
Heartbeat CPU 3 instructions: 670000000 cycles: 559652825 heartbeat IPC: 1.04368 cumulative IPC: 1.03935 (Simulation time: 1 hr 55 min 40 sec) 
Heartbeat CPU 2 instructions: 740000000 cycles: 566139607 heartbeat IPC: 1.02212 cumulative IPC: 1.02679 (Simulation time: 1 hr 56 min 41 sec) 
Heartbeat CPU 1 instructions: 350000000 cycles: 566910590 heartbeat IPC: 0.33983 cumulative IPC: 0.341249 (Simulation time: 1 hr 56 min 48 sec) 
Heartbeat CPU 3 instructions: 680000000 cycles: 569278050 heartbeat IPC: 1.03894 cumulative IPC: 1.03934 (Simulation time: 1 hr 57 min 10 sec) 
Heartbeat CPU 2 instructions: 750000002 cycles: 575897287 heartbeat IPC: 1.02483 cumulative IPC: 1.02675 (Simulation time: 1 hr 58 min 11 sec) 
Heartbeat CPU 3 instructions: 690000001 cycles: 578836143 heartbeat IPC: 1.04623 cumulative IPC: 1.03949 (Simulation time: 1 hr 58 min 38 sec) 
Heartbeat CPU 2 instructions: 760000000 cycles: 585561736 heartbeat IPC: 1.03472 cumulative IPC: 1.02692 (Simulation time: 1 hr 59 min 40 sec) 
Heartbeat CPU 3 instructions: 700000000 cycles: 588432309 heartbeat IPC: 1.04208 cumulative IPC: 1.03954 (Simulation time: 2 hr 0 min 6 sec) 
Heartbeat CPU 2 instructions: 770000000 cycles: 595337335 heartbeat IPC: 1.02296 cumulative IPC: 1.02684 (Simulation time: 2 hr 1 min 10 sec) 
Heartbeat CPU 0 instructions: 430000000 cycles: 595722513 heartbeat IPC: 0.177531 cumulative IPC: 0.178698 (Simulation time: 2 hr 1 min 14 sec) 
Heartbeat CPU 3 instructions: 710000003 cycles: 598081966 heartbeat IPC: 1.03631 cumulative IPC: 1.03948 (Simulation time: 2 hr 1 min 36 sec) 
Heartbeat CPU 1 instructions: 360000000 cycles: 598778441 heartbeat IPC: 0.313796 cumulative IPC: 0.339393 (Simulation time: 2 hr 1 min 42 sec) 
Heartbeat CPU 2 instructions: 780000000 cycles: 605088841 heartbeat IPC: 1.02548 cumulative IPC: 1.02681 (Simulation time: 2 hr 2 min 42 sec) 
Heartbeat CPU 3 instructions: 720000000 cycles: 607657816 heartbeat IPC: 1.04429 cumulative IPC: 1.03957 (Simulation time: 2 hr 3 min 5 sec) 
Heartbeat CPU 2 instructions: 790000000 cycles: 614776720 heartbeat IPC: 1.03222 cumulative IPC: 1.02692 (Simulation time: 2 hr 4 min 10 sec) 
Heartbeat CPU 3 instructions: 730000000 cycles: 617310280 heartbeat IPC: 1.036 cumulative IPC: 1.0395 (Simulation time: 2 hr 4 min 33 sec) 
Heartbeat CPU 2 instructions: 800000000 cycles: 624514422 heartbeat IPC: 1.02694 cumulative IPC: 1.02692 (Simulation time: 2 hr 5 min 39 sec) 
Heartbeat CPU 3 instructions: 740000000 cycles: 627054567 heartbeat IPC: 1.02624 cumulative IPC: 1.03924 (Simulation time: 2 hr 6 min 2 sec) 
Heartbeat CPU 1 instructions: 370000000 cycles: 629011823 heartbeat IPC: 0.33076 cumulative IPC: 0.338873 (Simulation time: 2 hr 6 min 20 sec) 
Heartbeat CPU 2 instructions: 810000001 cycles: 634327613 heartbeat IPC: 1.01904 cumulative IPC: 1.02676 (Simulation time: 2 hr 7 min 10 sec) 
Heartbeat CPU 3 instructions: 750000001 cycles: 636574209 heartbeat IPC: 1.05046 cumulative IPC: 1.03945 (Simulation time: 2 hr 7 min 30 sec) 
Heartbeat CPU 2 instructions: 820000000 cycles: 644018001 heartbeat IPC: 1.03195 cumulative IPC: 1.02686 (Simulation time: 2 hr 8 min 44 sec) 
Heartbeat CPU 3 instructions: 760000000 cycles: 646155245 heartbeat IPC: 1.04373 cumulative IPC: 1.03953 (Simulation time: 2 hr 9 min 3 sec) 
Heartbeat CPU 0 instructions: 440000000 cycles: 652128774 heartbeat IPC: 0.177285 cumulative IPC: 0.178546 (Simulation time: 2 hr 9 min 58 sec) 
Heartbeat CPU 1 instructions: 380000000 cycles: 653780295 heartbeat IPC: 0.403739 cumulative IPC: 0.341925 (Simulation time: 2 hr 10 min 14 sec) 
Heartbeat CPU 2 instructions: 830000003 cycles: 653790995 heartbeat IPC: 1.02323 cumulative IPC: 1.02679 (Simulation time: 2 hr 10 min 14 sec) 
Heartbeat CPU 3 instructions: 770000003 cycles: 655782783 heartbeat IPC: 1.03869 cumulative IPC: 1.03952 (Simulation time: 2 hr 10 min 32 sec) 
Heartbeat CPU 2 instructions: 840000000 cycles: 663595643 heartbeat IPC: 1.01992 cumulative IPC: 1.02667 (Simulation time: 2 hr 11 min 46 sec) 
Heartbeat CPU 3 instructions: 780000000 cycles: 665301944 heartbeat IPC: 1.05051 cumulative IPC: 1.03971 (Simulation time: 2 hr 12 min 2 sec) 
Heartbeat CPU 2 instructions: 850000002 cycles: 673353670 heartbeat IPC: 1.0248 cumulative IPC: 1.02664 (Simulation time: 2 hr 13 min 18 sec) 
Heartbeat CPU 3 instructions: 790000001 cycles: 674823487 heartbeat IPC: 1.05025 cumulative IPC: 1.03989 (Simulation time: 2 hr 13 min 31 sec) 
Heartbeat CPU 1 instructions: 390000000 cycles: 678063319 heartbeat IPC: 0.41181 cumulative IPC: 0.345006 (Simulation time: 2 hr 14 min 2 sec) 
Heartbeat CPU 2 instructions: 860000000 cycles: 683162413 heartbeat IPC: 1.0195 cumulative IPC: 1.02651 (Simulation time: 2 hr 14 min 51 sec) 
Heartbeat CPU 3 instructions: 800000000 cycles: 684293078 heartbeat IPC: 1.05601 cumulative IPC: 1.04017 (Simulation time: 2 hr 15 min 1 sec) 
Heartbeat CPU 2 instructions: 870000000 cycles: 692833104 heartbeat IPC: 1.03405 cumulative IPC: 1.02664 (Simulation time: 2 hr 16 min 22 sec) 
Heartbeat CPU 3 instructions: 810000001 cycles: 693956538 heartbeat IPC: 1.03483 cumulative IPC: 1.04008 (Simulation time: 2 hr 16 min 32 sec) 
Heartbeat CPU 2 instructions: 880000000 cycles: 702613403 heartbeat IPC: 1.02246 cumulative IPC: 1.02657 (Simulation time: 2 hr 17 min 52 sec) 
Heartbeat CPU 3 instructions: 820000000 cycles: 703656533 heartbeat IPC: 1.03093 cumulative IPC: 1.03992 (Simulation time: 2 hr 18 min 2 sec) 
Heartbeat CPU 0 instructions: 450000001 cycles: 708662259 heartbeat IPC: 0.176886 cumulative IPC: 0.178384 (Simulation time: 2 hr 18 min 47 sec) 
Heartbeat CPU 1 instructions: 400000000 cycles: 708811544 heartbeat IPC: 0.325222 cumulative IPC: 0.34396 (Simulation time: 2 hr 18 min 49 sec) 
Heartbeat CPU 2 instructions: 890000003 cycles: 712290505 heartbeat IPC: 1.03337 cumulative IPC: 1.02668 (Simulation time: 2 hr 19 min 21 sec) 
Heartbeat CPU 3 instructions: 830000003 cycles: 713399046 heartbeat IPC: 1.02643 cumulative IPC: 1.0397 (Simulation time: 2 hr 19 min 31 sec) 
Heartbeat CPU 2 instructions: 900000000 cycles: 722030379 heartbeat IPC: 1.02671 cumulative IPC: 1.02668 (Simulation time: 2 hr 20 min 54 sec) 
Heartbeat CPU 3 instructions: 840000000 cycles: 722867817 heartbeat IPC: 1.0561 cumulative IPC: 1.03996 (Simulation time: 2 hr 21 min 1 sec) 
Heartbeat CPU 2 instructions: 910000001 cycles: 731773284 heartbeat IPC: 1.02639 cumulative IPC: 1.02668 (Simulation time: 2 hr 22 min 25 sec) 
Heartbeat CPU 3 instructions: 850000000 cycles: 732469033 heartbeat IPC: 1.04153 cumulative IPC: 1.03998 (Simulation time: 2 hr 22 min 31 sec) 
Heartbeat CPU 1 instructions: 410000000 cycles: 738546999 heartbeat IPC: 0.336299 cumulative IPC: 0.343588 (Simulation time: 2 hr 23 min 28 sec) 
Heartbeat CPU 2 instructions: 920000000 cycles: 741545105 heartbeat IPC: 1.02335 cumulative IPC: 1.02662 (Simulation time: 2 hr 23 min 57 sec) 
Heartbeat CPU 3 instructions: 860000000 cycles: 742024996 heartbeat IPC: 1.04647 cumulative IPC: 1.04009 (Simulation time: 2 hr 24 min 2 sec) 
Heartbeat CPU 2 instructions: 930000000 cycles: 751309750 heartbeat IPC: 1.0241 cumulative IPC: 1.02658 (Simulation time: 2 hr 25 min 27 sec) 
Heartbeat CPU 3 instructions: 870000000 cycles: 751503656 heartbeat IPC: 1.055 cumulative IPC: 1.04031 (Simulation time: 2 hr 25 min 29 sec) 
Heartbeat CPU 3 instructions: 880000000 cycles: 760982550 heartbeat IPC: 1.05498 cumulative IPC: 1.04053 (Simulation time: 2 hr 26 min 57 sec) 
Heartbeat CPU 2 instructions: 940000000 cycles: 761042050 heartbeat IPC: 1.02751 cumulative IPC: 1.0266 (Simulation time: 2 hr 26 min 58 sec) 
Heartbeat CPU 1 instructions: 420000000 cycles: 766566811 heartbeat IPC: 0.35689 cumulative IPC: 0.344171 (Simulation time: 2 hr 27 min 46 sec) 
Heartbeat CPU 3 instructions: 890000000 cycles: 770502081 heartbeat IPC: 1.05047 cumulative IPC: 1.04068 (Simulation time: 2 hr 28 min 24 sec) 
Heartbeat CPU 2 instructions: 950000002 cycles: 771029787 heartbeat IPC: 1.00123 cumulative IPC: 1.0262 (Simulation time: 2 hr 28 min 29 sec) 
Heartbeat CPU 0 instructions: 460000000 cycles: 773223514 heartbeat IPC: 0.154892 cumulative IPC: 0.176036 (Simulation time: 2 hr 28 min 52 sec) 
Heartbeat CPU 3 instructions: 900000000 cycles: 780056199 heartbeat IPC: 1.04667 cumulative IPC: 1.04077 (Simulation time: 2 hr 30 min 1 sec) 
Heartbeat CPU 2 instructions: 960000000 cycles: 780604951 heartbeat IPC: 1.04437 cumulative IPC: 1.02647 (Simulation time: 2 hr 30 min 6 sec) 
Heartbeat CPU 3 instructions: 910000000 cycles: 789550952 heartbeat IPC: 1.05321 cumulative IPC: 1.04094 (Simulation time: 2 hr 31 min 40 sec) 
Heartbeat CPU 2 instructions: 970000000 cycles: 790111454 heartbeat IPC: 1.05191 cumulative IPC: 1.02684 (Simulation time: 2 hr 31 min 46 sec) 
Heartbeat CPU 1 instructions: 430000000 cycles: 798310678 heartbeat IPC: 0.315021 cumulative IPC: 0.342792 (Simulation time: 2 hr 33 min 11 sec) 
Heartbeat CPU 3 instructions: 920000000 cycles: 799055718 heartbeat IPC: 1.0521 cumulative IPC: 1.0411 (Simulation time: 2 hr 33 min 19 sec) 
Heartbeat CPU 2 instructions: 980000000 cycles: 799627343 heartbeat IPC: 1.05087 cumulative IPC: 1.02718 (Simulation time: 2 hr 33 min 25 sec) 
Heartbeat CPU 3 instructions: 930000002 cycles: 808556093 heartbeat IPC: 1.05259 cumulative IPC: 1.04126 (Simulation time: 2 hr 34 min 59 sec) 
Heartbeat CPU 2 instructions: 990000000 cycles: 809115314 heartbeat IPC: 1.05397 cumulative IPC: 1.02755 (Simulation time: 2 hr 35 min 4 sec) 
Heartbeat CPU 0 instructions: 470000002 cycles: 813648817 heartbeat IPC: 0.24737 cumulative IPC: 0.180238 (Simulation time: 2 hr 35 min 52 sec) 
Heartbeat CPU 3 instructions: 940000000 cycles: 818084592 heartbeat IPC: 1.04948 cumulative IPC: 1.04138 (Simulation time: 2 hr 36 min 38 sec) 
Heartbeat CPU 2 instructions: 1000000000 cycles: 818614414 heartbeat IPC: 1.05273 cumulative IPC: 1.02789 (Simulation time: 2 hr 36 min 44 sec) 
Heartbeat CPU 1 instructions: 440000000 cycles: 826707566 heartbeat IPC: 0.352151 cumulative IPC: 0.343172 (Simulation time: 2 hr 38 min 7 sec) 
Heartbeat CPU 3 instructions: 950000000 cycles: 827722900 heartbeat IPC: 1.03753 cumulative IPC: 1.04132 (Simulation time: 2 hr 38 min 18 sec) 
Heartbeat CPU 2 instructions: 1010000001 cycles: 828132216 heartbeat IPC: 1.05066 cumulative IPC: 1.0282 (Simulation time: 2 hr 38 min 22 sec) 
Heartbeat CPU 3 instructions: 960000000 cycles: 837258001 heartbeat IPC: 1.04876 cumulative IPC: 1.04142 (Simulation time: 2 hr 39 min 57 sec) 
Heartbeat CPU 2 instructions: 1020000000 cycles: 837714230 heartbeat IPC: 1.04362 cumulative IPC: 1.02841 (Simulation time: 2 hr 40 min 2 sec) 
Heartbeat CPU 3 instructions: 970000003 cycles: 846855380 heartbeat IPC: 1.04195 cumulative IPC: 1.04143 (Simulation time: 2 hr 41 min 37 sec) 
Heartbeat CPU 2 instructions: 1030000003 cycles: 847242909 heartbeat IPC: 1.04946 cumulative IPC: 1.02869 (Simulation time: 2 hr 41 min 41 sec) 
Heartbeat CPU 0 instructions: 480000000 cycles: 854316208 heartbeat IPC: 0.245897 cumulative IPC: 0.183911 (Simulation time: 2 hr 42 min 54 sec) 
Heartbeat CPU 3 instructions: 980000000 cycles: 856358356 heartbeat IPC: 1.0523 cumulative IPC: 1.04157 (Simulation time: 2 hr 43 min 15 sec) 
Heartbeat CPU 1 instructions: 450000000 cycles: 856577955 heartbeat IPC: 0.33478 cumulative IPC: 0.342828 (Simulation time: 2 hr 43 min 17 sec) 
Heartbeat CPU 2 instructions: 1040000000 cycles: 856803018 heartbeat IPC: 1.04601 cumulative IPC: 1.02892 (Simulation time: 2 hr 43 min 20 sec) 
Heartbeat CPU 3 instructions: 990000001 cycles: 865881833 heartbeat IPC: 1.05004 cumulative IPC: 1.04168 (Simulation time: 2 hr 44 min 54 sec) 
Heartbeat CPU 2 instructions: 1050000000 cycles: 866346610 heartbeat IPC: 1.04782 cumulative IPC: 1.02916 (Simulation time: 2 hr 44 min 58 sec) 
Heartbeat CPU 3 instructions: 1000000000 cycles: 875382722 heartbeat IPC: 1.05253 cumulative IPC: 1.04182 (Simulation time: 2 hr 46 min 33 sec) 
Heartbeat CPU 2 instructions: 1060000000 cycles: 875862819 heartbeat IPC: 1.05084 cumulative IPC: 1.02944 (Simulation time: 2 hr 46 min 38 sec) 
Heartbeat CPU 1 instructions: 460000000 cycles: 883912203 heartbeat IPC: 0.365841 cumulative IPC: 0.343659 (Simulation time: 2 hr 48 min 3 sec) 
Heartbeat CPU 3 instructions: 1010000002 cycles: 884883560 heartbeat IPC: 1.05254 cumulative IPC: 1.04195 (Simulation time: 2 hr 48 min 13 sec) 
Heartbeat CPU 2 instructions: 1070000002 cycles: 885336427 heartbeat IPC: 1.05556 cumulative IPC: 1.02976 (Simulation time: 2 hr 48 min 18 sec) 
Heartbeat CPU 3 instructions: 1020000000 cycles: 894356362 heartbeat IPC: 1.05565 cumulative IPC: 1.04212 (Simulation time: 2 hr 49 min 51 sec) 
Heartbeat CPU 0 instructions: 490000000 cycles: 894808454 heartbeat IPC: 0.246961 cumulative IPC: 0.187238 (Simulation time: 2 hr 49 min 56 sec) 
Heartbeat CPU 2 instructions: 1080000000 cycles: 894856473 heartbeat IPC: 1.05041 cumulative IPC: 1.03002 (Simulation time: 2 hr 49 min 56 sec) 
Heartbeat CPU 3 instructions: 1030000000 cycles: 903820857 heartbeat IPC: 1.05658 cumulative IPC: 1.0423 (Simulation time: 2 hr 51 min 30 sec) 
Heartbeat CPU 2 instructions: 1090000000 cycles: 904383709 heartbeat IPC: 1.04962 cumulative IPC: 1.03026 (Simulation time: 2 hr 51 min 35 sec) 
Heartbeat CPU 3 instructions: 1040000000 cycles: 913306624 heartbeat IPC: 1.05421 cumulative IPC: 1.04244 (Simulation time: 2 hr 53 min 9 sec) 
Heartbeat CPU 2 instructions: 1100000000 cycles: 913918485 heartbeat IPC: 1.04879 cumulative IPC: 1.03048 (Simulation time: 2 hr 53 min 15 sec) 
Heartbeat CPU 1 instructions: 470000000 cycles: 914522230 heartbeat IPC: 0.32669 cumulative IPC: 0.342999 (Simulation time: 2 hr 53 min 21 sec) 
Heartbeat CPU 3 instructions: 1050000000 cycles: 922777801 heartbeat IPC: 1.05584 cumulative IPC: 1.0426 (Simulation time: 2 hr 54 min 47 sec) 
Heartbeat CPU 2 instructions: 1110000003 cycles: 923469504 heartbeat IPC: 1.04701 cumulative IPC: 1.03068 (Simulation time: 2 hr 54 min 54 sec) 
Heartbeat CPU 3 instructions: 1060000000 cycles: 932285467 heartbeat IPC: 1.05178 cumulative IPC: 1.04271 (Simulation time: 2 hr 56 min 27 sec) 
Heartbeat CPU 2 instructions: 1120000000 cycles: 932964936 heartbeat IPC: 1.05314 cumulative IPC: 1.03095 (Simulation time: 2 hr 56 min 34 sec) 
Heartbeat CPU 0 instructions: 500000000 cycles: 935289684 heartbeat IPC: 0.247028 cumulative IPC: 0.190233 (Simulation time: 2 hr 56 min 59 sec) 
Heartbeat CPU 3 instructions: 1070000001 cycles: 941769324 heartbeat IPC: 1.05442 cumulative IPC: 1.04285 (Simulation time: 2 hr 58 min 7 sec) 
Heartbeat CPU 2 instructions: 1130000001 cycles: 942472103 heartbeat IPC: 1.05184 cumulative IPC: 1.03119 (Simulation time: 2 hr 58 min 14 sec) 
Heartbeat CPU 1 instructions: 480000000 cycles: 946361119 heartbeat IPC: 0.314081 cumulative IPC: 0.341875 (Simulation time: 2 hr 58 min 55 sec) 
Heartbeat CPU 3 instructions: 1080000000 cycles: 951400888 heartbeat IPC: 1.03825 cumulative IPC: 1.04279 (Simulation time: 2 hr 59 min 49 sec) 
Heartbeat CPU 2 instructions: 1140000000 cycles: 951910091 heartbeat IPC: 1.05955 cumulative IPC: 1.03152 (Simulation time: 2 hr 59 min 55 sec) 
Heartbeat CPU 3 instructions: 1090000002 cycles: 961062179 heartbeat IPC: 1.03506 cumulative IPC: 1.0427 (Simulation time: 3 hr 1 min 32 sec) 
Heartbeat CPU 2 instructions: 1150000000 cycles: 961383390 heartbeat IPC: 1.0556 cumulative IPC: 1.03179 (Simulation time: 3 hr 1 min 36 sec) 
Heartbeat CPU 3 instructions: 1100000000 cycles: 970644422 heartbeat IPC: 1.0436 cumulative IPC: 1.04271 (Simulation time: 3 hr 3 min 12 sec) 
Heartbeat CPU 2 instructions: 1160000000 cycles: 970880449 heartbeat IPC: 1.05296 cumulative IPC: 1.03203 (Simulation time: 3 hr 3 min 14 sec) 
Heartbeat CPU 0 instructions: 510000000 cycles: 975349102 heartbeat IPC: 0.249629 cumulative IPC: 0.193039 (Simulation time: 3 hr 4 min 1 sec) 
Heartbeat CPU 1 instructions: 490000000 cycles: 977684858 heartbeat IPC: 0.319247 cumulative IPC: 0.341042 (Simulation time: 3 hr 4 min 26 sec) 
Heartbeat CPU 3 instructions: 1110000002 cycles: 980265761 heartbeat IPC: 1.03936 cumulative IPC: 1.04268 (Simulation time: 3 hr 4 min 54 sec) 
Heartbeat CPU 2 instructions: 1170000002 cycles: 980373303 heartbeat IPC: 1.05342 cumulative IPC: 1.03227 (Simulation time: 3 hr 4 min 55 sec) 
Heartbeat CPU 3 instructions: 1120000000 cycles: 989896716 heartbeat IPC: 1.03832 cumulative IPC: 1.04263 (Simulation time: 3 hr 6 min 34 sec) 
Heartbeat CPU 2 instructions: 1180000000 cycles: 989928107 heartbeat IPC: 1.04659 cumulative IPC: 1.03242 (Simulation time: 3 hr 6 min 34 sec) 
Heartbeat CPU 2 instructions: 1190000000 cycles: 999393410 heartbeat IPC: 1.05649 cumulative IPC: 1.03269 (Simulation time: 3 hr 8 min 13 sec) 
Heartbeat CPU 3 instructions: 1130000003 cycles: 999450142 heartbeat IPC: 1.04675 cumulative IPC: 1.04267 (Simulation time: 3 hr 8 min 13 sec) 
Heartbeat CPU 2 instructions: 1200000000 cycles: 1008916946 heartbeat IPC: 1.05003 cumulative IPC: 1.03287 (Simulation time: 3 hr 9 min 52 sec) 
Heartbeat CPU 3 instructions: 1140000000 cycles: 1009066305 heartbeat IPC: 1.03992 cumulative IPC: 1.04264 (Simulation time: 3 hr 9 min 54 sec) 
Heartbeat CPU 1 instructions: 500000000 cycles: 1009231594 heartbeat IPC: 0.31699 cumulative IPC: 0.340181 (Simulation time: 3 hr 9 min 55 sec) 
Heartbeat CPU 0 instructions: 520000000 cycles: 1015613431 heartbeat IPC: 0.248359 cumulative IPC: 0.195547 (Simulation time: 3 hr 11 min 1 sec) 
Heartbeat CPU 2 instructions: 1210000002 cycles: 1018436048 heartbeat IPC: 1.05052 cumulative IPC: 1.03306 (Simulation time: 3 hr 11 min 30 sec) 
Heartbeat CPU 3 instructions: 1150000002 cycles: 1018657329 heartbeat IPC: 1.04264 cumulative IPC: 1.04264 (Simulation time: 3 hr 11 min 33 sec) 
Heartbeat CPU 2 instructions: 1220000000 cycles: 1027956620 heartbeat IPC: 1.05036 cumulative IPC: 1.03324 (Simulation time: 3 hr 13 min 10 sec) 
Heartbeat CPU 3 instructions: 1160000000 cycles: 1028291507 heartbeat IPC: 1.03797 cumulative IPC: 1.04259 (Simulation time: 3 hr 13 min 14 sec) 
Heartbeat CPU 1 instructions: 510000000 cycles: 1036466321 heartbeat IPC: 0.367178 cumulative IPC: 0.34099 (Simulation time: 3 hr 14 min 41 sec) 
Heartbeat CPU 2 instructions: 1230000001 cycles: 1037422215 heartbeat IPC: 1.05646 cumulative IPC: 1.03349 (Simulation time: 3 hr 14 min 50 sec) 
Heartbeat CPU 3 instructions: 1170000001 cycles: 1038021117 heartbeat IPC: 1.02779 cumulative IPC: 1.04243 (Simulation time: 3 hr 14 min 57 sec) 
Heartbeat CPU 2 instructions: 1240000000 cycles: 1046948940 heartbeat IPC: 1.04968 cumulative IPC: 1.03365 (Simulation time: 3 hr 16 min 30 sec) 
Heartbeat CPU 3 instructions: 1180000000 cycles: 1047684746 heartbeat IPC: 1.03481 cumulative IPC: 1.04235 (Simulation time: 3 hr 16 min 37 sec) 
Heartbeat CPU 0 instructions: 530000002 cycles: 1056032931 heartbeat IPC: 0.247405 cumulative IPC: 0.197804 (Simulation time: 3 hr 18 min 5 sec) 
Heartbeat CPU 2 instructions: 1250000003 cycles: 1056487810 heartbeat IPC: 1.04834 cumulative IPC: 1.0338 (Simulation time: 3 hr 18 min 10 sec) 
Heartbeat CPU 3 instructions: 1190000002 cycles: 1057185831 heartbeat IPC: 1.05251 cumulative IPC: 1.04246 (Simulation time: 3 hr 18 min 18 sec) 
Heartbeat CPU 1 instructions: 520000000 cycles: 1063305368 heartbeat IPC: 0.372591 cumulative IPC: 0.341896 (Simulation time: 3 hr 19 min 20 sec) 
Heartbeat CPU 3 instructions: 1200000000 cycles: 1066911575 heartbeat IPC: 1.0282 cumulative IPC: 1.04231 (Simulation time: 3 hr 19 min 56 sec) 
Heartbeat CPU 2 instructions: 1260000000 cycles: 1067115096 heartbeat IPC: 0.940974 cumulative IPC: 1.03275 (Simulation time: 3 hr 19 min 58 sec) 
Heartbeat CPU 3 instructions: 1210000002 cycles: 1076908325 heartbeat IPC: 1.00033 cumulative IPC: 1.04187 (Simulation time: 3 hr 21 min 34 sec) 
Heartbeat CPU 2 instructions: 1270000001 cycles: 1078088301 heartbeat IPC: 0.911311 cumulative IPC: 1.03135 (Simulation time: 3 hr 21 min 45 sec) 
Heartbeat CPU 3 instructions: 1220000000 cycles: 1087078713 heartbeat IPC: 0.983246 cumulative IPC: 1.04125 (Simulation time: 3 hr 23 min 13 sec) 
Finished CPU 3 instructions: 1000000002 cycles: 960411174 cumulative IPC: 1.04122 (Simulation time: 3 hr 23 min 20 sec) 
Heartbeat CPU 2 instructions: 1280000000 cycles: 1089714922 heartbeat IPC: 0.860095 cumulative IPC: 1.02928 (Simulation time: 3 hr 23 min 40 sec) 
Heartbeat CPU 0 instructions: 540000000 cycles: 1089923416 heartbeat IPC: 0.295068 cumulative IPC: 0.201228 (Simulation time: 3 hr 23 min 42 sec) 
Heartbeat CPU 1 instructions: 530000001 cycles: 1095518574 heartbeat IPC: 0.310432 cumulative IPC: 0.340849 (Simulation time: 3 hr 24 min 39 sec) 
Heartbeat CPU 3 instructions: 1230000003 cycles: 1096981263 heartbeat IPC: 1.00984 cumulative IPC: 1.04093 (Simulation time: 3 hr 24 min 55 sec) 
Finished CPU 2 instructions: 1000000001 cycles: 974052601 cumulative IPC: 1.02664 (Simulation time: 3 hr 25 min 40 sec) 
Heartbeat CPU 2 instructions: 1290000003 cycles: 1102068892 heartbeat IPC: 0.809457 cumulative IPC: 1.0265 (Simulation time: 3 hr 25 min 47 sec) 
Heartbeat CPU 0 instructions: 550000002 cycles: 1102415252 heartbeat IPC: 0.800523 cumulative IPC: 0.208906 (Simulation time: 3 hr 25 min 51 sec) 
Heartbeat CPU 3 instructions: 1240000000 cycles: 1106848722 heartbeat IPC: 1.01343 cumulative IPC: 1.04065 (Simulation time: 3 hr 26 min 36 sec) 
Heartbeat CPU 2 instructions: 1300000000 cycles: 1114406698 heartbeat IPC: 0.810517 cumulative IPC: 1.0238 (Simulation time: 3 hr 27 min 55 sec) 
Heartbeat CPU 0 instructions: 560000000 cycles: 1114986972 heartbeat IPC: 0.795436 cumulative IPC: 0.216372 (Simulation time: 3 hr 28 min 1 sec) 
Heartbeat CPU 3 instructions: 1250000000 cycles: 1116723397 heartbeat IPC: 1.01269 cumulative IPC: 1.04037 (Simulation time: 3 hr 28 min 19 sec) 
Heartbeat CPU 1 instructions: 540000000 cycles: 1126300202 heartbeat IPC: 0.324869 cumulative IPC: 0.340357 (Simulation time: 3 hr 29 min 55 sec) 
Heartbeat CPU 3 instructions: 1260000000 cycles: 1126590093 heartbeat IPC: 1.01351 cumulative IPC: 1.0401 (Simulation time: 3 hr 29 min 58 sec) 
Heartbeat CPU 2 instructions: 1310000001 cycles: 1126763145 heartbeat IPC: 0.809294 cumulative IPC: 1.02115 (Simulation time: 3 hr 30 min 0 sec) 
Heartbeat CPU 0 instructions: 570000001 cycles: 1127501372 heartbeat IPC: 0.79908 cumulative IPC: 0.223663 (Simulation time: 3 hr 30 min 8 sec) 
Heartbeat CPU 3 instructions: 1270000000 cycles: 1136567172 heartbeat IPC: 1.0023 cumulative IPC: 1.03973 (Simulation time: 3 hr 31 min 39 sec) 
Heartbeat CPU 2 instructions: 1320000000 cycles: 1139131140 heartbeat IPC: 0.808538 cumulative IPC: 1.01855 (Simulation time: 3 hr 32 min 5 sec) 
Heartbeat CPU 0 instructions: 580000000 cycles: 1140123899 heartbeat IPC: 0.792234 cumulative IPC: 0.230749 (Simulation time: 3 hr 32 min 15 sec) 
Heartbeat CPU 3 instructions: 1280000000 cycles: 1146457603 heartbeat IPC: 1.01108 cumulative IPC: 1.03945 (Simulation time: 3 hr 33 min 19 sec) 
Heartbeat CPU 2 instructions: 1330000000 cycles: 1151548016 heartbeat IPC: 0.805356 cumulative IPC: 1.01596 (Simulation time: 3 hr 34 min 10 sec) 
Heartbeat CPU 0 instructions: 590000003 cycles: 1152669432 heartbeat IPC: 0.797097 cumulative IPC: 0.237679 (Simulation time: 3 hr 34 min 21 sec) 
Heartbeat CPU 3 instructions: 1290000002 cycles: 1156297642 heartbeat IPC: 1.01626 cumulative IPC: 1.03923 (Simulation time: 3 hr 34 min 58 sec) 
Heartbeat CPU 1 instructions: 550000000 cycles: 1158832614 heartbeat IPC: 0.307386 cumulative IPC: 0.339317 (Simulation time: 3 hr 35 min 24 sec) 
Heartbeat CPU 2 instructions: 1340000000 cycles: 1163906626 heartbeat IPC: 0.809152 cumulative IPC: 1.0135 (Simulation time: 3 hr 36 min 16 sec) 
Heartbeat CPU 0 instructions: 600000000 cycles: 1165196025 heartbeat IPC: 0.798301 cumulative IPC: 0.244446 (Simulation time: 3 hr 36 min 29 sec) 
Heartbeat CPU 3 instructions: 1300000000 cycles: 1166133627 heartbeat IPC: 1.01667 cumulative IPC: 1.03902 (Simulation time: 3 hr 36 min 39 sec) 
Heartbeat CPU 3 instructions: 1310000000 cycles: 1176059941 heartbeat IPC: 1.00742 cumulative IPC: 1.03872 (Simulation time: 3 hr 38 min 20 sec) 
Heartbeat CPU 2 instructions: 1350000002 cycles: 1176130589 heartbeat IPC: 0.818065 cumulative IPC: 1.01122 (Simulation time: 3 hr 38 min 21 sec) 
Heartbeat CPU 0 instructions: 610000001 cycles: 1177660475 heartbeat IPC: 0.802282 cumulative IPC: 0.251066 (Simulation time: 3 hr 38 min 37 sec) 
Heartbeat CPU 1 instructions: 560000000 cycles: 1183575834 heartbeat IPC: 0.404151 cumulative IPC: 0.340836 (Simulation time: 3 hr 39 min 37 sec) 
Heartbeat CPU 3 instructions: 1320000000 cycles: 1186008829 heartbeat IPC: 1.00514 cumulative IPC: 1.0384 (Simulation time: 3 hr 40 min 2 sec) 
Heartbeat CPU 2 instructions: 1360000000 cycles: 1188291263 heartbeat IPC: 0.822323 cumulative IPC: 1.00905 (Simulation time: 3 hr 40 min 25 sec) 
Heartbeat CPU 0 instructions: 620000000 cycles: 1190174593 heartbeat IPC: 0.799097 cumulative IPC: 0.257519 (Simulation time: 3 hr 40 min 44 sec) 
Heartbeat CPU 3 instructions: 1330000000 cycles: 1196345320 heartbeat IPC: 0.967446 cumulative IPC: 1.03772 (Simulation time: 3 hr 41 min 47 sec) 
Heartbeat CPU 2 instructions: 1370000001 cycles: 1200487894 heartbeat IPC: 0.819899 cumulative IPC: 1.0069 (Simulation time: 3 hr 42 min 29 sec) 
Heartbeat CPU 0 instructions: 630000003 cycles: 1202737964 heartbeat IPC: 0.795965 cumulative IPC: 0.263809 (Simulation time: 3 hr 42 min 51 sec) 
Heartbeat CPU 3 instructions: 1340000000 cycles: 1206243449 heartbeat IPC: 1.01029 cumulative IPC: 1.03747 (Simulation time: 3 hr 43 min 26 sec) 
Heartbeat CPU 2 instructions: 1380000000 cycles: 1212933170 heartbeat IPC: 0.803518 cumulative IPC: 1.00457 (Simulation time: 3 hr 44 min 34 sec) 
Heartbeat CPU 1 instructions: 570000001 cycles: 1214044259 heartbeat IPC: 0.328209 cumulative IPC: 0.340482 (Simulation time: 3 hr 44 min 45 sec) 
Heartbeat CPU 0 instructions: 640000000 cycles: 1215245181 heartbeat IPC: 0.799538 cumulative IPC: 0.269968 (Simulation time: 3 hr 44 min 57 sec) 
Heartbeat CPU 3 instructions: 1350000001 cycles: 1216126020 heartbeat IPC: 1.01188 cumulative IPC: 1.03723 (Simulation time: 3 hr 45 min 7 sec) 
Heartbeat CPU 2 instructions: 1390000002 cycles: 1224390821 heartbeat IPC: 0.872779 cumulative IPC: 1.0032 (Simulation time: 3 hr 46 min 29 sec) 
Heartbeat CPU 3 instructions: 1360000000 cycles: 1225897564 heartbeat IPC: 1.02338 cumulative IPC: 1.03711 (Simulation time: 3 hr 46 min 44 sec) 
Heartbeat CPU 2 instructions: 1400000000 cycles: 1233778325 heartbeat IPC: 1.06525 cumulative IPC: 1.00372 (Simulation time: 3 hr 48 min 3 sec) 
Heartbeat CPU 3 instructions: 1370000002 cycles: 1235432461 heartbeat IPC: 1.04878 cumulative IPC: 1.03721 (Simulation time: 3 hr 48 min 20 sec) 
Heartbeat CPU 0 instructions: 650000002 cycles: 1237539962 heartbeat IPC: 0.448536 cumulative IPC: 0.273554 (Simulation time: 3 hr 48 min 41 sec) 
Heartbeat CPU 2 instructions: 1410000000 cycles: 1243123957 heartbeat IPC: 1.07002 cumulative IPC: 1.00428 (Simulation time: 3 hr 49 min 38 sec) 
Heartbeat CPU 3 instructions: 1380000000 cycles: 1245105786 heartbeat IPC: 1.03377 cumulative IPC: 1.03718 (Simulation time: 3 hr 49 min 58 sec) 
Heartbeat CPU 1 instructions: 580000000 cycles: 1246020754 heartbeat IPC: 0.31273 cumulative IPC: 0.339689 (Simulation time: 3 hr 50 min 7 sec) 
Heartbeat CPU 2 instructions: 1420000000 cycles: 1252361714 heartbeat IPC: 1.08251 cumulative IPC: 1.00492 (Simulation time: 3 hr 51 min 15 sec) 
Heartbeat CPU 3 instructions: 1390000003 cycles: 1254822683 heartbeat IPC: 1.02914 cumulative IPC: 1.03711 (Simulation time: 3 hr 51 min 40 sec) 
Heartbeat CPU 2 instructions: 1430000002 cycles: 1261648403 heartbeat IPC: 1.07681 cumulative IPC: 1.00551 (Simulation time: 3 hr 52 min 50 sec) 
Heartbeat CPU 3 instructions: 1400000000 cycles: 1264507388 heartbeat IPC: 1.03256 cumulative IPC: 1.03707 (Simulation time: 3 hr 53 min 20 sec) 
Heartbeat CPU 0 instructions: 660000000 cycles: 1265985718 heartbeat IPC: 0.351546 cumulative IPC: 0.275503 (Simulation time: 3 hr 53 min 36 sec) 
Heartbeat CPU 2 instructions: 1440000000 cycles: 1270887257 heartbeat IPC: 1.08239 cumulative IPC: 1.00613 (Simulation time: 3 hr 54 min 27 sec) 
Heartbeat CPU 3 instructions: 1410000002 cycles: 1274256277 heartbeat IPC: 1.02576 cumulative IPC: 1.03698 (Simulation time: 3 hr 55 min 3 sec) 
Heartbeat CPU 1 instructions: 590000000 cycles: 1276048365 heartbeat IPC: 0.333027 cumulative IPC: 0.339514 (Simulation time: 3 hr 55 min 22 sec) 
Heartbeat CPU 2 instructions: 1450000003 cycles: 1280120512 heartbeat IPC: 1.08304 cumulative IPC: 1.00675 (Simulation time: 3 hr 56 min 6 sec) 
Heartbeat CPU 3 instructions: 1420000000 cycles: 1284133305 heartbeat IPC: 1.01245 cumulative IPC: 1.03677 (Simulation time: 3 hr 56 min 47 sec) 
Heartbeat CPU 2 instructions: 1460000000 cycles: 1289389421 heartbeat IPC: 1.07888 cumulative IPC: 1.00732 (Simulation time: 3 hr 57 min 43 sec) 
Heartbeat CPU 0 instructions: 670000000 cycles: 1292222047 heartbeat IPC: 0.381151 cumulative IPC: 0.277882 (Simulation time: 3 hr 58 min 13 sec) 
Heartbeat CPU 3 instructions: 1430000001 cycles: 1293949481 heartbeat IPC: 1.01873 cumulative IPC: 1.03661 (Simulation time: 3 hr 58 min 31 sec) 
Heartbeat CPU 2 instructions: 1470000000 cycles: 1298594553 heartbeat IPC: 1.08635 cumulative IPC: 1.00794 (Simulation time: 3 hr 59 min 21 sec) 
Heartbeat CPU 3 instructions: 1440000000 cycles: 1303666271 heartbeat IPC: 1.02915 cumulative IPC: 1.03655 (Simulation time: 4 hr 0 min 15 sec) 
Heartbeat CPU 1 instructions: 600000000 cycles: 1305475467 heartbeat IPC: 0.339823 cumulative IPC: 0.339522 (Simulation time: 4 hr 0 min 34 sec) 
Heartbeat CPU 2 instructions: 1480000000 cycles: 1307811177 heartbeat IPC: 1.085 cumulative IPC: 1.00854 (Simulation time: 4 hr 0 min 59 sec) 
Heartbeat CPU 3 instructions: 1450000000 cycles: 1313409419 heartbeat IPC: 1.02636 cumulative IPC: 1.03647 (Simulation time: 4 hr 1 min 58 sec) 
Heartbeat CPU 2 instructions: 1490000000 cycles: 1317086637 heartbeat IPC: 1.07811 cumulative IPC: 1.00909 (Simulation time: 4 hr 2 min 38 sec) 
Heartbeat CPU 0 instructions: 680000000 cycles: 1317711021 heartbeat IPC: 0.392327 cumulative IPC: 0.280333 (Simulation time: 4 hr 2 min 44 sec) 
Heartbeat CPU 3 instructions: 1460000000 cycles: 1323186158 heartbeat IPC: 1.02284 cumulative IPC: 1.03636 (Simulation time: 4 hr 3 min 44 sec) 
Heartbeat CPU 2 instructions: 1500000000 cycles: 1326297114 heartbeat IPC: 1.08572 cumulative IPC: 1.00967 (Simulation time: 4 hr 4 min 17 sec) 
Heartbeat CPU 3 instructions: 1470000001 cycles: 1332839760 heartbeat IPC: 1.03588 cumulative IPC: 1.03635 (Simulation time: 4 hr 5 min 27 sec) 
Heartbeat CPU 2 instructions: 1510000003 cycles: 1335507575 heartbeat IPC: 1.08572 cumulative IPC: 1.01025 (Simulation time: 4 hr 5 min 55 sec) 
Heartbeat CPU 1 instructions: 610000000 cycles: 1336310285 heartbeat IPC: 0.324309 cumulative IPC: 0.339134 (Simulation time: 4 hr 6 min 4 sec) 
Heartbeat CPU 0 instructions: 690000001 cycles: 1342325234 heartbeat IPC: 0.406269 cumulative IPC: 0.282884 (Simulation time: 4 hr 7 min 8 sec) 
Heartbeat CPU 3 instructions: 1480000000 cycles: 1342542800 heartbeat IPC: 1.0306 cumulative IPC: 1.03631 (Simulation time: 4 hr 7 min 11 sec) 
Heartbeat CPU 2 instructions: 1520000000 cycles: 1344778206 heartbeat IPC: 1.07867 cumulative IPC: 1.01078 (Simulation time: 4 hr 7 min 34 sec) 
Heartbeat CPU 3 instructions: 1490000000 cycles: 1352341070 heartbeat IPC: 1.02059 cumulative IPC: 1.03618 (Simulation time: 4 hr 8 min 59 sec) 
Heartbeat CPU 2 instructions: 1530000001 cycles: 1353978655 heartbeat IPC: 1.0869 cumulative IPC: 1.01135 (Simulation time: 4 hr 9 min 17 sec) 
Heartbeat CPU 1 instructions: 620000000 cycles: 1361615148 heartbeat IPC: 0.395181 cumulative IPC: 0.340283 (Simulation time: 4 hr 10 min 39 sec) 
Heartbeat CPU 3 instructions: 1500000000 cycles: 1362113858 heartbeat IPC: 1.02325 cumulative IPC: 1.03608 (Simulation time: 4 hr 10 min 45 sec) 
Heartbeat CPU 2 instructions: 1540000000 cycles: 1363230780 heartbeat IPC: 1.08083 cumulative IPC: 1.01187 (Simulation time: 4 hr 10 min 57 sec) 
Heartbeat CPU 0 instructions: 700000000 cycles: 1366501452 heartbeat IPC: 0.41363 cumulative IPC: 0.285435 (Simulation time: 4 hr 11 min 32 sec) 
Heartbeat CPU 3 instructions: 1510000001 cycles: 1371845029 heartbeat IPC: 1.02763 cumulative IPC: 1.03601 (Simulation time: 4 hr 12 min 31 sec) 
Heartbeat CPU 2 instructions: 1550000001 cycles: 1372448488 heartbeat IPC: 1.08487 cumulative IPC: 1.01241 (Simulation time: 4 hr 12 min 38 sec) 
Heartbeat CPU 3 instructions: 1520000000 cycles: 1381464609 heartbeat IPC: 1.03955 cumulative IPC: 1.03604 (Simulation time: 4 hr 14 min 17 sec) 
Heartbeat CPU 2 instructions: 1560000000 cycles: 1381725306 heartbeat IPC: 1.07796 cumulative IPC: 1.01289 (Simulation time: 4 hr 14 min 20 sec) 
Heartbeat CPU 1 instructions: 630000000 cycles: 1387150165 heartbeat IPC: 0.391619 cumulative IPC: 0.341324 (Simulation time: 4 hr 15 min 19 sec) 
Heartbeat CPU 0 instructions: 710000000 cycles: 1390469791 heartbeat IPC: 0.417217 cumulative IPC: 0.287935 (Simulation time: 4 hr 15 min 55 sec) 
Heartbeat CPU 2 instructions: 1570000000 cycles: 1390947279 heartbeat IPC: 1.08437 cumulative IPC: 1.01341 (Simulation time: 4 hr 16 min 0 sec) 
Heartbeat CPU 3 instructions: 1530000002 cycles: 1391228689 heartbeat IPC: 1.02416 cumulative IPC: 1.03595 (Simulation time: 4 hr 16 min 3 sec) 
Heartbeat CPU 2 instructions: 1580000000 cycles: 1400219084 heartbeat IPC: 1.07854 cumulative IPC: 1.01389 (Simulation time: 4 hr 17 min 41 sec) 
Heartbeat CPU 3 instructions: 1540000000 cycles: 1400842383 heartbeat IPC: 1.04018 cumulative IPC: 1.03598 (Simulation time: 4 hr 17 min 48 sec) 
Heartbeat CPU 2 instructions: 1590000001 cycles: 1409466133 heartbeat IPC: 1.08143 cumulative IPC: 1.01438 (Simulation time: 4 hr 19 min 23 sec) 
Heartbeat CPU 3 instructions: 1550000000 cycles: 1410593664 heartbeat IPC: 1.02551 cumulative IPC: 1.0359 (Simulation time: 4 hr 19 min 35 sec) 
Heartbeat CPU 0 instructions: 720000000 cycles: 1414305642 heartbeat IPC: 0.419536 cumulative IPC: 0.290373 (Simulation time: 4 hr 20 min 16 sec) 
Heartbeat CPU 1 instructions: 640000000 cycles: 1417440992 heartbeat IPC: 0.330133 cumulative IPC: 0.341061 (Simulation time: 4 hr 20 min 50 sec) 
Heartbeat CPU 2 instructions: 1600000000 cycles: 1418711969 heartbeat IPC: 1.08157 cumulative IPC: 1.01486 (Simulation time: 4 hr 21 min 4 sec) 
Heartbeat CPU 3 instructions: 1560000000 cycles: 1420277164 heartbeat IPC: 1.03268 cumulative IPC: 1.03588 (Simulation time: 4 hr 21 min 22 sec) 
Heartbeat CPU 2 instructions: 1610000000 cycles: 1427920302 heartbeat IPC: 1.08597 cumulative IPC: 1.01536 (Simulation time: 4 hr 22 min 46 sec) 
Heartbeat CPU 3 instructions: 1570000000 cycles: 1429991581 heartbeat IPC: 1.0294 cumulative IPC: 1.03583 (Simulation time: 4 hr 23 min 9 sec) 
Heartbeat CPU 2 instructions: 1620000000 cycles: 1437208782 heartbeat IPC: 1.0766 cumulative IPC: 1.01579 (Simulation time: 4 hr 24 min 29 sec) 
Heartbeat CPU 0 instructions: 730000000 cycles: 1437638171 heartbeat IPC: 0.428586 cumulative IPC: 0.292834 (Simulation time: 4 hr 24 min 34 sec) 
Heartbeat CPU 3 instructions: 1580000000 cycles: 1439845506 heartbeat IPC: 1.01482 cumulative IPC: 1.03567 (Simulation time: 4 hr 24 min 59 sec) 
Heartbeat CPU 1 instructions: 650000002 cycles: 1445372553 heartbeat IPC: 0.358018 cumulative IPC: 0.34142 (Simulation time: 4 hr 25 min 59 sec) 
Heartbeat CPU 2 instructions: 1630000002 cycles: 1446459112 heartbeat IPC: 1.08104 cumulative IPC: 1.01625 (Simulation time: 4 hr 26 min 11 sec) 
Heartbeat CPU 3 instructions: 1590000000 cycles: 1449612400 heartbeat IPC: 1.02387 cumulative IPC: 1.03558 (Simulation time: 4 hr 26 min 46 sec) 
Heartbeat CPU 2 instructions: 1640000000 cycles: 1455733119 heartbeat IPC: 1.07828 cumulative IPC: 1.01668 (Simulation time: 4 hr 27 min 52 sec) 
Heartbeat CPU 3 instructions: 1600000000 cycles: 1459385328 heartbeat IPC: 1.02323 cumulative IPC: 1.03549 (Simulation time: 4 hr 28 min 31 sec) 
Heartbeat CPU 0 instructions: 740000000 cycles: 1460779542 heartbeat IPC: 0.432127 cumulative IPC: 0.295251 (Simulation time: 4 hr 28 min 47 sec) 
Heartbeat CPU 2 instructions: 1650000000 cycles: 1464992659 heartbeat IPC: 1.07997 cumulative IPC: 1.01712 (Simulation time: 4 hr 29 min 33 sec) 
Heartbeat CPU 3 instructions: 1610000003 cycles: 1469030956 heartbeat IPC: 1.03674 cumulative IPC: 1.0355 (Simulation time: 4 hr 30 min 17 sec) 
Heartbeat CPU 2 instructions: 1660000000 cycles: 1474247360 heartbeat IPC: 1.08053 cumulative IPC: 1.01756 (Simulation time: 4 hr 31 min 13 sec) 
Heartbeat CPU 1 instructions: 660000000 cycles: 1476186536 heartbeat IPC: 0.324528 cumulative IPC: 0.341034 (Simulation time: 4 hr 31 min 34 sec) 
Heartbeat CPU 3 instructions: 1620000000 cycles: 1478725496 heartbeat IPC: 1.03151 cumulative IPC: 1.03547 (Simulation time: 4 hr 32 min 2 sec) 
Heartbeat CPU 2 instructions: 1670000003 cycles: 1483473139 heartbeat IPC: 1.08392 cumulative IPC: 1.01801 (Simulation time: 4 hr 32 min 54 sec) 
Heartbeat CPU 0 instructions: 750000002 cycles: 1483696180 heartbeat IPC: 0.436364 cumulative IPC: 0.297636 (Simulation time: 4 hr 32 min 57 sec) 
Heartbeat CPU 3 instructions: 1630000001 cycles: 1488415304 heartbeat IPC: 1.03201 cumulative IPC: 1.03545 (Simulation time: 4 hr 33 min 48 sec) 
Heartbeat CPU 2 instructions: 1680000000 cycles: 1492728498 heartbeat IPC: 1.08045 cumulative IPC: 1.01843 (Simulation time: 4 hr 34 min 35 sec) 
Heartbeat CPU 3 instructions: 1640000000 cycles: 1498109901 heartbeat IPC: 1.0315 cumulative IPC: 1.03542 (Simulation time: 4 hr 35 min 34 sec) 
Heartbeat CPU 2 instructions: 1690000001 cycles: 1501949318 heartbeat IPC: 1.0845 cumulative IPC: 1.01888 (Simulation time: 4 hr 36 min 17 sec) 
Heartbeat CPU 1 instructions: 670000000 cycles: 1504033726 heartbeat IPC: 0.359103 cumulative IPC: 0.3414 (Simulation time: 4 hr 36 min 40 sec) 
Heartbeat CPU 0 instructions: 760000000 cycles: 1506206056 heartbeat IPC: 0.444249 cumulative IPC: 0.300029 (Simulation time: 4 hr 37 min 3 sec) 
Heartbeat CPU 3 instructions: 1650000003 cycles: 1507934102 heartbeat IPC: 1.01789 cumulative IPC: 1.0353 (Simulation time: 4 hr 37 min 22 sec) 
Heartbeat CPU 2 instructions: 1700000000 cycles: 1511161671 heartbeat IPC: 1.0855 cumulative IPC: 1.01932 (Simulation time: 4 hr 37 min 58 sec) 
Heartbeat CPU 3 instructions: 1660000000 cycles: 1517716515 heartbeat IPC: 1.02224 cumulative IPC: 1.03521 (Simulation time: 4 hr 39 min 10 sec) 
Heartbeat CPU 2 instructions: 1710000003 cycles: 1520423283 heartbeat IPC: 1.07973 cumulative IPC: 1.01972 (Simulation time: 4 hr 39 min 39 sec) 
Heartbeat CPU 3 instructions: 1670000003 cycles: 1527393501 heartbeat IPC: 1.03338 cumulative IPC: 1.03519 (Simulation time: 4 hr 40 min 55 sec) 
Heartbeat CPU 0 instructions: 770000000 cycles: 1528480289 heartbeat IPC: 0.448949 cumulative IPC: 0.302397 (Simulation time: 4 hr 41 min 7 sec) 
Heartbeat CPU 2 instructions: 1720000000 cycles: 1529644547 heartbeat IPC: 1.08445 cumulative IPC: 1.02015 (Simulation time: 4 hr 41 min 21 sec) 
Heartbeat CPU 1 instructions: 680000000 cycles: 1532248549 heartbeat IPC: 0.354424 cumulative IPC: 0.341661 (Simulation time: 4 hr 41 min 49 sec) 
Heartbeat CPU 3 instructions: 1680000000 cycles: 1536955637 heartbeat IPC: 1.04579 cumulative IPC: 1.03526 (Simulation time: 4 hr 42 min 40 sec) 
Heartbeat CPU 2 instructions: 1730000000 cycles: 1538892071 heartbeat IPC: 1.08137 cumulative IPC: 1.02055 (Simulation time: 4 hr 43 min 1 sec) 
Heartbeat CPU 3 instructions: 1690000001 cycles: 1546581030 heartbeat IPC: 1.03892 cumulative IPC: 1.03529 (Simulation time: 4 hr 44 min 26 sec) 
Heartbeat CPU 2 instructions: 1740000000 cycles: 1548084323 heartbeat IPC: 1.08787 cumulative IPC: 1.02098 (Simulation time: 4 hr 44 min 43 sec) 
Heartbeat CPU 0 instructions: 780000000 cycles: 1550717652 heartbeat IPC: 0.449694 cumulative IPC: 0.304698 (Simulation time: 4 hr 45 min 12 sec) 
Heartbeat CPU 3 instructions: 1700000000 cycles: 1556350787 heartbeat IPC: 1.02357 cumulative IPC: 1.03521 (Simulation time: 4 hr 46 min 13 sec) 
Heartbeat CPU 2 instructions: 1750000002 cycles: 1557343292 heartbeat IPC: 1.08003 cumulative IPC: 1.02137 (Simulation time: 4 hr 46 min 24 sec) 
Heartbeat CPU 1 instructions: 690000002 cycles: 1563913556 heartbeat IPC: 0.315806 cumulative IPC: 0.341092 (Simulation time: 4 hr 47 min 37 sec) 
Heartbeat CPU 3 instructions: 1710000000 cycles: 1566041310 heartbeat IPC: 1.03194 cumulative IPC: 1.03519 (Simulation time: 4 hr 48 min 1 sec) 
Heartbeat CPU 2 instructions: 1760000000 cycles: 1566534256 heartbeat IPC: 1.08802 cumulative IPC: 1.02179 (Simulation time: 4 hr 48 min 6 sec) 
Heartbeat CPU 0 instructions: 790000003 cycles: 1572761888 heartbeat IPC: 0.453633 cumulative IPC: 0.306969 (Simulation time: 4 hr 49 min 18 sec) 
Heartbeat CPU 3 instructions: 1720000000 cycles: 1575736430 heartbeat IPC: 1.03145 cumulative IPC: 1.03516 (Simulation time: 4 hr 49 min 51 sec) 
Heartbeat CPU 2 instructions: 1770000002 cycles: 1575773796 heartbeat IPC: 1.08231 cumulative IPC: 1.02218 (Simulation time: 4 hr 49 min 51 sec) 
Heartbeat CPU 2 instructions: 1780000000 cycles: 1585061900 heartbeat IPC: 1.07665 cumulative IPC: 1.02252 (Simulation time: 4 hr 51 min 33 sec) 
Heartbeat CPU 3 instructions: 1730000000 cycles: 1585537680 heartbeat IPC: 1.02028 cumulative IPC: 1.03506 (Simulation time: 4 hr 51 min 38 sec) 
Heartbeat CPU 1 instructions: 700000000 cycles: 1593862878 heartbeat IPC: 0.333897 cumulative IPC: 0.340945 (Simulation time: 4 hr 53 min 10 sec) 
Heartbeat CPU 2 instructions: 1790000000 cycles: 1594280391 heartbeat IPC: 1.08478 cumulative IPC: 1.02292 (Simulation time: 4 hr 53 min 14 sec) 
Heartbeat CPU 0 instructions: 800000000 cycles: 1594690766 heartbeat IPC: 0.45602 cumulative IPC: 0.309197 (Simulation time: 4 hr 53 min 19 sec) 
Heartbeat CPU 3 instructions: 1740000000 cycles: 1595316819 heartbeat IPC: 1.02258 cumulative IPC: 1.03498 (Simulation time: 4 hr 53 min 26 sec) 
Heartbeat CPU 2 instructions: 1800000000 cycles: 1603495655 heartbeat IPC: 1.08516 cumulative IPC: 1.0233 (Simulation time: 4 hr 54 min 57 sec) 
Heartbeat CPU 3 instructions: 1750000002 cycles: 1605081075 heartbeat IPC: 1.02414 cumulative IPC: 1.03491 (Simulation time: 4 hr 55 min 14 sec) 
Heartbeat CPU 2 instructions: 1810000002 cycles: 1612735668 heartbeat IPC: 1.08225 cumulative IPC: 1.02367 (Simulation time: 4 hr 56 min 40 sec) 
Heartbeat CPU 3 instructions: 1760000000 cycles: 1614830369 heartbeat IPC: 1.02572 cumulative IPC: 1.03485 (Simulation time: 4 hr 57 min 3 sec) 
Heartbeat CPU 0 instructions: 810000002 cycles: 1616299381 heartbeat IPC: 0.462778 cumulative IPC: 0.311426 (Simulation time: 4 hr 57 min 20 sec) 
Heartbeat CPU 2 instructions: 1820000000 cycles: 1621923419 heartbeat IPC: 1.08841 cumulative IPC: 1.02407 (Simulation time: 4 hr 58 min 22 sec) 
Heartbeat CPU 1 instructions: 710000000 cycles: 1624119921 heartbeat IPC: 0.330502 cumulative IPC: 0.340733 (Simulation time: 4 hr 58 min 46 sec) 
Heartbeat CPU 3 instructions: 1770000003 cycles: 1624541609 heartbeat IPC: 1.02973 cumulative IPC: 1.03481 (Simulation time: 4 hr 58 min 51 sec) 
Heartbeat CPU 2 instructions: 1830000000 cycles: 1631190052 heartbeat IPC: 1.07914 cumulative IPC: 1.02441 (Simulation time: 5 hr 0 min 5 sec) 
Heartbeat CPU 3 instructions: 1780000000 cycles: 1634218837 heartbeat IPC: 1.03335 cumulative IPC: 1.0348 (Simulation time: 5 hr 0 min 39 sec) 
Heartbeat CPU 0 instructions: 820000000 cycles: 1637925585 heartbeat IPC: 0.462402 cumulative IPC: 0.313587 (Simulation time: 5 hr 1 min 20 sec) 
Heartbeat CPU 2 instructions: 1840000000 cycles: 1640393829 heartbeat IPC: 1.08651 cumulative IPC: 1.02479 (Simulation time: 5 hr 1 min 47 sec) 
Heartbeat CPU 3 instructions: 1790000002 cycles: 1643922936 heartbeat IPC: 1.03049 cumulative IPC: 1.03478 (Simulation time: 5 hr 2 min 26 sec) 
Heartbeat CPU 2 instructions: 1850000002 cycles: 1649572344 heartbeat IPC: 1.0895 cumulative IPC: 1.02518 (Simulation time: 5 hr 3 min 29 sec) 
Heartbeat CPU 3 instructions: 1800000000 cycles: 1653577004 heartbeat IPC: 1.03583 cumulative IPC: 1.03478 (Simulation time: 5 hr 4 min 13 sec) 
Heartbeat CPU 1 instructions: 720000000 cycles: 1654937448 heartbeat IPC: 0.324491 cumulative IPC: 0.340406 (Simulation time: 5 hr 4 min 29 sec) 
Heartbeat CPU 2 instructions: 1860000000 cycles: 1658850901 heartbeat IPC: 1.07775 cumulative IPC: 1.0255 (Simulation time: 5 hr 5 min 12 sec) 
Heartbeat CPU 0 instructions: 830000003 cycles: 1659409988 heartbeat IPC: 0.465454 cumulative IPC: 0.315717 (Simulation time: 5 hr 5 min 18 sec) 
Heartbeat CPU 3 instructions: 1810000001 cycles: 1663318766 heartbeat IPC: 1.02651 cumulative IPC: 1.03473 (Simulation time: 5 hr 6 min 2 sec) 
Heartbeat CPU 2 instructions: 1870000003 cycles: 1668059359 heartbeat IPC: 1.08596 cumulative IPC: 1.02586 (Simulation time: 5 hr 6 min 55 sec) 
Heartbeat CPU 3 instructions: 1820000000 cycles: 1672993632 heartbeat IPC: 1.03361 cumulative IPC: 1.03472 (Simulation time: 5 hr 7 min 50 sec) 
Heartbeat CPU 2 instructions: 1880000000 cycles: 1677300171 heartbeat IPC: 1.08216 cumulative IPC: 1.02619 (Simulation time: 5 hr 8 min 38 sec) 
Heartbeat CPU 0 instructions: 840000000 cycles: 1680879405 heartbeat IPC: 0.465779 cumulative IPC: 0.317791 (Simulation time: 5 hr 9 min 17 sec) 
Heartbeat CPU 3 instructions: 1830000003 cycles: 1682596568 heartbeat IPC: 1.04135 cumulative IPC: 1.03476 (Simulation time: 5 hr 9 min 36 sec) 
Heartbeat CPU 1 instructions: 730000000 cycles: 1684860744 heartbeat IPC: 0.334188 cumulative IPC: 0.340286 (Simulation time: 5 hr 10 min 1 sec) 
Heartbeat CPU 2 instructions: 1890000003 cycles: 1686542603 heartbeat IPC: 1.08197 cumulative IPC: 1.02652 (Simulation time: 5 hr 10 min 20 sec) 
Heartbeat CPU 3 instructions: 1840000000 cycles: 1692244080 heartbeat IPC: 1.03654 cumulative IPC: 1.03478 (Simulation time: 5 hr 11 min 22 sec) 
Heartbeat CPU 2 instructions: 1900000000 cycles: 1695877198 heartbeat IPC: 1.07128 cumulative IPC: 1.02679 (Simulation time: 5 hr 12 min 3 sec) 
Heartbeat CPU 3 instructions: 1850000002 cycles: 1701992914 heartbeat IPC: 1.02576 cumulative IPC: 1.03472 (Simulation time: 5 hr 13 min 11 sec) 
Heartbeat CPU 0 instructions: 850000002 cycles: 1702178105 heartbeat IPC: 0.469512 cumulative IPC: 0.319842 (Simulation time: 5 hr 13 min 13 sec) 
Heartbeat CPU 2 instructions: 1910000001 cycles: 1705117173 heartbeat IPC: 1.08225 cumulative IPC: 1.02711 (Simulation time: 5 hr 13 min 45 sec) 
Heartbeat CPU 1 instructions: 740000000 cycles: 1711185744 heartbeat IPC: 0.379867 cumulative IPC: 0.340944 (Simulation time: 5 hr 14 min 56 sec) 
Heartbeat CPU 3 instructions: 1860000000 cycles: 1711651106 heartbeat IPC: 1.03539 cumulative IPC: 1.03472 (Simulation time: 5 hr 15 min 2 sec) 
Heartbeat CPU 2 instructions: 1920000000 cycles: 1714294220 heartbeat IPC: 1.08968 cumulative IPC: 1.02748 (Simulation time: 5 hr 15 min 33 sec) 
Heartbeat CPU 3 instructions: 1870000001 cycles: 1721414024 heartbeat IPC: 1.02428 cumulative IPC: 1.03466 (Simulation time: 5 hr 16 min 51 sec) 
Heartbeat CPU 0 instructions: 860000000 cycles: 1723434819 heartbeat IPC: 0.470439 cumulative IPC: 0.321848 (Simulation time: 5 hr 17 min 13 sec) 
Heartbeat CPU 2 instructions: 1930000003 cycles: 1723628178 heartbeat IPC: 1.07136 cumulative IPC: 1.02773 (Simulation time: 5 hr 17 min 16 sec) 
Heartbeat CPU 3 instructions: 1880000000 cycles: 1731249425 heartbeat IPC: 1.01674 cumulative IPC: 1.03455 (Simulation time: 5 hr 18 min 41 sec) 
Heartbeat CPU 2 instructions: 1940000000 cycles: 1732937742 heartbeat IPC: 1.07416 cumulative IPC: 1.028 (Simulation time: 5 hr 19 min 0 sec) 
[...]
Heartbeat CPU 2 instructions: 3170000002 cycles: 2885295299 heartbeat IPC: 1.04487 cumulative IPC: 1.04445 (Simulation time: 9 hr 2 min 10 sec) 
Heartbeat CPU 0 instructions: 1480000000 cycles: 2887780444 heartbeat IPC: 0.544248 cumulative IPC: 0.410696 (Simulation time: 9 hr 2 min 39 sec) 
Heartbeat CPU 3 instructions: 3070000001 cycles: 2890744413 heartbeat IPC: 1.02035 cumulative IPC: 1.03109 (Simulation time: 9 hr 3 min 12 sec) 
Heartbeat CPU 2 instructions: 3180000000 cycles: 2894692342 heartbeat IPC: 1.06416 cumulative IPC: 1.04452 (Simulation time: 9 hr 3 min 58 sec) 
Heartbeat CPU 1 instructions: 1170000000 cycles: 2898342545 heartbeat IPC: 0.336271 cumulative IPC: 0.350055 (Simulation time: 9 hr 4 min 39 sec) 
Heartbeat CPU 3 instructions: 3080000000 cycles: 2900568117 heartbeat IPC: 1.01795 cumulative IPC: 1.03105 (Simulation time: 9 hr 5 min 4 sec) 
Heartbeat CPU 2 instructions: 3190000000 cycles: 2904071641 heartbeat IPC: 1.06618 cumulative IPC: 1.04459 (Simulation time: 9 hr 5 min 48 sec) 
Heartbeat CPU 0 instructions: 1490000002 cycles: 2906238402 heartbeat IPC: 0.541772 cumulative IPC: 0.411566 (Simulation time: 9 hr 6 min 11 sec) 
Heartbeat CPU 3 instructions: 3090000002 cycles: 2910345808 heartbeat IPC: 1.02274 cumulative IPC: 1.03102 (Simulation time: 9 hr 6 min 58 sec) 
Heartbeat CPU 2 instructions: 3200000000 cycles: 2913589239 heartbeat IPC: 1.05069 cumulative IPC: 1.04461 (Simulation time: 9 hr 7 min 35 sec) 
Heartbeat CPU 3 instructions: 3100000000 cycles: 2920145064 heartbeat IPC: 1.02049 cumulative IPC: 1.03098 (Simulation time: 9 hr 8 min 50 sec) 
Heartbeat CPU 2 instructions: 3210000002 cycles: 2922970673 heartbeat IPC: 1.06594 cumulative IPC: 1.04469 (Simulation time: 9 hr 9 min 23 sec) 
Heartbeat CPU 0 instructions: 1500000000 cycles: 2924418828 heartbeat IPC: 0.550042 cumulative IPC: 0.412466 (Simulation time: 9 hr 9 min 38 sec) 
Heartbeat CPU 1 instructions: 1180000000 cycles: 2927384473 heartbeat IPC: 0.34433 cumulative IPC: 0.349996 (Simulation time: 9 hr 10 min 15 sec) 
Heartbeat CPU 3 instructions: 3110000002 cycles: 2929909171 heartbeat IPC: 1.02416 cumulative IPC: 1.03096 (Simulation time: 9 hr 10 min 44 sec) 
Heartbeat CPU 2 instructions: 3220000000 cycles: 2932267087 heartbeat IPC: 1.07568 cumulative IPC: 1.04479 (Simulation time: 9 hr 11 min 11 sec) 
Heartbeat CPU 3 instructions: 3120000000 cycles: 2939791453 heartbeat IPC: 1.01191 cumulative IPC: 1.03089 (Simulation time: 9 hr 12 min 37 sec) 
Heartbeat CPU 2 instructions: 3230000001 cycles: 2941597934 heartbeat IPC: 1.07171 cumulative IPC: 1.04488 (Simulation time: 9 hr 12 min 58 sec) 
Heartbeat CPU 0 instructions: 1510000002 cycles: 2942065219 heartbeat IPC: 0.566688 cumulative IPC: 0.413433 (Simulation time: 9 hr 13 min 4 sec) 
Heartbeat CPU 3 instructions: 3130000003 cycles: 2949585055 heartbeat IPC: 1.02108 cumulative IPC: 1.03085 (Simulation time: 9 hr 14 min 28 sec) 
Heartbeat CPU 2 instructions: 3240000000 cycles: 2951243432 heartbeat IPC: 1.03675 cumulative IPC: 1.04485 (Simulation time: 9 hr 14 min 48 sec) 
Heartbeat CPU 1 instructions: 1190000001 cycles: 2957429482 heartbeat IPC: 0.332834 cumulative IPC: 0.349813 (Simulation time: 9 hr 15 min 59 sec) 
Heartbeat CPU 3 instructions: 3140000000 cycles: 2959300070 heartbeat IPC: 1.02933 cumulative IPC: 1.03085 (Simulation time: 9 hr 16 min 21 sec) 
Heartbeat CPU 0 instructions: 1520000000 cycles: 2960183836 heartbeat IPC: 0.551918 cumulative IPC: 0.414319 (Simulation time: 9 hr 16 min 30 sec) 
Heartbeat CPU 2 instructions: 3250000003 cycles: 2960747813 heartbeat IPC: 1.05215 cumulative IPC: 1.04488 (Simulation time: 9 hr 16 min 37 sec) 
Heartbeat CPU 3 instructions: 3150000002 cycles: 2969003035 heartbeat IPC: 1.03061 cumulative IPC: 1.03085 (Simulation time: 9 hr 18 min 12 sec) 
Heartbeat CPU 2 instructions: 3260000000 cycles: 2970043879 heartbeat IPC: 1.07572 cumulative IPC: 1.04498 (Simulation time: 9 hr 18 min 25 sec) 
Heartbeat CPU 0 instructions: 1530000003 cycles: 2978104500 heartbeat IPC: 0.558015 cumulative IPC: 0.415222 (Simulation time: 9 hr 19 min 59 sec) 
Heartbeat CPU 3 instructions: 3160000000 cycles: 2978699244 heartbeat IPC: 1.03133 cumulative IPC: 1.03085 (Simulation time: 9 hr 20 min 6 sec) 
Heartbeat CPU 2 instructions: 3270000001 cycles: 2979404205 heartbeat IPC: 1.06834 cumulative IPC: 1.04505 (Simulation time: 9 hr 20 min 13 sec) 
Heartbeat CPU 1 instructions: 1200000000 cycles: 2987902877 heartbeat IPC: 0.328155 cumulative IPC: 0.349583 (Simulation time: 9 hr 21 min 51 sec) 
Finished CPU 1 instructions: 1000000003 cycles: 2860553882 cumulative IPC: 0.349583 (Simulation time: 9 hr 21 min 51 sec) 

CPU 0 Branch Prediction Accuracy: 98.3485% MPKI: 2.56701

CPU 1 Branch Prediction Accuracy: 91.1518% MPKI: 15.9207

CPU 2 Branch Prediction Accuracy: 99.975% MPKI: 0.00425441

CPU 3 Branch Prediction Accuracy: 99.9818% MPKI: 0.00120728

ChampSim completed all CPUs

Total Simulation Statistics (not including warmup)

CPU 0 cumulative IPC: 0.41571 instructions: 1189161511 cycles: 2860553882
L1D TOTAL     ACCESS:  376002955  HIT:  205531824  MISS:  170471131
L1D LOAD      ACCESS:  316947288  HIT:  152573423  MISS:  164373865
L1D RFO       ACCESS:   59055667  HIT:   52958401  MISS:    6097266
L1D PREFETCH  ACCESS:          0  HIT:          0  MISS:          0
L1D WRITEBACK ACCESS:          0  HIT:          0  MISS:          0
L1I TOTAL     ACCESS:  406373737  HIT:  406373589  MISS:        148
L1I LOAD      ACCESS:  406373737  HIT:  406373589  MISS:        148
L1I RFO       ACCESS:          0  HIT:          0  MISS:          0
L1I PREFETCH  ACCESS:          0  HIT:          0  MISS:          0
L1I WRITEBACK ACCESS:          0  HIT:          0  MISS:          0
L2C TOTAL     ACCESS:  339418383  HIT:  136948999  MISS:  202469384
L2C LOAD      ACCESS:  164373991  HIT:  109400793  MISS:   54973198
L2C RFO       ACCESS:    6097265  HIT:     288563  MISS:    5808702
L2C PREFETCH  ACCESS:  159584851  HIT:   17909217  MISS:  141675634
L2C WRITEBACK ACCESS:    9362276  HIT:    9350426  MISS:      11850

Avg Lookahead Depth:	2.85927
TOTAL: 7.46343e+08	L2C: 5.50721e+08	LLC: 1.95622e+08	GOOD_L2C: 3.3779e+08
Printing all the perceptron weights to: perc_weights_0.csv
LLC TOTAL     ACCESS:  234926778  HIT:  211473875  MISS:   23452903
LLC LOAD      ACCESS:   30634074  HIT:   24392498  MISS:    6241576
LLC RFO       ACCESS:    5805565  HIT:     429581  MISS:    5375984
LLC PREFETCH  ACCESS:  189246224  HIT:  177411538  MISS:   11834686
LLC WRITEBACK ACCESS:    9240915  HIT:    9240258  MISS:        657

CPU 1 cumulative IPC: 0.349583 instructions: 1000000003 cycles: 2860553882
L1D TOTAL     ACCESS:  349356877  HIT:  339479447  MISS:    9877430
L1D LOAD      ACCESS:  214267770  HIT:  205595066  MISS:    8672704
L1D RFO       ACCESS:  135089107  HIT:  133884381  MISS:    1204726
L1D PREFETCH  ACCESS:          0  HIT:          0  MISS:          0
L1D WRITEBACK ACCESS:          0  HIT:          0  MISS:          0
L1I TOTAL     ACCESS:  272307377  HIT:  267563097  MISS:    4744280
L1I LOAD      ACCESS:  272307377  HIT:  267563097  MISS:    4744280
L1I RFO       ACCESS:          0  HIT:          0  MISS:          0
L1I PREFETCH  ACCESS:          0  HIT:          0  MISS:          0
L1I WRITEBACK ACCESS:          0  HIT:          0  MISS:          0
L2C TOTAL     ACCESS:   33084642  HIT:   25428424  MISS:    7656218
L2C LOAD      ACCESS:   13416866  HIT:   10209754  MISS:    3207112
L2C RFO       ACCESS:    1204676  HIT:     468776  MISS:     735900
L2C PREFETCH  ACCESS:   15899876  HIT:   12233937  MISS:    3665939
L2C WRITEBACK ACCESS:    2563224  HIT:    2515957  MISS:      47267

Avg Lookahead Depth:	2.85927
TOTAL: 7.46343e+08	L2C: 5.50721e+08	LLC: 1.95622e+08	GOOD_L2C: 3.3779e+08
Printing all the perceptron weights to: perc_weights_0.csv
LLC TOTAL     ACCESS:   11872433  HIT:    7237136  MISS:    4635297
LLC LOAD      ACCESS:    3119779  HIT:    1981691  MISS:    1138088
LLC RFO       ACCESS:     734857  HIT:     283527  MISS:     451330
LLC PREFETCH  ACCESS:    6591207  HIT:    3723590  MISS:    2867617
LLC WRITEBACK ACCESS:    1426590  HIT:    1248328  MISS:     178262

CPU 2 cumulative IPC: 1.04515 instructions: 2989708415 cycles: 2860553883
L1D TOTAL     ACCESS:  638043413  HIT:  598478263  MISS:   39565150
L1D LOAD      ACCESS:  428235473  HIT:  388709732  MISS:   39525741
L1D RFO       ACCESS:  209807940  HIT:  209768531  MISS:      39409
L1D PREFETCH  ACCESS:          0  HIT:          0  MISS:          0
L1D WRITEBACK ACCESS:          0  HIT:          0  MISS:          0
L1I TOTAL     ACCESS:  619523688  HIT:  619523688  MISS:          0
L1I LOAD      ACCESS:  619523688  HIT:  619523688  MISS:          0
L1I RFO       ACCESS:          0  HIT:          0  MISS:          0
L1I PREFETCH  ACCESS:          0  HIT:          0  MISS:          0
L1I WRITEBACK ACCESS:          0  HIT:          0  MISS:          0
L2C TOTAL     ACCESS:  113327673  HIT:   74154209  MISS:   39173464
L2C LOAD      ACCESS:   39525741  HIT:   36955471  MISS:    2570270
L2C RFO       ACCESS:      39409  HIT:       5562  MISS:      33847
L2C PREFETCH  ACCESS:   47491374  HIT:   10922027  MISS:   36569347
L2C WRITEBACK ACCESS:   26271149  HIT:   26271149  MISS:          0

Avg Lookahead Depth:	2.85927
TOTAL: 7.46343e+08	L2C: 5.50721e+08	LLC: 1.95622e+08	GOOD_L2C: 3.3779e+08
Printing all the perceptron weights to: perc_weights_0.csv
LLC TOTAL     ACCESS:   67304991  HIT:   41052499  MISS:   26252492
LLC LOAD      ACCESS:    1337222  HIT:     543425  MISS:     793797
LLC RFO       ACCESS:      33787  HIT:      33787  MISS:          0
LLC PREFETCH  ACCESS:   39677860  HIT:   14219371  MISS:   25458489
LLC WRITEBACK ACCESS:   26256122  HIT:   26255916  MISS:        206

CPU 3 cumulative IPC: 1.03085 instructions: 2948788857 cycles: 2860553883
L1D TOTAL     ACCESS: 1174650030  HIT:  940144959  MISS:  234505071
L1D LOAD      ACCESS:  942058418  HIT:  726986354  MISS:  215072064
L1D RFO       ACCESS:  232591612  HIT:  213158605  MISS:   19433007
L1D PREFETCH  ACCESS:          0  HIT:          0  MISS:          0
L1D WRITEBACK ACCESS:          0  HIT:          0  MISS:          0
L1I TOTAL     ACCESS:  689375727  HIT:  604359120  MISS:   85016607
L1I LOAD      ACCESS:  689375727  HIT:  604359120  MISS:   85016607
L1I RFO       ACCESS:          0  HIT:          0  MISS:          0
L1I PREFETCH  ACCESS:          0  HIT:          0  MISS:          0
L1I WRITEBACK ACCESS:          0  HIT:          0  MISS:          0
L2C TOTAL     ACCESS:  647625096  HIT:  615455456  MISS:   32169640
L2C LOAD      ACCESS:  300073331  HIT:  293436232  MISS:    6637099
L2C RFO       ACCESS:   19418564  HIT:   16762242  MISS:    2656322
L2C PREFETCH  ACCESS:  306493361  HIT:  283659569  MISS:   22833792
L2C WRITEBACK ACCESS:   21639840  HIT:   21597413  MISS:      42427

Avg Lookahead Depth:	2.85927
TOTAL: 7.46343e+08	L2C: 5.50721e+08	LLC: 1.95622e+08	GOOD_L2C: 3.3779e+08
Printing all the perceptron weights to: perc_weights_0.csv
LLC TOTAL     ACCESS:   58175702  HIT:   50175164  MISS:    8000538
LLC LOAD      ACCESS:    6303029  HIT:    5348880  MISS:     954149
LLC RFO       ACCESS:    2406932  HIT:     680894  MISS:    1726038
LLC PREFETCH  ACCESS:   46750557  HIT:   41444440  MISS:    5306117
LLC WRITEBACK ACCESS:    2715184  HIT:    2700950  MISS:      14234

Region of Interest Statistics

CPU 0 cumulative IPC: 0.397328 instructions: 1000000002 cycles: 2516810466
L1D TOTAL     ACCESS:  306574847  HIT:  165416951  MISS:  141157896
L1D LOAD      ACCESS:  258779127  HIT:  123156610  MISS:  135622517
L1D RFO       ACCESS:   47795720  HIT:   42260341  MISS:    5535379
L1D PREFETCH  ACCESS:          0  HIT:          0  MISS:          0
L1D WRITEBACK ACCESS:          0  HIT:          0  MISS:          0
L1D PREFETCH  REQUESTED:          0  ISSUED:          0  USEFUL:          0  USELESS:          0
L1I TOTAL     ACCESS:  336983148  HIT:  336983000  MISS:        148
L1I LOAD      ACCESS:  336983148  HIT:  336983000  MISS:        148
L1I RFO       ACCESS:          0  HIT:          0  MISS:          0
L1I PREFETCH  ACCESS:          0  HIT:          0  MISS:          0
L1I WRITEBACK ACCESS:          0  HIT:          0  MISS:          0
L1I PREFETCH  REQUESTED:          0  ISSUED:          0  USEFUL:          0  USELESS:          0
L2C TOTAL     ACCESS:  279754124  HIT:  112270324  MISS:  167483800
L2C LOAD      ACCESS:  135622643  HIT:   88308597  MISS:   47314046
L2C RFO       ACCESS:    5535378  HIT:     263162  MISS:    5272216
L2C PREFETCH  ACCESS:  129898917  HIT:   15012235  MISS:  114886682
L2C WRITEBACK ACCESS:    8697186  HIT:    8686330  MISS:      10856
L2C PREFETCH  REQUESTED:  246535002  ISSUED:  246436032  USEFUL:  110751912  USELESS:   37832438
LLC TOTAL     ACCESS:  195092406  HIT:  172801958  MISS:   22290448
LLC LOAD      ACCESS:   26572494  HIT:   20380607  MISS:    6191887
LLC RFO       ACCESS:    5270049  HIT:     424900  MISS:    4845149
LLC PREFETCH  ACCESS:  154671053  HIT:  143418266  MISS:   11252787
LLC WRITEBACK ACCESS:    8578810  HIT:    8578185  MISS:        625
LLC PREFETCH  REQUESTED:          0  ISSUED:          0  USEFUL:    4484361  USELESS:   45369380
Major fault: 0 Minor fault: 277759

CPU 1 cumulative IPC: 0.349583 instructions: 1000000003 cycles: 2860553882
L1D TOTAL     ACCESS:  349356877  HIT:  339479447  MISS:    9877430
L1D LOAD      ACCESS:  214267770  HIT:  205595066  MISS:    8672704
L1D RFO       ACCESS:  135089107  HIT:  133884381  MISS:    1204726
L1D PREFETCH  ACCESS:          0  HIT:          0  MISS:          0
L1D WRITEBACK ACCESS:          0  HIT:          0  MISS:          0
L1D PREFETCH  REQUESTED:          0  ISSUED:          0  USEFUL:          0  USELESS:          0
L1I TOTAL     ACCESS:  272307377  HIT:  267563097  MISS:    4744280
L1I LOAD      ACCESS:  272307377  HIT:  267563097  MISS:    4744280
L1I RFO       ACCESS:          0  HIT:          0  MISS:          0
L1I PREFETCH  ACCESS:          0  HIT:          0  MISS:          0
L1I WRITEBACK ACCESS:          0  HIT:          0  MISS:          0
L1I PREFETCH  REQUESTED:          0  ISSUED:          0  USEFUL:          0  USELESS:          0
L2C TOTAL     ACCESS:   33084642  HIT:   25428424  MISS:    7656218
L2C LOAD      ACCESS:   13416866  HIT:   10209754  MISS:    3207112
L2C RFO       ACCESS:    1204676  HIT:     468776  MISS:     735900
L2C PREFETCH  ACCESS:   15899876  HIT:   12233937  MISS:    3665939
L2C WRITEBACK ACCESS:    2563224  HIT:    2515957  MISS:      47267
L2C PREFETCH  REQUESTED:   23390471  ISSUED:   23371999  USEFUL:    1733662  USELESS:    2657573
LLC TOTAL     ACCESS:   11872433  HIT:    7237136  MISS:    4635297
LLC LOAD      ACCESS:    3119779  HIT:    1981691  MISS:    1138088
LLC RFO       ACCESS:     734857  HIT:     283527  MISS:     451330
LLC PREFETCH  ACCESS:    6591207  HIT:    3723590  MISS:    2867617
LLC WRITEBACK ACCESS:    1426590  HIT:    1248328  MISS:     178262
LLC PREFETCH  REQUESTED:          0  ISSUED:          0  USEFUL:    4484361  USELESS:   45369380
Major fault: 0 Minor fault: 28350

CPU 2 cumulative IPC: 1.02664 instructions: 1000000001 cycles: 974052601
L1D TOTAL     ACCESS:  213401826  HIT:  200168048  MISS:   13233778
L1D LOAD      ACCESS:  143226039  HIT:  130005441  MISS:   13220598
L1D RFO       ACCESS:   70175787  HIT:   70162607  MISS:      13180
L1D PREFETCH  ACCESS:          0  HIT:          0  MISS:          0
L1D WRITEBACK ACCESS:          0  HIT:          0  MISS:          0
L1D PREFETCH  REQUESTED:          0  ISSUED:          0  USEFUL:          0  USELESS:          0
L1I TOTAL     ACCESS:  207185967  HIT:  207185967  MISS:          0
L1I LOAD      ACCESS:  207185967  HIT:  207185967  MISS:          0
L1I RFO       ACCESS:          0  HIT:          0  MISS:          0
L1I PREFETCH  ACCESS:          0  HIT:          0  MISS:          0
L1I WRITEBACK ACCESS:          0  HIT:          0  MISS:          0
L1I PREFETCH  REQUESTED:          0  ISSUED:          0  USEFUL:          0  USELESS:          0
L2C TOTAL     ACCESS:   36804570  HIT:   23714476  MISS:   13090094
L2C LOAD      ACCESS:   13220598  HIT:   12353276  MISS:     867322
L2C RFO       ACCESS:      13180  HIT:       1345  MISS:      11835
L2C PREFETCH  ACCESS:   14783615  HIT:    2572678  MISS:   12210937
L2C WRITEBACK ACCESS:    8787177  HIT:    8787177  MISS:          0
L2C PREFETCH  REQUESTED:   56334496  ISSUED:   56334496  USEFUL:   40052034  USELESS:     169226
LLC TOTAL     ACCESS:   22047686  HIT:   13265464  MISS:    8782222
LLC LOAD      ACCESS:     406208  HIT:     164176  MISS:     242032
LLC RFO       ACCESS:      11833  HIT:      11833  MISS:          0
LLC PREFETCH  ACCESS:   12847172  HIT:    4306986  MISS:    8540186
LLC WRITEBACK ACCESS:    8782473  HIT:    8782469  MISS:          4
LLC PREFETCH  REQUESTED:          0  ISSUED:          0  USEFUL:    4484361  USELESS:   45369380
Major fault: 0 Minor fault: 274488

CPU 3 cumulative IPC: 1.04122 instructions: 1000000002 cycles: 960411174
L1D TOTAL     ACCESS:  398382045  HIT:  318853966  MISS:   79528079
L1D LOAD      ACCESS:  319505185  HIT:  246567991  MISS:   72937194
L1D RFO       ACCESS:   78876860  HIT:   72285975  MISS:    6590885
L1D PREFETCH  ACCESS:          0  HIT:          0  MISS:          0
L1D WRITEBACK ACCESS:          0  HIT:          0  MISS:          0
L1D PREFETCH  REQUESTED:          0  ISSUED:          0  USEFUL:          0  USELESS:          0
L1I TOTAL     ACCESS:  233904038  HIT:  205073834  MISS:   28830204
L1I LOAD      ACCESS:  233904038  HIT:  205073834  MISS:   28830204
L1I RFO       ACCESS:          0  HIT:          0  MISS:          0
L1I PREFETCH  ACCESS:          0  HIT:          0  MISS:          0
L1I WRITEBACK ACCESS:          0  HIT:          0  MISS:          0
L1I PREFETCH  REQUESTED:          0  ISSUED:          0  USEFUL:          0  USELESS:          0
L2C TOTAL     ACCESS:  210095307  HIT:  199395595  MISS:   10699712
L2C LOAD      ACCESS:  101762087  HIT:  100137841  MISS:    1624246
L2C RFO       ACCESS:    6585775  HIT:    5678639  MISS:     907136
L2C PREFETCH  ACCESS:   94408270  HIT:   86249475  MISS:    8158795
L2C WRITEBACK ACCESS:    7339175  HIT:    7329640  MISS:       9535
L2C PREFETCH  REQUESTED:  420083120  ISSUED:  383630871  USEFUL:   18486715  USELESS:    5959061
LLC TOTAL     ACCESS:   18630314  HIT:   15903894  MISS:    2726420
LLC LOAD      ACCESS:    1548708  HIT:    1311543  MISS:     237165
LLC RFO       ACCESS:     820199  HIT:     234898  MISS:     585301
LLC PREFETCH  ACCESS:   15339459  HIT:   13440118  MISS:    1899341
LLC WRITEBACK ACCESS:     921948  HIT:     917335  MISS:       4613
LLC PREFETCH  REQUESTED:          0  ISSUED:          0  USEFUL:    4484361  USELESS:   45369380
Major fault: 0 Minor fault: 41749

Avg Lookahead Depth:	2.85927
TOTAL: 7.46343e+08	L2C: 5.50721e+08	LLC: 1.95622e+08	GOOD_L2C: 3.3779e+08
Printing all the perceptron weights to: perc_weights_0.csv

Avg Lookahead Depth:	2.85927
TOTAL: 7.46343e+08	L2C: 5.50721e+08	LLC: 1.95622e+08	GOOD_L2C: 3.3779e+08
Printing all the perceptron weights to: perc_weights_0.csv

Avg Lookahead Depth:	2.85927
TOTAL: 7.46343e+08	L2C: 5.50721e+08	LLC: 1.95622e+08	GOOD_L2C: 3.3779e+08
Printing all the perceptron weights to: perc_weights_0.csv

Avg Lookahead Depth:	2.85927
TOTAL: 7.46343e+08	L2C: 5.50721e+08	LLC: 1.95622e+08	GOOD_L2C: 3.3779e+08
Printing all the perceptron weights to: perc_weights_0.csv

DRAM Statistics
 CHANNEL 0
 RQ ROW_BUFFER_HIT:   15087936  ROW_BUFFER_MISS:   15975594
 DBUS_CONGESTED:   61701485
 WQ ROW_BUFFER_HIT:    3424343  ROW_BUFFER_MISS:   15432890  FULL:          0

 CHANNEL 1
 RQ ROW_BUFFER_HIT:   15042840  ROW_BUFFER_MISS:   16040786
 DBUS_CONGESTED:   61701485
 WQ ROW_BUFFER_HIT:    3418869  ROW_BUFFER_MISS:   15439230  FULL:          0

 AVG_CONGESTED_CYCLE: 14
