Initialize SIGNATURE TABLE
ST_SET: 1
ST_WAY: 256
ST_TAG_BIT: 16
ST_TAG_MASK: ffff

Initialize PATTERN TABLE
PT_SET: 512
PT_WAY: 4
SIG_DELTA_BIT: 7
C_SIG_BIT: 4
C_DELTA_BIT: 4

Initialize PREFETCH FILTER
FILTER_SET: 1024

Initialize PERCEPTRON
PERC_ENTRIES: 4096
PERC_FEATURES: 9

*** ChampSim Multicore Out-of-Order Simulator ***

Warmup Instructions: 200000000
Simulation Instructions: 1000000000
Number of CPUs: 4
LLC sets: 8192
LLC ways: 16
Off-chip DRAM Size: 8192 MB Channels: 2 Width: 64-bit Data Rate: 1600 MT/s

CPU 0 runs /scratch/user/djimenez/champsim-traces/speccpu2017/xz/621.wrf_s/621.wrf_s-8065B.champsimtrace.xz
CPU 1 runs /scratch/user/djimenez/champsim-traces/speccpu2017/xz/603.bwaves_s/603.bwaves_s-2609B.champsimtrace.xz
CPU 2 runs /scratch/user/djimenez/champsim-traces/speccpu2017/xz/619.lbm_s/619.lbm_s-2677B.champsimtrace.xz
CPU 3 runs /scratch/user/djimenez/champsim-traces/speccpu2017/xz/644.nab_s/644.nab_s-12459B.champsimtrace.xz
Heartbeat CPU 3 instructions: 10000000 cycles: 4636357 heartbeat IPC: 2.15687 cumulative IPC: 2.15687 (Simulation time: 0 hr 1 min 40 sec) 
Heartbeat CPU 0 instructions: 10000003 cycles: 4755921 heartbeat IPC: 2.10264 cumulative IPC: 2.10264 (Simulation time: 0 hr 1 min 43 sec) 
Heartbeat CPU 2 instructions: 10000001 cycles: 4924766 heartbeat IPC: 2.03055 cumulative IPC: 2.03055 (Simulation time: 0 hr 1 min 47 sec) 
Heartbeat CPU 1 instructions: 10000001 cycles: 5273969 heartbeat IPC: 1.89611 cumulative IPC: 1.89611 (Simulation time: 0 hr 1 min 54 sec) 
Heartbeat CPU 0 instructions: 20000000 cycles: 9266974 heartbeat IPC: 2.21678 cumulative IPC: 2.1582 (Simulation time: 0 hr 3 min 19 sec) 
Heartbeat CPU 3 instructions: 20000000 cycles: 9298002 heartbeat IPC: 2.14517 cumulative IPC: 2.151 (Simulation time: 0 hr 3 min 19 sec) 
Heartbeat CPU 2 instructions: 20000000 cycles: 9819038 heartbeat IPC: 2.0432 cumulative IPC: 2.03686 (Simulation time: 0 hr 3 min 31 sec) 
Heartbeat CPU 1 instructions: 20000000 cycles: 10549433 heartbeat IPC: 1.89557 cumulative IPC: 1.89584 (Simulation time: 0 hr 3 min 46 sec) 
Heartbeat CPU 0 instructions: 30000000 cycles: 13671751 heartbeat IPC: 2.27026 cumulative IPC: 2.19431 (Simulation time: 0 hr 4 min 54 sec) 
Heartbeat CPU 3 instructions: 30000001 cycles: 13992153 heartbeat IPC: 2.13031 cumulative IPC: 2.14406 (Simulation time: 0 hr 5 min 1 sec) 
Heartbeat CPU 2 instructions: 30000000 cycles: 14738900 heartbeat IPC: 2.03258 cumulative IPC: 2.03543 (Simulation time: 0 hr 5 min 17 sec) 
Heartbeat CPU 1 instructions: 30000000 cycles: 15821180 heartbeat IPC: 1.8969 cumulative IPC: 1.89619 (Simulation time: 0 hr 5 min 40 sec) 
Heartbeat CPU 0 instructions: 40000000 cycles: 18323332 heartbeat IPC: 2.14981 cumulative IPC: 2.18301 (Simulation time: 0 hr 6 min 33 sec) 
Heartbeat CPU 3 instructions: 40000000 cycles: 18644786 heartbeat IPC: 2.14932 cumulative IPC: 2.14537 (Simulation time: 0 hr 6 min 39 sec) 
Heartbeat CPU 2 instructions: 40000000 cycles: 19645503 heartbeat IPC: 2.03807 cumulative IPC: 2.03609 (Simulation time: 0 hr 7 min 1 sec) 
Heartbeat CPU 1 instructions: 40000000 cycles: 21095028 heartbeat IPC: 1.89615 cumulative IPC: 1.89618 (Simulation time: 0 hr 7 min 32 sec) 
Heartbeat CPU 0 instructions: 50000003 cycles: 22788038 heartbeat IPC: 2.23979 cumulative IPC: 2.19413 (Simulation time: 0 hr 8 min 9 sec) 
Heartbeat CPU 3 instructions: 50000002 cycles: 23345738 heartbeat IPC: 2.12723 cumulative IPC: 2.14172 (Simulation time: 0 hr 8 min 21 sec) 
Heartbeat CPU 2 instructions: 50000000 cycles: 24579426 heartbeat IPC: 2.02678 cumulative IPC: 2.03422 (Simulation time: 0 hr 8 min 47 sec) 
Heartbeat CPU 1 instructions: 50000002 cycles: 26371969 heartbeat IPC: 1.89504 cumulative IPC: 1.89595 (Simulation time: 0 hr 9 min 25 sec) 
Heartbeat CPU 0 instructions: 60000000 cycles: 27433348 heartbeat IPC: 2.15271 cumulative IPC: 2.18712 (Simulation time: 0 hr 9 min 48 sec) 
Heartbeat CPU 3 instructions: 60000000 cycles: 28113623 heartbeat IPC: 2.09737 cumulative IPC: 2.1342 (Simulation time: 0 hr 10 min 2 sec) 
Heartbeat CPU 2 instructions: 60000000 cycles: 29506473 heartbeat IPC: 2.02961 cumulative IPC: 2.03345 (Simulation time: 0 hr 10 min 32 sec) 
Heartbeat CPU 1 instructions: 60000000 cycles: 31645210 heartbeat IPC: 1.89637 cumulative IPC: 1.89602 (Simulation time: 0 hr 11 min 18 sec) 
Heartbeat CPU 0 instructions: 70000002 cycles: 31863608 heartbeat IPC: 2.2572 cumulative IPC: 2.19686 (Simulation time: 0 hr 11 min 23 sec) 
Heartbeat CPU 3 instructions: 70000001 cycles: 32938200 heartbeat IPC: 2.07272 cumulative IPC: 2.12519 (Simulation time: 0 hr 11 min 46 sec) 
Heartbeat CPU 2 instructions: 70000000 cycles: 34418633 heartbeat IPC: 2.03576 cumulative IPC: 2.03378 (Simulation time: 0 hr 12 min 17 sec) 
Heartbeat CPU 0 instructions: 80000000 cycles: 36542886 heartbeat IPC: 2.13708 cumulative IPC: 2.18921 (Simulation time: 0 hr 13 min 3 sec) 
Heartbeat CPU 1 instructions: 70000000 cycles: 36920332 heartbeat IPC: 1.89569 cumulative IPC: 1.89597 (Simulation time: 0 hr 13 min 11 sec) 
Heartbeat CPU 3 instructions: 80000000 cycles: 37742466 heartbeat IPC: 2.08148 cumulative IPC: 2.11963 (Simulation time: 0 hr 13 min 28 sec) 
Heartbeat CPU 2 instructions: 80000000 cycles: 39335842 heartbeat IPC: 2.03367 cumulative IPC: 2.03377 (Simulation time: 0 hr 14 min 2 sec) 
Heartbeat CPU 0 instructions: 90000000 cycles: 40979393 heartbeat IPC: 2.25403 cumulative IPC: 2.19623 (Simulation time: 0 hr 14 min 38 sec) 
Heartbeat CPU 1 instructions: 80000000 cycles: 42194928 heartbeat IPC: 1.89588 cumulative IPC: 1.89596 (Simulation time: 0 hr 15 min 4 sec) 
Heartbeat CPU 3 instructions: 90000000 cycles: 42505235 heartbeat IPC: 2.09962 cumulative IPC: 2.11739 (Simulation time: 0 hr 15 min 10 sec) 
Heartbeat CPU 2 instructions: 90000001 cycles: 44279605 heartbeat IPC: 2.02275 cumulative IPC: 2.03254 (Simulation time: 0 hr 15 min 48 sec) 
Heartbeat CPU 0 instructions: 100000000 cycles: 45652126 heartbeat IPC: 2.14008 cumulative IPC: 2.19048 (Simulation time: 0 hr 16 min 17 sec) 
Heartbeat CPU 3 instructions: 100000000 cycles: 47351113 heartbeat IPC: 2.06361 cumulative IPC: 2.11188 (Simulation time: 0 hr 16 min 54 sec) 
Heartbeat CPU 1 instructions: 90000002 cycles: 47467752 heartbeat IPC: 1.89652 cumulative IPC: 1.89602 (Simulation time: 0 hr 16 min 56 sec) 
Heartbeat CPU 2 instructions: 100000000 cycles: 49216879 heartbeat IPC: 2.02541 cumulative IPC: 2.03182 (Simulation time: 0 hr 17 min 33 sec) 
Heartbeat CPU 0 instructions: 110000001 cycles: 50094994 heartbeat IPC: 2.2508 cumulative IPC: 2.19583 (Simulation time: 0 hr 17 min 52 sec) 
Heartbeat CPU 3 instructions: 110000001 cycles: 52289510 heartbeat IPC: 2.02495 cumulative IPC: 2.10367 (Simulation time: 0 hr 18 min 40 sec) 
Heartbeat CPU 1 instructions: 100000000 cycles: 52742313 heartbeat IPC: 1.89589 cumulative IPC: 1.89601 (Simulation time: 0 hr 18 min 49 sec) 
Heartbeat CPU 2 instructions: 110000000 cycles: 54165964 heartbeat IPC: 2.02058 cumulative IPC: 2.0308 (Simulation time: 0 hr 19 min 19 sec) 
Heartbeat CPU 0 instructions: 120000000 cycles: 54832062 heartbeat IPC: 2.11101 cumulative IPC: 2.1885 (Simulation time: 0 hr 19 min 33 sec) 
Heartbeat CPU 3 instructions: 120000000 cycles: 57303182 heartbeat IPC: 1.99455 cumulative IPC: 2.09412 (Simulation time: 0 hr 20 min 24 sec) 
Heartbeat CPU 1 instructions: 110000002 cycles: 58017888 heartbeat IPC: 1.89553 cumulative IPC: 1.89597 (Simulation time: 0 hr 20 min 39 sec) 
Heartbeat CPU 2 instructions: 120000000 cycles: 59092129 heartbeat IPC: 2.02998 cumulative IPC: 2.03073 (Simulation time: 0 hr 21 min 1 sec) 
Heartbeat CPU 0 instructions: 130000001 cycles: 59786669 heartbeat IPC: 2.01832 cumulative IPC: 2.1744 (Simulation time: 0 hr 21 min 16 sec) 
Heartbeat CPU 3 instructions: 130000001 cycles: 62228370 heartbeat IPC: 2.03038 cumulative IPC: 2.08908 (Simulation time: 0 hr 22 min 6 sec) 
Heartbeat CPU 1 instructions: 120000000 cycles: 63291614 heartbeat IPC: 1.89619 cumulative IPC: 1.89599 (Simulation time: 0 hr 22 min 28 sec) 
Heartbeat CPU 2 instructions: 130000000 cycles: 64013717 heartbeat IPC: 2.03186 cumulative IPC: 2.03081 (Simulation time: 0 hr 22 min 43 sec) 
Heartbeat CPU 0 instructions: 140000000 cycles: 64742086 heartbeat IPC: 2.01799 cumulative IPC: 2.16243 (Simulation time: 0 hr 22 min 59 sec) 
Heartbeat CPU 3 instructions: 140000000 cycles: 67066616 heartbeat IPC: 2.06686 cumulative IPC: 2.08748 (Simulation time: 0 hr 23 min 47 sec) 
Heartbeat CPU 1 instructions: 130000002 cycles: 68567074 heartbeat IPC: 1.89557 cumulative IPC: 1.89595 (Simulation time: 0 hr 24 min 18 sec) 
Heartbeat CPU 2 instructions: 140000000 cycles: 68951161 heartbeat IPC: 2.02534 cumulative IPC: 2.03042 (Simulation time: 0 hr 24 min 26 sec) 
Heartbeat CPU 0 instructions: 150000002 cycles: 69805617 heartbeat IPC: 1.97491 cumulative IPC: 2.14882 (Simulation time: 0 hr 24 min 44 sec) 
Heartbeat CPU 3 instructions: 150000000 cycles: 71902628 heartbeat IPC: 2.06782 cumulative IPC: 2.08615 (Simulation time: 0 hr 25 min 30 sec) 
Heartbeat CPU 1 instructions: 140000000 cycles: 73841085 heartbeat IPC: 1.89609 cumulative IPC: 1.89596 (Simulation time: 0 hr 26 min 12 sec) 
Heartbeat CPU 2 instructions: 150000001 cycles: 73898710 heartbeat IPC: 2.0212 cumulative IPC: 2.02981 (Simulation time: 0 hr 26 min 13 sec) 
Heartbeat CPU 0 instructions: 160000000 cycles: 74089717 heartbeat IPC: 2.33421 cumulative IPC: 2.15954 (Simulation time: 0 hr 26 min 17 sec) 
Heartbeat CPU 3 instructions: 160000000 cycles: 76733769 heartbeat IPC: 2.0699 cumulative IPC: 2.08513 (Simulation time: 0 hr 27 min 14 sec) 
Heartbeat CPU 2 instructions: 160000000 cycles: 78821305 heartbeat IPC: 2.03145 cumulative IPC: 2.02991 (Simulation time: 0 hr 27 min 59 sec) 
Heartbeat CPU 1 instructions: 150000002 cycles: 79115231 heartbeat IPC: 1.89604 cumulative IPC: 1.89597 (Simulation time: 0 hr 28 min 5 sec) 
Heartbeat CPU 0 instructions: 170000000 cycles: 79138411 heartbeat IPC: 1.98071 cumulative IPC: 2.14814 (Simulation time: 0 hr 28 min 6 sec) 
Heartbeat CPU 3 instructions: 170000003 cycles: 81577661 heartbeat IPC: 2.06446 cumulative IPC: 2.0839 (Simulation time: 0 hr 28 min 58 sec) 
Heartbeat CPU 2 instructions: 170000003 cycles: 83736071 heartbeat IPC: 2.03469 cumulative IPC: 2.03019 (Simulation time: 0 hr 29 min 44 sec) 
Heartbeat CPU 0 instructions: 180000000 cycles: 84033777 heartbeat IPC: 2.04275 cumulative IPC: 2.142 (Simulation time: 0 hr 29 min 50 sec) 
Heartbeat CPU 1 instructions: 160000000 cycles: 84389094 heartbeat IPC: 1.89614 cumulative IPC: 1.89598 (Simulation time: 0 hr 29 min 58 sec) 
Heartbeat CPU 3 instructions: 180000000 cycles: 86387768 heartbeat IPC: 2.07896 cumulative IPC: 2.08363 (Simulation time: 0 hr 30 min 40 sec) 
Heartbeat CPU 2 instructions: 180000000 cycles: 88616039 heartbeat IPC: 2.04919 cumulative IPC: 2.03123 (Simulation time: 0 hr 31 min 28 sec) 
Heartbeat CPU 0 instructions: 190000003 cycles: 88908303 heartbeat IPC: 2.05148 cumulative IPC: 2.13703 (Simulation time: 0 hr 31 min 34 sec) 
Heartbeat CPU 1 instructions: 170000002 cycles: 89663233 heartbeat IPC: 1.89604 cumulative IPC: 1.89598 (Simulation time: 0 hr 31 min 50 sec) 
Heartbeat CPU 3 instructions: 190000000 cycles: 91154156 heartbeat IPC: 2.09802 cumulative IPC: 2.08438 (Simulation time: 0 hr 32 min 22 sec) 
Heartbeat CPU 2 instructions: 190000001 cycles: 93544515 heartbeat IPC: 2.02903 cumulative IPC: 2.03112 (Simulation time: 0 hr 33 min 13 sec) 
Heartbeat CPU 0 instructions: 200000000 cycles: 93806182 heartbeat IPC: 2.0417 cumulative IPC: 2.13206 (Simulation time: 0 hr 33 min 19 sec) 
Heartbeat CPU 1 instructions: 180000000 cycles: 94937379 heartbeat IPC: 1.89604 cumulative IPC: 1.89599 (Simulation time: 0 hr 33 min 43 sec) 
Heartbeat CPU 3 instructions: 200000000 cycles: 95930857 heartbeat IPC: 2.0935 cumulative IPC: 2.08483 (Simulation time: 0 hr 34 min 5 sec) 
Heartbeat CPU 0 instructions: 210000003 cycles: 98430203 heartbeat IPC: 2.16262 cumulative IPC: 0.101595 (Simulation time: 0 hr 34 min 58 sec) 
Heartbeat CPU 2 instructions: 200000000 cycles: 98457207 heartbeat IPC: 2.03554 cumulative IPC: 2.03134 (Simulation time: 0 hr 34 min 58 sec) 
Heartbeat CPU 1 instructions: 190000000 cycles: 100212230 heartbeat IPC: 1.89579 cumulative IPC: 1.89598 (Simulation time: 0 hr 35 min 36 sec) 
Heartbeat CPU 3 instructions: 210000000 cycles: 100726687 heartbeat IPC: 2.08514 cumulative IPC: 0.0992786 (Simulation time: 0 hr 35 min 47 sec) 
Heartbeat CPU 0 instructions: 220000000 cycles: 103130233 heartbeat IPC: 2.12765 cumulative IPC: 0.19393 (Simulation time: 0 hr 36 min 39 sec) 
Heartbeat CPU 2 instructions: 210000002 cycles: 103366259 heartbeat IPC: 2.03705 cumulative IPC: 0.0967434 (Simulation time: 0 hr 36 min 44 sec) 
Heartbeat CPU 1 instructions: 200000000 cycles: 105486470 heartbeat IPC: 1.89601 cumulative IPC: 1.89598 (Simulation time: 0 hr 37 min 29 sec) 

Warmup complete CPU 0 instructions: 225264655 cycles: 105486471 (Simulation time: 0 hr 37 min 29 sec) 
Warmup complete CPU 1 instructions: 200000001 cycles: 105486471 (Simulation time: 0 hr 37 min 29 sec) 
Warmup complete CPU 2 instructions: 214311314 cycles: 105486470 (Simulation time: 0 hr 37 min 29 sec) 
Warmup complete CPU 3 instructions: 219905105 cycles: 105486470 (Simulation time: 0 hr 37 min 29 sec) 

Heartbeat CPU 3 instructions: 220000000 cycles: 105663014 heartbeat IPC: 2.0258 cumulative IPC: 0.537515 (Simulation time: 0 hr 37 min 31 sec) 
Heartbeat CPU 0 instructions: 230000000 cycles: 110704618 heartbeat IPC: 1.32024 cumulative IPC: 0.907476 (Simulation time: 0 hr 38 min 30 sec) 
Heartbeat CPU 1 instructions: 210000002 cycles: 114172480 heartbeat IPC: 1.15128 cumulative IPC: 1.15128 (Simulation time: 0 hr 39 min 13 sec) 
Heartbeat CPU 2 instructions: 220000000 cycles: 117134798 heartbeat IPC: 0.726293 cumulative IPC: 0.488369 (Simulation time: 0 hr 39 min 48 sec) 
Heartbeat CPU 0 instructions: 240000000 cycles: 120490177 heartbeat IPC: 1.02191 cumulative IPC: 0.982114 (Simulation time: 0 hr 40 min 28 sec) 
Heartbeat CPU 3 instructions: 230000003 cycles: 122344722 heartbeat IPC: 0.599459 cumulative IPC: 0.59881 (Simulation time: 0 hr 40 min 49 sec) 
Heartbeat CPU 1 instructions: 220000000 cycles: 122847541 heartbeat IPC: 1.15273 cumulative IPC: 1.152 (Simulation time: 0 hr 40 min 55 sec) 
Heartbeat CPU 1 instructions: 230000001 cycles: 131116761 heartbeat IPC: 1.2093 cumulative IPC: 1.17049 (Simulation time: 0 hr 42 min 32 sec) 
Heartbeat CPU 0 instructions: 250000003 cycles: 134005275 heartbeat IPC: 0.739913 cumulative IPC: 0.867335 (Simulation time: 0 hr 43 min 6 sec) 
Heartbeat CPU 2 instructions: 230000003 cycles: 136443931 heartbeat IPC: 0.51789 cumulative IPC: 0.506782 (Simulation time: 0 hr 43 min 37 sec) 
Heartbeat CPU 3 instructions: 240000000 cycles: 137665928 heartbeat IPC: 0.65269 cumulative IPC: 0.624463 (Simulation time: 0 hr 43 min 52 sec) 
Heartbeat CPU 1 instructions: 240000000 cycles: 139743867 heartbeat IPC: 1.15914 cumulative IPC: 1.16763 (Simulation time: 0 hr 44 min 17 sec) 
Heartbeat CPU 0 instructions: 260000000 cycles: 142621068 heartbeat IPC: 1.16066 cumulative IPC: 0.93539 (Simulation time: 0 hr 44 min 51 sec) 
Heartbeat CPU 1 instructions: 250000001 cycles: 148430315 heartbeat IPC: 1.15122 cumulative IPC: 1.16431 (Simulation time: 0 hr 46 min 1 sec) 
Heartbeat CPU 0 instructions: 270000000 cycles: 151050530 heartbeat IPC: 1.18632 cumulative IPC: 0.981812 (Simulation time: 0 hr 46 min 33 sec) 
Heartbeat CPU 3 instructions: 250000001 cycles: 153654104 heartbeat IPC: 0.625462 cumulative IPC: 0.624795 (Simulation time: 0 hr 47 min 4 sec) 
Heartbeat CPU 1 instructions: 260000000 cycles: 157364661 heartbeat IPC: 1.11928 cumulative IPC: 1.15656 (Simulation time: 0 hr 47 min 41 sec) 
Heartbeat CPU 2 instructions: 240000000 cycles: 158094998 heartbeat IPC: 0.461871 cumulative IPC: 0.488299 (Simulation time: 0 hr 47 min 48 sec) 
Heartbeat CPU 0 instructions: 280000000 cycles: 165721098 heartbeat IPC: 0.681637 cumulative IPC: 0.908702 (Simulation time: 0 hr 49 min 9 sec) 
Heartbeat CPU 1 instructions: 270000003 cycles: 166906023 heartbeat IPC: 1.04807 cumulative IPC: 1.1397 (Simulation time: 0 hr 49 min 22 sec) 
Heartbeat CPU 3 instructions: 260000000 cycles: 170738277 heartbeat IPC: 0.585337 cumulative IPC: 0.614464 (Simulation time: 0 hr 50 min 4 sec) 
Heartbeat CPU 1 instructions: 280000000 cycles: 175739318 heartbeat IPC: 1.13208 cumulative IPC: 1.13874 (Simulation time: 0 hr 51 min 3 sec) 
Heartbeat CPU 0 instructions: 290000002 cycles: 177253379 heartbeat IPC: 0.867131 cumulative IPC: 0.902022 (Simulation time: 0 hr 51 min 21 sec) 
Heartbeat CPU 2 instructions: 250000003 cycles: 179945714 heartbeat IPC: 0.457651 cumulative IPC: 0.479305 (Simulation time: 0 hr 51 min 53 sec) 
Heartbeat CPU 1 instructions: 290000003 cycles: 184388983 heartbeat IPC: 1.15611 cumulative IPC: 1.14065 (Simulation time: 0 hr 52 min 45 sec) 
Heartbeat CPU 3 instructions: 270000002 cycles: 186170665 heartbeat IPC: 0.647988 cumulative IPC: 0.620876 (Simulation time: 0 hr 53 min 5 sec) 
Heartbeat CPU 0 instructions: 300000000 cycles: 188871526 heartbeat IPC: 0.860722 cumulative IPC: 0.896268 (Simulation time: 0 hr 53 min 37 sec) 
Heartbeat CPU 1 instructions: 300000000 cycles: 192958022 heartbeat IPC: 1.16699 cumulative IPC: 1.14323 (Simulation time: 0 hr 54 min 25 sec) 
Heartbeat CPU 2 instructions: 260000000 cycles: 200905079 heartbeat IPC: 0.477114 cumulative IPC: 0.478824 (Simulation time: 0 hr 55 min 50 sec) 
Heartbeat CPU 1 instructions: 310000001 cycles: 201908160 heartbeat IPC: 1.1173 cumulative IPC: 1.14082 (Simulation time: 0 hr 56 min 2 sec) 
Heartbeat CPU 3 instructions: 280000000 cycles: 202272312 heartbeat IPC: 0.621054 cumulative IPC: 0.620906 (Simulation time: 0 hr 56 min 6 sec) 
Heartbeat CPU 0 instructions: 310000002 cycles: 202549668 heartbeat IPC: 0.731094 cumulative IPC: 0.872992 (Simulation time: 0 hr 56 min 9 sec) 
Heartbeat CPU 1 instructions: 320000000 cycles: 210656312 heartbeat IPC: 1.1431 cumulative IPC: 1.14101 (Simulation time: 0 hr 57 min 45 sec) 
Heartbeat CPU 0 instructions: 320000000 cycles: 213288743 heartbeat IPC: 0.931179 cumulative IPC: 0.878788 (Simulation time: 0 hr 58 min 17 sec) 
Heartbeat CPU 3 instructions: 290000001 cycles: 217812320 heartbeat IPC: 0.6435 cumulative IPC: 0.624032 (Simulation time: 0 hr 59 min 9 sec) 
Heartbeat CPU 1 instructions: 330000002 cycles: 219299315 heartbeat IPC: 1.15701 cumulative IPC: 1.14223 (Simulation time: 0 hr 59 min 26 sec) 
Heartbeat CPU 2 instructions: 270000001 cycles: 221100019 heartbeat IPC: 0.495174 cumulative IPC: 0.48168 (Simulation time: 0 hr 59 min 47 sec) 
Heartbeat CPU 0 instructions: 330000000 cycles: 224762285 heartbeat IPC: 0.87157 cumulative IPC: 0.878094 (Simulation time: 1 hr 0 min 31 sec) 
Heartbeat CPU 1 instructions: 340000000 cycles: 227896457 heartbeat IPC: 1.16318 cumulative IPC: 1.1437 (Simulation time: 1 hr 1 min 6 sec) 
Heartbeat CPU 3 instructions: 300000000 cycles: 233371341 heartbeat IPC: 0.642714 cumulative IPC: 0.626305 (Simulation time: 1 hr 2 min 5 sec) 
Heartbeat CPU 1 instructions: 350000000 cycles: 237125319 heartbeat IPC: 1.08356 cumulative IPC: 1.13948 (Simulation time: 1 hr 2 min 45 sec) 
Heartbeat CPU 0 instructions: 340000000 cycles: 241075794 heartbeat IPC: 0.612989 cumulative IPC: 0.846197 (Simulation time: 1 hr 3 min 28 sec) 
Heartbeat CPU 2 instructions: 280000000 cycles: 242145897 heartbeat IPC: 0.475152 cumulative IPC: 0.480674 (Simulation time: 1 hr 3 min 41 sec) 
Heartbeat CPU 1 instructions: 360000000 cycles: 245878793 heartbeat IPC: 1.1424 cumulative IPC: 1.13966 (Simulation time: 1 hr 4 min 29 sec) 
Heartbeat CPU 0 instructions: 350000002 cycles: 248701964 heartbeat IPC: 1.31127 cumulative IPC: 0.870963 (Simulation time: 1 hr 5 min 4 sec) 
Heartbeat CPU 3 instructions: 310000002 cycles: 248888157 heartbeat IPC: 0.644462 cumulative IPC: 0.628269 (Simulation time: 1 hr 5 min 7 sec) 
Heartbeat CPU 1 instructions: 370000000 cycles: 254403212 heartbeat IPC: 1.1731 cumulative IPC: 1.14158 (Simulation time: 1 hr 6 min 12 sec) 
Heartbeat CPU 0 instructions: 360000000 cycles: 258385020 heartbeat IPC: 1.03273 cumulative IPC: 0.881207 (Simulation time: 1 hr 7 min 0 sec) 
Heartbeat CPU 2 instructions: 290000002 cycles: 261311461 heartbeat IPC: 0.521769 cumulative IPC: 0.485729 (Simulation time: 1 hr 7 min 37 sec) 
Heartbeat CPU 1 instructions: 380000000 cycles: 262875878 heartbeat IPC: 1.18027 cumulative IPC: 1.14366 (Simulation time: 1 hr 7 min 57 sec) 
Heartbeat CPU 3 instructions: 320000000 cycles: 264514202 heartbeat IPC: 0.639957 cumulative IPC: 0.629418 (Simulation time: 1 hr 8 min 18 sec) 
Heartbeat CPU 0 instructions: 370000003 cycles: 266159453 heartbeat IPC: 1.28627 cumulative IPC: 0.900807 (Simulation time: 1 hr 8 min 38 sec) 
Heartbeat CPU 1 instructions: 390000003 cycles: 271491113 heartbeat IPC: 1.16073 cumulative IPC: 1.14455 (Simulation time: 1 hr 9 min 38 sec) 
Heartbeat CPU 0 instructions: 380000000 cycles: 275922550 heartbeat IPC: 1.02426 cumulative IPC: 0.907879 (Simulation time: 1 hr 10 min 34 sec) 
Heartbeat CPU 1 instructions: 400000000 cycles: 279917155 heartbeat IPC: 1.1868 cumulative IPC: 1.14659 (Simulation time: 1 hr 11 min 25 sec) 
Heartbeat CPU 3 instructions: 330000003 cycles: 280177140 heartbeat IPC: 0.63845 cumulative IPC: 0.630228 (Simulation time: 1 hr 11 min 28 sec) 
Heartbeat CPU 2 instructions: 300000000 cycles: 280377117 heartbeat IPC: 0.524503 cumulative IPC: 0.489956 (Simulation time: 1 hr 11 min 31 sec) 
Heartbeat CPU 0 instructions: 390000001 cycles: 285692733 heartbeat IPC: 1.02352 cumulative IPC: 0.914149 (Simulation time: 1 hr 12 min 30 sec) 
Heartbeat CPU 1 instructions: 410000000 cycles: 288590694 heartbeat IPC: 1.15293 cumulative IPC: 1.14689 (Simulation time: 1 hr 13 min 7 sec) 
Heartbeat CPU 0 instructions: 400000000 cycles: 293213514 heartbeat IPC: 1.32965 cumulative IPC: 0.930795 (Simulation time: 1 hr 14 min 6 sec) 
Heartbeat CPU 3 instructions: 340000000 cycles: 295888892 heartbeat IPC: 0.636466 cumulative IPC: 0.630742 (Simulation time: 1 hr 14 min 40 sec) 
Heartbeat CPU 1 instructions: 420000000 cycles: 296999996 heartbeat IPC: 1.18916 cumulative IPC: 1.14874 (Simulation time: 1 hr 14 min 53 sec) 
Heartbeat CPU 2 instructions: 310000001 cycles: 299565034 heartbeat IPC: 0.521161 cumulative IPC: 0.493041 (Simulation time: 1 hr 15 min 21 sec) 
Heartbeat CPU 0 instructions: 410000000 cycles: 303124947 heartbeat IPC: 1.00894 cumulative IPC: 0.934713 (Simulation time: 1 hr 16 min 3 sec) 
Heartbeat CPU 1 instructions: 430000000 cycles: 305641742 heartbeat IPC: 1.15717 cumulative IPC: 1.14911 (Simulation time: 1 hr 16 min 36 sec) 
Heartbeat CPU 0 instructions: 420000000 cycles: 310839602 heartbeat IPC: 1.29623 cumulative IPC: 0.948295 (Simulation time: 1 hr 17 min 42 sec) 
Heartbeat CPU 3 instructions: 350000003 cycles: 311676725 heartbeat IPC: 0.633399 cumulative IPC: 0.630946 (Simulation time: 1 hr 17 min 52 sec) 
Heartbeat CPU 1 instructions: 440000000 cycles: 314135153 heartbeat IPC: 1.17738 cumulative IPC: 1.15026 (Simulation time: 1 hr 18 min 20 sec) 
Heartbeat CPU 2 instructions: 320000000 cycles: 318258717 heartbeat IPC: 0.53494 cumulative IPC: 0.496722 (Simulation time: 1 hr 19 min 5 sec) 
Heartbeat CPU 1 instructions: 450000002 cycles: 322552684 heartbeat IPC: 1.188 cumulative IPC: 1.15172 (Simulation time: 1 hr 19 min 55 sec) 
Heartbeat CPU 0 instructions: 430000001 cycles: 325106203 heartbeat IPC: 0.700938 cumulative IPC: 0.932227 (Simulation time: 1 hr 20 min 24 sec) 
Heartbeat CPU 3 instructions: 360000000 cycles: 327255996 heartbeat IPC: 0.641878 cumulative IPC: 0.631714 (Simulation time: 1 hr 20 min 49 sec) 
Heartbeat CPU 1 instructions: 460000000 cycles: 330873005 heartbeat IPC: 1.20188 cumulative IPC: 1.15357 (Simulation time: 1 hr 21 min 30 sec) 
Heartbeat CPU 2 instructions: 330000001 cycles: 335582618 heartbeat IPC: 0.577237 cumulative IPC: 0.502784 (Simulation time: 1 hr 22 min 24 sec) 
Heartbeat CPU 1 instructions: 470000000 cycles: 339166941 heartbeat IPC: 1.2057 cumulative IPC: 1.15542 (Simulation time: 1 hr 23 min 6 sec) 
Heartbeat CPU 0 instructions: 440000000 cycles: 340341435 heartbeat IPC: 0.656373 cumulative IPC: 0.914332 (Simulation time: 1 hr 23 min 19 sec) 
Heartbeat CPU 3 instructions: 370000001 cycles: 342345864 heartbeat IPC: 0.662696 cumulative IPC: 0.633688 (Simulation time: 1 hr 23 min 42 sec) 
Heartbeat CPU 1 instructions: 480000000 cycles: 347453383 heartbeat IPC: 1.20679 cumulative IPC: 1.15718 (Simulation time: 1 hr 24 min 41 sec) 
Heartbeat CPU 2 instructions: 340000000 cycles: 353062942 heartbeat IPC: 0.572072 cumulative IPC: 0.507676 (Simulation time: 1 hr 25 min 45 sec) 
Heartbeat CPU 0 instructions: 450000000 cycles: 355580343 heartbeat IPC: 0.656215 cumulative IPC: 0.898604 (Simulation time: 1 hr 26 min 14 sec) 
Heartbeat CPU 1 instructions: 490000001 cycles: 355718979 heartbeat IPC: 1.20983 cumulative IPC: 1.15892 (Simulation time: 1 hr 26 min 16 sec) 
Heartbeat CPU 3 instructions: 380000000 cycles: 357674515 heartbeat IPC: 0.652373 cumulative IPC: 0.634824 (Simulation time: 1 hr 26 min 38 sec) 
Heartbeat CPU 1 instructions: 500000000 cycles: 364044775 heartbeat IPC: 1.20109 cumulative IPC: 1.16028 (Simulation time: 1 hr 27 min 51 sec) 
Heartbeat CPU 2 instructions: 350000000 cycles: 371320168 heartbeat IPC: 0.547728 cumulative IPC: 0.510427 (Simulation time: 1 hr 29 min 11 sec) 
Heartbeat CPU 0 instructions: 460000000 cycles: 372491043 heartbeat IPC: 0.591342 cumulative IPC: 0.879144 (Simulation time: 1 hr 29 min 22 sec) 
Heartbeat CPU 1 instructions: 510000001 cycles: 372711290 heartbeat IPC: 1.15387 cumulative IPC: 1.16007 (Simulation time: 1 hr 29 min 25 sec) 
Heartbeat CPU 3 instructions: 390000000 cycles: 372918386 heartbeat IPC: 0.656001 cumulative IPC: 0.636031 (Simulation time: 1 hr 29 min 27 sec) 
Heartbeat CPU 1 instructions: 520000000 cycles: 381459751 heartbeat IPC: 1.14306 cumulative IPC: 1.15953 (Simulation time: 1 hr 31 min 8 sec) 
Heartbeat CPU 0 instructions: 470000000 cycles: 381973379 heartbeat IPC: 1.05459 cumulative IPC: 0.885161 (Simulation time: 1 hr 31 min 14 sec) 
Heartbeat CPU 3 instructions: 400000000 cycles: 388647129 heartbeat IPC: 0.635779 cumulative IPC: 0.636017 (Simulation time: 1 hr 32 min 25 sec) 
Heartbeat CPU 1 instructions: 530000002 cycles: 390537414 heartbeat IPC: 1.10161 cumulative IPC: 1.15769 (Simulation time: 1 hr 32 min 42 sec) 
Heartbeat CPU 2 instructions: 360000000 cycles: 392444335 heartbeat IPC: 0.473391 cumulative IPC: 0.507701 (Simulation time: 1 hr 33 min 1 sec) 
Heartbeat CPU 0 instructions: 480000000 cycles: 396606445 heartbeat IPC: 0.683384 cumulative IPC: 0.875018 (Simulation time: 1 hr 33 min 54 sec) 
Heartbeat CPU 1 instructions: 540000000 cycles: 399272475 heartbeat IPC: 1.14481 cumulative IPC: 1.15731 (Simulation time: 1 hr 34 min 28 sec) 
Heartbeat CPU 3 instructions: 410000001 cycles: 404071561 heartbeat IPC: 0.648322 cumulative IPC: 0.636652 (Simulation time: 1 hr 35 min 27 sec) 
Heartbeat CPU 0 instructions: 490000003 cycles: 405102253 heartbeat IPC: 1.17705 cumulative IPC: 0.883583 (Simulation time: 1 hr 35 min 40 sec) 
Heartbeat CPU 1 instructions: 550000000 cycles: 407666208 heartbeat IPC: 1.19137 cumulative IPC: 1.15825 (Simulation time: 1 hr 36 min 12 sec) 
Heartbeat CPU 2 instructions: 370000000 cycles: 411494044 heartbeat IPC: 0.524942 cumulative IPC: 0.508774 (Simulation time: 1 hr 37 min 1 sec) 
Heartbeat CPU 0 instructions: 500000000 cycles: 413142396 heartbeat IPC: 1.24376 cumulative IPC: 0.892995 (Simulation time: 1 hr 37 min 22 sec) 
Heartbeat CPU 1 instructions: 560000000 cycles: 416022835 heartbeat IPC: 1.19666 cumulative IPC: 1.15928 (Simulation time: 1 hr 37 min 58 sec) 
Heartbeat CPU 3 instructions: 420000000 cycles: 419276689 heartbeat IPC: 0.657673 cumulative IPC: 0.637671 (Simulation time: 1 hr 38 min 39 sec) 
Heartbeat CPU 0 instructions: 510000000 cycles: 421583745 heartbeat IPC: 1.18464 cumulative IPC: 0.900784 (Simulation time: 1 hr 39 min 8 sec) 
Heartbeat CPU 1 instructions: 570000003 cycles: 424386861 heartbeat IPC: 1.1956 cumulative IPC: 1.16024 (Simulation time: 1 hr 39 min 44 sec) 
Heartbeat CPU 0 instructions: 520000000 cycles: 429458901 heartbeat IPC: 1.26982 cumulative IPC: 0.909754 (Simulation time: 1 hr 40 min 47 sec) 
Heartbeat CPU 2 instructions: 380000000 cycles: 430407317 heartbeat IPC: 0.528729 cumulative IPC: 0.509936 (Simulation time: 1 hr 40 min 59 sec) 
Heartbeat CPU 1 instructions: 580000000 cycles: 432761289 heartbeat IPC: 1.19411 cumulative IPC: 1.1611 (Simulation time: 1 hr 41 min 30 sec) 
Heartbeat CPU 3 instructions: 430000001 cycles: 434478014 heartbeat IPC: 0.657837 cumulative IPC: 0.638603 (Simulation time: 1 hr 41 min 51 sec) 
Heartbeat CPU 0 instructions: 530000003 cycles: 437396348 heartbeat IPC: 1.25985 cumulative IPC: 0.918127 (Simulation time: 1 hr 42 min 28 sec) 
Heartbeat CPU 1 instructions: 590000003 cycles: 441148773 heartbeat IPC: 1.19225 cumulative IPC: 1.16188 (Simulation time: 1 hr 43 min 15 sec) 
Heartbeat CPU 0 instructions: 540000000 cycles: 446655066 heartbeat IPC: 1.08006 cumulative IPC: 0.922521 (Simulation time: 1 hr 44 min 22 sec) 
Heartbeat CPU 2 instructions: 390000001 cycles: 449214674 heartbeat IPC: 0.531707 cumulative IPC: 0.511127 (Simulation time: 1 hr 44 min 54 sec) 
Heartbeat CPU 1 instructions: 600000000 cycles: 449759602 heartbeat IPC: 1.16133 cumulative IPC: 1.16187 (Simulation time: 1 hr 45 min 0 sec) 
Heartbeat CPU 3 instructions: 440000000 cycles: 450106379 heartbeat IPC: 0.639862 cumulative IPC: 0.63866 (Simulation time: 1 hr 45 min 4 sec) 
Heartbeat CPU 0 instructions: 550000000 cycles: 456478098 heartbeat IPC: 1.01802 cumulative IPC: 0.925194 (Simulation time: 1 hr 46 min 20 sec) 
Heartbeat CPU 1 instructions: 610000002 cycles: 458355931 heartbeat IPC: 1.16329 cumulative IPC: 1.1619 (Simulation time: 1 hr 46 min 42 sec) 
Heartbeat CPU 3 instructions: 450000002 cycles: 465554263 heartbeat IPC: 0.647338 cumulative IPC: 0.639032 (Simulation time: 1 hr 48 min 8 sec) 
Heartbeat CPU 1 instructions: 620000000 cycles: 466616643 heartbeat IPC: 1.21055 cumulative IPC: 1.16302 (Simulation time: 1 hr 48 min 20 sec) 
Heartbeat CPU 2 instructions: 400000000 cycles: 468215599 heartbeat IPC: 0.52629 cumulative IPC: 0.511921 (Simulation time: 1 hr 48 min 39 sec) 
Heartbeat CPU 0 instructions: 560000000 cycles: 469861238 heartbeat IPC: 0.747209 cumulative IPC: 0.918657 (Simulation time: 1 hr 48 min 59 sec) 
Heartbeat CPU 1 instructions: 630000000 cycles: 475224653 heartbeat IPC: 1.16171 cumulative IPC: 1.16299 (Simulation time: 1 hr 50 min 5 sec) 
Heartbeat CPU 0 instructions: 570000002 cycles: 478461943 heartbeat IPC: 1.1627 cumulative IPC: 0.924284 (Simulation time: 1 hr 50 min 45 sec) 
Heartbeat CPU 3 instructions: 460000000 cycles: 480742457 heartbeat IPC: 0.658406 cumulative IPC: 0.639816 (Simulation time: 1 hr 51 min 14 sec) 
Heartbeat CPU 1 instructions: 640000000 cycles: 483851661 heartbeat IPC: 1.15915 cumulative IPC: 1.1629 (Simulation time: 1 hr 51 min 51 sec) 
Heartbeat CPU 0 instructions: 580000000 cycles: 486898425 heartbeat IPC: 1.18533 cumulative IPC: 0.930058 (Simulation time: 1 hr 52 min 28 sec) 
Heartbeat CPU 2 instructions: 410000000 cycles: 488236824 heartbeat IPC: 0.49947 cumulative IPC: 0.51127 (Simulation time: 1 hr 52 min 45 sec) 
Heartbeat CPU 1 instructions: 650000002 cycles: 492724217 heartbeat IPC: 1.12707 cumulative IPC: 1.16208 (Simulation time: 1 hr 53 min 32 sec) 
Heartbeat CPU 3 instructions: 470000002 cycles: 496384977 heartbeat IPC: 0.639283 cumulative IPC: 0.639795 (Simulation time: 1 hr 54 min 9 sec) 
Heartbeat CPU 0 instructions: 590000001 cycles: 501490522 heartbeat IPC: 0.685303 cumulative IPC: 0.921039 (Simulation time: 1 hr 55 min 7 sec) 
Heartbeat CPU 1 instructions: 660000000 cycles: 502154451 heartbeat IPC: 1.06042 cumulative IPC: 1.15966 (Simulation time: 1 hr 55 min 15 sec) 
Heartbeat CPU 2 instructions: 420000000 cycles: 509240252 heartbeat IPC: 0.476113 cumulative IPC: 0.509441 (Simulation time: 1 hr 56 min 35 sec) 
Heartbeat CPU 1 instructions: 670000003 cycles: 510977098 heartbeat IPC: 1.13345 cumulative IPC: 1.15909 (Simulation time: 1 hr 56 min 56 sec) 
Heartbeat CPU 3 instructions: 480000000 cycles: 512000133 heartbeat IPC: 0.640403 cumulative IPC: 0.639818 (Simulation time: 1 hr 57 min 8 sec) 
Heartbeat CPU 0 instructions: 600000000 cycles: 513113421 heartbeat IPC: 0.86037 cumulative IPC: 0.91931 (Simulation time: 1 hr 57 min 21 sec) 
Heartbeat CPU 1 instructions: 680000000 cycles: 519564634 heartbeat IPC: 1.16448 cumulative IPC: 1.1592 (Simulation time: 1 hr 58 min 38 sec) 
Heartbeat CPU 0 instructions: 610000002 cycles: 524712541 heartbeat IPC: 0.862135 cumulative IPC: 0.917728 (Simulation time: 1 hr 59 min 37 sec) 
Heartbeat CPU 3 instructions: 490000000 cycles: 527582717 heartbeat IPC: 0.641742 cumulative IPC: 0.639889 (Simulation time: 2 hr 0 min 12 sec) 
Heartbeat CPU 2 instructions: 430000003 cycles: 528116158 heartbeat IPC: 0.529776 cumulative IPC: 0.510349 (Simulation time: 2 hr 0 min 18 sec) 
Heartbeat CPU 1 instructions: 690000002 cycles: 528177535 heartbeat IPC: 1.16105 cumulative IPC: 1.15924 (Simulation time: 2 hr 0 min 19 sec) 
Heartbeat CPU 1 instructions: 700000000 cycles: 537107910 heartbeat IPC: 1.11977 cumulative IPC: 1.15842 (Simulation time: 2 hr 1 min 55 sec) 
Heartbeat CPU 0 instructions: 620000000 cycles: 538354024 heartbeat IPC: 0.733058 cumulative IPC: 0.911908 (Simulation time: 2 hr 2 min 10 sec) 
Heartbeat CPU 3 instructions: 500000000 cycles: 543825375 heartbeat IPC: 0.615663 cumulative IPC: 0.638992 (Simulation time: 2 hr 3 min 15 sec) 
Heartbeat CPU 1 instructions: 710000002 cycles: 545851667 heartbeat IPC: 1.14367 cumulative IPC: 1.15813 (Simulation time: 2 hr 3 min 39 sec) 
Heartbeat CPU 2 instructions: 440000000 cycles: 547496804 heartbeat IPC: 0.515979 cumulative IPC: 0.510596 (Simulation time: 2 hr 3 min 59 sec) 
Heartbeat CPU 0 instructions: 630000003 cycles: 549138404 heartbeat IPC: 0.927267 cumulative IPC: 0.912281 (Simulation time: 2 hr 4 min 20 sec) 
Heartbeat CPU 1 instructions: 720000000 cycles: 554445831 heartbeat IPC: 1.16358 cumulative IPC: 1.15823 (Simulation time: 2 hr 5 min 21 sec) 
Heartbeat CPU 3 instructions: 510000002 cycles: 559125188 heartbeat IPC: 0.653603 cumulative IPC: 0.639484 (Simulation time: 2 hr 6 min 16 sec) 
Heartbeat CPU 0 instructions: 640000000 cycles: 560693956 heartbeat IPC: 0.865385 cumulative IPC: 0.911091 (Simulation time: 2 hr 6 min 35 sec) 
Heartbeat CPU 1 instructions: 730000002 cycles: 563045746 heartbeat IPC: 1.1628 cumulative IPC: 1.15832 (Simulation time: 2 hr 7 min 2 sec) 
Heartbeat CPU 2 instructions: 450000003 cycles: 566632870 heartbeat IPC: 0.522574 cumulative IPC: 0.511093 (Simulation time: 2 hr 7 min 39 sec) 
Heartbeat CPU 1 instructions: 740000000 cycles: 572153275 heartbeat IPC: 1.09799 cumulative IPC: 1.15714 (Simulation time: 2 hr 8 min 42 sec) 
Heartbeat CPU 0 instructions: 650000000 cycles: 573775221 heartbeat IPC: 0.764452 cumulative IPC: 0.906995 (Simulation time: 2 hr 9 min 2 sec) 
Heartbeat CPU 3 instructions: 520000000 cycles: 575020176 heartbeat IPC: 0.629129 cumulative IPC: 0.639134 (Simulation time: 2 hr 9 min 16 sec) 
Heartbeat CPU 1 instructions: 750000000 cycles: 580762130 heartbeat IPC: 1.16159 cumulative IPC: 1.15722 (Simulation time: 2 hr 10 min 25 sec) 
Heartbeat CPU 0 instructions: 660000000 cycles: 585359826 heartbeat IPC: 0.863215 cumulative IPC: 0.905938 (Simulation time: 2 hr 11 min 19 sec) 
Heartbeat CPU 2 instructions: 460000000 cycles: 585952562 heartbeat IPC: 0.517606 cumulative IPC: 0.511355 (Simulation time: 2 hr 11 min 26 sec) 
Heartbeat CPU 1 instructions: 760000000 cycles: 589417403 heartbeat IPC: 1.15537 cumulative IPC: 1.15719 (Simulation time: 2 hr 12 min 7 sec) 
Heartbeat CPU 3 instructions: 530000000 cycles: 590129480 heartbeat IPC: 0.661844 cumulative IPC: 0.639842 (Simulation time: 2 hr 12 min 16 sec) 
Heartbeat CPU 1 instructions: 770000000 cycles: 598324356 heartbeat IPC: 1.12272 cumulative IPC: 1.15657 (Simulation time: 2 hr 13 min 47 sec) 
Heartbeat CPU 0 instructions: 670000001 cycles: 598677032 heartbeat IPC: 0.750908 cumulative IPC: 0.901752 (Simulation time: 2 hr 13 min 51 sec) 
Heartbeat CPU 2 instructions: 470000002 cycles: 605701323 heartbeat IPC: 0.506361 cumulative IPC: 0.511158 (Simulation time: 2 hr 15 min 13 sec) 
Heartbeat CPU 3 instructions: 540000000 cycles: 605740333 heartbeat IPC: 0.64058 cumulative IPC: 0.639865 (Simulation time: 2 hr 15 min 14 sec) 
Heartbeat CPU 1 instructions: 780000000 cycles: 607038192 heartbeat IPC: 1.1476 cumulative IPC: 1.15641 (Simulation time: 2 hr 15 min 29 sec) 
Heartbeat CPU 0 instructions: 680000000 cycles: 609927469 heartbeat IPC: 0.888854 cumulative IPC: 0.901464 (Simulation time: 2 hr 16 min 3 sec) 
Heartbeat CPU 1 instructions: 790000001 cycles: 615664078 heartbeat IPC: 1.1593 cumulative IPC: 1.15646 (Simulation time: 2 hr 17 min 11 sec) 
Heartbeat CPU 0 instructions: 690000000 cycles: 621105598 heartbeat IPC: 0.894604 cumulative IPC: 0.901315 (Simulation time: 2 hr 18 min 16 sec) 
Heartbeat CPU 3 instructions: 550000002 cycles: 621161580 heartbeat IPC: 0.648456 cumulative IPC: 0.640122 (Simulation time: 2 hr 18 min 17 sec) 
Heartbeat CPU 1 instructions: 800000000 cycles: 624299151 heartbeat IPC: 1.15807 cumulative IPC: 1.15649 (Simulation time: 2 hr 18 min 53 sec) 
Heartbeat CPU 2 instructions: 480000000 cycles: 624891536 heartbeat IPC: 0.521099 cumulative IPC: 0.511525 (Simulation time: 2 hr 19 min 0 sec) 
Heartbeat CPU 1 instructions: 810000003 cycles: 633405646 heartbeat IPC: 1.09812 cumulative IPC: 1.15548 (Simulation time: 2 hr 20 min 31 sec) 
Heartbeat CPU 0 instructions: 700000000 cycles: 636291146 heartbeat IPC: 0.658521 cumulative IPC: 0.894369 (Simulation time: 2 hr 21 min 2 sec) 
Heartbeat CPU 3 instructions: 560000000 cycles: 637468224 heartbeat IPC: 0.613247 cumulative IPC: 0.639298 (Simulation time: 2 hr 21 min 15 sec) 
Heartbeat CPU 1 instructions: 820000000 cycles: 642505566 heartbeat IPC: 1.09891 cumulative IPC: 1.15452 (Simulation time: 2 hr 22 min 9 sec) 
Heartbeat CPU 2 instructions: 490000001 cycles: 645699226 heartbeat IPC: 0.480592 cumulative IPC: 0.510334 (Simulation time: 2 hr 22 min 44 sec) 
Heartbeat CPU 1 instructions: 830000001 cycles: 651446354 heartbeat IPC: 1.11847 cumulative IPC: 1.15393 (Simulation time: 2 hr 23 min 48 sec) 
Heartbeat CPU 0 instructions: 710000001 cycles: 651757838 heartbeat IPC: 0.646551 cumulative IPC: 0.887353 (Simulation time: 2 hr 23 min 52 sec) 
Heartbeat CPU 3 instructions: 570000001 cycles: 652906678 heartbeat IPC: 0.647733 cumulative IPC: 0.639536 (Simulation time: 2 hr 24 min 7 sec) 
Heartbeat CPU 1 instructions: 840000000 cycles: 659730763 heartbeat IPC: 1.20709 cumulative IPC: 1.15473 (Simulation time: 2 hr 25 min 35 sec) 
Heartbeat CPU 0 instructions: 720000000 cycles: 660352389 heartbeat IPC: 1.16353 cumulative IPC: 0.89163 (Simulation time: 2 hr 25 min 43 sec) 
Heartbeat CPU 2 instructions: 500000000 cycles: 664635211 heartbeat IPC: 0.528095 cumulative IPC: 0.510935 (Simulation time: 2 hr 26 min 37 sec) 
Heartbeat CPU 3 instructions: 580000000 cycles: 667810077 heartbeat IPC: 0.670988 cumulative IPC: 0.64037 (Simulation time: 2 hr 27 min 18 sec) 
Heartbeat CPU 1 instructions: 850000002 cycles: 668042214 heartbeat IPC: 1.20316 cumulative IPC: 1.15544 (Simulation time: 2 hr 27 min 21 sec) 
Heartbeat CPU 0 instructions: 730000001 cycles: 669553906 heartbeat IPC: 1.08678 cumulative IPC: 0.894814 (Simulation time: 2 hr 27 min 40 sec) 
Heartbeat CPU 1 instructions: 860000000 cycles: 676387650 heartbeat IPC: 1.19826 cumulative IPC: 1.15607 (Simulation time: 2 hr 29 min 7 sec) 
Heartbeat CPU 0 instructions: 740000000 cycles: 678369020 heartbeat IPC: 1.13442 cumulative IPC: 0.898501 (Simulation time: 2 hr 29 min 32 sec) 
Heartbeat CPU 3 instructions: 590000000 cycles: 682873472 heartbeat IPC: 0.663861 cumulative IPC: 0.640982 (Simulation time: 2 hr 30 min 25 sec) 
Heartbeat CPU 2 instructions: 510000000 cycles: 683445167 heartbeat IPC: 0.531633 cumulative IPC: 0.511609 (Simulation time: 2 hr 30 min 32 sec) 
Heartbeat CPU 1 instructions: 870000000 cycles: 684900615 heartbeat IPC: 1.17468 cumulative IPC: 1.15634 (Simulation time: 2 hr 30 min 49 sec) 
Heartbeat CPU 0 instructions: 750000001 cycles: 689127037 heartbeat IPC: 0.929539 cumulative IPC: 0.899073 (Simulation time: 2 hr 31 min 40 sec) 
Heartbeat CPU 1 instructions: 880000000 cycles: 693346583 heartbeat IPC: 1.184 cumulative IPC: 1.15674 (Simulation time: 2 hr 32 min 34 sec) 
Heartbeat CPU 0 instructions: 760000000 cycles: 697732591 heartbeat IPC: 1.16204 cumulative IPC: 0.902894 (Simulation time: 2 hr 33 min 31 sec) 
Heartbeat CPU 3 instructions: 600000000 cycles: 698302304 heartbeat IPC: 0.648137 cumulative IPC: 0.641169 (Simulation time: 2 hr 33 min 37 sec) 
Heartbeat CPU 1 instructions: 890000003 cycles: 701637971 heartbeat IPC: 1.20607 cumulative IPC: 1.15742 (Simulation time: 2 hr 34 min 20 sec) 
Heartbeat CPU 2 instructions: 520000000 cycles: 702119092 heartbeat IPC: 0.535506 cumulative IPC: 0.512357 (Simulation time: 2 hr 34 min 26 sec) 
Heartbeat CPU 0 instructions: 770000001 cycles: 706913799 heartbeat IPC: 1.08918 cumulative IPC: 0.905738 (Simulation time: 2 hr 35 min 26 sec) 
Heartbeat CPU 1 instructions: 900000000 cycles: 709962396 heartbeat IPC: 1.20128 cumulative IPC: 1.15803 (Simulation time: 2 hr 36 min 5 sec) 
Heartbeat CPU 3 instructions: 610000000 cycles: 713096588 heartbeat IPC: 0.675937 cumulative IPC: 0.642015 (Simulation time: 2 hr 36 min 42 sec) 
Heartbeat CPU 0 instructions: 780000000 cycles: 717019405 heartbeat IPC: 0.98955 cumulative IPC: 0.907123 (Simulation time: 2 hr 37 min 27 sec) 
Heartbeat CPU 1 instructions: 910000001 cycles: 718296675 heartbeat IPC: 1.19986 cumulative IPC: 1.1586 (Simulation time: 2 hr 37 min 41 sec) 
Heartbeat CPU 2 instructions: 530000001 cycles: 721039671 heartbeat IPC: 0.528525 cumulative IPC: 0.512854 (Simulation time: 2 hr 38 min 12 sec) 
Heartbeat CPU 1 instructions: 920000000 cycles: 727012874 heartbeat IPC: 1.14729 cumulative IPC: 1.15844 (Simulation time: 2 hr 39 min 21 sec) 
Heartbeat CPU 0 instructions: 790000000 cycles: 728315213 heartbeat IPC: 0.885284 cumulative IPC: 0.906727 (Simulation time: 2 hr 39 min 38 sec) 
Heartbeat CPU 3 instructions: 620000000 cycles: 728841247 heartbeat IPC: 0.635136 cumulative IPC: 0.641841 (Simulation time: 2 hr 39 min 44 sec) 
Heartbeat CPU 1 instructions: 930000003 cycles: 735307375 heartbeat IPC: 1.20562 cumulative IPC: 1.15906 (Simulation time: 2 hr 41 min 8 sec) 
Heartbeat CPU 0 instructions: 800000000 cycles: 736974065 heartbeat IPC: 1.15489 cumulative IPC: 0.910129 (Simulation time: 2 hr 41 min 29 sec) 
Heartbeat CPU 2 instructions: 540000000 cycles: 740155483 heartbeat IPC: 0.523127 cumulative IPC: 0.513163 (Simulation time: 2 hr 42 min 9 sec) 
Heartbeat CPU 3 instructions: 630000003 cycles: 743493605 heartbeat IPC: 0.682484 cumulative IPC: 0.642775 (Simulation time: 2 hr 42 min 51 sec) 
Heartbeat CPU 1 instructions: 940000000 cycles: 743623676 heartbeat IPC: 1.20246 cumulative IPC: 1.15963 (Simulation time: 2 hr 42 min 53 sec) 
Heartbeat CPU 0 instructions: 810000000 cycles: 746196221 heartbeat IPC: 1.08435 cumulative IPC: 0.912637 (Simulation time: 2 hr 43 min 26 sec) 
Heartbeat CPU 1 instructions: 950000001 cycles: 751995906 heartbeat IPC: 1.19442 cumulative IPC: 1.16008 (Simulation time: 2 hr 44 min 37 sec) 
Heartbeat CPU 0 instructions: 820000000 cycles: 755961883 heartbeat IPC: 1.024 cumulative IPC: 0.914309 (Simulation time: 2 hr 45 min 23 sec) 
Heartbeat CPU 3 instructions: 640000000 cycles: 758690211 heartbeat IPC: 0.658041 cumulative IPC: 0.64313 (Simulation time: 2 hr 45 min 54 sec) 
Heartbeat CPU 2 instructions: 550000000 cycles: 759015033 heartbeat IPC: 0.530235 cumulative IPC: 0.513656 (Simulation time: 2 hr 45 min 58 sec) 
Heartbeat CPU 1 instructions: 960000000 cycles: 760472534 heartbeat IPC: 1.17971 cumulative IPC: 1.16033 (Simulation time: 2 hr 46 min 15 sec) 
Heartbeat CPU 0 instructions: 830000002 cycles: 767028800 heartbeat IPC: 0.903594 cumulative IPC: 0.914129 (Simulation time: 2 hr 47 min 34 sec) 
Heartbeat CPU 1 instructions: 970000002 cycles: 768986646 heartbeat IPC: 1.17452 cumulative IPC: 1.16051 (Simulation time: 2 hr 47 min 59 sec) 
Heartbeat CPU 3 instructions: 650000002 cycles: 773785357 heartbeat IPC: 0.662465 cumulative IPC: 0.643567 (Simulation time: 2 hr 49 min 1 sec) 
Heartbeat CPU 0 instructions: 840000000 cycles: 775744584 heartbeat IPC: 1.14734 cumulative IPC: 0.917162 (Simulation time: 2 hr 49 min 26 sec) 
Heartbeat CPU 1 instructions: 980000000 cycles: 777275645 heartbeat IPC: 1.20642 cumulative IPC: 1.16108 (Simulation time: 2 hr 49 min 45 sec) 
Heartbeat CPU 2 instructions: 560000000 cycles: 777796485 heartbeat IPC: 0.53244 cumulative IPC: 0.51418 (Simulation time: 2 hr 49 min 52 sec) 
Heartbeat CPU 0 instructions: 850000000 cycles: 784978733 heartbeat IPC: 1.08294 cumulative IPC: 0.919415 (Simulation time: 2 hr 51 min 22 sec) 
Heartbeat CPU 1 instructions: 990000001 cycles: 785548580 heartbeat IPC: 1.20876 cumulative IPC: 1.16166 (Simulation time: 2 hr 51 min 30 sec) 
Heartbeat CPU 3 instructions: 660000000 cycles: 788620545 heartbeat IPC: 0.674073 cumulative IPC: 0.644229 (Simulation time: 2 hr 52 min 8 sec) 
Heartbeat CPU 1 instructions: 1000000000 cycles: 793855067 heartbeat IPC: 1.20388 cumulative IPC: 1.16217 (Simulation time: 2 hr 53 min 7 sec) 
Heartbeat CPU 0 instructions: 860000000 cycles: 795350863 heartbeat IPC: 0.964122 cumulative IPC: 0.920087 (Simulation time: 2 hr 53 min 24 sec) 
Heartbeat CPU 2 instructions: 570000000 cycles: 796060260 heartbeat IPC: 0.547532 cumulative IPC: 0.515063 (Simulation time: 2 hr 53 min 32 sec) 
Heartbeat CPU 1 instructions: 1010000003 cycles: 802486374 heartbeat IPC: 1.15857 cumulative IPC: 1.16212 (Simulation time: 2 hr 54 min 43 sec) 
Heartbeat CPU 3 instructions: 670000003 cycles: 803883391 heartbeat IPC: 0.655186 cumulative IPC: 0.644469 (Simulation time: 2 hr 55 min 0 sec) 
Heartbeat CPU 0 instructions: 870000001 cycles: 806748741 heartbeat IPC: 0.877356 cumulative IPC: 0.919393 (Simulation time: 2 hr 55 min 37 sec) 
Heartbeat CPU 1 instructions: 1020000000 cycles: 810846615 heartbeat IPC: 1.19614 cumulative IPC: 1.16253 (Simulation time: 2 hr 56 min 30 sec) 
Heartbeat CPU 0 instructions: 880000000 cycles: 815453560 heartbeat IPC: 1.14879 cumulative IPC: 0.922205 (Simulation time: 2 hr 57 min 29 sec) 
Heartbeat CPU 2 instructions: 580000000 cycles: 815502313 heartbeat IPC: 0.514349 cumulative IPC: 0.515043 (Simulation time: 2 hr 57 min 30 sec) 
Heartbeat CPU 3 instructions: 680000000 cycles: 818711215 heartbeat IPC: 0.674408 cumulative IPC: 0.645091 (Simulation time: 2 hr 58 min 10 sec) 
Heartbeat CPU 1 instructions: 1030000002 cycles: 819139588 heartbeat IPC: 1.20584 cumulative IPC: 1.16303 (Simulation time: 2 hr 58 min 16 sec) 
Heartbeat CPU 0 instructions: 890000002 cycles: 824688215 heartbeat IPC: 1.08288 cumulative IPC: 0.924268 (Simulation time: 2 hr 59 min 26 sec) 
Heartbeat CPU 1 instructions: 1040000000 cycles: 827468704 heartbeat IPC: 1.20061 cumulative IPC: 1.16346 (Simulation time: 3 hr 0 min 1 sec) 
Heartbeat CPU 3 instructions: 690000000 cycles: 834026767 heartbeat IPC: 0.652931 cumulative IPC: 0.645256 (Simulation time: 3 hr 1 min 15 sec) 
Heartbeat CPU 2 instructions: 590000001 cycles: 834183426 heartbeat IPC: 0.5353 cumulative IPC: 0.515562 (Simulation time: 3 hr 1 min 17 sec) 
Heartbeat CPU 0 instructions: 900000000 cycles: 835137936 heartbeat IPC: 0.956963 cumulative IPC: 0.924736 (Simulation time: 3 hr 1 min 27 sec) 
Heartbeat CPU 1 instructions: 1050000002 cycles: 835795871 heartbeat IPC: 1.20089 cumulative IPC: 1.16389 (Simulation time: 3 hr 1 min 34 sec) 
Heartbeat CPU 1 instructions: 1060000000 cycles: 844453467 heartbeat IPC: 1.15505 cumulative IPC: 1.16379 (Simulation time: 3 hr 3 min 12 sec) 
Heartbeat CPU 0 instructions: 910000000 cycles: 849421601 heartbeat IPC: 0.7001 cumulative IPC: 0.920423 (Simulation time: 3 hr 4 min 9 sec) 
Heartbeat CPU 3 instructions: 700000000 cycles: 849481520 heartbeat IPC: 0.64705 cumulative IPC: 0.645293 (Simulation time: 3 hr 4 min 9 sec) 
Heartbeat CPU 1 instructions: 1070000000 cycles: 852741526 heartbeat IPC: 1.20656 cumulative IPC: 1.16426 (Simulation time: 3 hr 4 min 47 sec) 
Heartbeat CPU 2 instructions: 600000000 cycles: 853081239 heartbeat IPC: 0.529162 cumulative IPC: 0.515906 (Simulation time: 3 hr 4 min 51 sec) 
Heartbeat CPU 1 instructions: 1080000000 cycles: 861037001 heartbeat IPC: 1.20548 cumulative IPC: 1.16471 (Simulation time: 3 hr 6 min 22 sec) 
Heartbeat CPU 3 instructions: 710000000 cycles: 864477118 heartbeat IPC: 0.666862 cumulative IPC: 0.645719 (Simulation time: 3 hr 7 min 1 sec) 
Heartbeat CPU 0 instructions: 920000000 cycles: 864651638 heartbeat IPC: 0.656597 cumulative IPC: 0.915131 (Simulation time: 3 hr 7 min 3 sec) 
Heartbeat CPU 1 instructions: 1090000003 cycles: 869364021 heartbeat IPC: 1.20091 cumulative IPC: 1.16511 (Simulation time: 3 hr 7 min 57 sec) 
Heartbeat CPU 2 instructions: 610000003 cycles: 871719208 heartbeat IPC: 0.536539 cumulative IPC: 0.516408 (Simulation time: 3 hr 8 min 24 sec) 
Heartbeat CPU 1 instructions: 1100000000 cycles: 877669345 heartbeat IPC: 1.20405 cumulative IPC: 1.16553 (Simulation time: 3 hr 9 min 32 sec) 
Heartbeat CPU 3 instructions: 720000000 cycles: 879365043 heartbeat IPC: 0.671685 cumulative IPC: 0.646219 (Simulation time: 3 hr 9 min 51 sec) 
Heartbeat CPU 0 instructions: 930000000 cycles: 879886665 heartbeat IPC: 0.656382 cumulative IPC: 0.91004 (Simulation time: 3 hr 9 min 57 sec) 
Heartbeat CPU 1 instructions: 1110000001 cycles: 885968450 heartbeat IPC: 1.20495 cumulative IPC: 1.16595 (Simulation time: 3 hr 11 min 7 sec) 
Heartbeat CPU 2 instructions: 620000000 cycles: 889937166 heartbeat IPC: 0.548909 cumulative IPC: 0.517163 (Simulation time: 3 hr 11 min 52 sec) 
Heartbeat CPU 1 instructions: 1120000000 cycles: 894251289 heartbeat IPC: 1.20732 cumulative IPC: 1.16638 (Simulation time: 3 hr 12 min 41 sec) 
Heartbeat CPU 3 instructions: 730000003 cycles: 895074462 heartbeat IPC: 0.636561 cumulative IPC: 0.646027 (Simulation time: 3 hr 12 min 50 sec) 
Heartbeat CPU 0 instructions: 940000000 cycles: 895133176 heartbeat IPC: 0.655888 cumulative IPC: 0.905133 (Simulation time: 3 hr 12 min 51 sec) 
Heartbeat CPU 1 instructions: 1130000003 cycles: 902695409 heartbeat IPC: 1.18426 cumulative IPC: 1.16657 (Simulation time: 3 hr 14 min 15 sec) 
Heartbeat CPU 2 instructions: 630000002 cycles: 909046078 heartbeat IPC: 0.523316 cumulative IPC: 0.517309 (Simulation time: 3 hr 15 min 28 sec) 
Heartbeat CPU 0 instructions: 950000002 cycles: 910714137 heartbeat IPC: 0.641809 cumulative IPC: 0.900038 (Simulation time: 3 hr 15 min 47 sec) 
Heartbeat CPU 1 instructions: 1140000000 cycles: 910989123 heartbeat IPC: 1.20573 cumulative IPC: 1.16697 (Simulation time: 3 hr 15 min 50 sec) 
Heartbeat CPU 3 instructions: 740000000 cycles: 911173287 heartbeat IPC: 0.621163 cumulative IPC: 0.64553 (Simulation time: 3 hr 15 min 52 sec) 
Heartbeat CPU 1 instructions: 1150000000 cycles: 919294451 heartbeat IPC: 1.20405 cumulative IPC: 1.16735 (Simulation time: 3 hr 17 min 24 sec) 
Heartbeat CPU 0 instructions: 960000000 cycles: 926142636 heartbeat IPC: 0.648151 cumulative IPC: 0.895302 (Simulation time: 3 hr 18 min 43 sec) 
Heartbeat CPU 3 instructions: 750000003 cycles: 926949421 heartbeat IPC: 0.633869 cumulative IPC: 0.645306 (Simulation time: 3 hr 18 min 52 sec) 
Heartbeat CPU 1 instructions: 1160000000 cycles: 927540406 heartbeat IPC: 1.21272 cumulative IPC: 1.16781 (Simulation time: 3 hr 18 min 59 sec) 
Heartbeat CPU 2 instructions: 640000000 cycles: 927781764 heartbeat IPC: 0.533741 cumulative IPC: 0.517683 (Simulation time: 3 hr 19 min 1 sec) 
Heartbeat CPU 1 instructions: 1170000003 cycles: 935830266 heartbeat IPC: 1.20629 cumulative IPC: 1.16819 (Simulation time: 3 hr 20 min 34 sec) 
Heartbeat CPU 0 instructions: 970000002 cycles: 941568424 heartbeat IPC: 0.648265 cumulative IPC: 0.890744 (Simulation time: 3 hr 21 min 39 sec) 
Heartbeat CPU 3 instructions: 760000000 cycles: 942223400 heartbeat IPC: 0.654708 cumulative IPC: 0.645478 (Simulation time: 3 hr 21 min 47 sec) 
Heartbeat CPU 1 instructions: 1180000000 cycles: 944055783 heartbeat IPC: 1.21573 cumulative IPC: 1.16866 (Simulation time: 3 hr 22 min 7 sec) 
Heartbeat CPU 2 instructions: 650000001 cycles: 946847676 heartbeat IPC: 0.524496 cumulative IPC: 0.517838 (Simulation time: 3 hr 22 min 39 sec) 
Heartbeat CPU 1 instructions: 1190000001 cycles: 952386088 heartbeat IPC: 1.20044 cumulative IPC: 1.16897 (Simulation time: 3 hr 23 min 42 sec) 
Heartbeat CPU 0 instructions: 980000000 cycles: 956498941 heartbeat IPC: 0.669769 cumulative IPC: 0.886868 (Simulation time: 3 hr 24 min 28 sec) 
Heartbeat CPU 3 instructions: 770000000 cycles: 957710719 heartbeat IPC: 0.64569 cumulative IPC: 0.645481 (Simulation time: 3 hr 24 min 41 sec) 
Heartbeat CPU 1 instructions: 1200000000 cycles: 960678400 heartbeat IPC: 1.20594 cumulative IPC: 1.16933 (Simulation time: 3 hr 25 min 14 sec) 
Finished CPU 1 instructions: 1000000000 cycles: 855191952 cumulative IPC: 1.16933 (Simulation time: 3 hr 25 min 14 sec) 
Heartbeat CPU 2 instructions: 660000000 cycles: 965600710 heartbeat IPC: 0.533247 cumulative IPC: 0.518174 (Simulation time: 3 hr 26 min 10 sec) 
Heartbeat CPU 1 instructions: 1210000003 cycles: 968954667 heartbeat IPC: 1.20827 cumulative IPC: 1.1697 (Simulation time: 3 hr 26 min 47 sec) 
Heartbeat CPU 0 instructions: 990000000 cycles: 971033311 heartbeat IPC: 0.688024 cumulative IPC: 0.883529 (Simulation time: 3 hr 27 min 11 sec) 
Heartbeat CPU 3 instructions: 780000000 cycles: 974031794 heartbeat IPC: 0.612705 cumulative IPC: 0.644865 (Simulation time: 3 hr 27 min 45 sec) 
Heartbeat CPU 1 instructions: 1220000000 cycles: 977216143 heartbeat IPC: 1.21044 cumulative IPC: 1.17009 (Simulation time: 3 hr 28 min 20 sec) 
Heartbeat CPU 2 instructions: 670000001 cycles: 983918528 heartbeat IPC: 0.545917 cumulative IPC: 0.518752 (Simulation time: 3 hr 29 min 37 sec) 
Heartbeat CPU 0 instructions: 1000000000 cycles: 984525207 heartbeat IPC: 0.741186 cumulative IPC: 0.881344 (Simulation time: 3 hr 29 min 43 sec) 
Heartbeat CPU 1 instructions: 1230000002 cycles: 985481897 heartbeat IPC: 1.20981 cumulative IPC: 1.17046 (Simulation time: 3 hr 29 min 54 sec) 
Heartbeat CPU 3 instructions: 790000000 cycles: 989668452 heartbeat IPC: 0.639523 cumulative IPC: 0.644771 (Simulation time: 3 hr 30 min 41 sec) 
Heartbeat CPU 1 instructions: 1240000000 cycles: 993787868 heartbeat IPC: 1.20395 cumulative IPC: 1.17077 (Simulation time: 3 hr 31 min 27 sec) 
Heartbeat CPU 0 instructions: 1010000000 cycles: 999105256 heartbeat IPC: 0.685869 cumulative IPC: 0.878154 (Simulation time: 3 hr 32 min 27 sec) 
Heartbeat CPU 1 instructions: 1250000002 cycles: 1002076872 heartbeat IPC: 1.20642 cumulative IPC: 1.1711 (Simulation time: 3 hr 33 min 0 sec) 
Heartbeat CPU 2 instructions: 680000000 cycles: 1002796800 heartbeat IPC: 0.529709 cumulative IPC: 0.518983 (Simulation time: 3 hr 33 min 9 sec) 
Heartbeat CPU 3 instructions: 800000000 cycles: 1005309755 heartbeat IPC: 0.639333 cumulative IPC: 0.644676 (Simulation time: 3 hr 33 min 36 sec) 
Heartbeat CPU 1 instructions: 1260000000 cycles: 1010334301 heartbeat IPC: 1.21103 cumulative IPC: 1.17147 (Simulation time: 3 hr 34 min 33 sec) 
Heartbeat CPU 0 instructions: 1020000000 cycles: 1012998965 heartbeat IPC: 0.71975 cumulative IPC: 0.875729 (Simulation time: 3 hr 35 min 4 sec) 
Heartbeat CPU 1 instructions: 1270000000 cycles: 1018607166 heartbeat IPC: 1.20877 cumulative IPC: 1.17181 (Simulation time: 3 hr 36 min 7 sec) 
Heartbeat CPU 3 instructions: 810000001 cycles: 1020730776 heartbeat IPC: 0.648466 cumulative IPC: 0.64474 (Simulation time: 3 hr 36 min 31 sec) 
Heartbeat CPU 2 instructions: 690000003 cycles: 1021303208 heartbeat IPC: 0.540354 cumulative IPC: 0.519415 (Simulation time: 3 hr 36 min 38 sec) 
Heartbeat CPU 1 instructions: 1280000000 cycles: 1026848009 heartbeat IPC: 1.21347 cumulative IPC: 1.17218 (Simulation time: 3 hr 37 min 40 sec) 
Heartbeat CPU 0 instructions: 1030000000 cycles: 1027311970 heartbeat IPC: 0.698665 cumulative IPC: 0.87298 (Simulation time: 3 hr 37 min 46 sec) 
Heartbeat CPU 1 instructions: 1290000000 cycles: 1035106788 heartbeat IPC: 1.21083 cumulative IPC: 1.17252 (Simulation time: 3 hr 39 min 13 sec) 
Heartbeat CPU 3 instructions: 820000000 cycles: 1036622887 heartbeat IPC: 0.629243 cumulative IPC: 0.644476 (Simulation time: 3 hr 39 min 30 sec) 
Heartbeat CPU 2 instructions: 700000000 cycles: 1039633788 heartbeat IPC: 0.545536 cumulative IPC: 0.519927 (Simulation time: 3 hr 40 min 4 sec) 
Heartbeat CPU 0 instructions: 1040000000 cycles: 1041178013 heartbeat IPC: 0.721186 cumulative IPC: 0.870731 (Simulation time: 3 hr 40 min 22 sec) 
Heartbeat CPU 1 instructions: 1300000000 cycles: 1043388930 heartbeat IPC: 1.20742 cumulative IPC: 1.17283 (Simulation time: 3 hr 40 min 47 sec) 
Heartbeat CPU 1 instructions: 1310000002 cycles: 1051663693 heartbeat IPC: 1.20849 cumulative IPC: 1.17314 (Simulation time: 3 hr 42 min 21 sec) 
Heartbeat CPU 3 instructions: 830000001 cycles: 1052599244 heartbeat IPC: 0.625925 cumulative IPC: 0.644163 (Simulation time: 3 hr 42 min 31 sec) 
Heartbeat CPU 0 instructions: 1050000000 cycles: 1055594486 heartbeat IPC: 0.693651 cumulative IPC: 0.868044 (Simulation time: 3 hr 43 min 6 sec) 
Heartbeat CPU 2 instructions: 710000002 cycles: 1057190975 heartbeat IPC: 0.569567 cumulative IPC: 0.520843 (Simulation time: 3 hr 43 min 24 sec) 
Heartbeat CPU 1 instructions: 1320000000 cycles: 1059911012 heartbeat IPC: 1.21251 cumulative IPC: 1.17348 (Simulation time: 3 hr 43 min 55 sec) 
Heartbeat CPU 1 instructions: 1330000003 cycles: 1068174358 heartbeat IPC: 1.21016 cumulative IPC: 1.1738 (Simulation time: 3 hr 45 min 29 sec) 
Heartbeat CPU 3 instructions: 840000000 cycles: 1068389679 heartbeat IPC: 0.633295 cumulative IPC: 0.643985 (Simulation time: 3 hr 45 min 32 sec) 
Heartbeat CPU 0 instructions: 1060000000 cycles: 1069344060 heartbeat IPC: 0.727295 cumulative IPC: 0.866036 (Simulation time: 3 hr 45 min 43 sec) 
Heartbeat CPU 2 instructions: 720000000 cycles: 1075175432 heartbeat IPC: 0.556036 cumulative IPC: 0.521496 (Simulation time: 3 hr 46 min 49 sec) 
Heartbeat CPU 1 instructions: 1340000000 cycles: 1076449131 heartbeat IPC: 1.20849 cumulative IPC: 1.17409 (Simulation time: 3 hr 47 min 3 sec) 
Heartbeat CPU 0 instructions: 1070000003 cycles: 1084010867 heartbeat IPC: 0.681812 cumulative IPC: 0.863275 (Simulation time: 3 hr 48 min 29 sec) 
Heartbeat CPU 3 instructions: 850000000 cycles: 1084351100 heartbeat IPC: 0.626511 cumulative IPC: 0.6437 (Simulation time: 3 hr 48 min 33 sec) 
Heartbeat CPU 1 instructions: 1350000001 cycles: 1084722492 heartbeat IPC: 1.2087 cumulative IPC: 1.17438 (Simulation time: 3 hr 48 min 38 sec) 
Heartbeat CPU 2 instructions: 730000000 cycles: 1092845022 heartbeat IPC: 0.565944 cumulative IPC: 0.522291 (Simulation time: 3 hr 50 min 10 sec) 
Heartbeat CPU 1 instructions: 1360000000 cycles: 1092973401 heartbeat IPC: 1.21199 cumulative IPC: 1.1747 (Simulation time: 3 hr 50 min 11 sec) 
Heartbeat CPU 0 instructions: 1080000000 cycles: 1097767415 heartbeat IPC: 0.726926 cumulative IPC: 0.861384 (Simulation time: 3 hr 51 min 6 sec) 
Heartbeat CPU 3 instructions: 860000000 cycles: 1100683747 heartbeat IPC: 0.612271 cumulative IPC: 0.643184 (Simulation time: 3 hr 51 min 39 sec) 
Heartbeat CPU 1 instructions: 1370000000 cycles: 1101240813 heartbeat IPC: 1.20957 cumulative IPC: 1.17499 (Simulation time: 3 hr 51 min 45 sec) 
Heartbeat CPU 1 instructions: 1380000000 cycles: 1109525367 heartbeat IPC: 1.20707 cumulative IPC: 1.17525 (Simulation time: 3 hr 53 min 19 sec) 
Heartbeat CPU 2 instructions: 740000000 cycles: 1110377609 heartbeat IPC: 0.570367 cumulative IPC: 0.52313 (Simulation time: 3 hr 53 min 29 sec) 
Heartbeat CPU 0 instructions: 1090000002 cycles: 1112586946 heartbeat IPC: 0.674785 cumulative IPC: 0.858639 (Simulation time: 3 hr 53 min 54 sec) 
Heartbeat CPU 3 instructions: 870000001 cycles: 1116936426 heartbeat IPC: 0.615283 cumulative IPC: 0.642736 (Simulation time: 3 hr 54 min 44 sec) 
Heartbeat CPU 1 instructions: 1390000001 cycles: 1117783910 heartbeat IPC: 1.21087 cumulative IPC: 1.17554 (Simulation time: 3 hr 54 min 53 sec) 
Heartbeat CPU 1 instructions: 1400000000 cycles: 1126076492 heartbeat IPC: 1.2059 cumulative IPC: 1.17579 (Simulation time: 3 hr 56 min 26 sec) 
Heartbeat CPU 0 instructions: 1100000000 cycles: 1126589148 heartbeat IPC: 0.714173 cumulative IPC: 0.856658 (Simulation time: 3 hr 56 min 32 sec) 
Heartbeat CPU 2 instructions: 750000001 cycles: 1127899252 heartbeat IPC: 0.570723 cumulative IPC: 0.523946 (Simulation time: 3 hr 56 min 47 sec) 
Heartbeat CPU 3 instructions: 880000000 cycles: 1133443223 heartbeat IPC: 0.605811 cumulative IPC: 0.642143 (Simulation time: 3 hr 57 min 50 sec) 
Heartbeat CPU 1 instructions: 1410000003 cycles: 1134331638 heartbeat IPC: 1.21137 cumulative IPC: 1.17608 (Simulation time: 3 hr 58 min 1 sec) 
Heartbeat CPU 0 instructions: 1110000000 cycles: 1141057305 heartbeat IPC: 0.691173 cumulative IPC: 0.854346 (Simulation time: 3 hr 59 min 16 sec) 
Heartbeat CPU 1 instructions: 1420000000 cycles: 1142626638 heartbeat IPC: 1.20555 cumulative IPC: 1.17631 (Simulation time: 3 hr 59 min 34 sec) 
Heartbeat CPU 2 instructions: 760000000 cycles: 1145500829 heartbeat IPC: 0.568131 cumulative IPC: 0.524693 (Simulation time: 4 hr 0 min 7 sec) 
Heartbeat CPU 3 instructions: 890000003 cycles: 1149231196 heartbeat IPC: 0.633394 cumulative IPC: 0.64201 (Simulation time: 4 hr 0 min 50 sec) 
Heartbeat CPU 1 instructions: 1430000001 cycles: 1150877526 heartbeat IPC: 1.21199 cumulative IPC: 1.17659 (Simulation time: 4 hr 1 min 8 sec) 
Heartbeat CPU 0 instructions: 1120000000 cycles: 1155698391 heartbeat IPC: 0.683009 cumulative IPC: 0.851957 (Simulation time: 4 hr 2 min 2 sec) 
Heartbeat CPU 1 instructions: 1440000000 cycles: 1159169290 heartbeat IPC: 1.20602 cumulative IPC: 1.17682 (Simulation time: 4 hr 2 min 42 sec) 
Heartbeat CPU 2 instructions: 770000001 cycles: 1163491244 heartbeat IPC: 0.555852 cumulative IPC: 0.525223 (Simulation time: 4 hr 3 min 31 sec) 
Heartbeat CPU 3 instructions: 900000000 cycles: 1165397800 heartbeat IPC: 0.618559 cumulative IPC: 0.641653 (Simulation time: 4 hr 3 min 53 sec) 
Heartbeat CPU 1 instructions: 1450000000 cycles: 1167462701 heartbeat IPC: 1.20578 cumulative IPC: 1.17705 (Simulation time: 4 hr 4 min 16 sec) 
Heartbeat CPU 0 instructions: 1130000001 cycles: 1169842261 heartbeat IPC: 0.70702 cumulative IPC: 0.850031 (Simulation time: 4 hr 4 min 42 sec) 
Heartbeat CPU 1 instructions: 1460000000 cycles: 1175725487 heartbeat IPC: 1.21025 cumulative IPC: 1.17731 (Simulation time: 4 hr 5 min 49 sec) 
Heartbeat CPU 2 instructions: 780000000 cycles: 1181329591 heartbeat IPC: 0.56059 cumulative IPC: 0.52581 (Simulation time: 4 hr 6 min 52 sec) 
Heartbeat CPU 3 instructions: 910000001 cycles: 1181446466 heartbeat IPC: 0.623105 cumulative IPC: 0.641376 (Simulation time: 4 hr 6 min 54 sec) 
Heartbeat CPU 1 instructions: 1470000001 cycles: 1183997400 heartbeat IPC: 1.20891 cumulative IPC: 1.17755 (Simulation time: 4 hr 7 min 23 sec) 
Heartbeat CPU 0 instructions: 1140000000 cycles: 1184558333 heartbeat IPC: 0.679529 cumulative IPC: 0.847706 (Simulation time: 4 hr 7 min 29 sec) 
Heartbeat CPU 1 instructions: 1480000000 cycles: 1192272386 heartbeat IPC: 1.20846 cumulative IPC: 1.17778 (Simulation time: 4 hr 8 min 56 sec) 
Heartbeat CPU 3 instructions: 920000000 cycles: 1197051374 heartbeat IPC: 0.640824 cumulative IPC: 0.641368 (Simulation time: 4 hr 9 min 51 sec) 
Heartbeat CPU 0 instructions: 1150000003 cycles: 1198770974 heartbeat IPC: 0.703599 cumulative IPC: 0.845832 (Simulation time: 4 hr 10 min 10 sec) 
Heartbeat CPU 2 instructions: 790000000 cycles: 1199702201 heartbeat IPC: 0.544288 cumulative IPC: 0.52612 (Simulation time: 4 hr 10 min 21 sec) 
Heartbeat CPU 1 instructions: 1490000000 cycles: 1200601245 heartbeat IPC: 1.20064 cumulative IPC: 1.17796 (Simulation time: 4 hr 10 min 31 sec) 
Heartbeat CPU 1 instructions: 1500000000 cycles: 1208889979 heartbeat IPC: 1.20646 cumulative IPC: 1.17817 (Simulation time: 4 hr 12 min 5 sec) 
Heartbeat CPU 3 instructions: 930000001 cycles: 1212880569 heartbeat IPC: 0.631744 cumulative IPC: 0.641231 (Simulation time: 4 hr 12 min 50 sec) 
Heartbeat CPU 0 instructions: 1160000000 cycles: 1213733432 heartbeat IPC: 0.668339 cumulative IPC: 0.843436 (Simulation time: 4 hr 12 min 59 sec) 
Heartbeat CPU 1 instructions: 1510000003 cycles: 1217186475 heartbeat IPC: 1.20533 cumulative IPC: 1.17838 (Simulation time: 4 hr 13 min 39 sec) 
Heartbeat CPU 2 instructions: 800000000 cycles: 1218045666 heartbeat IPC: 0.545153 cumulative IPC: 0.526434 (Simulation time: 4 hr 13 min 48 sec) 
Heartbeat CPU 1 instructions: 1520000000 cycles: 1225495587 heartbeat IPC: 1.2035 cumulative IPC: 1.17856 (Simulation time: 4 hr 15 min 12 sec) 
Heartbeat CPU 0 instructions: 1170000002 cycles: 1228472143 heartbeat IPC: 0.678486 cumulative IPC: 0.841271 (Simulation time: 4 hr 15 min 46 sec) 
Heartbeat CPU 3 instructions: 940000000 cycles: 1228975204 heartbeat IPC: 0.621325 cumulative IPC: 0.640945 (Simulation time: 4 hr 15 min 52 sec) 
Heartbeat CPU 1 instructions: 1530000003 cycles: 1233762430 heartbeat IPC: 1.20965 cumulative IPC: 1.17879 (Simulation time: 4 hr 16 min 46 sec) 
Heartbeat CPU 2 instructions: 810000000 cycles: 1235988876 heartbeat IPC: 0.557314 cumulative IPC: 0.526924 (Simulation time: 4 hr 17 min 11 sec) 
Heartbeat CPU 1 instructions: 1540000000 cycles: 1242073523 heartbeat IPC: 1.20321 cumulative IPC: 1.17897 (Simulation time: 4 hr 18 min 20 sec) 
Heartbeat CPU 0 instructions: 1180000000 cycles: 1242580285 heartbeat IPC: 0.70881 cumulative IPC: 0.839628 (Simulation time: 4 hr 18 min 26 sec) 
Heartbeat CPU 3 instructions: 950000000 cycles: 1244346880 heartbeat IPC: 0.650547 cumulative IPC: 0.641075 (Simulation time: 4 hr 18 min 46 sec) 
Heartbeat CPU 1 instructions: 1550000001 cycles: 1250334572 heartbeat IPC: 1.2105 cumulative IPC: 1.1792 (Simulation time: 4 hr 19 min 54 sec) 
Heartbeat CPU 2 instructions: 820000000 cycles: 1254525178 heartbeat IPC: 0.539482 cumulative IPC: 0.527126 (Simulation time: 4 hr 20 min 41 sec) 
Heartbeat CPU 0 instructions: 1190000002 cycles: 1257399334 heartbeat IPC: 0.674807 cumulative IPC: 0.837507 (Simulation time: 4 hr 21 min 14 sec) 
Heartbeat CPU 1 instructions: 1560000000 cycles: 1258668346 heartbeat IPC: 1.19994 cumulative IPC: 1.17935 (Simulation time: 4 hr 21 min 28 sec) 
Heartbeat CPU 3 instructions: 960000000 cycles: 1259921412 heartbeat IPC: 0.642074 cumulative IPC: 0.641088 (Simulation time: 4 hr 21 min 42 sec) 
Heartbeat CPU 1 instructions: 1570000000 cycles: 1266941656 heartbeat IPC: 1.20871 cumulative IPC: 1.17955 (Simulation time: 4 hr 23 min 2 sec) 
Heartbeat CPU 0 instructions: 1200000000 cycles: 1271569898 heartbeat IPC: 0.705688 cumulative IPC: 0.835905 (Simulation time: 4 hr 23 min 55 sec) 
Heartbeat CPU 2 instructions: 830000003 cycles: 1272819358 heartbeat IPC: 0.546622 cumulative IPC: 0.527432 (Simulation time: 4 hr 24 min 8 sec) 
Heartbeat CPU 1 instructions: 1580000000 cycles: 1275240553 heartbeat IPC: 1.20498 cumulative IPC: 1.17974 (Simulation time: 4 hr 24 min 35 sec) 
Heartbeat CPU 3 instructions: 970000001 cycles: 1275673536 heartbeat IPC: 0.634835 cumulative IPC: 0.641004 (Simulation time: 4 hr 24 min 40 sec) 
Heartbeat CPU 1 instructions: 1590000000 cycles: 1283552863 heartbeat IPC: 1.20303 cumulative IPC: 1.1799 (Simulation time: 4 hr 26 min 9 sec) 
Heartbeat CPU 0 instructions: 1210000002 cycles: 1286771285 heartbeat IPC: 0.657835 cumulative IPC: 0.833614 (Simulation time: 4 hr 26 min 46 sec) 
Heartbeat CPU 2 instructions: 840000000 cycles: 1291499059 heartbeat IPC: 0.53534 cumulative IPC: 0.527557 (Simulation time: 4 hr 27 min 39 sec) 
Heartbeat CPU 3 instructions: 980000000 cycles: 1291546554 heartbeat IPC: 0.63 cumulative IPC: 0.640857 (Simulation time: 4 hr 27 min 40 sec) 
Heartbeat CPU 1 instructions: 1600000000 cycles: 1291844957 heartbeat IPC: 1.20597 cumulative IPC: 1.18008 (Simulation time: 4 hr 27 min 43 sec) 
Heartbeat CPU 1 instructions: 1610000003 cycles: 1300091156 heartbeat IPC: 1.21268 cumulative IPC: 1.18031 (Simulation time: 4 hr 29 min 16 sec) 
Heartbeat CPU 0 instructions: 1220000000 cycles: 1300843099 heartbeat IPC: 0.71064 cumulative IPC: 0.832166 (Simulation time: 4 hr 29 min 25 sec) 
Heartbeat CPU 3 instructions: 990000000 cycles: 1307318357 heartbeat IPC: 0.634043 cumulative IPC: 0.640768 (Simulation time: 4 hr 30 min 38 sec) 
Heartbeat CPU 1 instructions: 1620000000 cycles: 1308365771 heartbeat IPC: 1.20852 cumulative IPC: 1.1805 (Simulation time: 4 hr 30 min 50 sec) 
Finished CPU 0 instructions: 1000000001 cycles: 1203313530 cumulative IPC: 0.831039 (Simulation time: 4 hr 30 min 55 sec) 
Heartbeat CPU 2 instructions: 850000002 cycles: 1309900995 heartbeat IPC: 0.543421 cumulative IPC: 0.527799 (Simulation time: 4 hr 31 min 8 sec) 
Heartbeat CPU 0 instructions: 1230000002 cycles: 1315756418 heartbeat IPC: 0.670542 cumulative IPC: 0.830175 (Simulation time: 4 hr 32 min 14 sec) 
Heartbeat CPU 1 instructions: 1630000001 cycles: 1316623575 heartbeat IPC: 1.21098 cumulative IPC: 1.18071 (Simulation time: 4 hr 32 min 24 sec) 
Heartbeat CPU 3 instructions: 1000000000 cycles: 1322605159 heartbeat IPC: 0.654159 cumulative IPC: 0.640936 (Simulation time: 4 hr 33 min 31 sec) 
Heartbeat CPU 1 instructions: 1640000000 cycles: 1324902668 heartbeat IPC: 1.20786 cumulative IPC: 1.18089 (Simulation time: 4 hr 33 min 58 sec) 
Heartbeat CPU 2 instructions: 860000000 cycles: 1328517089 heartbeat IPC: 0.53717 cumulative IPC: 0.527942 (Simulation time: 4 hr 34 min 38 sec) 
Heartbeat CPU 0 instructions: 1240000000 cycles: 1329824423 heartbeat IPC: 0.710833 cumulative IPC: 0.828803 (Simulation time: 4 hr 34 min 53 sec) 
Heartbeat CPU 1 instructions: 1650000000 cycles: 1333197413 heartbeat IPC: 1.20558 cumulative IPC: 1.18106 (Simulation time: 4 hr 35 min 32 sec) 
Heartbeat CPU 3 instructions: 1010000001 cycles: 1337946881 heartbeat IPC: 0.651817 cumulative IPC: 0.641071 (Simulation time: 4 hr 36 min 25 sec) 
Heartbeat CPU 1 instructions: 1660000000 cycles: 1341528907 heartbeat IPC: 1.20026 cumulative IPC: 1.18119 (Simulation time: 4 hr 37 min 5 sec) 
Heartbeat CPU 0 instructions: 1250000002 cycles: 1344695101 heartbeat IPC: 0.672464 cumulative IPC: 0.826927 (Simulation time: 4 hr 37 min 41 sec) 
Heartbeat CPU 2 instructions: 870000003 cycles: 1346857962 heartbeat IPC: 0.545231 cumulative IPC: 0.528197 (Simulation time: 4 hr 38 min 6 sec) 
Heartbeat CPU 1 instructions: 1670000002 cycles: 1349801999 heartbeat IPC: 1.20874 cumulative IPC: 1.18137 (Simulation time: 4 hr 38 min 39 sec) 
Heartbeat CPU 3 instructions: 1020000000 cycles: 1353883263 heartbeat IPC: 0.627495 cumulative IPC: 0.640898 (Simulation time: 4 hr 39 min 25 sec) 
Heartbeat CPU 1 instructions: 1680000000 cycles: 1358054988 heartbeat IPC: 1.21168 cumulative IPC: 1.18157 (Simulation time: 4 hr 40 min 13 sec) 
Heartbeat CPU 0 instructions: 1260000000 cycles: 1358741558 heartbeat IPC: 0.711923 cumulative IPC: 0.825638 (Simulation time: 4 hr 40 min 20 sec) 
Heartbeat CPU 2 instructions: 880000000 cycles: 1365325331 heartbeat IPC: 0.541496 cumulative IPC: 0.528392 (Simulation time: 4 hr 41 min 35 sec) 
Heartbeat CPU 1 instructions: 1690000000 cycles: 1366336589 heartbeat IPC: 1.2075 cumulative IPC: 1.18174 (Simulation time: 4 hr 41 min 47 sec) 
Heartbeat CPU 3 instructions: 1030000003 cycles: 1369692263 heartbeat IPC: 0.632551 cumulative IPC: 0.640794 (Simulation time: 4 hr 42 min 25 sec) 
Heartbeat CPU 0 instructions: 1270000000 cycles: 1373430274 heartbeat IPC: 0.680795 cumulative IPC: 0.82396 (Simulation time: 4 hr 43 min 7 sec) 
Heartbeat CPU 1 instructions: 1700000000 cycles: 1374586258 heartbeat IPC: 1.21217 cumulative IPC: 1.18194 (Simulation time: 4 hr 43 min 21 sec) 
Heartbeat CPU 1 instructions: 1710000003 cycles: 1382886300 heartbeat IPC: 1.20481 cumulative IPC: 1.18209 (Simulation time: 4 hr 44 min 55 sec) 
Heartbeat CPU 2 instructions: 890000001 cycles: 1383725141 heartbeat IPC: 0.543484 cumulative IPC: 0.528609 (Simulation time: 4 hr 45 min 4 sec) 
Heartbeat CPU 3 instructions: 1040000000 cycles: 1385070826 heartbeat IPC: 0.650256 cumulative IPC: 0.640907 (Simulation time: 4 hr 45 min 20 sec) 
Heartbeat CPU 0 instructions: 1280000000 cycles: 1387673498 heartbeat IPC: 0.702088 cumulative IPC: 0.822606 (Simulation time: 4 hr 45 min 49 sec) 
Heartbeat CPU 1 instructions: 1720000000 cycles: 1391146629 heartbeat IPC: 1.21061 cumulative IPC: 1.18227 (Simulation time: 4 hr 46 min 29 sec) 
Heartbeat CPU 1 instructions: 1730000003 cycles: 1399437813 heartbeat IPC: 1.2061 cumulative IPC: 1.18242 (Simulation time: 4 hr 48 min 3 sec) 
Heartbeat CPU 3 instructions: 1050000002 cycles: 1401077416 heartbeat IPC: 0.624743 cumulative IPC: 0.640708 (Simulation time: 4 hr 48 min 22 sec) 
Heartbeat CPU 2 instructions: 900000000 cycles: 1401574691 heartbeat IPC: 0.560238 cumulative IPC: 0.529045 (Simulation time: 4 hr 48 min 27 sec) 
Heartbeat CPU 0 instructions: 1290000003 cycles: 1402550846 heartbeat IPC: 0.672163 cumulative IPC: 0.820881 (Simulation time: 4 hr 48 min 38 sec) 
Heartbeat CPU 1 instructions: 1740000000 cycles: 1407744547 heartbeat IPC: 1.20384 cumulative IPC: 1.18256 (Simulation time: 4 hr 49 min 38 sec) 
Heartbeat CPU 1 instructions: 1750000001 cycles: 1416028001 heartbeat IPC: 1.20723 cumulative IPC: 1.18272 (Simulation time: 4 hr 51 min 12 sec) 
Heartbeat CPU 3 instructions: 1060000000 cycles: 1416313920 heartbeat IPC: 0.656318 cumulative IPC: 0.640889 (Simulation time: 4 hr 51 min 16 sec) 
Heartbeat CPU 0 instructions: 1300000000 cycles: 1416897457 heartbeat IPC: 0.697029 cumulative IPC: 0.819526 (Simulation time: 4 hr 51 min 22 sec) 
Heartbeat CPU 2 instructions: 910000002 cycles: 1419154312 heartbeat IPC: 0.568841 cumulative IPC: 0.529577 (Simulation time: 4 hr 51 min 48 sec) 
Heartbeat CPU 1 instructions: 1760000000 cycles: 1424322692 heartbeat IPC: 1.20559 cumulative IPC: 1.18286 (Simulation time: 4 hr 52 min 47 sec) 
Heartbeat CPU 0 instructions: 1310000001 cycles: 1430996087 heartbeat IPC: 0.709289 cumulative IPC: 0.818353 (Simulation time: 4 hr 54 min 4 sec) 
Heartbeat CPU 3 instructions: 1070000000 cycles: 1431539334 heartbeat IPC: 0.656797 cumulative IPC: 0.641072 (Simulation time: 4 hr 54 min 10 sec) 
Heartbeat CPU 1 instructions: 1770000000 cycles: 1432563838 heartbeat IPC: 1.21342 cumulative IPC: 1.18305 (Simulation time: 4 hr 54 min 22 sec) 
Heartbeat CPU 2 instructions: 920000000 cycles: 1436704426 heartbeat IPC: 0.569797 cumulative IPC: 0.530108 (Simulation time: 4 hr 55 min 9 sec) 
Heartbeat CPU 1 instructions: 1780000000 cycles: 1440866893 heartbeat IPC: 1.20438 cumulative IPC: 1.18318 (Simulation time: 4 hr 55 min 57 sec) 
Heartbeat CPU 0 instructions: 1320000000 cycles: 1445610360 heartbeat IPC: 0.684263 cumulative IPC: 0.816891 (Simulation time: 4 hr 56 min 51 sec) 
Heartbeat CPU 3 instructions: 1080000000 cycles: 1446751901 heartbeat IPC: 0.657351 cumulative IPC: 0.641256 (Simulation time: 4 hr 57 min 4 sec) 
Heartbeat CPU 1 instructions: 1790000003 cycles: 1449119723 heartbeat IPC: 1.21171 cumulative IPC: 1.18336 (Simulation time: 4 hr 57 min 30 sec) 
Heartbeat CPU 2 instructions: 930000000 cycles: 1454251945 heartbeat IPC: 0.569881 cumulative IPC: 0.530625 (Simulation time: 4 hr 58 min 28 sec) 
Heartbeat CPU 1 instructions: 1800000000 cycles: 1457399931 heartbeat IPC: 1.2077 cumulative IPC: 1.18351 (Simulation time: 4 hr 59 min 4 sec) 
Heartbeat CPU 0 instructions: 1330000001 cycles: 1459479185 heartbeat IPC: 0.721042 cumulative IPC: 0.815909 (Simulation time: 4 hr 59 min 28 sec) 
Heartbeat CPU 3 instructions: 1090000000 cycles: 1462760199 heartbeat IPC: 0.624676 cumulative IPC: 0.641061 (Simulation time: 5 hr 0 min 5 sec) 
Heartbeat CPU 1 instructions: 1810000003 cycles: 1465647808 heartbeat IPC: 1.21243 cumulative IPC: 1.18368 (Simulation time: 5 hr 0 min 38 sec) 
Heartbeat CPU 2 instructions: 940000000 cycles: 1472182967 heartbeat IPC: 0.557693 cumulative IPC: 0.53098 (Simulation time: 5 hr 1 min 52 sec) 
Heartbeat CPU 1 instructions: 1820000000 cycles: 1473928132 heartbeat IPC: 1.20768 cumulative IPC: 1.18383 (Simulation time: 5 hr 2 min 12 sec) 
Heartbeat CPU 0 instructions: 1340000000 cycles: 1474004082 heartbeat IPC: 0.688473 cumulative IPC: 0.814557 (Simulation time: 5 hr 2 min 13 sec) 
Heartbeat CPU 3 instructions: 1100000000 cycles: 1478302207 heartbeat IPC: 0.643417 cumulative IPC: 0.641087 (Simulation time: 5 hr 3 min 3 sec) 
Heartbeat CPU 1 instructions: 1830000002 cycles: 1482237001 heartbeat IPC: 1.20353 cumulative IPC: 1.18395 (Simulation time: 5 hr 3 min 47 sec) 
Heartbeat CPU 0 instructions: 1350000000 cycles: 1488085197 heartbeat IPC: 0.710171 cumulative IPC: 0.813494 (Simulation time: 5 hr 4 min 54 sec) 
Heartbeat CPU 2 instructions: 950000000 cycles: 1489446084 heartbeat IPC: 0.57927 cumulative IPC: 0.531582 (Simulation time: 5 hr 5 min 10 sec) 
Heartbeat CPU 1 instructions: 1840000000 cycles: 1490514663 heartbeat IPC: 1.20807 cumulative IPC: 1.18409 (Simulation time: 5 hr 5 min 22 sec) 
Heartbeat CPU 3 instructions: 1110000000 cycles: 1493480769 heartbeat IPC: 0.658824 cumulative IPC: 0.641281 (Simulation time: 5 hr 5 min 56 sec) 
Heartbeat CPU 1 instructions: 1850000000 cycles: 1498781805 heartbeat IPC: 1.20961 cumulative IPC: 1.18424 (Simulation time: 5 hr 6 min 57 sec) 
Heartbeat CPU 0 instructions: 1360000000 cycles: 1502190442 heartbeat IPC: 0.708956 cumulative IPC: 0.812438 (Simulation time: 5 hr 7 min 36 sec) 
Heartbeat CPU 2 instructions: 960000000 cycles: 1506821799 heartbeat IPC: 0.575516 cumulative IPC: 0.532127 (Simulation time: 5 hr 8 min 30 sec) 
Heartbeat CPU 1 instructions: 1860000000 cycles: 1507055828 heartbeat IPC: 1.2086 cumulative IPC: 1.18439 (Simulation time: 5 hr 8 min 32 sec) 
Heartbeat CPU 3 instructions: 1120000000 cycles: 1508480966 heartbeat IPC: 0.666658 cumulative IPC: 0.641553 (Simulation time: 5 hr 8 min 49 sec) 
Heartbeat CPU 0 instructions: 1370000001 cycles: 1514809361 heartbeat IPC: 0.792461 cumulative IPC: 0.812259 (Simulation time: 5 hr 10 min 2 sec) 
Heartbeat CPU 1 instructions: 1870000002 cycles: 1515536427 heartbeat IPC: 1.17916 cumulative IPC: 1.18436 (Simulation time: 5 hr 10 min 11 sec) 
Heartbeat CPU 3 instructions: 1130000000 cycles: 1523682155 heartbeat IPC: 0.657843 cumulative IPC: 0.641727 (Simulation time: 5 hr 11 min 44 sec) 
Heartbeat CPU 1 instructions: 1880000000 cycles: 1523829165 heartbeat IPC: 1.20587 cumulative IPC: 1.18448 (Simulation time: 5 hr 11 min 46 sec) 
Heartbeat CPU 2 instructions: 970000000 cycles: 1524919328 heartbeat IPC: 0.552562 cumulative IPC: 0.532388 (Simulation time: 5 hr 11 min 59 sec) 
Heartbeat CPU 0 instructions: 1380000000 cycles: 1530004436 heartbeat IPC: 0.658108 cumulative IPC: 0.810615 (Simulation time: 5 hr 12 min 57 sec) 
Heartbeat CPU 1 instructions: 1890000000 cycles: 1532121911 heartbeat IPC: 1.20587 cumulative IPC: 1.18461 (Simulation time: 5 hr 13 min 22 sec) 
Heartbeat CPU 3 instructions: 1140000000 cycles: 1539159079 heartbeat IPC: 0.646123 cumulative IPC: 0.641775 (Simulation time: 5 hr 14 min 41 sec) 
Heartbeat CPU 1 instructions: 1900000000 cycles: 1540408706 heartbeat IPC: 1.20674 cumulative IPC: 1.18473 (Simulation time: 5 hr 14 min 55 sec) 
Heartbeat CPU 2 instructions: 980000000 cycles: 1542671988 heartbeat IPC: 0.563296 cumulative IPC: 0.53277 (Simulation time: 5 hr 15 min 21 sec) 
Heartbeat CPU 0 instructions: 1390000000 cycles: 1545207987 heartbeat IPC: 0.657741 cumulative IPC: 0.809 (Simulation time: 5 hr 15 min 50 sec) 
[...]
Heartbeat CPU 2 instructions: 1160000000 cycles: 1874705253 heartbeat IPC: 0.554913 cumulative IPC: 0.534523 (Simulation time: 6 hr 16 min 11 sec) 
Heartbeat CPU 3 instructions: 1360000000 cycles: 1877360227 heartbeat IPC: 0.654201 cumulative IPC: 0.64344 (Simulation time: 6 hr 16 min 40 sec) 
Heartbeat CPU 1 instructions: 2300000000 cycles: 1877633245 heartbeat IPC: 1.20045 cumulative IPC: 1.185 (Simulation time: 6 hr 16 min 43 sec) 
Heartbeat CPU 0 instructions: 1590000003 cycles: 1881496123 heartbeat IPC: 0.572537 cumulative IPC: 0.768428 (Simulation time: 6 hr 17 min 25 sec) 
Heartbeat CPU 1 instructions: 2310000001 cycles: 1886009936 heartbeat IPC: 1.19379 cumulative IPC: 1.18504 (Simulation time: 6 hr 18 min 14 sec) 
Heartbeat CPU 2 instructions: 1170000001 cycles: 1892348120 heartbeat IPC: 0.566801 cumulative IPC: 0.534842 (Simulation time: 6 hr 19 min 24 sec) 
Heartbeat CPU 3 instructions: 1370000001 cycles: 1892452235 heartbeat IPC: 0.662602 cumulative IPC: 0.643602 (Simulation time: 6 hr 19 min 25 sec) 
Heartbeat CPU 1 instructions: 2320000000 cycles: 1894385078 heartbeat IPC: 1.19401 cumulative IPC: 1.18509 (Simulation time: 6 hr 19 min 46 sec) 
Heartbeat CPU 0 instructions: 1600000000 cycles: 1898975882 heartbeat IPC: 0.57209 cumulative IPC: 0.766514 (Simulation time: 6 hr 20 min 36 sec) 
Heartbeat CPU 1 instructions: 2330000002 cycles: 1902684003 heartbeat IPC: 1.20498 cumulative IPC: 1.18518 (Simulation time: 6 hr 21 min 17 sec) 
Heartbeat CPU 3 instructions: 1380000000 cycles: 1907341906 heartbeat IPC: 0.671606 cumulative IPC: 0.643834 (Simulation time: 6 hr 22 min 8 sec) 
Heartbeat CPU 2 instructions: 1180000000 cycles: 1910911949 heartbeat IPC: 0.538682 cumulative IPC: 0.534881 (Simulation time: 6 hr 22 min 46 sec) 
Heartbeat CPU 1 instructions: 2340000000 cycles: 1911044367 heartbeat IPC: 1.19612 cumulative IPC: 1.18523 (Simulation time: 6 hr 22 min 48 sec) 
Heartbeat CPU 0 instructions: 1610000000 cycles: 1916459688 heartbeat IPC: 0.571958 cumulative IPC: 0.764636 (Simulation time: 6 hr 23 min 47 sec) 
Heartbeat CPU 1 instructions: 2350000000 cycles: 1919405178 heartbeat IPC: 1.19606 cumulative IPC: 1.18528 (Simulation time: 6 hr 24 min 19 sec) 
Heartbeat CPU 3 instructions: 1390000000 cycles: 1922535298 heartbeat IPC: 0.658181 cumulative IPC: 0.643953 (Simulation time: 6 hr 24 min 53 sec) 
Heartbeat CPU 1 instructions: 2360000000 cycles: 1927724918 heartbeat IPC: 1.20196 cumulative IPC: 1.18536 (Simulation time: 6 hr 25 min 50 sec) 
Heartbeat CPU 2 instructions: 1190000001 cycles: 1928871462 heartbeat IPC: 0.556808 cumulative IPC: 0.535097 (Simulation time: 6 hr 26 min 2 sec) 
Heartbeat CPU 0 instructions: 1620000000 cycles: 1933954126 heartbeat IPC: 0.57161 cumulative IPC: 0.762789 (Simulation time: 6 hr 26 min 58 sec) 
Heartbeat CPU 1 instructions: 2370000000 cycles: 1936099981 heartbeat IPC: 1.19402 cumulative IPC: 1.1854 (Simulation time: 6 hr 27 min 21 sec) 
Heartbeat CPU 3 instructions: 1400000000 cycles: 1937747368 heartbeat IPC: 0.657373 cumulative IPC: 0.644065 (Simulation time: 6 hr 27 min 39 sec) 
Heartbeat CPU 1 instructions: 2380000000 cycles: 1944431689 heartbeat IPC: 1.20023 cumulative IPC: 1.18546 (Simulation time: 6 hr 28 min 52 sec) 
Heartbeat CPU 2 instructions: 1200000000 cycles: 1947062888 heartbeat IPC: 0.549709 cumulative IPC: 0.535242 (Simulation time: 6 hr 29 min 20 sec) 
Heartbeat CPU 0 instructions: 1630000000 cycles: 1951439581 heartbeat IPC: 0.571904 cumulative IPC: 0.760981 (Simulation time: 6 hr 30 min 8 sec) 
Heartbeat CPU 1 instructions: 2390000003 cycles: 1952816852 heartbeat IPC: 1.19258 cumulative IPC: 1.18549 (Simulation time: 6 hr 30 min 23 sec) 
Heartbeat CPU 3 instructions: 1410000003 cycles: 1952861413 heartbeat IPC: 0.661636 cumulative IPC: 0.644209 (Simulation time: 6 hr 30 min 23 sec) 
Heartbeat CPU 1 instructions: 2400000000 cycles: 1961124782 heartbeat IPC: 1.20367 cumulative IPC: 1.18558 (Simulation time: 6 hr 31 min 53 sec) 
Heartbeat CPU 2 instructions: 1210000002 cycles: 1965010877 heartbeat IPC: 0.557166 cumulative IPC: 0.535453 (Simulation time: 6 hr 32 min 36 sec) 
Heartbeat CPU 3 instructions: 1420000000 cycles: 1968006379 heartbeat IPC: 0.660285 cumulative IPC: 0.644339 (Simulation time: 6 hr 33 min 9 sec) 
Heartbeat CPU 0 instructions: 1640000000 cycles: 1968928845 heartbeat IPC: 0.571779 cumulative IPC: 0.759205 (Simulation time: 6 hr 33 min 19 sec) 
Heartbeat CPU 1 instructions: 2410000000 cycles: 1969461621 heartbeat IPC: 1.1995 cumulative IPC: 1.18564 (Simulation time: 6 hr 33 min 25 sec) 
Finished CPU 2 instructions: 1000000003 cycles: 1867356707 cumulative IPC: 0.535516 (Simulation time: 6 hr 34 min 3 sec) 

CPU 0 Branch Prediction Accuracy: 98.5843% MPKI: 1.09513

CPU 1 Branch Prediction Accuracy: 99.9709% MPKI: 0.00727623

CPU 2 Branch Prediction Accuracy: 97.1053% MPKI: 0.511266

CPU 3 Branch Prediction Accuracy: 96.5602% MPKI: 4.43439

ChampSim completed all CPUs

Total Simulation Statistics (not including warmup)

CPU 0 cumulative IPC: 0.758832 instructions: 1417010872 cycles: 1867356706
L1D TOTAL     ACCESS:  339126956  HIT:  321505954  MISS:   17621002
L1D LOAD      ACCESS:  269550950  HIT:  255626696  MISS:   13924254
L1D RFO       ACCESS:   69576006  HIT:   65879258  MISS:    3696748
L1D PREFETCH  ACCESS:          0  HIT:          0  MISS:          0
L1D WRITEBACK ACCESS:          0  HIT:          0  MISS:          0
L1I TOTAL     ACCESS:  436901983  HIT:  436832450  MISS:      69533
L1I LOAD      ACCESS:  436901983  HIT:  436832450  MISS:      69533
L1I RFO       ACCESS:          0  HIT:          0  MISS:          0
L1I PREFETCH  ACCESS:          0  HIT:          0  MISS:          0
L1I WRITEBACK ACCESS:          0  HIT:          0  MISS:          0
L2C TOTAL     ACCESS:   40633464  HIT:   28283738  MISS:   12349726
L2C LOAD      ACCESS:   13993339  HIT:   12462280  MISS:    1531059
L2C RFO       ACCESS:    3660758  HIT:    1142068  MISS:    2518690
L2C PREFETCH  ACCESS:   16388264  HIT:    8093622  MISS:    8294642
L2C WRITEBACK ACCESS:    6591103  HIT:    6585768  MISS:       5335

Avg Lookahead Depth:	5.35046
TOTAL: 1.27337e+08	L2C: 1.11723e+08	LLC: 1.56143e+07	GOOD_L2C: 7.42119e+07
Printing all the perceptron weights to: perc_weights_0.csv
LLC TOTAL     ACCESS:   18138384  HIT:    6995593  MISS:   11142791
LLC LOAD      ACCESS:     700239  HIT:     177321  MISS:     522918
LLC RFO       ACCESS:    2517786  HIT:     368757  MISS:    2149029
LLC PREFETCH  ACCESS:    9991660  HIT:    1828878  MISS:    8162782
LLC WRITEBACK ACCESS:    4928699  HIT:    4620637  MISS:     308062

CPU 1 cumulative IPC: 1.18566 instructions: 2214058872 cycles: 1867356706
L1D TOTAL     ACCESS:  845905525  HIT:  799971736  MISS:   45933789
L1D LOAD      ACCESS:  724107828  HIT:  679545871  MISS:   44561957
L1D RFO       ACCESS:  121797697  HIT:  120425865  MISS:    1371832
L1D PREFETCH  ACCESS:          0  HIT:          0  MISS:          0
L1D WRITEBACK ACCESS:          0  HIT:          0  MISS:          0
L1I TOTAL     ACCESS:  543538296  HIT:  543538296  MISS:          0
L1I LOAD      ACCESS:  543538296  HIT:  543538296  MISS:          0
L1I RFO       ACCESS:          0  HIT:          0  MISS:          0
L1I PREFETCH  ACCESS:          0  HIT:          0  MISS:          0
L1I WRITEBACK ACCESS:          0  HIT:          0  MISS:          0
L2C TOTAL     ACCESS:  103920988  HIT:   61791172  MISS:   42129816
L2C LOAD      ACCESS:   44548113  HIT:   42538647  MISS:    2009466
L2C RFO       ACCESS:    1344476  HIT:     265689  MISS:    1078787
L2C PREFETCH  ACCESS:   56528986  HIT:   17490361  MISS:   39038625
L2C WRITEBACK ACCESS:    1499413  HIT:    1496475  MISS:       2938

Avg Lookahead Depth:	5.35046
TOTAL: 1.27337e+08	L2C: 1.11723e+08	LLC: 1.56143e+07	GOOD_L2C: 7.42119e+07
Printing all the perceptron weights to: perc_weights_0.csv
LLC TOTAL     ACCESS:   45559301  HIT:    3480036  MISS:   42079265
LLC LOAD      ACCESS:    1750540  HIT:      31236  MISS:    1719304
LLC RFO       ACCESS:    1078787  HIT:          0  MISS:    1078787
LLC PREFETCH  ACCESS:   41646121  HIT:    2365996  MISS:   39280125
LLC WRITEBACK ACCESS:    1083853  HIT:    1082804  MISS:       1049

CPU 2 cumulative IPC: 0.535516 instructions: 1000000003 cycles: 1867356707
L1D TOTAL     ACCESS:  284362224  HIT:  206046443  MISS:   78315781
L1D LOAD      ACCESS:  101717083  HIT:   89842042  MISS:   11875041
L1D RFO       ACCESS:  182645141  HIT:  116204401  MISS:   66440740
L1D PREFETCH  ACCESS:          0  HIT:          0  MISS:          0
L1D WRITEBACK ACCESS:          0  HIT:          0  MISS:          0
L1I TOTAL     ACCESS:  240730792  HIT:  240730792  MISS:          0
L1I LOAD      ACCESS:  240730792  HIT:  240730792  MISS:          0
L1I RFO       ACCESS:          0  HIT:          0  MISS:          0
L1I PREFETCH  ACCESS:          0  HIT:          0  MISS:          0
L1I WRITEBACK ACCESS:          0  HIT:          0  MISS:          0
L2C TOTAL     ACCESS:  156777030  HIT:   99067495  MISS:   57709535
L2C LOAD      ACCESS:   11875041  HIT:   10628707  MISS:    1246334
L2C RFO       ACCESS:   66440636  HIT:   20623328  MISS:   45817308
L2C PREFETCH  ACCESS:   12020610  HIT:    1392209  MISS:   10628401
L2C WRITEBACK ACCESS:   66440743  HIT:   66423251  MISS:      17492

Avg Lookahead Depth:	5.35046
TOTAL: 1.27337e+08	L2C: 1.11723e+08	LLC: 1.56143e+07	GOOD_L2C: 7.42119e+07
Printing all the perceptron weights to: perc_weights_0.csv
LLC TOTAL     ACCESS:  103545962  HIT:   56103197  MISS:   47442765
LLC LOAD      ACCESS:     552212  HIT:      10505  MISS:     541707
LLC RFO       ACCESS:   45796119  HIT:   10219531  MISS:   35576588
LLC PREFETCH  ACCESS:   11362959  HIT:      42081  MISS:   11320878
LLC WRITEBACK ACCESS:   45834672  HIT:   45831080  MISS:       3592

CPU 3 cumulative IPC: 0.644445 instructions: 1203409067 cycles: 1867356707
L1D TOTAL     ACCESS:  317840994  HIT:  308989738  MISS:    8851256
L1D LOAD      ACCESS:  190482718  HIT:  181992775  MISS:    8489943
L1D RFO       ACCESS:  127358276  HIT:  126996963  MISS:     361313
L1D PREFETCH  ACCESS:          0  HIT:          0  MISS:          0
L1D WRITEBACK ACCESS:          0  HIT:          0  MISS:          0
L1I TOTAL     ACCESS:  267757633  HIT:  267757630  MISS:          3
L1I LOAD      ACCESS:  267757633  HIT:  267757630  MISS:          3
L1I RFO       ACCESS:          0  HIT:          0  MISS:          0
L1I PREFETCH  ACCESS:          0  HIT:          0  MISS:          0
L1I WRITEBACK ACCESS:          0  HIT:          0  MISS:          0
L2C TOTAL     ACCESS:   21058900  HIT:   12282344  MISS:    8776556
L2C LOAD      ACCESS:    8489946  HIT:    5438854  MISS:    3051092
L2C RFO       ACCESS:     361294  HIT:     154033  MISS:     207261
L2C PREFETCH  ACCESS:   11631600  HIT:    6123024  MISS:    5508576
L2C WRITEBACK ACCESS:     576060  HIT:     566433  MISS:       9627

Avg Lookahead Depth:	5.35046
TOTAL: 1.27337e+08	L2C: 1.11723e+08	LLC: 1.56143e+07	GOOD_L2C: 7.42119e+07
Printing all the perceptron weights to: perc_weights_0.csv
LLC TOTAL     ACCESS:   11822060  HIT:   10466997  MISS:    1355063
LLC LOAD      ACCESS:    2901117  HIT:    2705393  MISS:     195724
LLC RFO       ACCESS:     207154  HIT:      43178  MISS:     163976
LLC PREFETCH  ACCESS:    8420649  HIT:    7447862  MISS:     972787
LLC WRITEBACK ACCESS:     293140  HIT:     270564  MISS:      22576

Region of Interest Statistics

CPU 0 cumulative IPC: 0.831039 instructions: 1000000001 cycles: 1203313530
L1D TOTAL     ACCESS:  252190065  HIT:  237027520  MISS:   15162545
L1D LOAD      ACCESS:  205930567  HIT:  193542037  MISS:   12388530
L1D RFO       ACCESS:   46259498  HIT:   43485483  MISS:    2774015
L1D PREFETCH  ACCESS:          0  HIT:          0  MISS:          0
L1D WRITEBACK ACCESS:          0  HIT:          0  MISS:          0
L1D PREFETCH  REQUESTED:          0  ISSUED:          0  USEFUL:          0  USELESS:          0
L1I TOTAL     ACCESS:  287667063  HIT:  287619924  MISS:      47139
L1I LOAD      ACCESS:  287667063  HIT:  287619924  MISS:      47139
L1I RFO       ACCESS:          0  HIT:          0  MISS:          0
L1I PREFETCH  ACCESS:          0  HIT:          0  MISS:          0
L1I WRITEBACK ACCESS:          0  HIT:          0  MISS:          0
L1I PREFETCH  REQUESTED:          0  ISSUED:          0  USEFUL:          0  USELESS:          0
L2C TOTAL     ACCESS:   35341526  HIT:   24453103  MISS:   10888423
L2C LOAD      ACCESS:   12435230  HIT:   11121504  MISS:    1313726
L2C RFO       ACCESS:    2759557  HIT:     807021  MISS:    1952536
L2C PREFETCH  ACCESS:   14805222  HIT:    7188093  MISS:    7617129
L2C WRITEBACK ACCESS:    5341517  HIT:    5336485  MISS:       5032
L2C PREFETCH  REQUESTED:   22997374  ISSUED:   22851957  USEFUL:    9546429  USELESS:     477106
LLC TOTAL     ACCESS:   15652648  HIT:    5950313  MISS:    9702335
LLC LOAD      ACCESS:     589208  HIT:     155608  MISS:     433600
LLC RFO       ACCESS:    1951799  HIT:     288694  MISS:    1663105
LLC PREFETCH  ACCESS:    9017987  HIT:    1607473  MISS:    7410514
LLC WRITEBACK ACCESS:    4093654  HIT:    3898538  MISS:     195116
LLC PREFETCH  REQUESTED:          0  ISSUED:          0  USEFUL:     417076  USELESS:   66989683
Major fault: 0 Minor fault: 17651

CPU 1 cumulative IPC: 1.16933 instructions: 1000000000 cycles: 855191952
L1D TOTAL     ACCESS:  382010820  HIT:  361268514  MISS:   20742306
L1D LOAD      ACCESS:  327041821  HIT:  306917405  MISS:   20124416
L1D RFO       ACCESS:   54968999  HIT:   54351109  MISS:     617890
L1D PREFETCH  ACCESS:          0  HIT:          0  MISS:          0
L1D WRITEBACK ACCESS:          0  HIT:          0  MISS:          0
L1D PREFETCH  REQUESTED:          0  ISSUED:          0  USEFUL:          0  USELESS:          0
L1I TOTAL     ACCESS:  245528124  HIT:  245528124  MISS:          0
L1I LOAD      ACCESS:  245528124  HIT:  245528124  MISS:          0
L1I RFO       ACCESS:          0  HIT:          0  MISS:          0
L1I PREFETCH  ACCESS:          0  HIT:          0  MISS:          0
L1I WRITEBACK ACCESS:          0  HIT:          0  MISS:          0
L1I PREFETCH  REQUESTED:          0  ISSUED:          0  USEFUL:          0  USELESS:          0
L2C TOTAL     ACCESS:   47234955  HIT:   28207500  MISS:   19027455
L2C LOAD      ACCESS:   20118194  HIT:   19172892  MISS:     945302
L2C RFO       ACCESS:     605595  HIT:     118352  MISS:     487243
L2C PREFETCH  ACCESS:   25835708  HIT:    8242126  MISS:   17593582
L2C WRITEBACK ACCESS:     675458  HIT:     674130  MISS:       1328
L2C PREFETCH  REQUESTED:   70667553  ISSUED:   69635559  USEFUL:   42611416  USELESS:      17382
LLC TOTAL     ACCESS:   20635349  HIT:    1630004  MISS:   19005345
LLC LOAD      ACCESS:     804652  HIT:      17432  MISS:     787220
LLC RFO       ACCESS:     487243  HIT:          0  MISS:     487243
LLC PREFETCH  ACCESS:   18853933  HIT:    1123564  MISS:   17730369
LLC WRITEBACK ACCESS:     489521  HIT:     489008  MISS:        513
LLC PREFETCH  REQUESTED:          0  ISSUED:          0  USEFUL:     417076  USELESS:   66989683
Major fault: 0 Minor fault: 563665

CPU 2 cumulative IPC: 0.535516 instructions: 1000000003 cycles: 1867356707
L1D TOTAL     ACCESS:  284362224  HIT:  206046443  MISS:   78315781
L1D LOAD      ACCESS:  101717083  HIT:   89842042  MISS:   11875041
L1D RFO       ACCESS:  182645141  HIT:  116204401  MISS:   66440740
L1D PREFETCH  ACCESS:          0  HIT:          0  MISS:          0
L1D WRITEBACK ACCESS:          0  HIT:          0  MISS:          0
L1D PREFETCH  REQUESTED:          0  ISSUED:          0  USEFUL:          0  USELESS:          0
L1I TOTAL     ACCESS:  240730792  HIT:  240730792  MISS:          0
L1I LOAD      ACCESS:  240730792  HIT:  240730792  MISS:          0
L1I RFO       ACCESS:          0  HIT:          0  MISS:          0
L1I PREFETCH  ACCESS:          0  HIT:          0  MISS:          0
L1I WRITEBACK ACCESS:          0  HIT:          0  MISS:          0
L1I PREFETCH  REQUESTED:          0  ISSUED:          0  USEFUL:          0  USELESS:          0
L2C TOTAL     ACCESS:  156777030  HIT:   99067495  MISS:   57709535
L2C LOAD      ACCESS:   11875041  HIT:   10628707  MISS:    1246334
L2C RFO       ACCESS:   66440636  HIT:   20623328  MISS:   45817308
L2C PREFETCH  ACCESS:   12020610  HIT:    1392209  MISS:   10628401
L2C WRITEBACK ACCESS:   66440743  HIT:   66423251  MISS:      17492
L2C PREFETCH  REQUESTED:   16175809  ISSUED:   16175809  USEFUL:   13096426  USELESS:       8169
LLC TOTAL     ACCESS:  103545962  HIT:   56103197  MISS:   47442765
LLC LOAD      ACCESS:     552212  HIT:      10505  MISS:     541707
LLC RFO       ACCESS:   45796119  HIT:   10219531  MISS:   35576588
LLC PREFETCH  ACCESS:   11362959  HIT:      42081  MISS:   11320878
LLC WRITEBACK ACCESS:   45834672  HIT:   45831080  MISS:       3592
LLC PREFETCH  REQUESTED:          0  ISSUED:          0  USEFUL:     417076  USELESS:   66989683
Major fault: 0 Minor fault: 453178

CPU 3 cumulative IPC: 0.642366 instructions: 1000000003 cycles: 1556745513
L1D TOTAL     ACCESS:  264034851  HIT:  256707925  MISS:    7326926
L1D LOAD      ACCESS:  158304641  HIT:  151274831  MISS:    7029810
L1D RFO       ACCESS:  105730210  HIT:  105433094  MISS:     297116
L1D PREFETCH  ACCESS:          0  HIT:          0  MISS:          0
L1D WRITEBACK ACCESS:          0  HIT:          0  MISS:          0
L1D PREFETCH  REQUESTED:          0  ISSUED:          0  USEFUL:          0  USELESS:          0
L1I TOTAL     ACCESS:  222360150  HIT:  222360147  MISS:          3
L1I LOAD      ACCESS:  222360150  HIT:  222360147  MISS:          3
L1I RFO       ACCESS:          0  HIT:          0  MISS:          0
L1I PREFETCH  ACCESS:          0  HIT:          0  MISS:          0
L1I WRITEBACK ACCESS:          0  HIT:          0  MISS:          0
L1I PREFETCH  REQUESTED:          0  ISSUED:          0  USEFUL:          0  USELESS:          0
L2C TOTAL     ACCESS:   17349263  HIT:    9849191  MISS:    7500072
L2C LOAD      ACCESS:    7029813  HIT:    4395982  MISS:    2633831
L2C RFO       ACCESS:     297097  HIT:     121909  MISS:     175188
L2C PREFETCH  ACCESS:    9547910  HIT:    4865284  MISS:    4682626
L2C WRITEBACK ACCESS:     474443  HIT:     466016  MISS:       8427
L2C PREFETCH  REQUESTED:   17496589  ISSUED:   17496589  USEFUL:    4790517  USELESS:    1538608
LLC TOTAL     ACCESS:   10090506  HIT:    8911952  MISS:    1178554
LLC LOAD      ACCESS:    2503146  HIT:    2328494  MISS:     174652
LLC RFO       ACCESS:     175098  HIT:      39213  MISS:     135885
LLC PREFETCH  ACCESS:    7158275  HIT:    6308490  MISS:     849785
LLC WRITEBACK ACCESS:     253987  HIT:     235755  MISS:      18232
LLC PREFETCH  REQUESTED:          0  ISSUED:          0  USEFUL:     417076  USELESS:   66989683
Major fault: 0 Minor fault: 3401

Avg Lookahead Depth:	5.35046
TOTAL: 1.27337e+08	L2C: 1.11723e+08	LLC: 1.56143e+07	GOOD_L2C: 7.42119e+07
Printing all the perceptron weights to: perc_weights_0.csv

Avg Lookahead Depth:	5.35046
TOTAL: 1.27337e+08	L2C: 1.11723e+08	LLC: 1.56143e+07	GOOD_L2C: 7.42119e+07
Printing all the perceptron weights to: perc_weights_0.csv

Avg Lookahead Depth:	5.35046
TOTAL: 1.27337e+08	L2C: 1.11723e+08	LLC: 1.56143e+07	GOOD_L2C: 7.42119e+07
Printing all the perceptron weights to: perc_weights_0.csv

Avg Lookahead Depth:	5.35046
TOTAL: 1.27337e+08	L2C: 1.11723e+08	LLC: 1.56143e+07	GOOD_L2C: 7.42119e+07
Printing all the perceptron weights to: perc_weights_0.csv

DRAM Statistics
 CHANNEL 0
 RQ ROW_BUFFER_HIT:   23463311  ROW_BUFFER_MISS:   27375895
 DBUS_CONGESTED:  103713804
 WQ ROW_BUFFER_HIT:    2105312  ROW_BUFFER_MISS:   18437023  FULL:          0

 CHANNEL 1
 RQ ROW_BUFFER_HIT:   23424439  ROW_BUFFER_MISS:   27419963
 DBUS_CONGESTED:  103713804
 WQ ROW_BUFFER_HIT:    2101633  ROW_BUFFER_MISS:   18440749  FULL:          0

 AVG_CONGESTED_CYCLE: 13
