Initialize SIGNATURE TABLE
ST_SET: 1
ST_WAY: 256
ST_TAG_BIT: 16
ST_TAG_MASK: ffff

Initialize PATTERN TABLE
PT_SET: 512
PT_WAY: 4
SIG_DELTA_BIT: 7
C_SIG_BIT: 4
C_DELTA_BIT: 4

Initialize PREFETCH FILTER
FILTER_SET: 1024

Initialize PERCEPTRON
PERC_ENTRIES: 4096
PERC_FEATURES: 9

*** ChampSim Multicore Out-of-Order Simulator ***

Warmup Instructions: 200000000
Simulation Instructions: 1000000000
Number of CPUs: 4
LLC sets: 8192
LLC ways: 16
Off-chip DRAM Size: 8192 MB Channels: 2 Width: 64-bit Data Rate: 1600 MT/s

CPU 0 runs /scratch/user/djimenez/champsim-traces/speccpu2017/xz/649.fotonik3d_s/649.fotonik3d_s-8225B.champsimtrace.xz
CPU 1 runs /scratch/user/djimenez/champsim-traces/speccpu2017/xz/602.gcc_s/602.gcc_s-2375B.champsimtrace.xz
CPU 2 runs /scratch/user/djimenez/champsim-traces/speccpu2017/xz/620.omnetpp_s/620.omnetpp_s-874B.champsimtrace.xz
CPU 3 runs /scratch/user/djimenez/champsim-traces/speccpu2017/xz/603.bwaves_s/603.bwaves_s-2609B.champsimtrace.xz
Heartbeat CPU 0 instructions: 10000001 cycles: 4400312 heartbeat IPC: 2.27257 cumulative IPC: 2.27257 (Simulation time: 0 hr 1 min 25 sec) 
Heartbeat CPU 3 instructions: 10000001 cycles: 5273819 heartbeat IPC: 1.89616 cumulative IPC: 1.89616 (Simulation time: 0 hr 1 min 42 sec) 
Heartbeat CPU 1 instructions: 10000002 cycles: 6785828 heartbeat IPC: 1.47366 cumulative IPC: 1.47366 (Simulation time: 0 hr 2 min 11 sec) 
Heartbeat CPU 2 instructions: 10000000 cycles: 7371831 heartbeat IPC: 1.35652 cumulative IPC: 1.35652 (Simulation time: 0 hr 2 min 22 sec) 
Heartbeat CPU 0 instructions: 20000000 cycles: 8799910 heartbeat IPC: 2.27293 cumulative IPC: 2.27275 (Simulation time: 0 hr 2 min 50 sec) 
Heartbeat CPU 3 instructions: 20000000 cycles: 10549029 heartbeat IPC: 1.89566 cumulative IPC: 1.89591 (Simulation time: 0 hr 3 min 24 sec) 
Heartbeat CPU 0 instructions: 30000003 cycles: 13199261 heartbeat IPC: 2.27306 cumulative IPC: 2.27285 (Simulation time: 0 hr 4 min 14 sec) 
Heartbeat CPU 1 instructions: 20000000 cycles: 13328053 heartbeat IPC: 1.52853 cumulative IPC: 1.50059 (Simulation time: 0 hr 4 min 16 sec) 
Heartbeat CPU 2 instructions: 20000000 cycles: 14725989 heartbeat IPC: 1.35977 cumulative IPC: 1.35814 (Simulation time: 0 hr 4 min 42 sec) 
Heartbeat CPU 3 instructions: 30000000 cycles: 15820855 heartbeat IPC: 1.89688 cumulative IPC: 1.89623 (Simulation time: 0 hr 5 min 2 sec) 
Heartbeat CPU 0 instructions: 40000000 cycles: 17598590 heartbeat IPC: 2.27307 cumulative IPC: 2.27291 (Simulation time: 0 hr 5 min 36 sec) 
Heartbeat CPU 1 instructions: 30000001 cycles: 20183150 heartbeat IPC: 1.45877 cumulative IPC: 1.48639 (Simulation time: 0 hr 6 min 25 sec) 
Heartbeat CPU 3 instructions: 40000000 cycles: 21094500 heartbeat IPC: 1.89622 cumulative IPC: 1.89623 (Simulation time: 0 hr 6 min 42 sec) 
Heartbeat CPU 0 instructions: 50000002 cycles: 21997886 heartbeat IPC: 2.27309 cumulative IPC: 2.27295 (Simulation time: 0 hr 7 min 0 sec) 
Heartbeat CPU 2 instructions: 30000001 cycles: 22081273 heartbeat IPC: 1.35957 cumulative IPC: 1.35862 (Simulation time: 0 hr 7 min 1 sec) 
Heartbeat CPU 1 instructions: 40000000 cycles: 26347162 heartbeat IPC: 1.62232 cumulative IPC: 1.51819 (Simulation time: 0 hr 8 min 23 sec) 
Heartbeat CPU 3 instructions: 50000002 cycles: 26371302 heartbeat IPC: 1.89509 cumulative IPC: 1.896 (Simulation time: 0 hr 8 min 23 sec) 
Heartbeat CPU 0 instructions: 60000000 cycles: 26397849 heartbeat IPC: 2.27275 cumulative IPC: 2.27291 (Simulation time: 0 hr 8 min 24 sec) 
Heartbeat CPU 2 instructions: 40000000 cycles: 29446594 heartbeat IPC: 1.35771 cumulative IPC: 1.35839 (Simulation time: 0 hr 9 min 24 sec) 
Heartbeat CPU 0 instructions: 70000001 cycles: 30798308 heartbeat IPC: 2.27249 cumulative IPC: 2.27285 (Simulation time: 0 hr 9 min 50 sec) 
Heartbeat CPU 3 instructions: 60000000 cycles: 31644562 heartbeat IPC: 1.89636 cumulative IPC: 1.89606 (Simulation time: 0 hr 10 min 7 sec) 
Heartbeat CPU 1 instructions: 50000001 cycles: 32217873 heartbeat IPC: 1.70337 cumulative IPC: 1.55193 (Simulation time: 0 hr 10 min 19 sec) 
Heartbeat CPU 0 instructions: 80000000 cycles: 35197641 heartbeat IPC: 2.27307 cumulative IPC: 2.27288 (Simulation time: 0 hr 11 min 15 sec) 
Heartbeat CPU 2 instructions: 50000000 cycles: 36811686 heartbeat IPC: 1.35776 cumulative IPC: 1.35826 (Simulation time: 0 hr 11 min 46 sec) 
Heartbeat CPU 3 instructions: 70000000 cycles: 36919658 heartbeat IPC: 1.8957 cumulative IPC: 1.89601 (Simulation time: 0 hr 11 min 48 sec) 
Heartbeat CPU 1 instructions: 60000000 cycles: 37888625 heartbeat IPC: 1.76343 cumulative IPC: 1.58359 (Simulation time: 0 hr 12 min 7 sec) 
Heartbeat CPU 0 instructions: 90000002 cycles: 39596769 heartbeat IPC: 2.27318 cumulative IPC: 2.27291 (Simulation time: 0 hr 12 min 40 sec) 
Heartbeat CPU 3 instructions: 80000000 cycles: 42194157 heartbeat IPC: 1.89591 cumulative IPC: 1.896 (Simulation time: 0 hr 13 min 30 sec) 
Heartbeat CPU 0 instructions: 100000000 cycles: 43995979 heartbeat IPC: 2.27313 cumulative IPC: 2.27293 (Simulation time: 0 hr 14 min 4 sec) 
Heartbeat CPU 2 instructions: 60000000 cycles: 44183748 heartbeat IPC: 1.35647 cumulative IPC: 1.35797 (Simulation time: 0 hr 14 min 8 sec) 
Heartbeat CPU 1 instructions: 70000001 cycles: 44499043 heartbeat IPC: 1.51276 cumulative IPC: 1.57307 (Simulation time: 0 hr 14 min 14 sec) 
Heartbeat CPU 3 instructions: 90000002 cycles: 47466917 heartbeat IPC: 1.89654 cumulative IPC: 1.89606 (Simulation time: 0 hr 15 min 11 sec) 
Heartbeat CPU 0 instructions: 110000000 cycles: 48395377 heartbeat IPC: 2.27304 cumulative IPC: 2.27294 (Simulation time: 0 hr 15 min 28 sec) 
Heartbeat CPU 1 instructions: 80000000 cycles: 50280227 heartbeat IPC: 1.72975 cumulative IPC: 1.59108 (Simulation time: 0 hr 16 min 4 sec) 
Heartbeat CPU 2 instructions: 70000000 cycles: 51544596 heartbeat IPC: 1.35854 cumulative IPC: 1.35805 (Simulation time: 0 hr 16 min 27 sec) 
Heartbeat CPU 3 instructions: 100000000 cycles: 52741288 heartbeat IPC: 1.89596 cumulative IPC: 1.89605 (Simulation time: 0 hr 16 min 50 sec) 
Heartbeat CPU 0 instructions: 120000000 cycles: 52795699 heartbeat IPC: 2.27256 cumulative IPC: 2.27291 (Simulation time: 0 hr 16 min 51 sec) 
Heartbeat CPU 1 instructions: 90000003 cycles: 55869788 heartbeat IPC: 1.78905 cumulative IPC: 1.61089 (Simulation time: 0 hr 17 min 48 sec) 
Heartbeat CPU 0 instructions: 130000002 cycles: 57195764 heartbeat IPC: 2.27269 cumulative IPC: 2.2729 (Simulation time: 0 hr 18 min 13 sec) 
Heartbeat CPU 3 instructions: 110000002 cycles: 58016828 heartbeat IPC: 1.89554 cumulative IPC: 1.896 (Simulation time: 0 hr 18 min 28 sec) 
Heartbeat CPU 2 instructions: 80000000 cycles: 58899050 heartbeat IPC: 1.35972 cumulative IPC: 1.35826 (Simulation time: 0 hr 18 min 45 sec) 
Heartbeat CPU 0 instructions: 140000000 cycles: 61595417 heartbeat IPC: 2.27291 cumulative IPC: 2.2729 (Simulation time: 0 hr 19 min 40 sec) 
Heartbeat CPU 1 instructions: 100000000 cycles: 62280449 heartbeat IPC: 1.5599 cumulative IPC: 1.60564 (Simulation time: 0 hr 19 min 54 sec) 
Heartbeat CPU 3 instructions: 120000000 cycles: 63290364 heartbeat IPC: 1.89626 cumulative IPC: 1.89602 (Simulation time: 0 hr 20 min 13 sec) 
Heartbeat CPU 0 instructions: 150000000 cycles: 65994635 heartbeat IPC: 2.27313 cumulative IPC: 2.27291 (Simulation time: 0 hr 21 min 5 sec) 
Heartbeat CPU 2 instructions: 90000000 cycles: 66256708 heartbeat IPC: 1.35913 cumulative IPC: 1.35835 (Simulation time: 0 hr 21 min 10 sec) 
Heartbeat CPU 3 instructions: 130000002 cycles: 68565914 heartbeat IPC: 1.89554 cumulative IPC: 1.89599 (Simulation time: 0 hr 21 min 54 sec) 
Heartbeat CPU 1 instructions: 110000003 cycles: 68770298 heartbeat IPC: 1.54087 cumulative IPC: 1.59953 (Simulation time: 0 hr 21 min 58 sec) 
Heartbeat CPU 0 instructions: 160000000 cycles: 70393634 heartbeat IPC: 2.27324 cumulative IPC: 2.27293 (Simulation time: 0 hr 22 min 29 sec) 
Heartbeat CPU 2 instructions: 100000000 cycles: 73633808 heartbeat IPC: 1.35555 cumulative IPC: 1.35807 (Simulation time: 0 hr 23 min 33 sec) 
Heartbeat CPU 3 instructions: 140000000 cycles: 73839727 heartbeat IPC: 1.89616 cumulative IPC: 1.896 (Simulation time: 0 hr 23 min 37 sec) 
Heartbeat CPU 0 instructions: 170000002 cycles: 74793110 heartbeat IPC: 2.273 cumulative IPC: 2.27294 (Simulation time: 0 hr 23 min 55 sec) 
Heartbeat CPU 1 instructions: 120000000 cycles: 75518022 heartbeat IPC: 1.48198 cumulative IPC: 1.58902 (Simulation time: 0 hr 24 min 9 sec) 
Heartbeat CPU 3 instructions: 150000002 cycles: 79113644 heartbeat IPC: 1.89612 cumulative IPC: 1.89601 (Simulation time: 0 hr 25 min 20 sec) 
Heartbeat CPU 0 instructions: 180000000 cycles: 79193458 heartbeat IPC: 2.27255 cumulative IPC: 2.27292 (Simulation time: 0 hr 25 min 22 sec) 
Heartbeat CPU 2 instructions: 110000003 cycles: 80973956 heartbeat IPC: 1.36237 cumulative IPC: 1.35846 (Simulation time: 0 hr 25 min 57 sec) 
Heartbeat CPU 1 instructions: 130000002 cycles: 81640692 heartbeat IPC: 1.63327 cumulative IPC: 1.59234 (Simulation time: 0 hr 26 min 10 sec) 
Heartbeat CPU 0 instructions: 190000000 cycles: 83593364 heartbeat IPC: 2.27278 cumulative IPC: 2.27291 (Simulation time: 0 hr 26 min 48 sec) 
Heartbeat CPU 3 instructions: 160000000 cycles: 84387593 heartbeat IPC: 1.89611 cumulative IPC: 1.89601 (Simulation time: 0 hr 27 min 4 sec) 
Heartbeat CPU 0 instructions: 200000000 cycles: 87992886 heartbeat IPC: 2.27297 cumulative IPC: 2.27291 (Simulation time: 0 hr 28 min 14 sec) 
Heartbeat CPU 1 instructions: 140000000 cycles: 88186294 heartbeat IPC: 1.52774 cumulative IPC: 1.58755 (Simulation time: 0 hr 28 min 18 sec) 
Heartbeat CPU 2 instructions: 120000000 cycles: 88334107 heartbeat IPC: 1.35867 cumulative IPC: 1.35848 (Simulation time: 0 hr 28 min 21 sec) 
Heartbeat CPU 3 instructions: 170000002 cycles: 89661599 heartbeat IPC: 1.89609 cumulative IPC: 1.89602 (Simulation time: 0 hr 28 min 46 sec) 
Heartbeat CPU 0 instructions: 210000002 cycles: 92392106 heartbeat IPC: 2.27313 cumulative IPC: 0.108234 (Simulation time: 0 hr 29 min 40 sec) 
Heartbeat CPU 1 instructions: 150000000 cycles: 94724691 heartbeat IPC: 1.52943 cumulative IPC: 1.58354 (Simulation time: 0 hr 30 min 26 sec) 
Heartbeat CPU 3 instructions: 180000000 cycles: 94935673 heartbeat IPC: 1.89607 cumulative IPC: 1.89602 (Simulation time: 0 hr 30 min 30 sec) 
Heartbeat CPU 2 instructions: 130000000 cycles: 95678043 heartbeat IPC: 1.36167 cumulative IPC: 1.35872 (Simulation time: 0 hr 30 min 45 sec) 
Heartbeat CPU 0 instructions: 220000000 cycles: 96791015 heartbeat IPC: 2.27329 cumulative IPC: 0.206631 (Simulation time: 0 hr 31 min 7 sec) 
Heartbeat CPU 3 instructions: 190000000 cycles: 100210367 heartbeat IPC: 1.89584 cumulative IPC: 1.89601 (Simulation time: 0 hr 32 min 16 sec) 
Heartbeat CPU 1 instructions: 160000000 cycles: 100462210 heartbeat IPC: 1.74291 cumulative IPC: 1.59264 (Simulation time: 0 hr 32 min 21 sec) 
Heartbeat CPU 0 instructions: 230000001 cycles: 101190595 heartbeat IPC: 2.27294 cumulative IPC: 0.29647 (Simulation time: 0 hr 32 min 34 sec) 
Heartbeat CPU 2 instructions: 140000000 cycles: 103047376 heartbeat IPC: 1.35697 cumulative IPC: 1.3586 (Simulation time: 0 hr 33 min 9 sec) 
Heartbeat CPU 3 instructions: 200000000 cycles: 105484508 heartbeat IPC: 1.89604 cumulative IPC: 1.89601 (Simulation time: 0 hr 33 min 54 sec) 
Heartbeat CPU 0 instructions: 240000000 cycles: 105591067 heartbeat IPC: 2.27248 cumulative IPC: 0.37882 (Simulation time: 0 hr 33 min 56 sec) 
Heartbeat CPU 1 instructions: 170000000 cycles: 107345469 heartbeat IPC: 1.4528 cumulative IPC: 1.58367 (Simulation time: 0 hr 34 min 29 sec) 
Heartbeat CPU 0 instructions: 250000000 cycles: 109990991 heartbeat IPC: 2.27277 cumulative IPC: 0.454583 (Simulation time: 0 hr 35 min 18 sec) 
Heartbeat CPU 2 instructions: 150000001 cycles: 110424160 heartbeat IPC: 1.3556 cumulative IPC: 1.3584 (Simulation time: 0 hr 35 min 26 sec) 
Heartbeat CPU 3 instructions: 210000001 cycles: 110758028 heartbeat IPC: 1.89627 cumulative IPC: 0.0902869 (Simulation time: 0 hr 35 min 33 sec) 
Heartbeat CPU 1 instructions: 180000000 cycles: 113568284 heartbeat IPC: 1.60699 cumulative IPC: 1.58495 (Simulation time: 0 hr 36 min 25 sec) 
Heartbeat CPU 0 instructions: 260000000 cycles: 114390249 heartbeat IPC: 2.27311 cumulative IPC: 0.52452 (Simulation time: 0 hr 36 min 40 sec) 
Heartbeat CPU 3 instructions: 220000000 cycles: 116030558 heartbeat IPC: 1.89662 cumulative IPC: 0.172368 (Simulation time: 0 hr 37 min 11 sec) 
Heartbeat CPU 2 instructions: 160000000 cycles: 117805364 heartbeat IPC: 1.35479 cumulative IPC: 1.35817 (Simulation time: 0 hr 37 min 44 sec) 
Heartbeat CPU 0 instructions: 270000001 cycles: 118789636 heartbeat IPC: 2.27304 cumulative IPC: 0.589277 (Simulation time: 0 hr 38 min 3 sec) 
Heartbeat CPU 1 instructions: 190000001 cycles: 120489171 heartbeat IPC: 1.4449 cumulative IPC: 1.57691 (Simulation time: 0 hr 38 min 35 sec) 
Heartbeat CPU 3 instructions: 230000001 cycles: 121306359 heartbeat IPC: 1.89545 cumulative IPC: 0.247308 (Simulation time: 0 hr 38 min 50 sec) 
Heartbeat CPU 0 instructions: 280000000 cycles: 123188807 heartbeat IPC: 2.27316 cumulative IPC: 0.64941 (Simulation time: 0 hr 39 min 26 sec) 
Heartbeat CPU 2 instructions: 170000003 cycles: 125164409 heartbeat IPC: 1.35887 cumulative IPC: 1.35821 (Simulation time: 0 hr 40 min 3 sec) 
Heartbeat CPU 3 instructions: 240000000 cycles: 126581338 heartbeat IPC: 1.89574 cumulative IPC: 0.316002 (Simulation time: 0 hr 40 min 29 sec) 
Heartbeat CPU 1 instructions: 200000000 cycles: 127249864 heartbeat IPC: 1.47914 cumulative IPC: 1.57171 (Simulation time: 0 hr 40 min 42 sec) 
Heartbeat CPU 0 instructions: 290000003 cycles: 127588793 heartbeat IPC: 2.27274 cumulative IPC: 0.705391 (Simulation time: 0 hr 40 min 48 sec) 
Heartbeat CPU 3 instructions: 250000000 cycles: 131855412 heartbeat IPC: 1.89607 cumulative IPC: 0.379203 (Simulation time: 0 hr 42 min 8 sec) 
Heartbeat CPU 0 instructions: 300000000 cycles: 131988897 heartbeat IPC: 2.27267 cumulative IPC: 0.757639 (Simulation time: 0 hr 42 min 10 sec) 
Heartbeat CPU 2 instructions: 180000000 cycles: 132532939 heartbeat IPC: 1.35712 cumulative IPC: 1.35815 (Simulation time: 0 hr 42 min 21 sec) 
Heartbeat CPU 1 instructions: 210000000 cycles: 133854448 heartbeat IPC: 1.5141 cumulative IPC: 0.074708 (Simulation time: 0 hr 42 min 46 sec) 
Heartbeat CPU 0 instructions: 310000001 cycles: 136388754 heartbeat IPC: 2.2728 cumulative IPC: 0.806518 (Simulation time: 0 hr 43 min 33 sec) 
Heartbeat CPU 3 instructions: 260000000 cycles: 137130267 heartbeat IPC: 1.89579 cumulative IPC: 0.43754 (Simulation time: 0 hr 43 min 47 sec) 
Heartbeat CPU 2 instructions: 190000002 cycles: 139886875 heartbeat IPC: 1.35982 cumulative IPC: 1.35824 (Simulation time: 0 hr 44 min 39 sec) 
Heartbeat CPU 1 instructions: 220000000 cycles: 140465982 heartbeat IPC: 1.51251 cumulative IPC: 0.142383 (Simulation time: 0 hr 44 min 50 sec) 
Heartbeat CPU 0 instructions: 320000000 cycles: 140788205 heartbeat IPC: 2.27301 cumulative IPC: 0.852344 (Simulation time: 0 hr 44 min 56 sec) 
Heartbeat CPU 3 instructions: 270000003 cycles: 142403249 heartbeat IPC: 1.89646 cumulative IPC: 0.491562 (Simulation time: 0 hr 45 min 27 sec) 
Heartbeat CPU 0 instructions: 330000003 cycles: 145187644 heartbeat IPC: 2.27302 cumulative IPC: 0.895393 (Simulation time: 0 hr 46 min 19 sec) 
Heartbeat CPU 1 instructions: 230000003 cycles: 147217140 heartbeat IPC: 1.48123 cumulative IPC: 0.203781 (Simulation time: 0 hr 46 min 57 sec) 
Heartbeat CPU 2 instructions: 200000000 cycles: 147244193 heartbeat IPC: 1.35919 cumulative IPC: 1.35829 (Simulation time: 0 hr 46 min 57 sec) 

Warmup complete CPU 0 instructions: 334675662 cycles: 147244195 (Simulation time: 0 hr 46 min 57 sec) 
Warmup complete CPU 1 instructions: 230037180 cycles: 147244195 (Simulation time: 0 hr 46 min 57 sec) 
Warmup complete CPU 2 instructions: 200000001 cycles: 147244195 (Simulation time: 0 hr 46 min 57 sec) 
Warmup complete CPU 3 instructions: 279179521 cycles: 147244194 (Simulation time: 0 hr 46 min 57 sec) 

Heartbeat CPU 3 instructions: 280000000 cycles: 147912948 heartbeat IPC: 1.81498 cumulative IPC: 1.22688 (Simulation time: 0 hr 47 min 4 sec) 
Heartbeat CPU 0 instructions: 340000000 cycles: 152087848 heartbeat IPC: 1.44923 cumulative IPC: 1.09924 (Simulation time: 0 hr 47 min 45 sec) 
Heartbeat CPU 3 instructions: 290000003 cycles: 156022656 heartbeat IPC: 1.23309 cumulative IPC: 1.23262 (Simulation time: 0 hr 48 min 25 sec) 
Heartbeat CPU 0 instructions: 350000001 cycles: 161123632 heartbeat IPC: 1.10671 cumulative IPC: 1.1041 (Simulation time: 0 hr 49 min 16 sec) 
Heartbeat CPU 3 instructions: 300000000 cycles: 164071839 heartbeat IPC: 1.24236 cumulative IPC: 1.23728 (Simulation time: 0 hr 49 min 45 sec) 
Heartbeat CPU 0 instructions: 360000000 cycles: 170137380 heartbeat IPC: 1.10942 cumulative IPC: 1.1062 (Simulation time: 0 hr 50 min 46 sec) 
Heartbeat CPU 3 instructions: 310000001 cycles: 172156747 heartbeat IPC: 1.23687 cumulative IPC: 1.23715 (Simulation time: 0 hr 51 min 7 sec) 
Heartbeat CPU 1 instructions: 240000000 cycles: 177422943 heartbeat IPC: 0.331062 cumulative IPC: 0.330127 (Simulation time: 0 hr 51 min 58 sec) 
Heartbeat CPU 0 instructions: 370000000 cycles: 179173044 heartbeat IPC: 1.10673 cumulative IPC: 1.10635 (Simulation time: 0 hr 52 min 16 sec) 
Heartbeat CPU 3 instructions: 320000000 cycles: 180254367 heartbeat IPC: 1.23493 cumulative IPC: 1.2366 (Simulation time: 0 hr 52 min 27 sec) 
Heartbeat CPU 0 instructions: 380000000 cycles: 188175911 heartbeat IPC: 1.11076 cumulative IPC: 1.10732 (Simulation time: 0 hr 53 min 46 sec) 
Heartbeat CPU 3 instructions: 330000002 cycles: 188324284 heartbeat IPC: 1.23917 cumulative IPC: 1.23711 (Simulation time: 0 hr 53 min 47 sec) 
Heartbeat CPU 2 instructions: 210000003 cycles: 191930784 heartbeat IPC: 0.223781 cumulative IPC: 0.223781 (Simulation time: 0 hr 54 min 23 sec) 
Heartbeat CPU 3 instructions: 340000000 cycles: 196353562 heartbeat IPC: 1.24544 cumulative IPC: 1.23847 (Simulation time: 0 hr 55 min 7 sec) 
Heartbeat CPU 0 instructions: 390000003 cycles: 197259555 heartbeat IPC: 1.10088 cumulative IPC: 1.10615 (Simulation time: 0 hr 55 min 16 sec) 
Heartbeat CPU 3 instructions: 350000000 cycles: 204420287 heartbeat IPC: 1.23966 cumulative IPC: 1.23864 (Simulation time: 0 hr 56 min 27 sec) 
Heartbeat CPU 0 instructions: 400000000 cycles: 206262657 heartbeat IPC: 1.11073 cumulative IPC: 1.10685 (Simulation time: 0 hr 56 min 47 sec) 
Heartbeat CPU 1 instructions: 250000001 cycles: 206366891 heartbeat IPC: 0.345495 cumulative IPC: 0.337651 (Simulation time: 0 hr 56 min 48 sec) 
Heartbeat CPU 3 instructions: 360000000 cycles: 212534187 heartbeat IPC: 1.23245 cumulative IPC: 1.23787 (Simulation time: 0 hr 57 min 50 sec) 
Heartbeat CPU 0 instructions: 410000000 cycles: 215255798 heartbeat IPC: 1.11196 cumulative IPC: 1.10752 (Simulation time: 0 hr 58 min 19 sec) 
Heartbeat CPU 3 instructions: 370000000 cycles: 220667116 heartbeat IPC: 1.22957 cumulative IPC: 1.23695 (Simulation time: 0 hr 59 min 12 sec) 
Heartbeat CPU 0 instructions: 420000000 cycles: 224250983 heartbeat IPC: 1.11171 cumulative IPC: 1.10801 (Simulation time: 0 hr 59 min 48 sec) 
Heartbeat CPU 3 instructions: 380000000 cycles: 228760679 heartbeat IPC: 1.23555 cumulative IPC: 1.23681 (Simulation time: 1 hr 0 min 35 sec) 
Heartbeat CPU 0 instructions: 430000003 cycles: 233279249 heartbeat IPC: 1.10763 cumulative IPC: 1.10797 (Simulation time: 1 hr 1 min 20 sec) 
Heartbeat CPU 1 instructions: 260000000 cycles: 234103509 heartbeat IPC: 0.360534 cumulative IPC: 0.344958 (Simulation time: 1 hr 1 min 28 sec) 
Heartbeat CPU 2 instructions: 220000000 cycles: 236541100 heartbeat IPC: 0.224163 cumulative IPC: 0.223972 (Simulation time: 1 hr 1 min 53 sec) 
Heartbeat CPU 3 instructions: 390000003 cycles: 236819914 heartbeat IPC: 1.24081 cumulative IPC: 1.23717 (Simulation time: 1 hr 1 min 56 sec) 
Heartbeat CPU 0 instructions: 440000000 cycles: 242238562 heartbeat IPC: 1.11616 cumulative IPC: 1.10874 (Simulation time: 1 hr 2 min 52 sec) 
Heartbeat CPU 3 instructions: 400000000 cycles: 244923500 heartbeat IPC: 1.23402 cumulative IPC: 1.23691 (Simulation time: 1 hr 3 min 19 sec) 
Heartbeat CPU 0 instructions: 450000000 cycles: 251301007 heartbeat IPC: 1.10345 cumulative IPC: 1.10828 (Simulation time: 1 hr 4 min 21 sec) 
Heartbeat CPU 3 instructions: 410000000 cycles: 252985094 heartbeat IPC: 1.24045 cumulative IPC: 1.23718 (Simulation time: 1 hr 4 min 38 sec) 
Heartbeat CPU 0 instructions: 460000000 cycles: 260375169 heartbeat IPC: 1.10203 cumulative IPC: 1.10778 (Simulation time: 1 hr 5 min 50 sec) 
Heartbeat CPU 3 instructions: 420000000 cycles: 261057115 heartbeat IPC: 1.23885 cumulative IPC: 1.2373 (Simulation time: 1 hr 5 min 57 sec) 
Heartbeat CPU 1 instructions: 270000000 cycles: 264481390 heartbeat IPC: 0.329187 cumulative IPC: 0.340872 (Simulation time: 1 hr 6 min 30 sec) 
Heartbeat CPU 3 instructions: 430000000 cycles: 269123186 heartbeat IPC: 1.23976 cumulative IPC: 1.23746 (Simulation time: 1 hr 7 min 15 sec) 
Heartbeat CPU 0 instructions: 470000000 cycles: 269368700 heartbeat IPC: 1.11191 cumulative IPC: 1.10809 (Simulation time: 1 hr 7 min 18 sec) 
Heartbeat CPU 3 instructions: 440000000 cycles: 277197803 heartbeat IPC: 1.23845 cumulative IPC: 1.23752 (Simulation time: 1 hr 8 min 35 sec) 
Heartbeat CPU 0 instructions: 480000000 cycles: 278368917 heartbeat IPC: 1.11108 cumulative IPC: 1.10829 (Simulation time: 1 hr 8 min 46 sec) 
Heartbeat CPU 2 instructions: 230000002 cycles: 280568217 heartbeat IPC: 0.227133 cumulative IPC: 0.225016 (Simulation time: 1 hr 9 min 8 sec) 
Heartbeat CPU 3 instructions: 450000002 cycles: 285287017 heartbeat IPC: 1.23621 cumulative IPC: 1.23745 (Simulation time: 1 hr 9 min 55 sec) 
Heartbeat CPU 0 instructions: 490000001 cycles: 287359288 heartbeat IPC: 1.1123 cumulative IPC: 1.10855 (Simulation time: 1 hr 10 min 15 sec) 
Heartbeat CPU 3 instructions: 460000000 cycles: 293395762 heartbeat IPC: 1.23324 cumulative IPC: 1.23721 (Simulation time: 1 hr 11 min 16 sec) 
Heartbeat CPU 1 instructions: 280000000 cycles: 295013012 heartbeat IPC: 0.327529 cumulative IPC: 0.338115 (Simulation time: 1 hr 11 min 32 sec) 
Heartbeat CPU 0 instructions: 500000000 cycles: 296343369 heartbeat IPC: 1.11308 cumulative IPC: 1.10882 (Simulation time: 1 hr 11 min 45 sec) 
Heartbeat CPU 3 instructions: 470000000 cycles: 301474502 heartbeat IPC: 1.23782 cumulative IPC: 1.23724 (Simulation time: 1 hr 12 min 37 sec) 
Heartbeat CPU 0 instructions: 510000000 cycles: 305418047 heartbeat IPC: 1.10197 cumulative IPC: 1.10843 (Simulation time: 1 hr 13 min 17 sec) 
Heartbeat CPU 3 instructions: 480000000 cycles: 309529629 heartbeat IPC: 1.24145 cumulative IPC: 1.23745 (Simulation time: 1 hr 13 min 58 sec) 
Heartbeat CPU 0 instructions: 520000000 cycles: 314451781 heartbeat IPC: 1.10696 cumulative IPC: 1.10835 (Simulation time: 1 hr 14 min 48 sec) 
Heartbeat CPU 3 instructions: 490000001 cycles: 317605867 heartbeat IPC: 1.2382 cumulative IPC: 1.23749 (Simulation time: 1 hr 15 min 20 sec) 
Heartbeat CPU 0 instructions: 530000002 cycles: 323552193 heartbeat IPC: 1.09885 cumulative IPC: 1.10786 (Simulation time: 1 hr 16 min 19 sec) 
Heartbeat CPU 1 instructions: 290000001 cycles: 324481047 heartbeat IPC: 0.339351 cumulative IPC: 0.33832 (Simulation time: 1 hr 16 min 29 sec) 
Heartbeat CPU 2 instructions: 240000000 cycles: 325137353 heartbeat IPC: 0.22437 cumulative IPC: 0.224854 (Simulation time: 1 hr 16 min 35 sec) 
Heartbeat CPU 3 instructions: 500000000 cycles: 325656797 heartbeat IPC: 1.24209 cumulative IPC: 1.2377 (Simulation time: 1 hr 16 min 40 sec) 
Heartbeat CPU 0 instructions: 540000000 cycles: 332670198 heartbeat IPC: 1.09673 cumulative IPC: 1.10731 (Simulation time: 1 hr 17 min 50 sec) 
Heartbeat CPU 3 instructions: 510000001 cycles: 333668571 heartbeat IPC: 1.24816 cumulative IPC: 1.23815 (Simulation time: 1 hr 18 min 0 sec) 
Heartbeat CPU 3 instructions: 520000000 cycles: 341721604 heartbeat IPC: 1.24177 cumulative IPC: 1.2383 (Simulation time: 1 hr 19 min 22 sec) 
Heartbeat CPU 0 instructions: 550000003 cycles: 341722206 heartbeat IPC: 1.10473 cumulative IPC: 1.10719 (Simulation time: 1 hr 19 min 22 sec) 
Heartbeat CPU 3 instructions: 530000002 cycles: 349806126 heartbeat IPC: 1.23693 cumulative IPC: 1.23824 (Simulation time: 1 hr 20 min 43 sec) 
Heartbeat CPU 0 instructions: 560000000 cycles: 350804249 heartbeat IPC: 1.10107 cumulative IPC: 1.10692 (Simulation time: 1 hr 20 min 54 sec) 
Heartbeat CPU 1 instructions: 300000000 cycles: 353278999 heartbeat IPC: 0.347247 cumulative IPC: 0.339568 (Simulation time: 1 hr 21 min 19 sec) 
Heartbeat CPU 3 instructions: 540000000 cycles: 357891668 heartbeat IPC: 1.23678 cumulative IPC: 1.23818 (Simulation time: 1 hr 22 min 5 sec) 
Heartbeat CPU 0 instructions: 570000003 cycles: 359817587 heartbeat IPC: 1.10947 cumulative IPC: 1.10703 (Simulation time: 1 hr 22 min 24 sec) 
Heartbeat CPU 3 instructions: 550000000 cycles: 366010073 heartbeat IPC: 1.23177 cumulative IPC: 1.23795 (Simulation time: 1 hr 23 min 26 sec) 
Heartbeat CPU 0 instructions: 580000000 cycles: 368825247 heartbeat IPC: 1.11017 cumulative IPC: 1.10715 (Simulation time: 1 hr 23 min 54 sec) 
Heartbeat CPU 2 instructions: 250000000 cycles: 369604131 heartbeat IPC: 0.224887 cumulative IPC: 0.224861 (Simulation time: 1 hr 24 min 2 sec) 
Heartbeat CPU 3 instructions: 560000000 cycles: 374078066 heartbeat IPC: 1.23947 cumulative IPC: 1.238 (Simulation time: 1 hr 24 min 47 sec) 
Heartbeat CPU 0 instructions: 590000001 cycles: 377960078 heartbeat IPC: 1.09471 cumulative IPC: 1.10666 (Simulation time: 1 hr 25 min 26 sec) 
Heartbeat CPU 1 instructions: 310000000 cycles: 379751208 heartbeat IPC: 0.377755 cumulative IPC: 0.343916 (Simulation time: 1 hr 25 min 44 sec) 
Heartbeat CPU 3 instructions: 570000003 cycles: 382098142 heartbeat IPC: 1.24687 cumulative IPC: 1.2383 (Simulation time: 1 hr 26 min 7 sec) 
Heartbeat CPU 0 instructions: 600000000 cycles: 387001078 heartbeat IPC: 1.10607 cumulative IPC: 1.10664 (Simulation time: 1 hr 26 min 57 sec) 
Heartbeat CPU 3 instructions: 580000000 cycles: 390192214 heartbeat IPC: 1.23547 cumulative IPC: 1.23821 (Simulation time: 1 hr 27 min 29 sec) 
Heartbeat CPU 0 instructions: 610000003 cycles: 396055930 heartbeat IPC: 1.10438 cumulative IPC: 1.10656 (Simulation time: 1 hr 28 min 28 sec) 
Heartbeat CPU 3 instructions: 590000003 cycles: 398225811 heartbeat IPC: 1.24477 cumulative IPC: 1.23842 (Simulation time: 1 hr 28 min 49 sec) 
Heartbeat CPU 0 instructions: 620000000 cycles: 405109442 heartbeat IPC: 1.10454 cumulative IPC: 1.10649 (Simulation time: 1 hr 29 min 59 sec) 
Heartbeat CPU 3 instructions: 600000000 cycles: 406267769 heartbeat IPC: 1.24348 cumulative IPC: 1.23858 (Simulation time: 1 hr 30 min 11 sec) 
Heartbeat CPU 1 instructions: 320000000 cycles: 409919294 heartbeat IPC: 0.331476 cumulative IPC: 0.342487 (Simulation time: 1 hr 30 min 47 sec) 
Heartbeat CPU 0 instructions: 630000001 cycles: 414199775 heartbeat IPC: 1.10007 cumulative IPC: 1.10627 (Simulation time: 1 hr 31 min 30 sec) 
Heartbeat CPU 3 instructions: 610000002 cycles: 414312358 heartbeat IPC: 1.24307 cumulative IPC: 1.23871 (Simulation time: 1 hr 31 min 31 sec) 
Heartbeat CPU 2 instructions: 260000000 cycles: 414322130 heartbeat IPC: 0.223624 cumulative IPC: 0.224654 (Simulation time: 1 hr 31 min 31 sec) 
Heartbeat CPU 3 instructions: 620000000 cycles: 422362804 heartbeat IPC: 1.24217 cumulative IPC: 1.23881 (Simulation time: 1 hr 32 min 52 sec) 
Heartbeat CPU 0 instructions: 640000000 cycles: 423285276 heartbeat IPC: 1.10065 cumulative IPC: 1.10608 (Simulation time: 1 hr 33 min 1 sec) 
Heartbeat CPU 3 instructions: 630000000 cycles: 430468335 heartbeat IPC: 1.23373 cumulative IPC: 1.23867 (Simulation time: 1 hr 34 min 16 sec) 
Heartbeat CPU 0 instructions: 650000003 cycles: 432315475 heartbeat IPC: 1.1074 cumulative IPC: 1.10612 (Simulation time: 1 hr 34 min 34 sec) 
Heartbeat CPU 3 instructions: 640000000 cycles: 438510253 heartbeat IPC: 1.24348 cumulative IPC: 1.2388 (Simulation time: 1 hr 35 min 36 sec) 
Heartbeat CPU 1 instructions: 330000002 cycles: 440821972 heartbeat IPC: 0.323597 cumulative IPC: 0.340499 (Simulation time: 1 hr 35 min 59 sec) 
Heartbeat CPU 0 instructions: 660000000 cycles: 441340277 heartbeat IPC: 1.10806 cumulative IPC: 1.10618 (Simulation time: 1 hr 36 min 4 sec) 
Heartbeat CPU 3 instructions: 650000002 cycles: 446584391 heartbeat IPC: 1.23852 cumulative IPC: 1.23879 (Simulation time: 1 hr 36 min 56 sec) 
Heartbeat CPU 0 instructions: 670000000 cycles: 450419432 heartbeat IPC: 1.10142 cumulative IPC: 1.10604 (Simulation time: 1 hr 37 min 34 sec) 
Heartbeat CPU 3 instructions: 660000000 cycles: 454646690 heartbeat IPC: 1.24034 cumulative IPC: 1.23883 (Simulation time: 1 hr 38 min 17 sec) 
Heartbeat CPU 0 instructions: 680000000 cycles: 459468969 heartbeat IPC: 1.10503 cumulative IPC: 1.10601 (Simulation time: 1 hr 39 min 6 sec) 
Heartbeat CPU 2 instructions: 270000000 cycles: 459773892 heartbeat IPC: 0.220013 cumulative IPC: 0.223979 (Simulation time: 1 hr 39 min 9 sec) 
Heartbeat CPU 3 instructions: 670000003 cycles: 462729247 heartbeat IPC: 1.23723 cumulative IPC: 1.23879 (Simulation time: 1 hr 39 min 39 sec) 
Heartbeat CPU 0 instructions: 690000001 cycles: 468405275 heartbeat IPC: 1.11903 cumulative IPC: 1.10637 (Simulation time: 1 hr 40 min 36 sec) 
Heartbeat CPU 3 instructions: 680000000 cycles: 470883722 heartbeat IPC: 1.22632 cumulative IPC: 1.23848 (Simulation time: 1 hr 41 min 2 sec) 
Heartbeat CPU 1 instructions: 340000000 cycles: 472386329 heartbeat IPC: 0.316813 cumulative IPC: 0.338199 (Simulation time: 1 hr 41 min 17 sec) 
Heartbeat CPU 0 instructions: 700000000 cycles: 477451146 heartbeat IPC: 1.10548 cumulative IPC: 1.10635 (Simulation time: 1 hr 42 min 9 sec) 
Heartbeat CPU 3 instructions: 690000002 cycles: 478926781 heartbeat IPC: 1.24331 cumulative IPC: 1.2386 (Simulation time: 1 hr 42 min 24 sec) 
Heartbeat CPU 0 instructions: 710000000 cycles: 486542631 heartbeat IPC: 1.09993 cumulative IPC: 1.10618 (Simulation time: 1 hr 43 min 39 sec) 
Heartbeat CPU 3 instructions: 700000000 cycles: 486994394 heartbeat IPC: 1.23952 cumulative IPC: 1.23862 (Simulation time: 1 hr 43 min 44 sec) 
Heartbeat CPU 3 instructions: 710000002 cycles: 495036658 heartbeat IPC: 1.24343 cumulative IPC: 1.23873 (Simulation time: 1 hr 45 min 5 sec) 
Heartbeat CPU 0 instructions: 720000000 cycles: 495570694 heartbeat IPC: 1.10766 cumulative IPC: 1.10622 (Simulation time: 1 hr 45 min 10 sec) 
Heartbeat CPU 1 instructions: 350000000 cycles: 502114610 heartbeat IPC: 0.33638 cumulative IPC: 0.338047 (Simulation time: 1 hr 46 min 16 sec) 
Heartbeat CPU 3 instructions: 720000000 cycles: 503106312 heartbeat IPC: 1.23921 cumulative IPC: 1.23874 (Simulation time: 1 hr 46 min 26 sec) 
Heartbeat CPU 0 instructions: 730000000 cycles: 504642644 heartbeat IPC: 1.1023 cumulative IPC: 1.10612 (Simulation time: 1 hr 46 min 42 sec) 
Heartbeat CPU 2 instructions: 280000000 cycles: 504686704 heartbeat IPC: 0.222654 cumulative IPC: 0.223812 (Simulation time: 1 hr 46 min 42 sec) 
Heartbeat CPU 3 instructions: 730000002 cycles: 511163118 heartbeat IPC: 1.24119 cumulative IPC: 1.23879 (Simulation time: 1 hr 47 min 47 sec) 
Heartbeat CPU 0 instructions: 740000000 cycles: 513656611 heartbeat IPC: 1.10939 cumulative IPC: 1.1062 (Simulation time: 1 hr 48 min 11 sec) 
Heartbeat CPU 3 instructions: 740000000 cycles: 519223238 heartbeat IPC: 1.24068 cumulative IPC: 1.23883 (Simulation time: 1 hr 49 min 7 sec) 
Heartbeat CPU 0 instructions: 750000002 cycles: 522654249 heartbeat IPC: 1.1114 cumulative IPC: 1.10632 (Simulation time: 1 hr 49 min 41 sec) 
Heartbeat CPU 3 instructions: 750000000 cycles: 527295215 heartbeat IPC: 1.23885 cumulative IPC: 1.23883 (Simulation time: 1 hr 50 min 28 sec) 
Heartbeat CPU 0 instructions: 760000000 cycles: 531685736 heartbeat IPC: 1.10724 cumulative IPC: 1.10634 (Simulation time: 1 hr 51 min 13 sec) 
Heartbeat CPU 1 instructions: 360000000 cycles: 533996476 heartbeat IPC: 0.313658 cumulative IPC: 0.336036 (Simulation time: 1 hr 51 min 36 sec) 
Heartbeat CPU 3 instructions: 760000000 cycles: 535322714 heartbeat IPC: 1.24572 cumulative IPC: 1.23898 (Simulation time: 1 hr 51 min 49 sec) 
Heartbeat CPU 0 instructions: 770000000 cycles: 540743668 heartbeat IPC: 1.104 cumulative IPC: 1.10629 (Simulation time: 1 hr 52 min 44 sec) 
Heartbeat CPU 3 instructions: 770000000 cycles: 543379320 heartbeat IPC: 1.24122 cumulative IPC: 1.23902 (Simulation time: 1 hr 53 min 10 sec) 
Heartbeat CPU 2 instructions: 290000000 cycles: 549573041 heartbeat IPC: 0.222785 cumulative IPC: 0.223698 (Simulation time: 1 hr 54 min 12 sec) 
Heartbeat CPU 0 instructions: 780000000 cycles: 549735181 heartbeat IPC: 1.11216 cumulative IPC: 1.10642 (Simulation time: 1 hr 54 min 13 sec) 
Heartbeat CPU 3 instructions: 780000000 cycles: 551441330 heartbeat IPC: 1.24039 cumulative IPC: 1.23905 (Simulation time: 1 hr 54 min 30 sec) 
Heartbeat CPU 0 instructions: 790000000 cycles: 558763622 heartbeat IPC: 1.10761 cumulative IPC: 1.10645 (Simulation time: 1 hr 55 min 43 sec) 
Heartbeat CPU 3 instructions: 790000001 cycles: 559498911 heartbeat IPC: 1.24107 cumulative IPC: 1.23909 (Simulation time: 1 hr 55 min 51 sec) 
Heartbeat CPU 1 instructions: 370000000 cycles: 564100487 heartbeat IPC: 0.332182 cumulative IPC: 0.335758 (Simulation time: 1 hr 56 min 37 sec) 
Heartbeat CPU 3 instructions: 800000000 cycles: 567533104 heartbeat IPC: 1.24468 cumulative IPC: 1.2392 (Simulation time: 1 hr 57 min 11 sec) 
Heartbeat CPU 0 instructions: 800000000 cycles: 567851766 heartbeat IPC: 1.10033 cumulative IPC: 1.10631 (Simulation time: 1 hr 57 min 14 sec) 
Heartbeat CPU 3 instructions: 810000003 cycles: 575609004 heartbeat IPC: 1.23825 cumulative IPC: 1.23918 (Simulation time: 1 hr 58 min 34 sec) 
Heartbeat CPU 0 instructions: 810000001 cycles: 576799702 heartbeat IPC: 1.11758 cumulative IPC: 1.10655 (Simulation time: 1 hr 58 min 47 sec) 
Heartbeat CPU 3 instructions: 820000000 cycles: 583736346 heartbeat IPC: 1.23041 cumulative IPC: 1.23902 (Simulation time: 1 hr 59 min 58 sec) 
Heartbeat CPU 0 instructions: 820000000 cycles: 585769019 heartbeat IPC: 1.11491 cumulative IPC: 1.10672 (Simulation time: 2 hr 0 min 18 sec) 
Heartbeat CPU 1 instructions: 380000000 cycles: 589221630 heartbeat IPC: 0.398071 cumulative IPC: 0.3393 (Simulation time: 2 hr 0 min 53 sec) 
Heartbeat CPU 3 instructions: 830000001 cycles: 591831584 heartbeat IPC: 1.23529 cumulative IPC: 1.23895 (Simulation time: 2 hr 1 min 19 sec) 
Heartbeat CPU 2 instructions: 300000000 cycles: 594344973 heartbeat IPC: 0.223354 cumulative IPC: 0.223663 (Simulation time: 2 hr 1 min 44 sec) 
Heartbeat CPU 0 instructions: 830000003 cycles: 594840976 heartbeat IPC: 1.1023 cumulative IPC: 1.10663 (Simulation time: 2 hr 1 min 49 sec) 
Heartbeat CPU 3 instructions: 840000000 cycles: 599916530 heartbeat IPC: 1.23687 cumulative IPC: 1.23891 (Simulation time: 2 hr 2 min 41 sec) 
Heartbeat CPU 0 instructions: 840000000 cycles: 603827126 heartbeat IPC: 1.11282 cumulative IPC: 1.10675 (Simulation time: 2 hr 3 min 22 sec) 
Heartbeat CPU 3 instructions: 850000002 cycles: 608005783 heartbeat IPC: 1.23621 cumulative IPC: 1.23886 (Simulation time: 2 hr 4 min 4 sec) 
Heartbeat CPU 0 instructions: 850000002 cycles: 612869149 heartbeat IPC: 1.10595 cumulative IPC: 1.10674 (Simulation time: 2 hr 4 min 53 sec) 
Heartbeat CPU 1 instructions: 390000000 cycles: 613670860 heartbeat IPC: 0.409011 cumulative IPC: 0.342954 (Simulation time: 2 hr 5 min 2 sec) 
Heartbeat CPU 3 instructions: 860000000 cycles: 616090610 heartbeat IPC: 1.23688 cumulative IPC: 1.23883 (Simulation time: 2 hr 5 min 27 sec) 
Heartbeat CPU 0 instructions: 860000000 cycles: 621834653 heartbeat IPC: 1.11539 cumulative IPC: 1.1069 (Simulation time: 2 hr 6 min 25 sec) 
Heartbeat CPU 3 instructions: 870000000 cycles: 624216462 heartbeat IPC: 1.23064 cumulative IPC: 1.23869 (Simulation time: 2 hr 6 min 49 sec) 
Heartbeat CPU 0 instructions: 870000000 cycles: 630779551 heartbeat IPC: 1.11796 cumulative IPC: 1.1071 (Simulation time: 2 hr 7 min 55 sec) 
Heartbeat CPU 3 instructions: 880000000 cycles: 632320595 heartbeat IPC: 1.23394 cumulative IPC: 1.23861 (Simulation time: 2 hr 8 min 11 sec) 
Heartbeat CPU 2 instructions: 310000000 cycles: 638716928 heartbeat IPC: 0.225368 cumulative IPC: 0.223817 (Simulation time: 2 hr 9 min 15 sec) 
Heartbeat CPU 0 instructions: 880000000 cycles: 639771415 heartbeat IPC: 1.11212 cumulative IPC: 1.1072 (Simulation time: 2 hr 9 min 26 sec) 
Heartbeat CPU 3 instructions: 890000003 cycles: 640396655 heartbeat IPC: 1.23823 cumulative IPC: 1.2386 (Simulation time: 2 hr 9 min 33 sec) 
Heartbeat CPU 1 instructions: 400000000 cycles: 644318469 heartbeat IPC: 0.32629 cumulative IPC: 0.341926 (Simulation time: 2 hr 10 min 12 sec) 
Heartbeat CPU 3 instructions: 900000000 cycles: 648453405 heartbeat IPC: 1.24119 cumulative IPC: 1.23865 (Simulation time: 2 hr 10 min 53 sec) 
Heartbeat CPU 0 instructions: 890000003 cycles: 648790507 heartbeat IPC: 1.10876 cumulative IPC: 1.10722 (Simulation time: 2 hr 10 min 57 sec) 
Heartbeat CPU 3 instructions: 910000001 cycles: 656511292 heartbeat IPC: 1.24102 cumulative IPC: 1.23868 (Simulation time: 2 hr 12 min 16 sec) 
Heartbeat CPU 0 instructions: 900000000 cycles: 657817505 heartbeat IPC: 1.10779 cumulative IPC: 1.10723 (Simulation time: 2 hr 12 min 29 sec) 
Heartbeat CPU 3 instructions: 920000000 cycles: 664600339 heartbeat IPC: 1.23624 cumulative IPC: 1.23864 (Simulation time: 2 hr 13 min 38 sec) 
Heartbeat CPU 0 instructions: 910000001 cycles: 666840680 heartbeat IPC: 1.10826 cumulative IPC: 1.10725 (Simulation time: 2 hr 14 min 1 sec) 
Heartbeat CPU 3 instructions: 930000003 cycles: 672700317 heartbeat IPC: 1.23457 cumulative IPC: 1.23858 (Simulation time: 2 hr 15 min 0 sec) 
Heartbeat CPU 1 instructions: 410000000 cycles: 674369767 heartbeat IPC: 0.332764 cumulative IPC: 0.341404 (Simulation time: 2 hr 15 min 17 sec) 
Heartbeat CPU 0 instructions: 920000000 cycles: 675866597 heartbeat IPC: 1.10792 cumulative IPC: 1.10726 (Simulation time: 2 hr 15 min 32 sec) 
Heartbeat CPU 3 instructions: 940000000 cycles: 680805506 heartbeat IPC: 1.23378 cumulative IPC: 1.23851 (Simulation time: 2 hr 16 min 23 sec) 
Heartbeat CPU 2 instructions: 320000000 cycles: 683480365 heartbeat IPC: 0.223397 cumulative IPC: 0.223782 (Simulation time: 2 hr 16 min 51 sec) 
Heartbeat CPU 0 instructions: 930000000 cycles: 684821415 heartbeat IPC: 1.11672 cumulative IPC: 1.10742 (Simulation time: 2 hr 17 min 5 sec) 
Heartbeat CPU 3 instructions: 950000001 cycles: 688882526 heartbeat IPC: 1.23808 cumulative IPC: 1.2385 (Simulation time: 2 hr 17 min 46 sec) 
Heartbeat CPU 0 instructions: 940000000 cycles: 693802675 heartbeat IPC: 1.11343 cumulative IPC: 1.10752 (Simulation time: 2 hr 18 min 38 sec) 
Heartbeat CPU 3 instructions: 960000000 cycles: 696955222 heartbeat IPC: 1.23874 cumulative IPC: 1.23851 (Simulation time: 2 hr 19 min 10 sec) 
Heartbeat CPU 1 instructions: 420000000 cycles: 702119189 heartbeat IPC: 0.360368 cumulative IPC: 0.342352 (Simulation time: 2 hr 20 min 0 sec) 
Heartbeat CPU 0 instructions: 950000002 cycles: 702857668 heartbeat IPC: 1.10436 cumulative IPC: 1.10747 (Simulation time: 2 hr 20 min 8 sec) 
Heartbeat CPU 3 instructions: 970000002 cycles: 705023629 heartbeat IPC: 1.2394 cumulative IPC: 1.23852 (Simulation time: 2 hr 20 min 29 sec) 
Heartbeat CPU 0 instructions: 960000000 cycles: 711882809 heartbeat IPC: 1.10802 cumulative IPC: 1.10748 (Simulation time: 2 hr 21 min 36 sec) 
Heartbeat CPU 3 instructions: 980000000 cycles: 713118438 heartbeat IPC: 1.23536 cumulative IPC: 1.23847 (Simulation time: 2 hr 21 min 48 sec) 
Heartbeat CPU 0 instructions: 970000000 cycles: 720934782 heartbeat IPC: 1.10473 cumulative IPC: 1.10743 (Simulation time: 2 hr 23 min 7 sec) 
Heartbeat CPU 3 instructions: 990000001 cycles: 721230768 heartbeat IPC: 1.23269 cumulative IPC: 1.23839 (Simulation time: 2 hr 23 min 10 sec) 
Heartbeat CPU 2 instructions: 330000003 cycles: 728439159 heartbeat IPC: 0.222426 cumulative IPC: 0.223677 (Simulation time: 2 hr 24 min 23 sec) 
Heartbeat CPU 3 instructions: 1000000000 cycles: 729329003 heartbeat IPC: 1.23484 cumulative IPC: 1.23834 (Simulation time: 2 hr 24 min 32 sec) 
Heartbeat CPU 0 instructions: 980000000 cycles: 729933098 heartbeat IPC: 1.11132 cumulative IPC: 1.10749 (Simulation time: 2 hr 24 min 38 sec) 
Heartbeat CPU 1 instructions: 430000000 cycles: 732834146 heartbeat IPC: 0.325574 cumulative IPC: 0.341472 (Simulation time: 2 hr 25 min 7 sec) 
Heartbeat CPU 3 instructions: 1010000003 cycles: 737410566 heartbeat IPC: 1.23738 cumulative IPC: 1.23833 (Simulation time: 2 hr 25 min 53 sec) 
Heartbeat CPU 0 instructions: 990000000 cycles: 738978080 heartbeat IPC: 1.10559 cumulative IPC: 1.10746 (Simulation time: 2 hr 26 min 9 sec) 
Heartbeat CPU 3 instructions: 1020000000 cycles: 745518810 heartbeat IPC: 1.23331 cumulative IPC: 1.23826 (Simulation time: 2 hr 27 min 16 sec) 
Heartbeat CPU 0 instructions: 1000000000 cycles: 747937219 heartbeat IPC: 1.11618 cumulative IPC: 1.10759 (Simulation time: 2 hr 27 min 41 sec) 
Heartbeat CPU 3 instructions: 1030000002 cycles: 753641343 heartbeat IPC: 1.23114 cumulative IPC: 1.23817 (Simulation time: 2 hr 28 min 38 sec) 
Heartbeat CPU 0 instructions: 1010000001 cycles: 756918478 heartbeat IPC: 1.11343 cumulative IPC: 1.10768 (Simulation time: 2 hr 29 min 10 sec) 
Heartbeat CPU 1 instructions: 440000000 cycles: 760276054 heartbeat IPC: 0.364406 cumulative IPC: 0.342499 (Simulation time: 2 hr 29 min 45 sec) 
Heartbeat CPU 3 instructions: 1040000000 cycles: 761742369 heartbeat IPC: 1.23441 cumulative IPC: 1.23812 (Simulation time: 2 hr 30 min 0 sec) 
Heartbeat CPU 0 instructions: 1020000000 cycles: 765910916 heartbeat IPC: 1.11205 cumulative IPC: 1.10774 (Simulation time: 2 hr 30 min 42 sec) 
Heartbeat CPU 3 instructions: 1050000002 cycles: 769840833 heartbeat IPC: 1.2348 cumulative IPC: 1.23807 (Simulation time: 2 hr 31 min 21 sec) 
Heartbeat CPU 2 instructions: 340000000 cycles: 773282406 heartbeat IPC: 0.222999 cumulative IPC: 0.223629 (Simulation time: 2 hr 31 min 56 sec) 
Heartbeat CPU 0 instructions: 1030000003 cycles: 774970163 heartbeat IPC: 1.10384 cumulative IPC: 1.10769 (Simulation time: 2 hr 32 min 13 sec) 
Heartbeat CPU 3 instructions: 1060000000 cycles: 777900593 heartbeat IPC: 1.24073 cumulative IPC: 1.23811 (Simulation time: 2 hr 32 min 43 sec) 
Heartbeat CPU 0 instructions: 1040000000 cycles: 783943731 heartbeat IPC: 1.11438 cumulative IPC: 1.10778 (Simulation time: 2 hr 33 min 44 sec) 
Heartbeat CPU 3 instructions: 1070000000 cycles: 785991949 heartbeat IPC: 1.23589 cumulative IPC: 1.23808 (Simulation time: 2 hr 34 min 5 sec) 
Heartbeat CPU 1 instructions: 450000000 cycles: 788981077 heartbeat IPC: 0.348371 cumulative IPC: 0.342762 (Simulation time: 2 hr 34 min 34 sec) 
Heartbeat CPU 0 instructions: 1050000000 cycles: 793055712 heartbeat IPC: 1.09746 cumulative IPC: 1.10764 (Simulation time: 2 hr 35 min 15 sec) 
Heartbeat CPU 3 instructions: 1080000000 cycles: 794058739 heartbeat IPC: 1.23965 cumulative IPC: 1.2381 (Simulation time: 2 hr 35 min 25 sec) 
Heartbeat CPU 0 instructions: 1060000000 cycles: 802106744 heartbeat IPC: 1.10485 cumulative IPC: 1.1076 (Simulation time: 2 hr 36 min 46 sec) 
Heartbeat CPU 3 instructions: 1090000003 cycles: 802140879 heartbeat IPC: 1.2373 cumulative IPC: 1.23809 (Simulation time: 2 hr 36 min 47 sec) 
Heartbeat CPU 3 instructions: 1100000000 cycles: 810236810 heartbeat IPC: 1.23519 cumulative IPC: 1.23805 (Simulation time: 2 hr 38 min 10 sec) 
Heartbeat CPU 0 instructions: 1070000003 cycles: 811125367 heartbeat IPC: 1.10882 cumulative IPC: 1.10761 (Simulation time: 2 hr 38 min 18 sec) 
Heartbeat CPU 1 instructions: 460000000 cycles: 815254441 heartbeat IPC: 0.380614 cumulative IPC: 0.34425 (Simulation time: 2 hr 39 min 1 sec) 
Heartbeat CPU 3 instructions: 1110000001 cycles: 818353940 heartbeat IPC: 1.23196 cumulative IPC: 1.23798 (Simulation time: 2 hr 39 min 31 sec) 
Heartbeat CPU 2 instructions: 350000001 cycles: 818438121 heartbeat IPC: 0.221456 cumulative IPC: 0.223482 (Simulation time: 2 hr 39 min 32 sec) 
Heartbeat CPU 0 instructions: 1080000000 cycles: 820119539 heartbeat IPC: 1.11183 cumulative IPC: 1.10767 (Simulation time: 2 hr 39 min 49 sec) 
Heartbeat CPU 3 instructions: 1120000000 cycles: 826421301 heartbeat IPC: 1.23956 cumulative IPC: 1.238 (Simulation time: 2 hr 40 min 52 sec) 
Heartbeat CPU 0 instructions: 1090000000 cycles: 829189161 heartbeat IPC: 1.10258 cumulative IPC: 1.1076 (Simulation time: 2 hr 41 min 20 sec) 
Heartbeat CPU 3 instructions: 1130000003 cycles: 834465380 heartbeat IPC: 1.24315 cumulative IPC: 1.23806 (Simulation time: 2 hr 42 min 13 sec) 
Heartbeat CPU 0 instructions: 1100000000 cycles: 838207852 heartbeat IPC: 1.10881 cumulative IPC: 1.10762 (Simulation time: 2 hr 42 min 51 sec) 
Heartbeat CPU 3 instructions: 1140000000 cycles: 842535629 heartbeat IPC: 1.23912 cumulative IPC: 1.23807 (Simulation time: 2 hr 43 min 35 sec) 
Heartbeat CPU 1 instructions: 470000000 cycles: 844313357 heartbeat IPC: 0.344128 cumulative IPC: 0.344245 (Simulation time: 2 hr 43 min 53 sec) 
Heartbeat CPU 0 instructions: 1110000003 cycles: 847316741 heartbeat IPC: 1.09783 cumulative IPC: 1.10749 (Simulation time: 2 hr 44 min 22 sec) 
Heartbeat CPU 3 instructions: 1150000000 cycles: 850554960 heartbeat IPC: 1.24699 cumulative IPC: 1.23817 (Simulation time: 2 hr 44 min 55 sec) 
Heartbeat CPU 0 instructions: 1120000000 cycles: 856318625 heartbeat IPC: 1.11088 cumulative IPC: 1.10753 (Simulation time: 2 hr 45 min 54 sec) 
Heartbeat CPU 3 instructions: 1160000000 cycles: 858634714 heartbeat IPC: 1.23766 cumulative IPC: 1.23817 (Simulation time: 2 hr 46 min 17 sec) 
Heartbeat CPU 2 instructions: 360000000 cycles: 863317055 heartbeat IPC: 0.222822 cumulative IPC: 0.223441 (Simulation time: 2 hr 47 min 4 sec) 
Heartbeat CPU 0 instructions: 1130000001 cycles: 865357768 heartbeat IPC: 1.1063 cumulative IPC: 1.10752 (Simulation time: 2 hr 47 min 24 sec) 
Heartbeat CPU 3 instructions: 1170000003 cycles: 866690203 heartbeat IPC: 1.24139 cumulative IPC: 1.2382 (Simulation time: 2 hr 47 min 38 sec) 
Heartbeat CPU 0 instructions: 1140000000 cycles: 874347640 heartbeat IPC: 1.11236 cumulative IPC: 1.10758 (Simulation time: 2 hr 48 min 56 sec) 
Heartbeat CPU 3 instructions: 1180000000 cycles: 874773815 heartbeat IPC: 1.23707 cumulative IPC: 1.23819 (Simulation time: 2 hr 49 min 0 sec) 
Heartbeat CPU 1 instructions: 480000000 cycles: 874951003 heartbeat IPC: 0.326396 cumulative IPC: 0.343494 (Simulation time: 2 hr 49 min 2 sec) 
Heartbeat CPU 3 instructions: 1190000001 cycles: 882940237 heartbeat IPC: 1.22453 cumulative IPC: 1.23804 (Simulation time: 2 hr 50 min 26 sec) 
Heartbeat CPU 0 instructions: 1150000000 cycles: 883194295 heartbeat IPC: 1.13037 cumulative IPC: 1.10785 (Simulation time: 2 hr 50 min 28 sec) 
Heartbeat CPU 3 instructions: 1200000000 cycles: 891056915 heartbeat IPC: 1.23203 cumulative IPC: 1.23797 (Simulation time: 2 hr 51 min 49 sec) 
Heartbeat CPU 0 instructions: 1160000000 cycles: 892187068 heartbeat IPC: 1.112 cumulative IPC: 1.1079 (Simulation time: 2 hr 52 min 0 sec) 
Heartbeat CPU 3 instructions: 1210000003 cycles: 899132609 heartbeat IPC: 1.23828 cumulative IPC: 1.23798 (Simulation time: 2 hr 53 min 9 sec) 
Heartbeat CPU 0 instructions: 1170000002 cycles: 901218124 heartbeat IPC: 1.10729 cumulative IPC: 1.1079 (Simulation time: 2 hr 53 min 30 sec) 
Heartbeat CPU 1 instructions: 490000000 cycles: 905228789 heartbeat IPC: 0.330275 cumulative IPC: 0.342966 (Simulation time: 2 hr 54 min 11 sec) 
Heartbeat CPU 3 instructions: 1220000000 cycles: 907212222 heartbeat IPC: 1.23768 cumulative IPC: 1.23797 (Simulation time: 2 hr 54 min 32 sec) 
Heartbeat CPU 2 instructions: 370000001 cycles: 908081910 heartbeat IPC: 0.22339 cumulative IPC: 0.223438 (Simulation time: 2 hr 54 min 41 sec) 
Heartbeat CPU 0 instructions: 1180000000 cycles: 910219852 heartbeat IPC: 1.1109 cumulative IPC: 1.10793 (Simulation time: 2 hr 55 min 2 sec) 
Heartbeat CPU 3 instructions: 1230000002 cycles: 915287185 heartbeat IPC: 1.2384 cumulative IPC: 1.23798 (Simulation time: 2 hr 55 min 53 sec) 
Heartbeat CPU 0 instructions: 1190000000 cycles: 919217439 heartbeat IPC: 1.11141 cumulative IPC: 1.10797 (Simulation time: 2 hr 56 min 33 sec) 
Heartbeat CPU 3 instructions: 1240000000 cycles: 923323857 heartbeat IPC: 1.2443 cumulative IPC: 1.23804 (Simulation time: 2 hr 57 min 14 sec) 
Heartbeat CPU 0 instructions: 1200000000 cycles: 928239685 heartbeat IPC: 1.10837 cumulative IPC: 1.10798 (Simulation time: 2 hr 58 min 3 sec) 
Heartbeat CPU 3 instructions: 1250000002 cycles: 931380792 heartbeat IPC: 1.24117 cumulative IPC: 1.23808 (Simulation time: 2 hr 58 min 35 sec) 
Heartbeat CPU 1 instructions: 500000000 cycles: 935456675 heartbeat IPC: 0.33082 cumulative IPC: 0.3425 (Simulation time: 2 hr 59 min 16 sec) 
Heartbeat CPU 0 instructions: 1210000002 cycles: 937243298 heartbeat IPC: 1.11067 cumulative IPC: 1.10801 (Simulation time: 2 hr 59 min 34 sec) 
Heartbeat CPU 3 instructions: 1260000000 cycles: 939429312 heartbeat IPC: 1.24246 cumulative IPC: 1.23812 (Simulation time: 2 hr 59 min 56 sec) 
Heartbeat CPU 0 instructions: 1220000000 cycles: 946257889 heartbeat IPC: 1.10931 cumulative IPC: 1.10802 (Simulation time: 3 hr 1 min 4 sec) 
Heartbeat CPU 3 instructions: 1270000000 cycles: 947509448 heartbeat IPC: 1.2376 cumulative IPC: 1.23812 (Simulation time: 3 hr 1 min 16 sec) 
Heartbeat CPU 2 instructions: 380000000 cycles: 952840331 heartbeat IPC: 0.223422 cumulative IPC: 0.223437 (Simulation time: 3 hr 2 min 10 sec) 
Finished CPU 3 instructions: 1000000000 cycles: 807709971 cumulative IPC: 1.23807 (Simulation time: 3 hr 2 min 33 sec) 
Heartbeat CPU 0 instructions: 1230000001 cycles: 955241558 heartbeat IPC: 1.11313 cumulative IPC: 1.10808 (Simulation time: 3 hr 2 min 36 sec) 
Heartbeat CPU 3 instructions: 1280000000 cycles: 955616188 heartbeat IPC: 1.23354 cumulative IPC: 1.23807 (Simulation time: 3 hr 2 min 39 sec) 
Heartbeat CPU 1 instructions: 510000000 cycles: 961622220 heartbeat IPC: 0.382182 cumulative IPC: 0.343775 (Simulation time: 3 hr 3 min 40 sec) 
Heartbeat CPU 3 instructions: 1290000000 cycles: 963716383 heartbeat IPC: 1.23454 cumulative IPC: 1.23803 (Simulation time: 3 hr 4 min 1 sec) 
Heartbeat CPU 0 instructions: 1240000000 cycles: 964219555 heartbeat IPC: 1.11383 cumulative IPC: 1.10814 (Simulation time: 3 hr 4 min 6 sec) 
Heartbeat CPU 3 instructions: 1300000000 cycles: 971798267 heartbeat IPC: 1.23734 cumulative IPC: 1.23803 (Simulation time: 3 hr 5 min 23 sec) 
Heartbeat CPU 0 instructions: 1250000003 cycles: 973227118 heartbeat IPC: 1.11018 cumulative IPC: 1.10816 (Simulation time: 3 hr 5 min 38 sec) 
Heartbeat CPU 3 instructions: 1310000002 cycles: 979851447 heartbeat IPC: 1.24175 cumulative IPC: 1.23806 (Simulation time: 3 hr 6 min 44 sec) 
Heartbeat CPU 0 instructions: 1260000000 cycles: 982297181 heartbeat IPC: 1.10253 cumulative IPC: 1.1081 (Simulation time: 3 hr 7 min 10 sec) 
Heartbeat CPU 1 instructions: 520000000 cycles: 987288489 heartbeat IPC: 0.389616 cumulative IPC: 0.345176 (Simulation time: 3 hr 7 min 59 sec) 
Heartbeat CPU 3 instructions: 1320000000 cycles: 987973071 heartbeat IPC: 1.23128 cumulative IPC: 1.238 (Simulation time: 3 hr 8 min 6 sec) 
Heartbeat CPU 0 instructions: 1270000001 cycles: 991244117 heartbeat IPC: 1.1177 cumulative IPC: 1.1082 (Simulation time: 3 hr 8 min 39 sec) 
Heartbeat CPU 3 instructions: 1330000003 cycles: 996062296 heartbeat IPC: 1.23621 cumulative IPC: 1.23798 (Simulation time: 3 hr 9 min 28 sec) 
Heartbeat CPU 2 instructions: 390000002 cycles: 997366925 heartbeat IPC: 0.224585 cumulative IPC: 0.223497 (Simulation time: 3 hr 9 min 40 sec) 
Heartbeat CPU 0 instructions: 1280000000 cycles: 1000245708 heartbeat IPC: 1.11091 cumulative IPC: 1.10823 (Simulation time: 3 hr 10 min 9 sec) 
Heartbeat CPU 3 instructions: 1340000000 cycles: 1004168194 heartbeat IPC: 1.23367 cumulative IPC: 1.23794 (Simulation time: 3 hr 10 min 48 sec) 
Heartbeat CPU 0 instructions: 1290000003 cycles: 1009258432 heartbeat IPC: 1.10954 cumulative IPC: 1.10825 (Simulation time: 3 hr 11 min 40 sec) 
Heartbeat CPU 3 instructions: 1350000001 cycles: 1012245946 heartbeat IPC: 1.23797 cumulative IPC: 1.23794 (Simulation time: 3 hr 12 min 10 sec) 
Heartbeat CPU 1 instructions: 530000001 cycles: 1017448871 heartbeat IPC: 0.331561 cumulative IPC: 0.344704 (Simulation time: 3 hr 13 min 2 sec) 
Heartbeat CPU 0 instructions: 1300000000 cycles: 1018278761 heartbeat IPC: 1.10861 cumulative IPC: 1.10825 (Simulation time: 3 hr 13 min 11 sec) 
Heartbeat CPU 3 instructions: 1360000000 cycles: 1020344408 heartbeat IPC: 1.2348 cumulative IPC: 1.23791 (Simulation time: 3 hr 13 min 32 sec) 
Heartbeat CPU 0 instructions: 1310000001 cycles: 1027258086 heartbeat IPC: 1.11367 cumulative IPC: 1.10831 (Simulation time: 3 hr 14 min 42 sec) 
Heartbeat CPU 3 instructions: 1370000000 cycles: 1028420060 heartbeat IPC: 1.23829 cumulative IPC: 1.23791 (Simulation time: 3 hr 14 min 54 sec) 
Heartbeat CPU 0 instructions: 1320000000 cycles: 1036278555 heartbeat IPC: 1.10859 cumulative IPC: 1.10831 (Simulation time: 3 hr 16 min 14 sec) 
Heartbeat CPU 3 instructions: 1380000000 cycles: 1036531759 heartbeat IPC: 1.23279 cumulative IPC: 1.23787 (Simulation time: 3 hr 16 min 17 sec) 
Heartbeat CPU 2 instructions: 400000000 cycles: 1042106379 heartbeat IPC: 0.223516 cumulative IPC: 0.223498 (Simulation time: 3 hr 17 min 12 sec) 
Heartbeat CPU 3 instructions: 1390000001 cycles: 1044590721 heartbeat IPC: 1.24085 cumulative IPC: 1.23789 (Simulation time: 3 hr 17 min 37 sec) 
Heartbeat CPU 0 instructions: 1330000000 cycles: 1045352104 heartbeat IPC: 1.1021 cumulative IPC: 1.10825 (Simulation time: 3 hr 17 min 44 sec) 
Heartbeat CPU 1 instructions: 540000000 cycles: 1045579105 heartbeat IPC: 0.355489 cumulative IPC: 0.345041 (Simulation time: 3 hr 17 min 47 sec) 
Finished CPU 0 instructions: 1000000002 cycles: 902301149 cumulative IPC: 1.10828 (Simulation time: 3 hr 18 min 26 sec) 
Heartbeat CPU 3 instructions: 1400000000 cycles: 1052686430 heartbeat IPC: 1.23522 cumulative IPC: 1.23787 (Simulation time: 3 hr 18 min 58 sec) 
Heartbeat CPU 0 instructions: 1340000000 cycles: 1054353974 heartbeat IPC: 1.11088 cumulative IPC: 1.10827 (Simulation time: 3 hr 19 min 14 sec) 
Heartbeat CPU 3 instructions: 1410000003 cycles: 1060736276 heartbeat IPC: 1.24226 cumulative IPC: 1.23791 (Simulation time: 3 hr 20 min 17 sec) 
Heartbeat CPU 0 instructions: 1350000001 cycles: 1063431680 heartbeat IPC: 1.1016 cumulative IPC: 1.10821 (Simulation time: 3 hr 20 min 44 sec) 
Heartbeat CPU 3 instructions: 1420000000 cycles: 1068802019 heartbeat IPC: 1.23981 cumulative IPC: 1.23793 (Simulation time: 3 hr 21 min 37 sec) 
Heartbeat CPU 0 instructions: 1360000000 cycles: 1072479400 heartbeat IPC: 1.10525 cumulative IPC: 1.10818 (Simulation time: 3 hr 22 min 14 sec) 
Heartbeat CPU 1 instructions: 550000000 cycles: 1075353289 heartbeat IPC: 0.335861 cumulative IPC: 0.344747 (Simulation time: 3 hr 22 min 42 sec) 
Heartbeat CPU 3 instructions: 1430000001 cycles: 1076871255 heartbeat IPC: 1.23927 cumulative IPC: 1.23794 (Simulation time: 3 hr 22 min 58 sec) 
Heartbeat CPU 0 instructions: 1370000001 cycles: 1081499963 heartbeat IPC: 1.10858 cumulative IPC: 1.10818 (Simulation time: 3 hr 23 min 44 sec) 
Heartbeat CPU 3 instructions: 1440000000 cycles: 1084974539 heartbeat IPC: 1.23407 cumulative IPC: 1.2379 (Simulation time: 3 hr 24 min 19 sec) 
Heartbeat CPU 2 instructions: 410000000 cycles: 1087279639 heartbeat IPC: 0.22137 cumulative IPC: 0.223396 (Simulation time: 3 hr 24 min 43 sec) 
Heartbeat CPU 0 instructions: 1380000000 cycles: 1090428600 heartbeat IPC: 1.11999 cumulative IPC: 1.10829 (Simulation time: 3 hr 25 min 14 sec) 
Heartbeat CPU 3 instructions: 1450000000 cycles: 1093123366 heartbeat IPC: 1.22717 cumulative IPC: 1.23781 (Simulation time: 3 hr 25 min 41 sec) 
Heartbeat CPU 1 instructions: 560000000 cycles: 1097918845 heartbeat IPC: 0.443153 cumulative IPC: 0.347083 (Simulation time: 3 hr 26 min 29 sec) 
Heartbeat CPU 0 instructions: 1390000002 cycles: 1099331426 heartbeat IPC: 1.12324 cumulative IPC: 1.10843 (Simulation time: 3 hr 26 min 43 sec) 
Heartbeat CPU 3 instructions: 1460000000 cycles: 1101270103 heartbeat IPC: 1.22749 cumulative IPC: 1.23772 (Simulation time: 3 hr 27 min 3 sec) 
Heartbeat CPU 0 instructions: 1400000000 cycles: 1108313681 heartbeat IPC: 1.11331 cumulative IPC: 1.10848 (Simulation time: 3 hr 28 min 15 sec) 
Heartbeat CPU 3 instructions: 1470000001 cycles: 1109362249 heartbeat IPC: 1.23577 cumulative IPC: 1.23771 (Simulation time: 3 hr 28 min 25 sec) 
Heartbeat CPU 0 instructions: 1410000000 cycles: 1117394199 heartbeat IPC: 1.10126 cumulative IPC: 1.10841 (Simulation time: 3 hr 29 min 45 sec) 
Heartbeat CPU 3 instructions: 1480000000 cycles: 1117394947 heartbeat IPC: 1.24491 cumulative IPC: 1.23777 (Simulation time: 3 hr 29 min 45 sec) 
Heartbeat CPU 1 instructions: 570000001 cycles: 1125105804 heartbeat IPC: 0.367823 cumulative IPC: 0.347659 (Simulation time: 3 hr 31 min 1 sec) 
Heartbeat CPU 3 instructions: 1490000000 cycles: 1125474835 heartbeat IPC: 1.23764 cumulative IPC: 1.23777 (Simulation time: 3 hr 31 min 5 sec) 
Heartbeat CPU 0 instructions: 1420000000 cycles: 1126388196 heartbeat IPC: 1.11185 cumulative IPC: 1.10844 (Simulation time: 3 hr 31 min 14 sec) 
Heartbeat CPU 2 instructions: 420000000 cycles: 1131796911 heartbeat IPC: 0.224632 cumulative IPC: 0.223452 (Simulation time: 3 hr 32 min 8 sec) 
Heartbeat CPU 3 instructions: 1500000000 cycles: 1133537404 heartbeat IPC: 1.2403 cumulative IPC: 1.23779 (Simulation time: 3 hr 32 min 25 sec) 
Heartbeat CPU 0 instructions: 1430000002 cycles: 1135430705 heartbeat IPC: 1.10589 cumulative IPC: 1.10842 (Simulation time: 3 hr 32 min 43 sec) 
Heartbeat CPU 3 instructions: 1510000003 cycles: 1141587673 heartbeat IPC: 1.24219 cumulative IPC: 1.23782 (Simulation time: 3 hr 33 min 45 sec) 
Heartbeat CPU 0 instructions: 1440000000 cycles: 1144472544 heartbeat IPC: 1.10597 cumulative IPC: 1.1084 (Simulation time: 3 hr 34 min 14 sec) 
Heartbeat CPU 3 instructions: 1520000000 cycles: 1149607304 heartbeat IPC: 1.24694 cumulative IPC: 1.2379 (Simulation time: 3 hr 35 min 4 sec) 
Heartbeat CPU 0 instructions: 1450000003 cycles: 1153563337 heartbeat IPC: 1.10001 cumulative IPC: 1.10832 (Simulation time: 3 hr 35 min 44 sec) 
Heartbeat CPU 1 instructions: 580000000 cycles: 1156726945 heartbeat IPC: 0.316244 cumulative IPC: 0.346675 (Simulation time: 3 hr 36 min 15 sec) 
Heartbeat CPU 3 instructions: 1530000003 cycles: 1157684238 heartbeat IPC: 1.23809 cumulative IPC: 1.2379 (Simulation time: 3 hr 36 min 24 sec) 
Heartbeat CPU 0 instructions: 1460000000 cycles: 1162560184 heartbeat IPC: 1.1115 cumulative IPC: 1.10835 (Simulation time: 3 hr 37 min 15 sec) 
Heartbeat CPU 3 instructions: 1540000000 cycles: 1165764827 heartbeat IPC: 1.23753 cumulative IPC: 1.23789 (Simulation time: 3 hr 37 min 47 sec) 
Heartbeat CPU 0 instructions: 1470000000 cycles: 1171587337 heartbeat IPC: 1.10777 cumulative IPC: 1.10834 (Simulation time: 3 hr 38 min 44 sec) 
Heartbeat CPU 3 instructions: 1550000001 cycles: 1173837575 heartbeat IPC: 1.23874 cumulative IPC: 1.2379 (Simulation time: 3 hr 39 min 7 sec) 
Heartbeat CPU 2 instructions: 430000000 cycles: 1176902776 heartbeat IPC: 0.221701 cumulative IPC: 0.223375 (Simulation time: 3 hr 39 min 37 sec) 
Heartbeat CPU 0 instructions: 1480000000 cycles: 1180642370 heartbeat IPC: 1.10436 cumulative IPC: 1.10831 (Simulation time: 3 hr 40 min 15 sec) 
Heartbeat CPU 3 instructions: 1560000000 cycles: 1181884003 heartbeat IPC: 1.24279 cumulative IPC: 1.23794 (Simulation time: 3 hr 40 min 27 sec) 
Heartbeat CPU 1 instructions: 590000000 cycles: 1187513387 heartbeat IPC: 0.324818 cumulative IPC: 0.346029 (Simulation time: 3 hr 41 min 24 sec) 
Heartbeat CPU 0 instructions: 1490000000 cycles: 1189650227 heartbeat IPC: 1.11014 cumulative IPC: 1.10832 (Simulation time: 3 hr 41 min 45 sec) 
Heartbeat CPU 3 instructions: 1570000000 cycles: 1189969449 heartbeat IPC: 1.23679 cumulative IPC: 1.23793 (Simulation time: 3 hr 41 min 49 sec) 
Heartbeat CPU 3 instructions: 1580000000 cycles: 1198008463 heartbeat IPC: 1.24393 cumulative IPC: 1.23798 (Simulation time: 3 hr 43 min 9 sec) 
Heartbeat CPU 0 instructions: 1500000000 cycles: 1198638583 heartbeat IPC: 1.11255 cumulative IPC: 1.10836 (Simulation time: 3 hr 43 min 15 sec) 
Heartbeat CPU 3 instructions: 1590000000 cycles: 1206105167 heartbeat IPC: 1.23507 cumulative IPC: 1.23795 (Simulation time: 3 hr 44 min 30 sec) 
Heartbeat CPU 0 instructions: 1510000003 cycles: 1207672238 heartbeat IPC: 1.10697 cumulative IPC: 1.10835 (Simulation time: 3 hr 44 min 46 sec) 
Heartbeat CPU 3 instructions: 1600000000 cycles: 1214179768 heartbeat IPC: 1.23845 cumulative IPC: 1.23796 (Simulation time: 3 hr 45 min 51 sec) 
Heartbeat CPU 0 instructions: 1520000000 cycles: 1216692487 heartbeat IPC: 1.10862 cumulative IPC: 1.10835 (Simulation time: 3 hr 46 min 15 sec) 
Heartbeat CPU 1 instructions: 600000000 cycles: 1217629194 heartbeat IPC: 0.332052 cumulative IPC: 0.345635 (Simulation time: 3 hr 46 min 25 sec) 
Heartbeat CPU 2 instructions: 440000000 cycles: 1221291673 heartbeat IPC: 0.225282 cumulative IPC: 0.223454 (Simulation time: 3 hr 47 min 1 sec) 
Heartbeat CPU 3 instructions: 1610000003 cycles: 1222238713 heartbeat IPC: 1.24086 cumulative IPC: 1.23798 (Simulation time: 3 hr 47 min 11 sec) 
Heartbeat CPU 0 instructions: 1530000001 cycles: 1225670008 heartbeat IPC: 1.11389 cumulative IPC: 1.1084 (Simulation time: 3 hr 47 min 45 sec) 
Heartbeat CPU 3 instructions: 1620000000 cycles: 1230326686 heartbeat IPC: 1.2364 cumulative IPC: 1.23797 (Simulation time: 3 hr 48 min 31 sec) 
Heartbeat CPU 0 instructions: 1540000000 cycles: 1234704550 heartbeat IPC: 1.10686 cumulative IPC: 1.10838 (Simulation time: 3 hr 49 min 15 sec) 
Heartbeat CPU 3 instructions: 1630000001 cycles: 1238401424 heartbeat IPC: 1.23843 cumulative IPC: 1.23797 (Simulation time: 3 hr 49 min 52 sec) 
Heartbeat CPU 0 instructions: 1550000002 cycles: 1243735454 heartbeat IPC: 1.10731 cumulative IPC: 1.10838 (Simulation time: 3 hr 50 min 44 sec) 
Heartbeat CPU 3 instructions: 1640000000 cycles: 1246468473 heartbeat IPC: 1.23961 cumulative IPC: 1.23798 (Simulation time: 3 hr 51 min 11 sec) 
Heartbeat CPU 1 instructions: 610000000 cycles: 1249131178 heartbeat IPC: 0.31744 cumulative IPC: 0.344829 (Simulation time: 3 hr 51 min 37 sec) 
Heartbeat CPU 0 instructions: 1560000000 cycles: 1252797456 heartbeat IPC: 1.10351 cumulative IPC: 1.10834 (Simulation time: 3 hr 52 min 14 sec) 
Heartbeat CPU 3 instructions: 1650000000 cycles: 1254535472 heartbeat IPC: 1.23962 cumulative IPC: 1.23799 (Simulation time: 3 hr 52 min 31 sec) 
Heartbeat CPU 0 instructions: 1570000000 cycles: 1261805753 heartbeat IPC: 1.11009 cumulative IPC: 1.10835 (Simulation time: 3 hr 53 min 45 sec) 
Heartbeat CPU 3 instructions: 1660000000 cycles: 1262625716 heartbeat IPC: 1.23606 cumulative IPC: 1.23798 (Simulation time: 3 hr 53 min 54 sec) 
Heartbeat CPU 2 instructions: 450000002 cycles: 1266331227 heartbeat IPC: 0.222027 cumulative IPC: 0.223396 (Simulation time: 3 hr 54 min 32 sec) 
Heartbeat CPU 0 instructions: 1580000000 cycles: 1270730426 heartbeat IPC: 1.12049 cumulative IPC: 1.10845 (Simulation time: 3 hr 55 min 16 sec) 
Heartbeat CPU 3 instructions: 1670000002 cycles: 1270739825 heartbeat IPC: 1.23242 cumulative IPC: 1.23794 (Simulation time: 3 hr 55 min 16 sec) 
Heartbeat CPU 1 instructions: 620000000 cycles: 1275358455 heartbeat IPC: 0.381282 cumulative IPC: 0.345677 (Simulation time: 3 hr 56 min 2 sec) 
Heartbeat CPU 3 instructions: 1680000000 cycles: 1278825158 heartbeat IPC: 1.23681 cumulative IPC: 1.23793 (Simulation time: 3 hr 56 min 37 sec) 
Heartbeat CPU 0 instructions: 1590000001 cycles: 1279810280 heartbeat IPC: 1.10134 cumulative IPC: 1.10839 (Simulation time: 3 hr 56 min 47 sec) 
Heartbeat CPU 3 instructions: 1690000000 cycles: 1286897366 heartbeat IPC: 1.23882 cumulative IPC: 1.23794 (Simulation time: 3 hr 57 min 59 sec) 
Heartbeat CPU 0 instructions: 1600000000 cycles: 1288851538 heartbeat IPC: 1.10604 cumulative IPC: 1.10837 (Simulation time: 3 hr 58 min 19 sec) 
Heartbeat CPU 3 instructions: 1700000000 cycles: 1294992525 heartbeat IPC: 1.23531 cumulative IPC: 1.23792 (Simulation time: 3 hr 59 min 21 sec) 
Heartbeat CPU 0 instructions: 1610000000 cycles: 1297836073 heartbeat IPC: 1.11302 cumulative IPC: 1.10841 (Simulation time: 3 hr 59 min 50 sec) 
Heartbeat CPU 1 instructions: 630000000 cycles: 1301305265 heartbeat IPC: 0.385404 cumulative IPC: 0.34657 (Simulation time: 4 hr 0 min 25 sec) 
Heartbeat CPU 3 instructions: 1710000003 cycles: 1303121097 heartbeat IPC: 1.23023 cumulative IPC: 1.23787 (Simulation time: 4 hr 0 min 43 sec) 
Heartbeat CPU 0 instructions: 1620000000 cycles: 1306845901 heartbeat IPC: 1.1099 cumulative IPC: 1.10842 (Simulation time: 4 hr 1 min 20 sec) 
Heartbeat CPU 2 instructions: 460000000 cycles: 1310450451 heartbeat IPC: 0.226659 cumulative IPC: 0.22352 (Simulation time: 4 hr 1 min 56 sec) 
Heartbeat CPU 3 instructions: 1720000000 cycles: 1311200539 heartbeat IPC: 1.23771 cumulative IPC: 1.23786 (Simulation time: 4 hr 2 min 4 sec) 
Heartbeat CPU 0 instructions: 1630000002 cycles: 1315847613 heartbeat IPC: 1.1109 cumulative IPC: 1.10844 (Simulation time: 4 hr 2 min 50 sec) 
Heartbeat CPU 3 instructions: 1730000003 cycles: 1319294645 heartbeat IPC: 1.23547 cumulative IPC: 1.23785 (Simulation time: 4 hr 3 min 24 sec) 
Heartbeat CPU 0 instructions: 1640000000 cycles: 1324881569 heartbeat IPC: 1.10693 cumulative IPC: 1.10843 (Simulation time: 4 hr 4 min 20 sec) 
Heartbeat CPU 3 instructions: 1740000000 cycles: 1327352942 heartbeat IPC: 1.24096 cumulative IPC: 1.23787 (Simulation time: 4 hr 4 min 45 sec) 
Heartbeat CPU 1 instructions: 640000000 cycles: 1333118698 heartbeat IPC: 0.314333 cumulative IPC: 0.345705 (Simulation time: 4 hr 5 min 43 sec) 
Heartbeat CPU 0 instructions: 1650000000 cycles: 1333923484 heartbeat IPC: 1.10596 cumulative IPC: 1.10841 (Simulation time: 4 hr 5 min 51 sec) 
Heartbeat CPU 3 instructions: 1750000001 cycles: 1335435915 heartbeat IPC: 1.23717 cumulative IPC: 1.23786 (Simulation time: 4 hr 6 min 6 sec) 
Heartbeat CPU 0 instructions: 1660000000 cycles: 1342946788 heartbeat IPC: 1.10824 cumulative IPC: 1.10841 (Simulation time: 4 hr 7 min 22 sec) 
Heartbeat CPU 3 instructions: 1760000000 cycles: 1343504168 heartbeat IPC: 1.23943 cumulative IPC: 1.23788 (Simulation time: 4 hr 7 min 28 sec) 
Heartbeat CPU 3 instructions: 1770000000 cycles: 1351636374 heartbeat IPC: 1.22968 cumulative IPC: 1.23782 (Simulation time: 4 hr 8 min 50 sec) 
Heartbeat CPU 0 instructions: 1670000003 cycles: 1351923323 heartbeat IPC: 1.11402 cumulative IPC: 1.10845 (Simulation time: 4 hr 8 min 53 sec) 
Heartbeat CPU 2 instructions: 470000001 cycles: 1355113807 heartbeat IPC: 0.223897 cumulative IPC: 0.223534 (Simulation time: 4 hr 9 min 26 sec) 
Heartbeat CPU 3 instructions: 1780000000 cycles: 1359742283 heartbeat IPC: 1.23367 cumulative IPC: 1.23779 (Simulation time: 4 hr 10 min 13 sec) 
Heartbeat CPU 0 instructions: 1680000000 cycles: 1360943293 heartbeat IPC: 1.10865 cumulative IPC: 1.10845 (Simulation time: 4 hr 10 min 25 sec) 
Heartbeat CPU 1 instructions: 650000002 cycles: 1360988803 heartbeat IPC: 0.358807 cumulative IPC: 0.346006 (Simulation time: 4 hr 10 min 25 sec) 
Heartbeat CPU 3 instructions: 1790000003 cycles: 1367825952 heartbeat IPC: 1.23706 cumulative IPC: 1.23779 (Simulation time: 4 hr 11 min 33 sec) 
Heartbeat CPU 0 instructions: 1690000001 cycles: 1369998366 heartbeat IPC: 1.10435 cumulative IPC: 1.10842 (Simulation time: 4 hr 11 min 55 sec) 
Heartbeat CPU 3 instructions: 1800000000 cycles: 1375906469 heartbeat IPC: 1.23754 cumulative IPC: 1.23779 (Simulation time: 4 hr 12 min 53 sec) 
Heartbeat CPU 0 instructions: 1700000000 cycles: 1379034166 heartbeat IPC: 1.10671 cumulative IPC: 1.10841 (Simulation time: 4 hr 13 min 24 sec) 
Heartbeat CPU 3 instructions: 1810000003 cycles: 1383995710 heartbeat IPC: 1.23621 cumulative IPC: 1.23778 (Simulation time: 4 hr 14 min 13 sec) 
Heartbeat CPU 0 instructions: 1710000003 cycles: 1388127457 heartbeat IPC: 1.09971 cumulative IPC: 1.10834 (Simulation time: 4 hr 14 min 53 sec) 
Heartbeat CPU 3 instructions: 1820000000 cycles: 1392026734 heartbeat IPC: 1.24517 cumulative IPC: 1.23782 (Simulation time: 4 hr 15 min 31 sec) 
Heartbeat CPU 1 instructions: 660000000 cycles: 1392409029 heartbeat IPC: 0.318266 cumulative IPC: 0.345306 (Simulation time: 4 hr 15 min 35 sec) 
Heartbeat CPU 0 instructions: 1720000000 cycles: 1397201254 heartbeat IPC: 1.10207 cumulative IPC: 1.1083 (Simulation time: 4 hr 16 min 22 sec) 
Heartbeat CPU 2 instructions: 480000000 cycles: 1399892878 heartbeat IPC: 0.223319 cumulative IPC: 0.223526 (Simulation time: 4 hr 16 min 49 sec) 
Heartbeat CPU 3 instructions: 1830000002 cycles: 1400043364 heartbeat IPC: 1.24741 cumulative IPC: 1.23788 (Simulation time: 4 hr 16 min 50 sec) 
Heartbeat CPU 0 instructions: 1730000000 cycles: 1406239873 heartbeat IPC: 1.10636 cumulative IPC: 1.10828 (Simulation time: 4 hr 17 min 51 sec) 
Heartbeat CPU 3 instructions: 1840000000 cycles: 1408120306 heartbeat IPC: 1.23809 cumulative IPC: 1.23789 (Simulation time: 4 hr 18 min 10 sec) 
Heartbeat CPU 0 instructions: 1740000000 cycles: 1415279420 heartbeat IPC: 1.10625 cumulative IPC: 1.10827 (Simulation time: 4 hr 19 min 21 sec) 
Heartbeat CPU 3 instructions: 1850000000 cycles: 1416204299 heartbeat IPC: 1.23701 cumulative IPC: 1.23788 (Simulation time: 4 hr 19 min 30 sec) 
Heartbeat CPU 1 instructions: 670000000 cycles: 1421435874 heartbeat IPC: 0.344509 cumulative IPC: 0.345288 (Simulation time: 4 hr 20 min 21 sec) 
Heartbeat CPU 0 instructions: 1750000002 cycles: 1424257015 heartbeat IPC: 1.11388 cumulative IPC: 1.10831 (Simulation time: 4 hr 20 min 49 sec) 
Heartbeat CPU 3 instructions: 1860000000 cycles: 1424332340 heartbeat IPC: 1.23031 cumulative IPC: 1.23783 (Simulation time: 4 hr 20 min 50 sec) 
Heartbeat CPU 3 instructions: 1870000002 cycles: 1432429962 heartbeat IPC: 1.23493 cumulative IPC: 1.23781 (Simulation time: 4 hr 22 min 10 sec) 
Heartbeat CPU 0 instructions: 1760000000 cycles: 1433241756 heartbeat IPC: 1.113 cumulative IPC: 1.10834 (Simulation time: 4 hr 22 min 18 sec) 
Heartbeat CPU 3 instructions: 1880000000 cycles: 1440453087 heartbeat IPC: 1.2464 cumulative IPC: 1.23787 (Simulation time: 4 hr 23 min 29 sec) 
Heartbeat CPU 0 instructions: 1770000002 cycles: 1442319204 heartbeat IPC: 1.10163 cumulative IPC: 1.10829 (Simulation time: 4 hr 23 min 47 sec) 
Heartbeat CPU 2 instructions: 490000002 cycles: 1444651841 heartbeat IPC: 0.223419 cumulative IPC: 0.223523 (Simulation time: 4 hr 24 min 10 sec) 
Heartbeat CPU 3 instructions: 1890000000 cycles: 1448518367 heartbeat IPC: 1.23988 cumulative IPC: 1.23788 (Simulation time: 4 hr 24 min 48 sec) 
Heartbeat CPU 1 instructions: 680000000 cycles: 1450410656 heartbeat IPC: 0.345128 cumulative IPC: 0.345284 (Simulation time: 4 hr 25 min 7 sec) 
Heartbeat CPU 0 instructions: 1780000000 cycles: 1451356681 heartbeat IPC: 1.1065 cumulative IPC: 1.10828 (Simulation time: 4 hr 25 min 16 sec) 
Heartbeat CPU 3 instructions: 1900000000 cycles: 1456574822 heartbeat IPC: 1.24124 cumulative IPC: 1.2379 (Simulation time: 4 hr 26 min 7 sec) 
Heartbeat CPU 0 instructions: 1790000000 cycles: 1460420737 heartbeat IPC: 1.10326 cumulative IPC: 1.10825 (Simulation time: 4 hr 26 min 44 sec) 
Heartbeat CPU 3 instructions: 1910000000 cycles: 1464624218 heartbeat IPC: 1.24233 cumulative IPC: 1.23793 (Simulation time: 4 hr 27 min 26 sec) 
Heartbeat CPU 0 instructions: 1800000000 cycles: 1469477092 heartbeat IPC: 1.1042 cumulative IPC: 1.10822 (Simulation time: 4 hr 28 min 14 sec) 
Heartbeat CPU 3 instructions: 1920000000 cycles: 1472706145 heartbeat IPC: 1.23733 cumulative IPC: 1.23792 (Simulation time: 4 hr 28 min 46 sec) 
Heartbeat CPU 0 instructions: 1810000001 cycles: 1478547876 heartbeat IPC: 1.10244 cumulative IPC: 1.10818 (Simulation time: 4 hr 29 min 43 sec) 
Heartbeat CPU 3 instructions: 1930000000 cycles: 1480748129 heartbeat IPC: 1.24347 cumulative IPC: 1.23796 (Simulation time: 4 hr 30 min 5 sec) 
Heartbeat CPU 1 instructions: 690000002 cycles: 1482755235 heartbeat IPC: 0.309171 cumulative IPC: 0.34441 (Simulation time: 4 hr 30 min 25 sec) 
Heartbeat CPU 0 instructions: 1820000000 cycles: 1487466844 heartbeat IPC: 1.12121 cumulative IPC: 1.10827 (Simulation time: 4 hr 31 min 14 sec) 
Heartbeat CPU 3 instructions: 1940000000 cycles: 1488863032 heartbeat IPC: 1.2323 cumulative IPC: 1.23792 (Simulation time: 4 hr 31 min 29 sec) 
Heartbeat CPU 2 instructions: 500000000 cycles: 1489130343 heartbeat IPC: 0.224828 cumulative IPC: 0.223566 (Simulation time: 4 hr 31 min 31 sec) 
Heartbeat CPU 0 instructions: 1830000000 cycles: 1496500749 heartbeat IPC: 1.10694 cumulative IPC: 1.10826 (Simulation time: 4 hr 32 min 44 sec) 
Heartbeat CPU 3 instructions: 1950000002 cycles: 1496918243 heartbeat IPC: 1.24143 cumulative IPC: 1.23794 (Simulation time: 4 hr 32 min 49 sec) 
Heartbeat CPU 3 instructions: 1960000000 cycles: 1504998651 heartbeat IPC: 1.23756 cumulative IPC: 1.23794 (Simulation time: 4 hr 34 min 8 sec) 
Heartbeat CPU 0 instructions: 1840000000 cycles: 1505503268 heartbeat IPC: 1.1108 cumulative IPC: 1.10827 (Simulation time: 4 hr 34 min 13 sec) 
Heartbeat CPU 3 instructions: 1970000001 cycles: 1513056228 heartbeat IPC: 1.24107 cumulative IPC: 1.23796 (Simulation time: 4 hr 35 min 28 sec) 
Heartbeat CPU 1 instructions: 700000000 cycles: 1513135257 heartbeat IPC: 0.329164 cumulative IPC: 0.34407 (Simulation time: 4 hr 35 min 29 sec) 
Heartbeat CPU 0 instructions: 1850000002 cycles: 1514538546 heartbeat IPC: 1.10677 cumulative IPC: 1.10826 (Simulation time: 4 hr 35 min 43 sec) 
Heartbeat CPU 3 instructions: 1980000000 cycles: 1521139626 heartbeat IPC: 1.2371 cumulative IPC: 1.23795 (Simulation time: 4 hr 36 min 48 sec) 
Heartbeat CPU 0 instructions: 1860000000 cycles: 1523573929 heartbeat IPC: 1.10676 cumulative IPC: 1.10826 (Simulation time: 4 hr 37 min 12 sec) 
Heartbeat CPU 3 instructions: 1990000002 cycles: 1529221735 heartbeat IPC: 1.2373 cumulative IPC: 1.23795 (Simulation time: 4 hr 38 min 8 sec) 
Heartbeat CPU 0 instructions: 1870000003 cycles: 1532608918 heartbeat IPC: 1.10681 cumulative IPC: 1.10825 (Simulation time: 4 hr 38 min 42 sec) 
Heartbeat CPU 2 instructions: 510000002 cycles: 1533713915 heartbeat IPC: 0.224298 cumulative IPC: 0.223589 (Simulation time: 4 hr 38 min 53 sec) 
*** Reached end of trace for Core: 3 Repeating trace: /scratch/user/djimenez/champsim-traces/speccpu2017/xz/603.bwaves_s/603.bwaves_s-2609B.champsimtrace.xz
Heartbeat CPU 3 instructions: 2000000000 cycles: 1537273520 heartbeat IPC: 1.24196 cumulative IPC: 1.23797 (Simulation time: 4 hr 39 min 29 sec) 
Heartbeat CPU 0 instructions: 1880000000 cycles: 1541617986 heartbeat IPC: 1.10999 cumulative IPC: 1.10826 (Simulation time: 4 hr 40 min 12 sec) 
Heartbeat CPU 1 instructions: 710000000 cycles: 1544414905 heartbeat IPC: 0.319697 cumulative IPC: 0.343525 (Simulation time: 4 hr 40 min 40 sec) 
Heartbeat CPU 3 instructions: 2010000001 cycles: 1545404576 heartbeat IPC: 1.22985 cumulative IPC: 1.23793 (Simulation time: 4 hr 40 min 49 sec) 
Heartbeat CPU 0 instructions: 1890000003 cycles: 1550597858 heartbeat IPC: 1.1136 cumulative IPC: 1.10829 (Simulation time: 4 hr 41 min 42 sec) 
Heartbeat CPU 3 instructions: 2020000000 cycles: 1553534221 heartbeat IPC: 1.23007 cumulative IPC: 1.23788 (Simulation time: 4 hr 42 min 11 sec) 
Heartbeat CPU 0 instructions: 1900000000 cycles: 1559577383 heartbeat IPC: 1.11364 cumulative IPC: 1.10833 (Simulation time: 4 hr 43 min 11 sec) 
Heartbeat CPU 3 instructions: 2030000000 cycles: 1561680860 heartbeat IPC: 1.2275 cumulative IPC: 1.23782 (Simulation time: 4 hr 43 min 31 sec) 
Heartbeat CPU 0 instructions: 1910000001 cycles: 1568547852 heartbeat IPC: 1.11477 cumulative IPC: 1.10837 (Simulation time: 4 hr 44 min 39 sec) 
Heartbeat CPU 3 instructions: 2040000000 cycles: 1569825772 heartbeat IPC: 1.22776 cumulative IPC: 1.23776 (Simulation time: 4 hr 44 min 51 sec) 
Heartbeat CPU 1 instructions: 720000000 cycles: 1575675233 heartbeat IPC: 0.319894 cumulative IPC: 0.343008 (Simulation time: 4 hr 45 min 49 sec) 
Heartbeat CPU 0 instructions: 1920000000 cycles: 1577536342 heartbeat IPC: 1.11253 cumulative IPC: 1.10839 (Simulation time: 4 hr 46 min 7 sec) 
Heartbeat CPU 3 instructions: 2050000001 cycles: 1577991089 heartbeat IPC: 1.22469 cumulative IPC: 1.23769 (Simulation time: 4 hr 46 min 12 sec) 
Heartbeat CPU 2 instructions: 520000000 cycles: 1578099472 heartbeat IPC: 0.225298 cumulative IPC: 0.223642 (Simulation time: 4 hr 46 min 13 sec) 
Heartbeat CPU 3 instructions: 2060000000 cycles: 1586101954 heartbeat IPC: 1.23291 cumulative IPC: 1.23766 (Simulation time: 4 hr 47 min 33 sec) 
Heartbeat CPU 0 instructions: 1930000003 cycles: 1586557909 heartbeat IPC: 1.10846 cumulative IPC: 1.10839 (Simulation time: 4 hr 47 min 37 sec) 
Heartbeat CPU 3 instructions: 2070000003 cycles: 1594263917 heartbeat IPC: 1.2252 cumulative IPC: 1.23759 (Simulation time: 4 hr 48 min 54 sec) 
Heartbeat CPU 0 instructions: 1940000000 cycles: 1595548365 heartbeat IPC: 1.11229 cumulative IPC: 1.10842 (Simulation time: 4 hr 49 min 7 sec) 
Heartbeat CPU 3 instructions: 2080000000 cycles: 1602360866 heartbeat IPC: 1.23503 cumulative IPC: 1.23758 (Simulation time: 4 hr 50 min 15 sec) 
Heartbeat CPU 0 instructions: 1950000000 cycles: 1604529850 heartbeat IPC: 1.1134 cumulative IPC: 1.10845 (Simulation time: 4 hr 50 min 36 sec) 
Heartbeat CPU 1 instructions: 730000000 cycles: 1606381580 heartbeat IPC: 0.325666 cumulative IPC: 0.342643 (Simulation time: 4 hr 50 min 54 sec) 
Heartbeat CPU 3 instructions: 2090000002 cycles: 1610480342 heartbeat IPC: 1.23161 cumulative IPC: 1.23754 (Simulation time: 4 hr 51 min 35 sec) 
Heartbeat CPU 0 instructions: 1960000000 cycles: 1613500809 heartbeat IPC: 1.11471 cumulative IPC: 1.10849 (Simulation time: 4 hr 52 min 5 sec) 
Heartbeat CPU 3 instructions: 2100000000 cycles: 1618630218 heartbeat IPC: 1.22701 cumulative IPC: 1.23749 (Simulation time: 4 hr 52 min 56 sec) 
Heartbeat CPU 0 instructions: 1970000003 cycles: 1622539454 heartbeat IPC: 1.10636 cumulative IPC: 1.10847 (Simulation time: 4 hr 53 min 35 sec) 
Heartbeat CPU 2 instructions: 530000000 cycles: 1622833590 heartbeat IPC: 0.223543 cumulative IPC: 0.223639 (Simulation time: 4 hr 53 min 38 sec) 
Heartbeat CPU 3 instructions: 2110000002 cycles: 1626779683 heartbeat IPC: 1.22707 cumulative IPC: 1.23743 (Simulation time: 4 hr 54 min 17 sec) 
Heartbeat CPU 0 instructions: 1980000000 cycles: 1631535979 heartbeat IPC: 1.11154 cumulative IPC: 1.10849 (Simulation time: 4 hr 55 min 6 sec) 
Heartbeat CPU 1 instructions: 740000000 cycles: 1633300802 heartbeat IPC: 0.371482 cumulative IPC: 0.343165 (Simulation time: 4 hr 55 min 25 sec) 
Heartbeat CPU 3 instructions: 2120000000 cycles: 1634962894 heartbeat IPC: 1.22201 cumulative IPC: 1.23734 (Simulation time: 4 hr 55 min 43 sec) 
Heartbeat CPU 0 instructions: 1990000002 cycles: 1640440753 heartbeat IPC: 1.12299 cumulative IPC: 1.10858 (Simulation time: 4 hr 56 min 38 sec) 
Heartbeat CPU 3 instructions: 2130000002 cycles: 1643082707 heartbeat IPC: 1.23156 cumulative IPC: 1.23731 (Simulation time: 4 hr 57 min 4 sec) 
*** Reached end of trace for Core: 0 Repeating trace: /scratch/user/djimenez/champsim-traces/speccpu2017/xz/649.fotonik3d_s/649.fotonik3d_s-8225B.champsimtrace.xz
Heartbeat CPU 0 instructions: 2000000000 cycles: 1649509564 heartbeat IPC: 1.10268 cumulative IPC: 1.10854 (Simulation time: 4 hr 58 min 8 sec) 
[...]
Heartbeat CPU 1 instructions: 1790000002 cycles: 4526142039 heartbeat IPC: 0.33286 cumulative IPC: 0.356246 (Simulation time: 12 hr 59 min 35 sec) 
Heartbeat CPU 3 instructions: 5660000000 cycles: 4528225214 heartbeat IPC: 1.23205 cumulative IPC: 1.22822 (Simulation time: 12 hr 59 min 55 sec) 
Heartbeat CPU 0 instructions: 5210000002 cycles: 4534150799 heartbeat IPC: 1.11279 cumulative IPC: 1.11134 (Simulation time: 13 hr 0 min 52 sec) 
Heartbeat CPU 3 instructions: 5670000002 cycles: 4536356911 heartbeat IPC: 1.22976 cumulative IPC: 1.22823 (Simulation time: 13 hr 1 min 14 sec) 
Heartbeat CPU 2 instructions: 1180000000 cycles: 4539597814 heartbeat IPC: 0.222905 cumulative IPC: 0.223115 (Simulation time: 13 hr 1 min 46 sec) 
Heartbeat CPU 0 instructions: 5220000000 cycles: 4543187644 heartbeat IPC: 1.10658 cumulative IPC: 1.11133 (Simulation time: 13 hr 2 min 22 sec) 
Heartbeat CPU 3 instructions: 5680000000 cycles: 4544526898 heartbeat IPC: 1.22399 cumulative IPC: 1.22822 (Simulation time: 13 hr 2 min 35 sec) 
Heartbeat CPU 0 instructions: 5230000001 cycles: 4552158718 heartbeat IPC: 1.11469 cumulative IPC: 1.11133 (Simulation time: 13 hr 3 min 50 sec) 
Heartbeat CPU 3 instructions: 5690000000 cycles: 4552728663 heartbeat IPC: 1.21925 cumulative IPC: 1.2282 (Simulation time: 13 hr 3 min 56 sec) 
Heartbeat CPU 1 instructions: 1800000000 cycles: 4555047109 heartbeat IPC: 0.34596 cumulative IPC: 0.356178 (Simulation time: 13 hr 4 min 18 sec) 
Heartbeat CPU 3 instructions: 5700000000 cycles: 4560887303 heartbeat IPC: 1.22569 cumulative IPC: 1.2282 (Simulation time: 13 hr 5 min 15 sec) 
Heartbeat CPU 0 instructions: 5240000000 cycles: 4561204782 heartbeat IPC: 1.10545 cumulative IPC: 1.11132 (Simulation time: 13 hr 5 min 18 sec) 
Heartbeat CPU 3 instructions: 5710000003 cycles: 4569044655 heartbeat IPC: 1.22589 cumulative IPC: 1.22819 (Simulation time: 13 hr 6 min 35 sec) 
Heartbeat CPU 0 instructions: 5250000003 cycles: 4570213761 heartbeat IPC: 1.11 cumulative IPC: 1.11132 (Simulation time: 13 hr 6 min 46 sec) 
Heartbeat CPU 3 instructions: 5720000000 cycles: 4577197035 heartbeat IPC: 1.22664 cumulative IPC: 1.22819 (Simulation time: 13 hr 7 min 55 sec) 
Heartbeat CPU 0 instructions: 5260000000 cycles: 4579237965 heartbeat IPC: 1.10813 cumulative IPC: 1.11131 (Simulation time: 13 hr 8 min 15 sec) 
Heartbeat CPU 2 instructions: 1190000001 cycles: 4584196952 heartbeat IPC: 0.22422 cumulative IPC: 0.223126 (Simulation time: 13 hr 9 min 4 sec) 
Heartbeat CPU 1 instructions: 1810000001 cycles: 4584747985 heartbeat IPC: 0.33669 cumulative IPC: 0.356048 (Simulation time: 13 hr 9 min 9 sec) 
Heartbeat CPU 3 instructions: 5730000003 cycles: 4585327048 heartbeat IPC: 1.23001 cumulative IPC: 1.22819 (Simulation time: 13 hr 9 min 14 sec) 
Heartbeat CPU 0 instructions: 5270000001 cycles: 4588180970 heartbeat IPC: 1.11819 cumulative IPC: 1.11133 (Simulation time: 13 hr 9 min 43 sec) 
Heartbeat CPU 3 instructions: 5740000000 cycles: 4593471324 heartbeat IPC: 1.22786 cumulative IPC: 1.22819 (Simulation time: 13 hr 10 min 35 sec) 
Heartbeat CPU 0 instructions: 5280000000 cycles: 4597142155 heartbeat IPC: 1.11592 cumulative IPC: 1.11133 (Simulation time: 13 hr 11 min 12 sec) 
Heartbeat CPU 3 instructions: 5750000001 cycles: 4601651087 heartbeat IPC: 1.22253 cumulative IPC: 1.22818 (Simulation time: 13 hr 11 min 54 sec) 
Heartbeat CPU 0 instructions: 5290000003 cycles: 4606173981 heartbeat IPC: 1.1072 cumulative IPC: 1.11133 (Simulation time: 13 hr 12 min 39 sec) 
Heartbeat CPU 3 instructions: 5760000000 cycles: 4609788804 heartbeat IPC: 1.22885 cumulative IPC: 1.22818 (Simulation time: 13 hr 13 min 16 sec) 
Heartbeat CPU 1 instructions: 1820000000 cycles: 4613563351 heartbeat IPC: 0.347037 cumulative IPC: 0.35599 (Simulation time: 13 hr 13 min 53 sec) 
Heartbeat CPU 0 instructions: 5300000000 cycles: 4615136057 heartbeat IPC: 1.11581 cumulative IPC: 1.11133 (Simulation time: 13 hr 14 min 8 sec) 
Heartbeat CPU 3 instructions: 5770000000 cycles: 4617945559 heartbeat IPC: 1.22598 cumulative IPC: 1.22818 (Simulation time: 13 hr 14 min 37 sec) 
Heartbeat CPU 0 instructions: 5310000001 cycles: 4624196336 heartbeat IPC: 1.10372 cumulative IPC: 1.11132 (Simulation time: 13 hr 15 min 37 sec) 
Heartbeat CPU 3 instructions: 5780000000 cycles: 4626098126 heartbeat IPC: 1.22661 cumulative IPC: 1.22818 (Simulation time: 13 hr 15 min 56 sec) 
Heartbeat CPU 2 instructions: 1200000000 cycles: 4629403241 heartbeat IPC: 0.221208 cumulative IPC: 0.223107 (Simulation time: 13 hr 16 min 28 sec) 
Finished CPU 2 instructions: 1000000000 cycles: 4482159060 cumulative IPC: 0.223107 (Simulation time: 13 hr 16 min 28 sec) 

CPU 0 Branch Prediction Accuracy: 99.975% MPKI: 0.0042662

CPU 1 Branch Prediction Accuracy: 90.9268% MPKI: 16.1339

CPU 2 Branch Prediction Accuracy: 96.7197% MPKI: 4.86726

CPU 3 Branch Prediction Accuracy: 99.9709% MPKI: 0.00717239

ChampSim completed all CPUs

Total Simulation Statistics (not including warmup)

CPU 0 cumulative IPC: 1.11132 instructions: 4981121888 cycles: 4482159060
L1D TOTAL     ACCESS: 1063544622  HIT:  997625553  MISS:   65919069
L1D LOAD      ACCESS:  713988766  HIT:  648135352  MISS:   65853414
L1D RFO       ACCESS:  349555856  HIT:  349490201  MISS:      65655
L1D PREFETCH  ACCESS:          0  HIT:          0  MISS:          0
L1D WRITEBACK ACCESS:          0  HIT:          0  MISS:          0
L1I TOTAL     ACCESS: 1032758153  HIT: 1032758153  MISS:          0
L1I LOAD      ACCESS: 1032758153  HIT: 1032758153  MISS:          0
L1I RFO       ACCESS:          0  HIT:          0  MISS:          0
L1I PREFETCH  ACCESS:          0  HIT:          0  MISS:          0
L1I WRITEBACK ACCESS:          0  HIT:          0  MISS:          0
L2C TOTAL     ACCESS:  181498953  HIT:  116369913  MISS:   65129040
L2C LOAD      ACCESS:   65853414  HIT:   62420756  MISS:    3432658
L2C RFO       ACCESS:      65655  HIT:      14231  MISS:      51424
L2C PREFETCH  ACCESS:   71809808  HIT:   10164850  MISS:   61644958
L2C WRITEBACK ACCESS:   43770076  HIT:   43770076  MISS:          0

Avg Lookahead Depth:	5.60645
TOTAL: 3.12421e+08	L2C: 2.75492e+08	LLC: 3.69282e+07	GOOD_L2C: 1.82412e+08
Printing all the perceptron weights to: perc_weights_0.csv
LLC TOTAL     ACCESS:  109223025  HIT:   65512873  MISS:   43710152
LLC LOAD      ACCESS:    1764876  HIT:     734311  MISS:    1030565
LLC RFO       ACCESS:      51410  HIT:      51409  MISS:          1
LLC PREFETCH  ACCESS:   63676258  HIT:   20997402  MISS:   42678856
LLC WRITEBACK ACCESS:   43730481  HIT:   43729751  MISS:        730

CPU 1 cumulative IPC: 0.355894 instructions: 1595173515 cycles: 4482159060
L1D TOTAL     ACCESS:  556673616  HIT:  542380052  MISS:   14293564
L1D LOAD      ACCESS:  340309040  HIT:  328050394  MISS:   12258646
L1D RFO       ACCESS:  216364576  HIT:  214329658  MISS:    2034918
L1D PREFETCH  ACCESS:          0  HIT:          0  MISS:          0
L1D WRITEBACK ACCESS:          0  HIT:          0  MISS:          0
L1I TOTAL     ACCESS:  440802970  HIT:  433268672  MISS:    7534298
L1I LOAD      ACCESS:  440802970  HIT:  433268672  MISS:    7534298
L1I RFO       ACCESS:          0  HIT:          0  MISS:          0
L1I PREFETCH  ACCESS:          0  HIT:          0  MISS:          0
L1I WRITEBACK ACCESS:          0  HIT:          0  MISS:          0
L2C TOTAL     ACCESS:   53303556  HIT:   41986883  MISS:   11316673
L2C LOAD      ACCESS:   19792765  HIT:   15926581  MISS:    3866184
L2C RFO       ACCESS:    2034851  HIT:     832083  MISS:    1202768
L2C PREFETCH  ACCESS:   27472995  HIT:   21305889  MISS:    6167106
L2C WRITEBACK ACCESS:    4002945  HIT:    3922330  MISS:      80615

Avg Lookahead Depth:	5.60645
TOTAL: 3.12421e+08	L2C: 2.75492e+08	LLC: 3.69282e+07	GOOD_L2C: 1.82412e+08
Printing all the perceptron weights to: perc_weights_0.csv
LLC TOTAL     ACCESS:   17561523  HIT:    9557269  MISS:    8004254
LLC LOAD      ACCESS:    3629961  HIT:    1918338  MISS:    1711623
LLC RFO       ACCESS:    1199519  HIT:     425610  MISS:     773909
LLC PREFETCH  ACCESS:   10521422  HIT:    5442269  MISS:    5079153
LLC WRITEBACK ACCESS:    2210621  HIT:    1771052  MISS:     439569

CPU 2 cumulative IPC: 0.223107 instructions: 1000000000 cycles: 4482159060
L1D TOTAL     ACCESS:  443817162  HIT:  423801317  MISS:   20015845
L1D LOAD      ACCESS:  262590447  HIT:  245092911  MISS:   17497536
L1D RFO       ACCESS:  181226715  HIT:  178708406  MISS:    2518309
L1D PREFETCH  ACCESS:          0  HIT:          0  MISS:          0
L1D WRITEBACK ACCESS:          0  HIT:          0  MISS:          0
L1I TOTAL     ACCESS:  355088580  HIT:  354709227  MISS:     379353
L1I LOAD      ACCESS:  355088580  HIT:  354709227  MISS:     379353
L1I RFO       ACCESS:          0  HIT:          0  MISS:          0
L1I PREFETCH  ACCESS:          0  HIT:          0  MISS:          0
L1I WRITEBACK ACCESS:          0  HIT:          0  MISS:          0
L2C TOTAL     ACCESS:   41337760  HIT:   22510417  MISS:   18827343
L2C LOAD      ACCESS:   17876290  HIT:    8037769  MISS:    9838521
L2C RFO       ACCESS:    2518159  HIT:     611868  MISS:    1906291
L2C PREFETCH  ACCESS:   11269287  HIT:    4223582  MISS:    7045705
L2C WRITEBACK ACCESS:    9674024  HIT:    9637198  MISS:      36826

Avg Lookahead Depth:	5.60645
TOTAL: 3.12421e+08	L2C: 2.75492e+08	LLC: 3.69282e+07	GOOD_L2C: 1.82412e+08
Printing all the perceptron weights to: perc_weights_0.csv
LLC TOTAL     ACCESS:   32392754  HIT:   14370517  MISS:   18022237
LLC LOAD      ACCESS:    9607104  HIT:    2876873  MISS:    6730231
LLC RFO       ACCESS:    1877156  HIT:     731366  MISS:    1145790
LLC PREFETCH  ACCESS:   13425620  HIT:    3406165  MISS:   10019455
LLC WRITEBACK ACCESS:    7482874  HIT:    7356113  MISS:     126761

CPU 3 cumulative IPC: 1.22817 instructions: 5504871803 cycles: 4482159061
L1D TOTAL     ACCESS: 2105317733  HIT: 1990977706  MISS:  114340027
L1D LOAD      ACCESS: 1800375212  HIT: 1689504427  MISS:  110870785
L1D RFO       ACCESS:  304942521  HIT:  301473279  MISS:    3469242
L1D PREFETCH  ACCESS:          0  HIT:          0  MISS:          0
L1D WRITEBACK ACCESS:          0  HIT:          0  MISS:          0
L1I TOTAL     ACCESS: 1351803541  HIT: 1351803541  MISS:          0
L1I LOAD      ACCESS: 1351803541  HIT: 1351803541  MISS:          0
L1I RFO       ACCESS:          0  HIT:          0  MISS:          0
L1I PREFETCH  ACCESS:          0  HIT:          0  MISS:          0
L1I WRITEBACK ACCESS:          0  HIT:          0  MISS:          0
L2C TOTAL     ACCESS:  262916258  HIT:  158206426  MISS:  104709832
L2C LOAD      ACCESS:  110836518  HIT:  105666459  MISS:    5170059
L2C RFO       ACCESS:    3398399  HIT:     716184  MISS:    2682215
L2C PREFETCH  ACCESS:  144894963  HIT:   48039055  MISS:   96855908
L2C WRITEBACK ACCESS:    3786378  HIT:    3784728  MISS:       1650

Avg Lookahead Depth:	5.60645
TOTAL: 3.12421e+08	L2C: 2.75492e+08	LLC: 3.69282e+07	GOOD_L2C: 1.82412e+08
Printing all the perceptron weights to: perc_weights_0.csv
LLC TOTAL     ACCESS:  111607630  HIT:    6988756  MISS:  104618874
LLC LOAD      ACCESS:    4906202  HIT:      30639  MISS:    4875563
LLC RFO       ACCESS:    2682215  HIT:          0  MISS:    2682215
LLC PREFETCH  ACCESS:  101330175  HIT:    4271298  MISS:   97058877
LLC WRITEBACK ACCESS:    2689038  HIT:    2686819  MISS:       2219

Region of Interest Statistics

CPU 0 cumulative IPC: 1.10828 instructions: 1000000002 cycles: 902301149
L1D TOTAL     ACCESS:  213503459  HIT:  200269679  MISS:   13233780
L1D LOAD      ACCESS:  143327465  HIT:  130106865  MISS:   13220600
L1D RFO       ACCESS:   70175994  HIT:   70162814  MISS:      13180
L1D PREFETCH  ACCESS:          0  HIT:          0  MISS:          0
L1D WRITEBACK ACCESS:          0  HIT:          0  MISS:          0
L1D PREFETCH  REQUESTED:          0  ISSUED:          0  USEFUL:          0  USELESS:          0
L1I TOTAL     ACCESS:  207316347  HIT:  207316347  MISS:          0
L1I LOAD      ACCESS:  207316347  HIT:  207316347  MISS:          0
L1I RFO       ACCESS:          0  HIT:          0  MISS:          0
L1I PREFETCH  ACCESS:          0  HIT:          0  MISS:          0
L1I WRITEBACK ACCESS:          0  HIT:          0  MISS:          0
L1I PREFETCH  REQUESTED:          0  ISSUED:          0  USEFUL:          0  USELESS:          0
L2C TOTAL     ACCESS:   36394895  HIT:   23325964  MISS:   13068931
L2C LOAD      ACCESS:   13220600  HIT:   12515503  MISS:     705097
L2C RFO       ACCESS:      13180  HIT:       2787  MISS:      10393
L2C PREFETCH  ACCESS:   14373925  HIT:    2020484  MISS:   12353441
L2C WRITEBACK ACCESS:    8787190  HIT:    8787190  MISS:          0
L2C PREFETCH  REQUESTED:   80252020  ISSUED:   80252020  USEFUL:   65695556  USELESS:     196364
LLC TOTAL     ACCESS:   21923011  HIT:   13147495  MISS:    8775516
LLC LOAD      ACCESS:     355120  HIT:     147999  MISS:     207121
LLC RFO       ACCESS:      10392  HIT:      10392  MISS:          0
LLC PREFETCH  ACCESS:   12778250  HIT:    4210028  MISS:    8568222
LLC WRITEBACK ACCESS:    8779249  HIT:    8779076  MISS:        173
LLC PREFETCH  REQUESTED:          0  ISSUED:          0  USEFUL:    2043780  USELESS:  162965949
Major fault: 0 Minor fault: 274488

CPU 1 cumulative IPC: 0.353 instructions: 1000000002 cycles: 2832861589
L1D TOTAL     ACCESS:  349259899  HIT:  339491196  MISS:    9768703
L1D LOAD      ACCESS:  214104912  HIT:  205548008  MISS:    8556904
L1D RFO       ACCESS:  135154987  HIT:  133943188  MISS:    1211799
L1D PREFETCH  ACCESS:          0  HIT:          0  MISS:          0
L1D WRITEBACK ACCESS:          0  HIT:          0  MISS:          0
L1D PREFETCH  REQUESTED:          0  ISSUED:          0  USEFUL:          0  USELESS:          0
L1I TOTAL     ACCESS:  272597369  HIT:  267849632  MISS:    4747737
L1I LOAD      ACCESS:  272597369  HIT:  267849632  MISS:    4747737
L1I RFO       ACCESS:          0  HIT:          0  MISS:          0
L1I PREFETCH  ACCESS:          0  HIT:          0  MISS:          0
L1I WRITEBACK ACCESS:          0  HIT:          0  MISS:          0
L1I PREFETCH  REQUESTED:          0  ISSUED:          0  USEFUL:          0  USELESS:          0
L2C TOTAL     ACCESS:   35773179  HIT:   28500546  MISS:    7272633
L2C LOAD      ACCESS:   13304519  HIT:   10767079  MISS:    2537440
L2C RFO       ACCESS:    1211752  HIT:     499452  MISS:     712300
L2C PREFETCH  ACCESS:   18701741  HIT:   14724158  MISS:    3977583
L2C WRITEBACK ACCESS:    2555167  HIT:    2509857  MISS:      45310
L2C PREFETCH  REQUESTED:   39638679  ISSUED:   39616123  USEFUL:    3615573  USELESS:    3557317
LLC TOTAL     ACCESS:   11321918  HIT:    6401034  MISS:    4920884
LLC LOAD      ACCESS:    2393654  HIT:    1341670  MISS:    1051984
LLC RFO       ACCESS:     710086  HIT:     224942  MISS:     485144
LLC PREFETCH  ACCESS:    6810945  HIT:    3693396  MISS:    3117549
LLC WRITEBACK ACCESS:    1407233  HIT:    1141026  MISS:     266207
LLC PREFETCH  REQUESTED:          0  ISSUED:          0  USEFUL:    2043780  USELESS:  162965949
Major fault: 0 Minor fault: 31733

CPU 2 cumulative IPC: 0.223107 instructions: 1000000000 cycles: 4482159060
L1D TOTAL     ACCESS:  443817162  HIT:  423801317  MISS:   20015845
L1D LOAD      ACCESS:  262590447  HIT:  245092911  MISS:   17497536
L1D RFO       ACCESS:  181226715  HIT:  178708406  MISS:    2518309
L1D PREFETCH  ACCESS:          0  HIT:          0  MISS:          0
L1D WRITEBACK ACCESS:          0  HIT:          0  MISS:          0
L1D PREFETCH  REQUESTED:          0  ISSUED:          0  USEFUL:          0  USELESS:          0
L1I TOTAL     ACCESS:  355088580  HIT:  354709227  MISS:     379353
L1I LOAD      ACCESS:  355088580  HIT:  354709227  MISS:     379353
L1I RFO       ACCESS:          0  HIT:          0  MISS:          0
L1I PREFETCH  ACCESS:          0  HIT:          0  MISS:          0
L1I WRITEBACK ACCESS:          0  HIT:          0  MISS:          0
L1I PREFETCH  REQUESTED:          0  ISSUED:          0  USEFUL:          0  USELESS:          0
L2C TOTAL     ACCESS:   41337760  HIT:   22510417  MISS:   18827343
L2C LOAD      ACCESS:   17876290  HIT:    8037769  MISS:    9838521
L2C RFO       ACCESS:    2518159  HIT:     611868  MISS:    1906291
L2C PREFETCH  ACCESS:   11269287  HIT:    4223582  MISS:    7045705
L2C WRITEBACK ACCESS:    9674024  HIT:    9637198  MISS:      36826
L2C PREFETCH  REQUESTED:   24223614  ISSUED:   24223614  USEFUL:    3961720  USELESS:    4609726
LLC TOTAL     ACCESS:   32392754  HIT:   14370517  MISS:   18022237
LLC LOAD      ACCESS:    9607104  HIT:    2876873  MISS:    6730231
LLC RFO       ACCESS:    1877156  HIT:     731366  MISS:    1145790
LLC PREFETCH  ACCESS:   13425620  HIT:    3406165  MISS:   10019455
LLC WRITEBACK ACCESS:    7482874  HIT:    7356113  MISS:     126761
LLC PREFETCH  REQUESTED:          0  ISSUED:          0  USEFUL:    2043780  USELESS:  162965949
Major fault: 0 Minor fault: 52120

CPU 3 cumulative IPC: 1.23807 instructions: 1000000000 cycles: 807709971
L1D TOTAL     ACCESS:  382506467  HIT:  361734630  MISS:   20771837
L1D LOAD      ACCESS:  327056639  HIT:  306915459  MISS:   20141180
L1D RFO       ACCESS:   55449828  HIT:   54819171  MISS:     630657
L1D PREFETCH  ACCESS:          0  HIT:          0  MISS:          0
L1D WRITEBACK ACCESS:          0  HIT:          0  MISS:          0
L1D PREFETCH  REQUESTED:          0  ISSUED:          0  USEFUL:          0  USELESS:          0
L1I TOTAL     ACCESS:  245528836  HIT:  245528836  MISS:          0
L1I LOAD      ACCESS:  245528836  HIT:  245528836  MISS:          0
L1I RFO       ACCESS:          0  HIT:          0  MISS:          0
L1I PREFETCH  ACCESS:          0  HIT:          0  MISS:          0
L1I WRITEBACK ACCESS:          0  HIT:          0  MISS:          0
L1I PREFETCH  REQUESTED:          0  ISSUED:          0  USEFUL:          0  USELESS:          0
L2C TOTAL     ACCESS:   47639444  HIT:   28619147  MISS:   19020297
L2C LOAD      ACCESS:   20135003  HIT:   19226513  MISS:     908490
L2C RFO       ACCESS:     617744  HIT:     130501  MISS:     487243
L2C PREFETCH  ACCESS:   26198474  HIT:    8574219  MISS:   17624255
L2C WRITEBACK ACCESS:     688223  HIT:     687914  MISS:        309
L2C PREFETCH  REQUESTED:  168306334  ISSUED:  165373510  USEFUL:  101833246  USELESS:      37137
LLC TOTAL     ACCESS:   20259933  HIT:    1255201  MISS:   19004732
LLC LOAD      ACCESS:     859840  HIT:       5328  MISS:     854512
LLC RFO       ACCESS:     487243  HIT:          0  MISS:     487243
LLC PREFETCH  ACCESS:   18424341  HIT:     761765  MISS:   17662576
LLC WRITEBACK ACCESS:     488509  HIT:     488108  MISS:        401
LLC PREFETCH  REQUESTED:          0  ISSUED:          0  USEFUL:    2043780  USELESS:  162965949
Major fault: 0 Minor fault: 563665

Avg Lookahead Depth:	5.60645
TOTAL: 3.12421e+08	L2C: 2.75492e+08	LLC: 3.69282e+07	GOOD_L2C: 1.82412e+08
Printing all the perceptron weights to: perc_weights_0.csv

Avg Lookahead Depth:	5.60645
TOTAL: 3.12421e+08	L2C: 2.75492e+08	LLC: 3.69282e+07	GOOD_L2C: 1.82412e+08
Printing all the perceptron weights to: perc_weights_0.csv

Avg Lookahead Depth:	5.60645
TOTAL: 3.12421e+08	L2C: 2.75492e+08	LLC: 3.69282e+07	GOOD_L2C: 1.82412e+08
Printing all the perceptron weights to: perc_weights_0.csv

Avg Lookahead Depth:	5.60645
TOTAL: 3.12421e+08	L2C: 2.75492e+08	LLC: 3.69282e+07	GOOD_L2C: 1.82412e+08
Printing all the perceptron weights to: perc_weights_0.csv

DRAM Statistics
 CHANNEL 0
 RQ ROW_BUFFER_HIT:   52210093  ROW_BUFFER_MISS:   34650711
 DBUS_CONGESTED:  124468570
 WQ ROW_BUFFER_HIT:    3336220  ROW_BUFFER_MISS:   23477130  FULL:          0

 CHANNEL 1
 RQ ROW_BUFFER_HIT:   52161996  ROW_BUFFER_MISS:   34758273
 DBUS_CONGESTED:  124468570
 WQ ROW_BUFFER_HIT:    3335385  ROW_BUFFER_MISS:   23471153  FULL:          0

 AVG_CONGESTED_CYCLE: 13
