Initialize SIGNATURE TABLE
ST_SET: 1
ST_WAY: 256
ST_TAG_BIT: 16
ST_TAG_MASK: ffff

Initialize PATTERN TABLE
PT_SET: 512
PT_WAY: 4
SIG_DELTA_BIT: 7
C_SIG_BIT: 4
C_DELTA_BIT: 4

Initialize PREFETCH FILTER
FILTER_SET: 1024

Initialize PERCEPTRON
PERC_ENTRIES: 4096
PERC_FEATURES: 9

*** ChampSim Multicore Out-of-Order Simulator ***

Warmup Instructions: 200000000
Simulation Instructions: 1000000000
Number of CPUs: 4
LLC sets: 8192
LLC ways: 16
Off-chip DRAM Size: 8192 MB Channels: 2 Width: 64-bit Data Rate: 1600 MT/s

CPU 0 runs /scratch/user/djimenez/champsim-traces/speccpu2017/xz/623.xalancbmk_s/623.xalancbmk_s-165B.champsimtrace.xz
CPU 1 runs /scratch/user/djimenez/champsim-traces/speccpu2017/xz/654.roms_s/654.roms_s-1007B.champsimtrace.xz
CPU 2 runs /scratch/user/djimenez/champsim-traces/speccpu2017/xz/623.xalancbmk_s/623.xalancbmk_s-202B.champsimtrace.xz
CPU 3 runs /scratch/user/djimenez/champsim-traces/speccpu2017/xz/649.fotonik3d_s/649.fotonik3d_s-8225B.champsimtrace.xz
Heartbeat CPU 2 instructions: 10000000 cycles: 4119632 heartbeat IPC: 2.4274 cumulative IPC: 2.4274 (Simulation time: 0 hr 1 min 43 sec) 
Heartbeat CPU 0 instructions: 10000001 cycles: 4153252 heartbeat IPC: 2.40775 cumulative IPC: 2.40775 (Simulation time: 0 hr 1 min 44 sec) 
Heartbeat CPU 3 instructions: 10000001 cycles: 4400188 heartbeat IPC: 2.27263 cumulative IPC: 2.27263 (Simulation time: 0 hr 1 min 50 sec) 
Heartbeat CPU 1 instructions: 10000002 cycles: 5109143 heartbeat IPC: 1.95728 cumulative IPC: 1.95728 (Simulation time: 0 hr 2 min 8 sec) 
Heartbeat CPU 2 instructions: 20000000 cycles: 8240582 heartbeat IPC: 2.42663 cumulative IPC: 2.42701 (Simulation time: 0 hr 3 min 26 sec) 
Heartbeat CPU 0 instructions: 20000000 cycles: 8304117 heartbeat IPC: 2.40914 cumulative IPC: 2.40844 (Simulation time: 0 hr 3 min 28 sec) 
Heartbeat CPU 3 instructions: 20000000 cycles: 8799668 heartbeat IPC: 2.273 cumulative IPC: 2.27281 (Simulation time: 0 hr 3 min 40 sec) 
Heartbeat CPU 1 instructions: 20000000 cycles: 10217947 heartbeat IPC: 1.9574 cumulative IPC: 1.95734 (Simulation time: 0 hr 4 min 16 sec) 
Heartbeat CPU 2 instructions: 30000002 cycles: 12353301 heartbeat IPC: 2.43148 cumulative IPC: 2.4285 (Simulation time: 0 hr 5 min 9 sec) 
Heartbeat CPU 0 instructions: 30000001 cycles: 12447851 heartbeat IPC: 2.41328 cumulative IPC: 2.41005 (Simulation time: 0 hr 5 min 12 sec) 
Heartbeat CPU 3 instructions: 30000003 cycles: 13198934 heartbeat IPC: 2.27311 cumulative IPC: 2.27291 (Simulation time: 0 hr 5 min 31 sec) 
Heartbeat CPU 1 instructions: 30000000 cycles: 15326898 heartbeat IPC: 1.95735 cumulative IPC: 1.95734 (Simulation time: 0 hr 6 min 24 sec) 
Heartbeat CPU 2 instructions: 40000000 cycles: 16461871 heartbeat IPC: 2.43394 cumulative IPC: 2.42986 (Simulation time: 0 hr 6 min 53 sec) 
Heartbeat CPU 0 instructions: 40000000 cycles: 16589473 heartbeat IPC: 2.41451 cumulative IPC: 2.41117 (Simulation time: 0 hr 6 min 56 sec) 
Heartbeat CPU 3 instructions: 40000000 cycles: 17598090 heartbeat IPC: 2.27316 cumulative IPC: 2.27297 (Simulation time: 0 hr 7 min 21 sec) 
Heartbeat CPU 1 instructions: 40000000 cycles: 20435913 heartbeat IPC: 1.95732 cumulative IPC: 1.95734 (Simulation time: 0 hr 8 min 32 sec) 
Heartbeat CPU 2 instructions: 50000000 cycles: 20581895 heartbeat IPC: 2.42717 cumulative IPC: 2.42932 (Simulation time: 0 hr 8 min 36 sec) 
Heartbeat CPU 0 instructions: 50000000 cycles: 20731514 heartbeat IPC: 2.41427 cumulative IPC: 2.41179 (Simulation time: 0 hr 8 min 40 sec) 
Heartbeat CPU 3 instructions: 50000002 cycles: 21997436 heartbeat IPC: 2.27307 cumulative IPC: 2.27299 (Simulation time: 0 hr 9 min 12 sec) 
Heartbeat CPU 2 instructions: 60000000 cycles: 24701115 heartbeat IPC: 2.42764 cumulative IPC: 2.42904 (Simulation time: 0 hr 10 min 21 sec) 
Heartbeat CPU 0 instructions: 60000000 cycles: 24872433 heartbeat IPC: 2.41492 cumulative IPC: 2.41231 (Simulation time: 0 hr 10 min 25 sec) 
Heartbeat CPU 1 instructions: 50000003 cycles: 25392508 heartbeat IPC: 2.01751 cumulative IPC: 1.96908 (Simulation time: 0 hr 10 min 39 sec) 
Heartbeat CPU 3 instructions: 60000000 cycles: 26397318 heartbeat IPC: 2.27279 cumulative IPC: 2.27296 (Simulation time: 0 hr 11 min 4 sec) 
Heartbeat CPU 2 instructions: 70000003 cycles: 28834613 heartbeat IPC: 2.41926 cumulative IPC: 2.42764 (Simulation time: 0 hr 12 min 6 sec) 
Heartbeat CPU 0 instructions: 70000000 cycles: 29020073 heartbeat IPC: 2.41101 cumulative IPC: 2.41212 (Simulation time: 0 hr 12 min 11 sec) 
Heartbeat CPU 1 instructions: 60000000 cycles: 30210283 heartbeat IPC: 2.07565 cumulative IPC: 1.98608 (Simulation time: 0 hr 12 min 41 sec) 
Heartbeat CPU 3 instructions: 70000001 cycles: 30797775 heartbeat IPC: 2.27249 cumulative IPC: 2.27289 (Simulation time: 0 hr 12 min 55 sec) 
Heartbeat CPU 2 instructions: 80000000 cycles: 32953124 heartbeat IPC: 2.42806 cumulative IPC: 2.42769 (Simulation time: 0 hr 13 min 49 sec) 
Heartbeat CPU 0 instructions: 80000000 cycles: 33159450 heartbeat IPC: 2.41582 cumulative IPC: 2.41259 (Simulation time: 0 hr 13 min 55 sec) 
Heartbeat CPU 3 instructions: 80000000 cycles: 35197201 heartbeat IPC: 2.27302 cumulative IPC: 2.27291 (Simulation time: 0 hr 14 min 46 sec) 
Heartbeat CPU 1 instructions: 70000003 cycles: 35318640 heartbeat IPC: 1.95758 cumulative IPC: 1.98196 (Simulation time: 0 hr 14 min 49 sec) 
Heartbeat CPU 2 instructions: 90000000 cycles: 37078131 heartbeat IPC: 2.42424 cumulative IPC: 2.42731 (Simulation time: 0 hr 15 min 33 sec) 
Heartbeat CPU 0 instructions: 90000000 cycles: 37307276 heartbeat IPC: 2.4109 cumulative IPC: 2.4124 (Simulation time: 0 hr 15 min 39 sec) 
Heartbeat CPU 3 instructions: 90000002 cycles: 39596331 heartbeat IPC: 2.27318 cumulative IPC: 2.27294 (Simulation time: 0 hr 16 min 36 sec) 
Heartbeat CPU 1 instructions: 80000000 cycles: 40427578 heartbeat IPC: 1.95735 cumulative IPC: 1.97885 (Simulation time: 0 hr 16 min 57 sec) 
Heartbeat CPU 2 instructions: 100000000 cycles: 41191505 heartbeat IPC: 2.43109 cumulative IPC: 2.42769 (Simulation time: 0 hr 17 min 16 sec) 
Heartbeat CPU 0 instructions: 100000000 cycles: 41446902 heartbeat IPC: 2.41568 cumulative IPC: 2.41273 (Simulation time: 0 hr 17 min 23 sec) 
Heartbeat CPU 3 instructions: 100000000 cycles: 43995349 heartbeat IPC: 2.27323 cumulative IPC: 2.27297 (Simulation time: 0 hr 18 min 27 sec) 
Heartbeat CPU 2 instructions: 110000002 cycles: 45300729 heartbeat IPC: 2.43355 cumulative IPC: 2.42822 (Simulation time: 0 hr 19 min 0 sec) 
Heartbeat CPU 1 instructions: 90000003 cycles: 45536518 heartbeat IPC: 1.95735 cumulative IPC: 1.97644 (Simulation time: 0 hr 19 min 6 sec) 
Heartbeat CPU 0 instructions: 110000003 cycles: 45589062 heartbeat IPC: 2.4142 cumulative IPC: 2.41286 (Simulation time: 0 hr 19 min 7 sec) 
Heartbeat CPU 3 instructions: 110000000 cycles: 48394722 heartbeat IPC: 2.27305 cumulative IPC: 2.27298 (Simulation time: 0 hr 20 min 17 sec) 
Heartbeat CPU 2 instructions: 120000000 cycles: 49422006 heartbeat IPC: 2.42643 cumulative IPC: 2.42807 (Simulation time: 0 hr 20 min 43 sec) 
Heartbeat CPU 0 instructions: 120000000 cycles: 49741362 heartbeat IPC: 2.4083 cumulative IPC: 2.41248 (Simulation time: 0 hr 20 min 51 sec) 
Heartbeat CPU 1 instructions: 100000000 cycles: 50645342 heartbeat IPC: 1.9574 cumulative IPC: 1.97452 (Simulation time: 0 hr 21 min 14 sec) 
Heartbeat CPU 3 instructions: 120000000 cycles: 52794993 heartbeat IPC: 2.27259 cumulative IPC: 2.27294 (Simulation time: 0 hr 22 min 8 sec) 
Heartbeat CPU 2 instructions: 130000001 cycles: 53542865 heartbeat IPC: 2.42668 cumulative IPC: 2.42796 (Simulation time: 0 hr 22 min 26 sec) 
Heartbeat CPU 0 instructions: 130000001 cycles: 53888184 heartbeat IPC: 2.41149 cumulative IPC: 2.4124 (Simulation time: 0 hr 22 min 35 sec) 
Heartbeat CPU 1 instructions: 110000002 cycles: 55754298 heartbeat IPC: 1.95735 cumulative IPC: 1.97294 (Simulation time: 0 hr 23 min 22 sec) 
Heartbeat CPU 3 instructions: 130000002 cycles: 57194914 heartbeat IPC: 2.27277 cumulative IPC: 2.27293 (Simulation time: 0 hr 23 min 58 sec) 
Heartbeat CPU 2 instructions: 140000000 cycles: 57653880 heartbeat IPC: 2.43249 cumulative IPC: 2.42828 (Simulation time: 0 hr 24 min 10 sec) 
Heartbeat CPU 0 instructions: 140000000 cycles: 58032358 heartbeat IPC: 2.41303 cumulative IPC: 2.41245 (Simulation time: 0 hr 24 min 19 sec) 
Heartbeat CPU 1 instructions: 120000000 cycles: 60797767 heartbeat IPC: 1.98276 cumulative IPC: 1.97376 (Simulation time: 0 hr 25 min 29 sec) 
Heartbeat CPU 3 instructions: 140000000 cycles: 61594463 heartbeat IPC: 2.27296 cumulative IPC: 2.27293 (Simulation time: 0 hr 25 min 49 sec) 
Heartbeat CPU 2 instructions: 150000000 cycles: 61777687 heartbeat IPC: 2.42494 cumulative IPC: 2.42806 (Simulation time: 0 hr 25 min 54 sec) 
Heartbeat CPU 0 instructions: 150000002 cycles: 62176233 heartbeat IPC: 2.4132 cumulative IPC: 2.4125 (Simulation time: 0 hr 26 min 4 sec) 
Heartbeat CPU 1 instructions: 130000003 cycles: 65514422 heartbeat IPC: 2.12015 cumulative IPC: 1.9843 (Simulation time: 0 hr 27 min 29 sec) 
Heartbeat CPU 2 instructions: 160000000 cycles: 65902298 heartbeat IPC: 2.42447 cumulative IPC: 2.42784 (Simulation time: 0 hr 27 min 39 sec) 
Heartbeat CPU 3 instructions: 150000000 cycles: 65993610 heartbeat IPC: 2.27317 cumulative IPC: 2.27295 (Simulation time: 0 hr 27 min 41 sec) 
Heartbeat CPU 0 instructions: 160000000 cycles: 66323902 heartbeat IPC: 2.41099 cumulative IPC: 2.4124 (Simulation time: 0 hr 27 min 50 sec) 
Heartbeat CPU 2 instructions: 170000001 cycles: 70033524 heartbeat IPC: 2.42059 cumulative IPC: 2.42741 (Simulation time: 0 hr 29 min 22 sec) 
Heartbeat CPU 3 instructions: 160000000 cycles: 70392468 heartbeat IPC: 2.27332 cumulative IPC: 2.27297 (Simulation time: 0 hr 29 min 32 sec) 
Heartbeat CPU 0 instructions: 170000003 cycles: 70474314 heartbeat IPC: 2.4094 cumulative IPC: 2.41223 (Simulation time: 0 hr 29 min 34 sec) 
Heartbeat CPU 1 instructions: 140000000 cycles: 70623062 heartbeat IPC: 1.95747 cumulative IPC: 1.98236 (Simulation time: 0 hr 29 min 37 sec) 
Heartbeat CPU 2 instructions: 180000000 cycles: 74158197 heartbeat IPC: 2.42443 cumulative IPC: 2.42724 (Simulation time: 0 hr 31 min 6 sec) 
Heartbeat CPU 0 instructions: 180000000 cycles: 74623635 heartbeat IPC: 2.41003 cumulative IPC: 2.4121 (Simulation time: 0 hr 31 min 18 sec) 
Heartbeat CPU 3 instructions: 170000002 cycles: 74791921 heartbeat IPC: 2.27301 cumulative IPC: 2.27297 (Simulation time: 0 hr 31 min 22 sec) 
Heartbeat CPU 1 instructions: 150000000 cycles: 75731977 heartbeat IPC: 1.95736 cumulative IPC: 1.98067 (Simulation time: 0 hr 31 min 45 sec) 
Heartbeat CPU 2 instructions: 190000001 cycles: 78271867 heartbeat IPC: 2.43092 cumulative IPC: 2.42744 (Simulation time: 0 hr 32 min 49 sec) 
Heartbeat CPU 0 instructions: 190000001 cycles: 78768199 heartbeat IPC: 2.4128 cumulative IPC: 2.41214 (Simulation time: 0 hr 33 min 2 sec) 
Heartbeat CPU 3 instructions: 180000000 cycles: 79192217 heartbeat IPC: 2.27257 cumulative IPC: 2.27295 (Simulation time: 0 hr 33 min 12 sec) 
Heartbeat CPU 1 instructions: 160000000 cycles: 80840950 heartbeat IPC: 1.95734 cumulative IPC: 1.97919 (Simulation time: 0 hr 33 min 54 sec) 
Heartbeat CPU 2 instructions: 200000000 cycles: 82392066 heartbeat IPC: 2.42707 cumulative IPC: 2.42742 (Simulation time: 0 hr 34 min 33 sec) 
Heartbeat CPU 0 instructions: 200000000 cycles: 82917433 heartbeat IPC: 2.41008 cumulative IPC: 2.41204 (Simulation time: 0 hr 34 min 46 sec) 
Heartbeat CPU 3 instructions: 190000000 cycles: 83592149 heartbeat IPC: 2.27276 cumulative IPC: 2.27294 (Simulation time: 0 hr 35 min 3 sec) 
Heartbeat CPU 1 instructions: 170000000 cycles: 85949785 heartbeat IPC: 1.95739 cumulative IPC: 1.9779 (Simulation time: 0 hr 36 min 2 sec) 
Heartbeat CPU 2 instructions: 210000002 cycles: 86519989 heartbeat IPC: 2.42253 cumulative IPC: 0.11558 (Simulation time: 0 hr 36 min 16 sec) 
Heartbeat CPU 0 instructions: 210000002 cycles: 87070934 heartbeat IPC: 2.40761 cumulative IPC: 0.114849 (Simulation time: 0 hr 36 min 30 sec) 
Heartbeat CPU 3 instructions: 200000000 cycles: 87991626 heartbeat IPC: 2.273 cumulative IPC: 2.27294 (Simulation time: 0 hr 36 min 53 sec) 
Heartbeat CPU 2 instructions: 220000000 cycles: 90654525 heartbeat IPC: 2.41865 cumulative IPC: 0.220618 (Simulation time: 0 hr 37 min 58 sec) 
Heartbeat CPU 1 instructions: 180000000 cycles: 91058707 heartbeat IPC: 1.95736 cumulative IPC: 1.97675 (Simulation time: 0 hr 38 min 8 sec) 
Heartbeat CPU 0 instructions: 220000000 cycles: 91268891 heartbeat IPC: 2.38211 cumulative IPC: 0.219133 (Simulation time: 0 hr 38 min 14 sec) 
Heartbeat CPU 3 instructions: 210000002 cycles: 92390888 heartbeat IPC: 2.27311 cumulative IPC: 0.108236 (Simulation time: 0 hr 38 min 41 sec) 
Heartbeat CPU 2 instructions: 230000001 cycles: 94766951 heartbeat IPC: 2.43165 cumulative IPC: 0.316566 (Simulation time: 0 hr 39 min 40 sec) 
Heartbeat CPU 0 instructions: 230000000 cycles: 95481230 heartbeat IPC: 2.37398 cumulative IPC: 0.314198 (Simulation time: 0 hr 39 min 58 sec) 
Heartbeat CPU 1 instructions: 190000000 cycles: 96167697 heartbeat IPC: 1.95733 cumulative IPC: 1.97572 (Simulation time: 0 hr 40 min 15 sec) 
Heartbeat CPU 3 instructions: 220000000 cycles: 96789969 heartbeat IPC: 2.2732 cumulative IPC: 0.206633 (Simulation time: 0 hr 40 min 31 sec) 
Heartbeat CPU 2 instructions: 240000000 cycles: 98888373 heartbeat IPC: 2.42635 cumulative IPC: 0.404496 (Simulation time: 0 hr 41 min 24 sec) 
Heartbeat CPU 0 instructions: 240000000 cycles: 99681821 heartbeat IPC: 2.38062 cumulative IPC: 0.401277 (Simulation time: 0 hr 41 min 44 sec) 
Heartbeat CPU 1 instructions: 200000000 cycles: 101035755 heartbeat IPC: 2.05421 cumulative IPC: 1.9795 (Simulation time: 0 hr 42 min 19 sec) 

Warmup complete CPU 0 instructions: 243223660 cycles: 101035756 (Simulation time: 0 hr 42 min 19 sec) 
Warmup complete CPU 1 instructions: 200000001 cycles: 101035756 (Simulation time: 0 hr 42 min 19 sec) 
Warmup complete CPU 2 instructions: 245217325 cycles: 101035755 (Simulation time: 0 hr 42 min 19 sec) 
Warmup complete CPU 3 instructions: 229650723 cycles: 101035755 (Simulation time: 0 hr 42 min 19 sec) 

Heartbeat CPU 3 instructions: 230000001 cycles: 101346621 heartbeat IPC: 2.19459 cumulative IPC: 1.12356 (Simulation time: 0 hr 42 min 22 sec) 
Heartbeat CPU 2 instructions: 250000000 cycles: 107592986 heartbeat IPC: 1.14882 cumulative IPC: 0.729374 (Simulation time: 0 hr 43 min 40 sec) 
Heartbeat CPU 0 instructions: 250000001 cycles: 109065392 heartbeat IPC: 1.06569 cumulative IPC: 0.843916 (Simulation time: 0 hr 43 min 59 sec) 
Heartbeat CPU 3 instructions: 240000000 cycles: 109922961 heartbeat IPC: 1.166 cumulative IPC: 1.16451 (Simulation time: 0 hr 44 min 10 sec) 
Heartbeat CPU 1 instructions: 210000000 cycles: 117497246 heartbeat IPC: 0.607478 cumulative IPC: 0.607478 (Simulation time: 0 hr 45 min 47 sec) 
Heartbeat CPU 3 instructions: 250000000 cycles: 118426576 heartbeat IPC: 1.17597 cumulative IPC: 1.17012 (Simulation time: 0 hr 45 min 59 sec) 
Heartbeat CPU 2 instructions: 260000000 cycles: 119663872 heartbeat IPC: 0.82844 cumulative IPC: 0.793568 (Simulation time: 0 hr 46 min 15 sec) 
Heartbeat CPU 0 instructions: 260000000 cycles: 120885668 heartbeat IPC: 0.846004 cumulative IPC: 0.845159 (Simulation time: 0 hr 46 min 31 sec) 
Heartbeat CPU 3 instructions: 260000000 cycles: 126954758 heartbeat IPC: 1.17258 cumulative IPC: 1.17093 (Simulation time: 0 hr 47 min 49 sec) 
Heartbeat CPU 2 instructions: 270000002 cycles: 132228510 heartbeat IPC: 0.795885 cumulative IPC: 0.794501 (Simulation time: 0 hr 48 min 56 sec) 
Heartbeat CPU 0 instructions: 270000002 cycles: 132706453 heartbeat IPC: 0.845968 cumulative IPC: 0.845461 (Simulation time: 0 hr 49 min 2 sec) 
Heartbeat CPU 1 instructions: 220000000 cycles: 134536385 heartbeat IPC: 0.586884 cumulative IPC: 0.597004 (Simulation time: 0 hr 49 min 26 sec) 
Heartbeat CPU 3 instructions: 270000001 cycles: 135441531 heartbeat IPC: 1.1783 cumulative IPC: 1.17275 (Simulation time: 0 hr 49 min 37 sec) 
Heartbeat CPU 3 instructions: 280000000 cycles: 143905147 heartbeat IPC: 1.18153 cumulative IPC: 1.17448 (Simulation time: 0 hr 51 min 27 sec) 
Heartbeat CPU 2 instructions: 280000000 cycles: 144329767 heartbeat IPC: 0.82636 cumulative IPC: 0.803406 (Simulation time: 0 hr 51 min 32 sec) 
Heartbeat CPU 0 instructions: 280000000 cycles: 144539400 heartbeat IPC: 0.845098 cumulative IPC: 0.845362 (Simulation time: 0 hr 51 min 35 sec) 
Heartbeat CPU 1 instructions: 230000003 cycles: 151588219 heartbeat IPC: 0.586447 cumulative IPC: 0.593443 (Simulation time: 0 hr 53 min 6 sec) 
Heartbeat CPU 3 instructions: 290000001 cycles: 152344392 heartbeat IPC: 1.18494 cumulative IPC: 1.1762 (Simulation time: 0 hr 53 min 15 sec) 
Heartbeat CPU 0 instructions: 290000000 cycles: 156378728 heartbeat IPC: 0.844643 cumulative IPC: 0.845208 (Simulation time: 0 hr 54 min 7 sec) 
Heartbeat CPU 2 instructions: 290000000 cycles: 156384068 heartbeat IPC: 0.829579 cumulative IPC: 0.809106 (Simulation time: 0 hr 54 min 8 sec) 
Heartbeat CPU 3 instructions: 300000000 cycles: 160835809 heartbeat IPC: 1.17766 cumulative IPC: 1.17641 (Simulation time: 0 hr 55 min 5 sec) 
Heartbeat CPU 0 instructions: 300000000 cycles: 168251919 heartbeat IPC: 0.842234 cumulative IPC: 0.844683 (Simulation time: 0 hr 56 min 40 sec) 
Heartbeat CPU 2 instructions: 300000000 cycles: 168546498 heartbeat IPC: 0.822204 cumulative IPC: 0.811466 (Simulation time: 0 hr 56 min 44 sec) 
Heartbeat CPU 1 instructions: 240000000 cycles: 168634476 heartbeat IPC: 0.586639 cumulative IPC: 0.591727 (Simulation time: 0 hr 56 min 45 sec) 
Heartbeat CPU 3 instructions: 310000000 cycles: 169347945 heartbeat IPC: 1.17479 cumulative IPC: 1.17621 (Simulation time: 0 hr 56 min 55 sec) 
Heartbeat CPU 3 instructions: 320000000 cycles: 177766257 heartbeat IPC: 1.18789 cumulative IPC: 1.17749 (Simulation time: 0 hr 58 min 43 sec) 
Heartbeat CPU 0 instructions: 310000003 cycles: 180095255 heartbeat IPC: 0.844357 cumulative IPC: 0.844634 (Simulation time: 0 hr 59 min 13 sec) 
Heartbeat CPU 2 instructions: 310000003 cycles: 180553861 heartbeat IPC: 0.832823 cumulative IPC: 0.814691 (Simulation time: 0 hr 59 min 19 sec) 
Heartbeat CPU 1 instructions: 250000001 cycles: 185680269 heartbeat IPC: 0.586655 cumulative IPC: 0.590706 (Simulation time: 1 hr 0 min 25 sec) 
Heartbeat CPU 3 instructions: 330000002 cycles: 186282706 heartbeat IPC: 1.1742 cumulative IPC: 1.17716 (Simulation time: 1 hr 0 min 32 sec) 
Heartbeat CPU 0 instructions: 320000000 cycles: 191937714 heartbeat IPC: 0.844419 cumulative IPC: 0.844606 (Simulation time: 1 hr 1 min 46 sec) 
Heartbeat CPU 2 instructions: 320000000 cycles: 192640930 heartbeat IPC: 0.82733 cumulative IPC: 0.816359 (Simulation time: 1 hr 1 min 55 sec) 
Heartbeat CPU 3 instructions: 340000000 cycles: 194696664 heartbeat IPC: 1.1885 cumulative IPC: 1.17818 (Simulation time: 1 hr 2 min 22 sec) 
Heartbeat CPU 1 instructions: 260000000 cycles: 202719748 heartbeat IPC: 0.586872 cumulative IPC: 0.590063 (Simulation time: 1 hr 4 min 5 sec) 
Heartbeat CPU 3 instructions: 350000001 cycles: 203217622 heartbeat IPC: 1.17358 cumulative IPC: 1.17779 (Simulation time: 1 hr 4 min 11 sec) 
Heartbeat CPU 0 instructions: 330000000 cycles: 203771190 heartbeat IPC: 0.84506 cumulative IPC: 0.844658 (Simulation time: 1 hr 4 min 18 sec) 
Heartbeat CPU 2 instructions: 330000002 cycles: 205035005 heartbeat IPC: 0.806837 cumulative IPC: 0.815224 (Simulation time: 1 hr 4 min 34 sec) 
Heartbeat CPU 3 instructions: 360000000 cycles: 211782533 heartbeat IPC: 1.16755 cumulative IPC: 1.177 (Simulation time: 1 hr 6 min 1 sec) 
Heartbeat CPU 0 instructions: 340000000 cycles: 215583645 heartbeat IPC: 0.846564 cumulative IPC: 0.844855 (Simulation time: 1 hr 6 min 50 sec) 
Heartbeat CPU 1 instructions: 270000002 cycles: 216653006 heartbeat IPC: 0.717707 cumulative IPC: 0.605446 (Simulation time: 1 hr 7 min 5 sec) 
Heartbeat CPU 2 instructions: 340000000 cycles: 217849567 heartbeat IPC: 0.780362 cumulative IPC: 0.8114 (Simulation time: 1 hr 7 min 21 sec) 
Heartbeat CPU 3 instructions: 370000001 cycles: 221098335 heartbeat IPC: 1.07344 cumulative IPC: 1.16897 (Simulation time: 1 hr 8 min 1 sec) 
Heartbeat CPU 0 instructions: 350000000 cycles: 227433156 heartbeat IPC: 0.843917 cumulative IPC: 0.844767 (Simulation time: 1 hr 9 min 19 sec) 
Heartbeat CPU 3 instructions: 380000000 cycles: 229674769 heartbeat IPC: 1.16599 cumulative IPC: 1.16877 (Simulation time: 1 hr 9 min 48 sec) 
Heartbeat CPU 1 instructions: 280000000 cycles: 231055501 heartbeat IPC: 0.694324 cumulative IPC: 0.615291 (Simulation time: 1 hr 10 min 6 sec) 
Heartbeat CPU 2 instructions: 350000001 cycles: 231772345 heartbeat IPC: 0.718248 cumulative IPC: 0.801479 (Simulation time: 1 hr 10 min 15 sec) 
Heartbeat CPU 3 instructions: 390000003 cycles: 238149074 heartbeat IPC: 1.18004 cumulative IPC: 1.16947 (Simulation time: 1 hr 11 min 38 sec) 
Heartbeat CPU 0 instructions: 360000000 cycles: 239176699 heartbeat IPC: 0.851532 cumulative IPC: 0.845342 (Simulation time: 1 hr 11 min 51 sec) 
Heartbeat CPU 2 instructions: 360000000 cycles: 243837394 heartbeat IPC: 0.82884 cumulative IPC: 0.803791 (Simulation time: 1 hr 12 min 50 sec) 
Heartbeat CPU 3 instructions: 400000000 cycles: 246626667 heartbeat IPC: 1.17958 cumulative IPC: 1.17005 (Simulation time: 1 hr 13 min 26 sec) 
Heartbeat CPU 1 instructions: 290000000 cycles: 248106378 heartbeat IPC: 0.58648 cumulative IPC: 0.611951 (Simulation time: 1 hr 13 min 45 sec) 
Heartbeat CPU 0 instructions: 370000001 cycles: 250903252 heartbeat IPC: 0.852766 cumulative IPC: 0.845923 (Simulation time: 1 hr 14 min 21 sec) 
Heartbeat CPU 3 instructions: 410000000 cycles: 255123799 heartbeat IPC: 1.17687 cumulative IPC: 1.17043 (Simulation time: 1 hr 15 min 15 sec) 
Heartbeat CPU 2 instructions: 370000001 cycles: 256012031 heartbeat IPC: 0.82138 cumulative IPC: 0.805173 (Simulation time: 1 hr 15 min 26 sec) 
Heartbeat CPU 0 instructions: 380000000 cycles: 262605694 heartbeat IPC: 0.854522 cumulative IPC: 0.846546 (Simulation time: 1 hr 16 min 51 sec) 
Heartbeat CPU 3 instructions: 420000000 cycles: 263580996 heartbeat IPC: 1.18242 cumulative IPC: 1.17105 (Simulation time: 1 hr 17 min 4 sec) 
Heartbeat CPU 1 instructions: 300000000 cycles: 265142382 heartbeat IPC: 0.586992 cumulative IPC: 0.60936 (Simulation time: 1 hr 17 min 23 sec) 
Heartbeat CPU 2 instructions: 380000000 cycles: 268390485 heartbeat IPC: 0.807855 cumulative IPC: 0.805371 (Simulation time: 1 hr 18 min 5 sec) 
Heartbeat CPU 3 instructions: 430000003 cycles: 272039090 heartbeat IPC: 1.1823 cumulative IPC: 1.17161 (Simulation time: 1 hr 18 min 52 sec) 
Heartbeat CPU 0 instructions: 390000001 cycles: 274301578 heartbeat IPC: 0.855002 cumulative IPC: 0.847117 (Simulation time: 1 hr 19 min 21 sec) 
Heartbeat CPU 3 instructions: 440000000 cycles: 280538860 heartbeat IPC: 1.1765 cumulative IPC: 1.17184 (Simulation time: 1 hr 20 min 41 sec) 
Heartbeat CPU 2 instructions: 390000003 cycles: 280748761 heartbeat IPC: 0.809175 cumulative IPC: 0.805633 (Simulation time: 1 hr 20 min 43 sec) 
Heartbeat CPU 1 instructions: 310000000 cycles: 282196876 heartbeat IPC: 0.586356 cumulative IPC: 0.607194 (Simulation time: 1 hr 21 min 2 sec) 
Heartbeat CPU 0 instructions: 400000000 cycles: 285975663 heartbeat IPC: 0.856598 cumulative IPC: 0.847715 (Simulation time: 1 hr 21 min 50 sec) 
Heartbeat CPU 3 instructions: 450000000 cycles: 288963352 heartbeat IPC: 1.18702 cumulative IPC: 1.17252 (Simulation time: 1 hr 22 min 29 sec) 
Heartbeat CPU 2 instructions: 400000000 cycles: 293304077 heartbeat IPC: 0.796475 cumulative IPC: 0.805035 (Simulation time: 1 hr 23 min 23 sec) 
Heartbeat CPU 3 instructions: 460000000 cycles: 297492980 heartbeat IPC: 1.17238 cumulative IPC: 1.17252 (Simulation time: 1 hr 24 min 17 sec) 
Heartbeat CPU 0 instructions: 410000002 cycles: 297630965 heartbeat IPC: 0.857979 cumulative IPC: 0.848324 (Simulation time: 1 hr 24 min 19 sec) 
Heartbeat CPU 1 instructions: 320000000 cycles: 299230216 heartbeat IPC: 0.587084 cumulative IPC: 0.605466 (Simulation time: 1 hr 24 min 39 sec) 
Heartbeat CPU 2 instructions: 410000000 cycles: 305815686 heartbeat IPC: 0.799258 cumulative IPC: 0.804682 (Simulation time: 1 hr 26 min 3 sec) 
Heartbeat CPU 3 instructions: 470000000 cycles: 305985299 heartbeat IPC: 1.17753 cumulative IPC: 1.17272 (Simulation time: 1 hr 26 min 5 sec) 
Heartbeat CPU 0 instructions: 420000000 cycles: 309294643 heartbeat IPC: 0.857362 cumulative IPC: 0.84883 (Simulation time: 1 hr 26 min 48 sec) 
Heartbeat CPU 3 instructions: 480000000 cycles: 314470879 heartbeat IPC: 1.17847 cumulative IPC: 1.17295 (Simulation time: 1 hr 27 min 54 sec) 
Heartbeat CPU 1 instructions: 330000001 cycles: 316281586 heartbeat IPC: 0.586463 cumulative IPC: 0.603961 (Simulation time: 1 hr 28 min 16 sec) 
Heartbeat CPU 2 instructions: 420000000 cycles: 318340322 heartbeat IPC: 0.798426 cumulative IPC: 0.804321 (Simulation time: 1 hr 28 min 42 sec) 
Heartbeat CPU 0 instructions: 430000000 cycles: 320936699 heartbeat IPC: 0.858955 cumulative IPC: 0.849366 (Simulation time: 1 hr 29 min 15 sec) 
Heartbeat CPU 3 instructions: 490000001 cycles: 322808230 heartbeat IPC: 1.19942 cumulative IPC: 1.17395 (Simulation time: 1 hr 29 min 39 sec) 
Heartbeat CPU 2 instructions: 430000001 cycles: 330941728 heartbeat IPC: 0.793562 cumulative IPC: 0.803732 (Simulation time: 1 hr 31 min 22 sec) 
Heartbeat CPU 3 instructions: 500000000 cycles: 331354995 heartbeat IPC: 1.17003 cumulative IPC: 1.1738 (Simulation time: 1 hr 31 min 27 sec) 
Heartbeat CPU 0 instructions: 440000000 cycles: 332574320 heartbeat IPC: 0.859282 cumulative IPC: 0.849864 (Simulation time: 1 hr 31 min 43 sec) 
Heartbeat CPU 1 instructions: 340000000 cycles: 332648035 heartbeat IPC: 0.611006 cumulative IPC: 0.604458 (Simulation time: 1 hr 31 min 44 sec) 
Heartbeat CPU 3 instructions: 510000000 cycles: 340682877 heartbeat IPC: 1.07205 cumulative IPC: 1.16984 (Simulation time: 1 hr 33 min 31 sec) 
Heartbeat CPU 2 instructions: 440000000 cycles: 343760278 heartbeat IPC: 0.780119 cumulative IPC: 0.802485 (Simulation time: 1 hr 34 min 10 sec) 
Heartbeat CPU 0 instructions: 450000000 cycles: 344233935 heartbeat IPC: 0.857661 cumulative IPC: 0.850238 (Simulation time: 1 hr 34 min 16 sec) 
Heartbeat CPU 1 instructions: 350000003 cycles: 344318534 heartbeat IPC: 0.856862 cumulative IPC: 0.616566 (Simulation time: 1 hr 34 min 17 sec) 
Heartbeat CPU 3 instructions: 520000000 cycles: 349195053 heartbeat IPC: 1.17479 cumulative IPC: 1.17001 (Simulation time: 1 hr 35 min 17 sec) 
Heartbeat CPU 0 instructions: 460000000 cycles: 355842487 heartbeat IPC: 0.861434 cumulative IPC: 0.850748 (Simulation time: 1 hr 36 min 38 sec) 
Heartbeat CPU 2 instructions: 450000003 cycles: 356422229 heartbeat IPC: 0.789768 cumulative IPC: 0.801854 (Simulation time: 1 hr 36 min 46 sec) 
Heartbeat CPU 3 instructions: 530000002 cycles: 357630530 heartbeat IPC: 1.18547 cumulative IPC: 1.17052 (Simulation time: 1 hr 37 min 0 sec) 
Heartbeat CPU 1 instructions: 360000000 cycles: 365140589 heartbeat IPC: 0.48026 cumulative IPC: 0.60582 (Simulation time: 1 hr 38 min 33 sec) 
Heartbeat CPU 3 instructions: 540000000 cycles: 366118996 heartbeat IPC: 1.17807 cumulative IPC: 1.17076 (Simulation time: 1 hr 38 min 45 sec) 
Heartbeat CPU 0 instructions: 470000002 cycles: 367439497 heartbeat IPC: 0.862291 cumulative IPC: 0.851251 (Simulation time: 1 hr 39 min 1 sec) 
Heartbeat CPU 2 instructions: 460000000 cycles: 369082567 heartbeat IPC: 0.789868 cumulative IPC: 0.801288 (Simulation time: 1 hr 39 min 22 sec) 
Heartbeat CPU 3 instructions: 550000003 cycles: 374599975 heartbeat IPC: 1.17911 cumulative IPC: 1.17102 (Simulation time: 1 hr 40 min 30 sec) 
Heartbeat CPU 0 instructions: 480000000 cycles: 379043725 heartbeat IPC: 0.861755 cumulative IPC: 0.851689 (Simulation time: 1 hr 41 min 24 sec) 
Heartbeat CPU 2 instructions: 470000000 cycles: 381714816 heartbeat IPC: 0.791625 cumulative IPC: 0.800853 (Simulation time: 1 hr 41 min 57 sec) 
Heartbeat CPU 3 instructions: 560000000 cycles: 383055770 heartbeat IPC: 1.18262 cumulative IPC: 1.17137 (Simulation time: 1 hr 42 min 14 sec) 
Heartbeat CPU 1 instructions: 370000002 cycles: 385981826 heartbeat IPC: 0.479818 cumulative IPC: 0.596604 (Simulation time: 1 hr 42 min 50 sec) 
Heartbeat CPU 0 instructions: 490000000 cycles: 390628253 heartbeat IPC: 0.86322 cumulative IPC: 0.85215 (Simulation time: 1 hr 43 min 48 sec) 
Heartbeat CPU 3 instructions: 570000003 cycles: 391508158 heartbeat IPC: 1.1831 cumulative IPC: 1.17171 (Simulation time: 1 hr 43 min 58 sec) 
Heartbeat CPU 2 instructions: 480000000 cycles: 394305214 heartbeat IPC: 0.794256 cumulative IPC: 0.80057 (Simulation time: 1 hr 44 min 33 sec) 
Heartbeat CPU 3 instructions: 580000000 cycles: 399969874 heartbeat IPC: 1.18179 cumulative IPC: 1.17199 (Simulation time: 1 hr 45 min 43 sec) 
Heartbeat CPU 0 instructions: 500000000 cycles: 402206763 heartbeat IPC: 0.863669 cumulative IPC: 0.852593 (Simulation time: 1 hr 46 min 10 sec) 
Heartbeat CPU 1 instructions: 380000000 cycles: 406827929 heartbeat IPC: 0.479706 cumulative IPC: 0.588635 (Simulation time: 1 hr 47 min 7 sec) 
Heartbeat CPU 2 instructions: 490000000 cycles: 406874144 heartbeat IPC: 0.795613 cumulative IPC: 0.800366 (Simulation time: 1 hr 47 min 8 sec) 
Heartbeat CPU 3 instructions: 590000001 cycles: 408446005 heartbeat IPC: 1.17978 cumulative IPC: 1.17221 (Simulation time: 1 hr 47 min 27 sec) 
Heartbeat CPU 0 instructions: 510000000 cycles: 413785566 heartbeat IPC: 0.863647 cumulative IPC: 0.853002 (Simulation time: 1 hr 48 min 33 sec) 
Heartbeat CPU 3 instructions: 600000000 cycles: 416906273 heartbeat IPC: 1.182 cumulative IPC: 1.17247 (Simulation time: 1 hr 49 min 12 sec) 
Heartbeat CPU 2 instructions: 500000000 cycles: 419411736 heartbeat IPC: 0.797601 cumulative IPC: 0.800257 (Simulation time: 1 hr 49 min 43 sec) 
Heartbeat CPU 1 instructions: 390000002 cycles: 425075447 heartbeat IPC: 0.54802 cumulative IPC: 0.586348 (Simulation time: 1 hr 50 min 56 sec) 
Heartbeat CPU 0 instructions: 520000000 cycles: 425378039 heartbeat IPC: 0.862629 cumulative IPC: 0.853346 (Simulation time: 1 hr 51 min 0 sec) 
Heartbeat CPU 3 instructions: 610000003 cycles: 425886344 heartbeat IPC: 1.11358 cumulative IPC: 1.17084 (Simulation time: 1 hr 51 min 7 sec) 
Heartbeat CPU 2 instructions: 510000000 cycles: 431965735 heartbeat IPC: 0.796559 cumulative IPC: 0.800117 (Simulation time: 1 hr 52 min 29 sec) 
Heartbeat CPU 3 instructions: 620000000 cycles: 434784020 heartbeat IPC: 1.12389 cumulative IPC: 1.16959 (Simulation time: 1 hr 53 min 7 sec) 
Heartbeat CPU 1 instructions: 400000000 cycles: 436707720 heartbeat IPC: 0.859677 cumulative IPC: 0.59582 (Simulation time: 1 hr 53 min 32 sec) 
Heartbeat CPU 0 instructions: 530000000 cycles: 436977356 heartbeat IPC: 0.86212 cumulative IPC: 0.853649 (Simulation time: 1 hr 53 min 36 sec) 
Heartbeat CPU 3 instructions: 630000001 cycles: 443179238 heartbeat IPC: 1.19115 cumulative IPC: 1.17012 (Simulation time: 1 hr 54 min 56 sec) 
Heartbeat CPU 2 instructions: 520000000 cycles: 444455747 heartbeat IPC: 0.80064 cumulative IPC: 0.800136 (Simulation time: 1 hr 55 min 12 sec) 
Heartbeat CPU 0 instructions: 540000000 cycles: 448550249 heartbeat IPC: 0.864088 cumulative IPC: 0.853997 (Simulation time: 1 hr 56 min 7 sec) 
Heartbeat CPU 1 instructions: 410000000 cycles: 450816122 heartbeat IPC: 0.708798 cumulative IPC: 0.600377 (Simulation time: 1 hr 56 min 36 sec) 
Heartbeat CPU 3 instructions: 640000000 cycles: 451769895 heartbeat IPC: 1.16406 cumulative IPC: 1.16997 (Simulation time: 1 hr 56 min 49 sec) 
Heartbeat CPU 2 instructions: 530000002 cycles: 456932220 heartbeat IPC: 0.801509 cumulative IPC: 0.800184 (Simulation time: 1 hr 57 min 56 sec) 
Heartbeat CPU 0 instructions: 550000000 cycles: 460106117 heartbeat IPC: 0.865361 cumulative IPC: 0.854363 (Simulation time: 1 hr 58 min 37 sec) 
Heartbeat CPU 3 instructions: 650000003 cycles: 460233712 heartbeat IPC: 1.1815 cumulative IPC: 1.17024 (Simulation time: 1 hr 58 min 38 sec) 
Heartbeat CPU 1 instructions: 420000000 cycles: 464560176 heartbeat IPC: 0.727587 cumulative IPC: 0.605186 (Simulation time: 1 hr 59 min 37 sec) 
Heartbeat CPU 3 instructions: 660000000 cycles: 468930347 heartbeat IPC: 1.14987 cumulative IPC: 1.16976 (Simulation time: 2 hr 0 min 37 sec) 
Heartbeat CPU 2 instructions: 540000000 cycles: 469418550 heartbeat IPC: 0.800876 cumulative IPC: 0.800207 (Simulation time: 2 hr 0 min 44 sec) 
Heartbeat CPU 0 instructions: 560000000 cycles: 471689899 heartbeat IPC: 0.863276 cumulative IPC: 0.854641 (Simulation time: 2 hr 1 min 14 sec) 
Heartbeat CPU 1 instructions: 430000000 cycles: 476263605 heartbeat IPC: 0.85445 cumulative IPC: 0.612961 (Simulation time: 2 hr 2 min 17 sec) 
Heartbeat CPU 3 instructions: 670000001 cycles: 477520264 heartbeat IPC: 1.16416 cumulative IPC: 1.16963 (Simulation time: 2 hr 2 min 34 sec) 
Heartbeat CPU 2 instructions: 550000002 cycles: 481885206 heartbeat IPC: 0.80214 cumulative IPC: 0.800271 (Simulation time: 2 hr 3 min 34 sec) 
Heartbeat CPU 0 instructions: 570000001 cycles: 483266802 heartbeat IPC: 0.863789 cumulative IPC: 0.854918 (Simulation time: 2 hr 3 min 53 sec) 
Heartbeat CPU 3 instructions: 680000000 cycles: 486072147 heartbeat IPC: 1.16933 cumulative IPC: 1.16963 (Simulation time: 2 hr 4 min 31 sec) 
Heartbeat CPU 1 instructions: 440000000 cycles: 487936776 heartbeat IPC: 0.856665 cumulative IPC: 0.620314 (Simulation time: 2 hr 4 min 56 sec) 
Heartbeat CPU 2 instructions: 560000000 cycles: 494341307 heartbeat IPC: 0.802819 cumulative IPC: 0.800351 (Simulation time: 2 hr 6 min 24 sec) 
Heartbeat CPU 3 instructions: 690000001 cycles: 494680785 heartbeat IPC: 1.16162 cumulative IPC: 1.16945 (Simulation time: 2 hr 6 min 29 sec) 
Heartbeat CPU 0 instructions: 580000000 cycles: 494827899 heartbeat IPC: 0.86497 cumulative IPC: 0.855213 (Simulation time: 2 hr 6 min 31 sec) 
Heartbeat CPU 1 instructions: 450000001 cycles: 499479559 heartbeat IPC: 0.866342 cumulative IPC: 0.627441 (Simulation time: 2 hr 7 min 34 sec) 
Heartbeat CPU 3 instructions: 700000000 cycles: 503244387 heartbeat IPC: 1.16773 cumulative IPC: 1.16942 (Simulation time: 2 hr 8 min 25 sec) 
Heartbeat CPU 0 instructions: 590000002 cycles: 506389347 heartbeat IPC: 0.864944 cumulative IPC: 0.855491 (Simulation time: 2 hr 9 min 8 sec) 
Heartbeat CPU 2 instructions: 570000001 cycles: 506774534 heartbeat IPC: 0.804296 cumulative IPC: 0.800472 (Simulation time: 2 hr 9 min 14 sec) 
Heartbeat CPU 1 instructions: 460000000 cycles: 511174786 heartbeat IPC: 0.85505 cumulative IPC: 0.633931 (Simulation time: 2 hr 10 min 14 sec) 
Heartbeat CPU 3 instructions: 710000000 cycles: 511797363 heartbeat IPC: 1.16918 cumulative IPC: 1.16941 (Simulation time: 2 hr 10 min 22 sec) 
Heartbeat CPU 0 instructions: 600000000 cycles: 517950497 heartbeat IPC: 0.864966 cumulative IPC: 0.855754 (Simulation time: 2 hr 11 min 46 sec) 
Heartbeat CPU 2 instructions: 580000000 cycles: 519203711 heartbeat IPC: 0.804558 cumulative IPC: 0.800594 (Simulation time: 2 hr 12 min 3 sec) 
Heartbeat CPU 3 instructions: 720000000 cycles: 520401703 heartbeat IPC: 1.1622 cumulative IPC: 1.16926 (Simulation time: 2 hr 12 min 20 sec) 
Heartbeat CPU 1 instructions: 470000000 cycles: 522871200 heartbeat IPC: 0.854963 cumulative IPC: 0.64006 (Simulation time: 2 hr 12 min 53 sec) 
Heartbeat CPU 3 instructions: 730000000 cycles: 528939096 heartbeat IPC: 1.17132 cumulative IPC: 1.1693 (Simulation time: 2 hr 14 min 16 sec) 
Heartbeat CPU 0 instructions: 610000000 cycles: 529508287 heartbeat IPC: 0.865217 cumulative IPC: 0.856009 (Simulation time: 2 hr 14 min 24 sec) 
Heartbeat CPU 2 instructions: 590000002 cycles: 531641492 heartbeat IPC: 0.804002 cumulative IPC: 0.800692 (Simulation time: 2 hr 14 min 53 sec) 
Heartbeat CPU 1 instructions: 480000000 cycles: 534569829 heartbeat IPC: 0.854801 cumulative IPC: 0.645855 (Simulation time: 2 hr 15 min 33 sec) 
Heartbeat CPU 3 instructions: 740000000 cycles: 537518807 heartbeat IPC: 1.16554 cumulative IPC: 1.16923 (Simulation time: 2 hr 16 min 14 sec) 
Heartbeat CPU 0 instructions: 620000000 cycles: 541059025 heartbeat IPC: 0.865746 cumulative IPC: 0.856265 (Simulation time: 2 hr 17 min 2 sec) 
Heartbeat CPU 2 instructions: 600000000 cycles: 544043793 heartbeat IPC: 0.806302 cumulative IPC: 0.800849 (Simulation time: 2 hr 17 min 43 sec) 
Heartbeat CPU 3 instructions: 750000002 cycles: 546119532 heartbeat IPC: 1.16269 cumulative IPC: 1.1691 (Simulation time: 2 hr 18 min 11 sec) 
Heartbeat CPU 1 instructions: 490000000 cycles: 546163906 heartbeat IPC: 0.862509 cumulative IPC: 0.651498 (Simulation time: 2 hr 18 min 12 sec) 
Heartbeat CPU 0 instructions: 630000002 cycles: 552597949 heartbeat IPC: 0.866632 cumulative IPC: 0.85653 (Simulation time: 2 hr 19 min 40 sec) 
Heartbeat CPU 3 instructions: 760000000 cycles: 554642514 heartbeat IPC: 1.1733 cumulative IPC: 1.16918 (Simulation time: 2 hr 20 min 8 sec) 
Heartbeat CPU 2 instructions: 610000002 cycles: 556454482 heartbeat IPC: 0.805757 cumulative IPC: 0.800983 (Simulation time: 2 hr 20 min 32 sec) 
Heartbeat CPU 1 instructions: 500000000 cycles: 557723192 heartbeat IPC: 0.865105 cumulative IPC: 0.656904 (Simulation time: 2 hr 20 min 50 sec) 
Heartbeat CPU 3 instructions: 770000000 cycles: 563227099 heartbeat IPC: 1.16488 cumulative IPC: 1.1691 (Simulation time: 2 hr 22 min 5 sec) 
Heartbeat CPU 0 instructions: 640000000 cycles: 564133760 heartbeat IPC: 0.866866 cumulative IPC: 0.856787 (Simulation time: 2 hr 22 min 18 sec) 
Heartbeat CPU 2 instructions: 620000000 cycles: 568915084 heartbeat IPC: 0.802529 cumulative IPC: 0.801024 (Simulation time: 2 hr 23 min 23 sec) 
Heartbeat CPU 1 instructions: 510000000 cycles: 569390778 heartbeat IPC: 0.857075 cumulative IPC: 0.661891 (Simulation time: 2 hr 23 min 29 sec) 
Heartbeat CPU 3 instructions: 780000000 cycles: 571793523 heartbeat IPC: 1.16735 cumulative IPC: 1.16907 (Simulation time: 2 hr 24 min 2 sec) 
Heartbeat CPU 0 instructions: 650000000 cycles: 575670264 heartbeat IPC: 0.866814 cumulative IPC: 0.857031 (Simulation time: 2 hr 24 min 55 sec) 
Heartbeat CPU 3 instructions: 790000000 cycles: 580345351 heartbeat IPC: 1.16934 cumulative IPC: 1.16908 (Simulation time: 2 hr 25 min 58 sec) 
Heartbeat CPU 1 instructions: 520000000 cycles: 581151582 heartbeat IPC: 0.850282 cumulative IPC: 0.666506 (Simulation time: 2 hr 26 min 9 sec) 
Heartbeat CPU 2 instructions: 630000002 cycles: 581494076 heartbeat IPC: 0.794976 cumulative IPC: 0.800866 (Simulation time: 2 hr 26 min 14 sec) 
Heartbeat CPU 0 instructions: 660000000 cycles: 587206413 heartbeat IPC: 0.86684 cumulative IPC: 0.857263 (Simulation time: 2 hr 27 min 32 sec) 
Heartbeat CPU 3 instructions: 800000000 cycles: 588929443 heartbeat IPC: 1.16495 cumulative IPC: 1.169 (Simulation time: 2 hr 27 min 56 sec) 
Heartbeat CPU 1 instructions: 530000000 cycles: 592791435 heartbeat IPC: 0.859117 cumulative IPC: 0.671065 (Simulation time: 2 hr 28 min 48 sec) 
Heartbeat CPU 2 instructions: 640000000 cycles: 594056666 heartbeat IPC: 0.796014 cumulative IPC: 0.800742 (Simulation time: 2 hr 29 min 6 sec) 
Heartbeat CPU 3 instructions: 810000001 cycles: 597463075 heartbeat IPC: 1.17183 cumulative IPC: 1.16905 (Simulation time: 2 hr 29 min 52 sec) 
Heartbeat CPU 0 instructions: 670000000 cycles: 598756892 heartbeat IPC: 0.865765 cumulative IPC: 0.857461 (Simulation time: 2 hr 30 min 10 sec) 
Heartbeat CPU 1 instructions: 540000000 cycles: 604226754 heartbeat IPC: 0.874484 cumulative IPC: 0.675688 (Simulation time: 2 hr 31 min 24 sec) 
Heartbeat CPU 3 instructions: 820000000 cycles: 606038182 heartbeat IPC: 1.16617 cumulative IPC: 1.169 (Simulation time: 2 hr 31 min 49 sec) 
Heartbeat CPU 2 instructions: 650000001 cycles: 606603093 heartbeat IPC: 0.79704 cumulative IPC: 0.80065 (Simulation time: 2 hr 31 min 56 sec) 
Heartbeat CPU 0 instructions: 680000000 cycles: 610431600 heartbeat IPC: 0.856552 cumulative IPC: 0.85744 (Simulation time: 2 hr 32 min 49 sec) 
Heartbeat CPU 3 instructions: 830000003 cycles: 614623330 heartbeat IPC: 1.1648 cumulative IPC: 1.16893 (Simulation time: 2 hr 33 min 46 sec) 
Heartbeat CPU 1 instructions: 550000002 cycles: 615854244 heartbeat IPC: 0.860031 cumulative IPC: 0.679851 (Simulation time: 2 hr 34 min 3 sec) 
Heartbeat CPU 2 instructions: 660000000 cycles: 619142597 heartbeat IPC: 0.79748 cumulative IPC: 0.800574 (Simulation time: 2 hr 34 min 47 sec) 
Heartbeat CPU 0 instructions: 690000000 cycles: 622080335 heartbeat IPC: 0.858462 cumulative IPC: 0.857463 (Simulation time: 2 hr 35 min 28 sec) 
Heartbeat CPU 3 instructions: 840000000 cycles: 623162328 heartbeat IPC: 1.1711 cumulative IPC: 1.16897 (Simulation time: 2 hr 35 min 42 sec) 
Heartbeat CPU 1 instructions: 560000000 cycles: 627434011 heartbeat IPC: 0.863575 cumulative IPC: 0.683893 (Simulation time: 2 hr 36 min 41 sec) 
Heartbeat CPU 2 instructions: 670000000 cycles: 631682202 heartbeat IPC: 0.797473 cumulative IPC: 0.8005 (Simulation time: 2 hr 37 min 39 sec) 
Heartbeat CPU 3 instructions: 850000002 cycles: 631753027 heartbeat IPC: 1.16405 cumulative IPC: 1.16889 (Simulation time: 2 hr 37 min 40 sec) 
Heartbeat CPU 0 instructions: 700000000 cycles: 633726535 heartbeat IPC: 0.858649 cumulative IPC: 0.857489 (Simulation time: 2 hr 38 min 7 sec) 
Heartbeat CPU 1 instructions: 570000000 cycles: 639142597 heartbeat IPC: 0.854074 cumulative IPC: 0.687596 (Simulation time: 2 hr 39 min 20 sec) 
Heartbeat CPU 3 instructions: 860000000 cycles: 640335264 heartbeat IPC: 1.1652 cumulative IPC: 1.16883 (Simulation time: 2 hr 39 min 37 sec) 
Heartbeat CPU 2 instructions: 680000000 cycles: 644206617 heartbeat IPC: 0.79844 cumulative IPC: 0.800453 (Simulation time: 2 hr 40 min 30 sec) 
Heartbeat CPU 0 instructions: 710000000 cycles: 645367250 heartbeat IPC: 0.859054 cumulative IPC: 0.857522 (Simulation time: 2 hr 40 min 46 sec) 
Heartbeat CPU 3 instructions: 870000000 cycles: 648880419 heartbeat IPC: 1.17025 cumulative IPC: 1.16885 (Simulation time: 2 hr 41 min 34 sec) 
Heartbeat CPU 1 instructions: 580000000 cycles: 650706423 heartbeat IPC: 0.864766 cumulative IPC: 0.691323 (Simulation time: 2 hr 41 min 58 sec) 
Heartbeat CPU 2 instructions: 690000001 cycles: 656728545 heartbeat IPC: 0.798599 cumulative IPC: 0.800411 (Simulation time: 2 hr 43 min 21 sec) 
Heartbeat CPU 0 instructions: 720000000 cycles: 657012828 heartbeat IPC: 0.858695 cumulative IPC: 0.857547 (Simulation time: 2 hr 43 min 25 sec) 
Heartbeat CPU 3 instructions: 880000000 cycles: 657475576 heartbeat IPC: 1.16345 cumulative IPC: 1.16877 (Simulation time: 2 hr 43 min 31 sec) 
Heartbeat CPU 1 instructions: 590000002 cycles: 662202849 heartbeat IPC: 0.869836 cumulative IPC: 0.69498 (Simulation time: 2 hr 44 min 36 sec) 
Heartbeat CPU 3 instructions: 890000003 cycles: 666067365 heartbeat IPC: 1.1639 cumulative IPC: 1.16869 (Simulation time: 2 hr 45 min 28 sec) 
Heartbeat CPU 0 instructions: 730000001 cycles: 668644239 heartbeat IPC: 0.859741 cumulative IPC: 0.857592 (Simulation time: 2 hr 46 min 3 sec) 
Heartbeat CPU 2 instructions: 700000000 cycles: 669234720 heartbeat IPC: 0.799605 cumulative IPC: 0.800393 (Simulation time: 2 hr 46 min 11 sec) 
Heartbeat CPU 1 instructions: 600000000 cycles: 673841350 heartbeat IPC: 0.859217 cumulative IPC: 0.698317 (Simulation time: 2 hr 47 min 14 sec) 
Heartbeat CPU 3 instructions: 900000000 cycles: 674599635 heartbeat IPC: 1.17202 cumulative IPC: 1.16874 (Simulation time: 2 hr 47 min 24 sec) 
Heartbeat CPU 0 instructions: 740000000 cycles: 680270608 heartbeat IPC: 0.860114 cumulative IPC: 0.857642 (Simulation time: 2 hr 48 min 40 sec) 
Heartbeat CPU 2 instructions: 710000000 cycles: 681729573 heartbeat IPC: 0.80033 cumulative IPC: 0.800392 (Simulation time: 2 hr 48 min 59 sec) 
Heartbeat CPU 3 instructions: 910000001 cycles: 683070601 heartbeat IPC: 1.1805 cumulative IPC: 1.16892 (Simulation time: 2 hr 49 min 17 sec) 
Heartbeat CPU 1 instructions: 610000002 cycles: 687543424 heartbeat IPC: 0.729817 cumulative IPC: 0.699053 (Simulation time: 2 hr 50 min 14 sec) 
Heartbeat CPU 3 instructions: 920000000 cycles: 691645197 heartbeat IPC: 1.16624 cumulative IPC: 1.16888 (Simulation time: 2 hr 51 min 9 sec) 
Heartbeat CPU 0 instructions: 750000000 cycles: 691900622 heartbeat IPC: 0.859844 cumulative IPC: 0.857686 (Simulation time: 2 hr 51 min 12 sec) 
Heartbeat CPU 2 instructions: 720000000 cycles: 694208609 heartbeat IPC: 0.801344 cumulative IPC: 0.800412 (Simulation time: 2 hr 51 min 42 sec) 
Heartbeat CPU 3 instructions: 930000000 cycles: 700089216 heartbeat IPC: 1.18427 cumulative IPC: 1.16909 (Simulation time: 2 hr 52 min 59 sec) 
Heartbeat CPU 1 instructions: 620000000 cycles: 701610528 heartbeat IPC: 0.710878 cumulative IPC: 0.69933 (Simulation time: 2 hr 53 min 18 sec) 
Heartbeat CPU 0 instructions: 760000000 cycles: 703496070 heartbeat IPC: 0.862407 cumulative IPC: 0.857777 (Simulation time: 2 hr 53 min 42 sec) 
Heartbeat CPU 2 instructions: 730000003 cycles: 706697212 heartbeat IPC: 0.80073 cumulative IPC: 0.800419 (Simulation time: 2 hr 54 min 25 sec) 
Heartbeat CPU 3 instructions: 940000000 cycles: 708662074 heartbeat IPC: 1.16647 cumulative IPC: 1.16906 (Simulation time: 2 hr 54 min 51 sec) 
Heartbeat CPU 0 instructions: 770000001 cycles: 715103019 heartbeat IPC: 0.861553 cumulative IPC: 0.857848 (Simulation time: 2 hr 56 min 15 sec) 
Heartbeat CPU 1 instructions: 630000000 cycles: 715725926 heartbeat IPC: 0.708446 cumulative IPC: 0.699539 (Simulation time: 2 hr 56 min 24 sec) 
Heartbeat CPU 3 instructions: 950000002 cycles: 717110116 heartbeat IPC: 1.18371 cumulative IPC: 1.16926 (Simulation time: 2 hr 56 min 42 sec) 
Heartbeat CPU 2 instructions: 740000000 cycles: 719164129 heartbeat IPC: 0.802123 cumulative IPC: 0.800453 (Simulation time: 2 hr 57 min 8 sec) 
Heartbeat CPU 3 instructions: 960000000 cycles: 725676141 heartbeat IPC: 1.1674 cumulative IPC: 1.16923 (Simulation time: 2 hr 58 min 36 sec) 
Heartbeat CPU 0 instructions: 780000000 cycles: 726706405 heartbeat IPC: 0.861817 cumulative IPC: 0.857922 (Simulation time: 2 hr 58 min 49 sec) 
Heartbeat CPU 1 instructions: 640000000 cycles: 729801096 heartbeat IPC: 0.710471 cumulative IPC: 0.699784 (Simulation time: 2 hr 59 min 29 sec) 
Heartbeat CPU 2 instructions: 750000000 cycles: 731635055 heartbeat IPC: 0.801865 cumulative IPC: 0.800481 (Simulation time: 2 hr 59 min 53 sec) 
Heartbeat CPU 3 instructions: 970000000 cycles: 734169712 heartbeat IPC: 1.17736 cumulative IPC: 1.16934 (Simulation time: 3 hr 0 min 26 sec) 
Heartbeat CPU 0 instructions: 790000002 cycles: 738317950 heartbeat IPC: 0.861212 cumulative IPC: 0.857982 (Simulation time: 3 hr 1 min 23 sec) 
Heartbeat CPU 3 instructions: 980000000 cycles: 742690792 heartbeat IPC: 1.17356 cumulative IPC: 1.1694 (Simulation time: 3 hr 2 min 21 sec) 
Heartbeat CPU 1 instructions: 650000000 cycles: 743508048 heartbeat IPC: 0.729557 cumulative IPC: 0.700419 (Simulation time: 3 hr 2 min 31 sec) 
Heartbeat CPU 2 instructions: 760000000 cycles: 744097718 heartbeat IPC: 0.802397 cumulative IPC: 0.800518 (Simulation time: 3 hr 2 min 39 sec) 
Heartbeat CPU 0 instructions: 800000000 cycles: 749916378 heartbeat IPC: 0.862186 cumulative IPC: 0.858057 (Simulation time: 3 hr 3 min 56 sec) 
Heartbeat CPU 3 instructions: 990000000 cycles: 751286822 heartbeat IPC: 1.16333 cumulative IPC: 1.16932 (Simulation time: 3 hr 4 min 15 sec) 
Heartbeat CPU 2 instructions: 770000002 cycles: 756560532 heartbeat IPC: 0.802387 cumulative IPC: 0.800554 (Simulation time: 3 hr 5 min 25 sec) 
Heartbeat CPU 1 instructions: 660000000 cycles: 757070051 heartbeat IPC: 0.737354 cumulative IPC: 0.701183 (Simulation time: 3 hr 5 min 31 sec) 
Heartbeat CPU 3 instructions: 1000000000 cycles: 759737891 heartbeat IPC: 1.18328 cumulative IPC: 1.1695 (Simulation time: 3 hr 6 min 6 sec) 
Heartbeat CPU 0 instructions: 810000000 cycles: 761498100 heartbeat IPC: 0.863429 cumulative IPC: 0.858151 (Simulation time: 3 hr 6 min 29 sec) 
Heartbeat CPU 3 instructions: 1010000001 cycles: 768331760 heartbeat IPC: 1.16362 cumulative IPC: 1.16942 (Simulation time: 3 hr 7 min 59 sec) 
Heartbeat CPU 2 instructions: 780000000 cycles: 769016184 heartbeat IPC: 0.802848 cumulative IPC: 0.800596 (Simulation time: 3 hr 8 min 8 sec) 
Heartbeat CPU 1 instructions: 670000000 cycles: 771457714 heartbeat IPC: 0.69504 cumulative IPC: 0.701051 (Simulation time: 3 hr 8 min 40 sec) 
Heartbeat CPU 0 instructions: 820000000 cycles: 773089675 heartbeat IPC: 0.862696 cumulative IPC: 0.858229 (Simulation time: 3 hr 9 min 1 sec) 
Heartbeat CPU 3 instructions: 1020000000 cycles: 776794500 heartbeat IPC: 1.18165 cumulative IPC: 1.16957 (Simulation time: 3 hr 9 min 48 sec) 
Heartbeat CPU 2 instructions: 790000002 cycles: 781468625 heartbeat IPC: 0.803056 cumulative IPC: 0.800641 (Simulation time: 3 hr 10 min 50 sec) 
Heartbeat CPU 0 instructions: 830000000 cycles: 784677968 heartbeat IPC: 0.86294 cumulative IPC: 0.858309 (Simulation time: 3 hr 11 min 32 sec) 
Heartbeat CPU 3 instructions: 1030000003 cycles: 785406562 heartbeat IPC: 1.16116 cumulative IPC: 1.16947 (Simulation time: 3 hr 11 min 41 sec) 
Heartbeat CPU 1 instructions: 680000000 cycles: 786220260 heartbeat IPC: 0.67739 cumulative IPC: 0.700541 (Simulation time: 3 hr 11 min 52 sec) 
Heartbeat CPU 2 instructions: 800000000 cycles: 793930756 heartbeat IPC: 0.802431 cumulative IPC: 0.800673 (Simulation time: 3 hr 13 min 36 sec) 
Heartbeat CPU 3 instructions: 1040000000 cycles: 794008786 heartbeat IPC: 1.16249 cumulative IPC: 1.16938 (Simulation time: 3 hr 13 min 37 sec) 
Heartbeat CPU 0 instructions: 840000000 cycles: 796257547 heartbeat IPC: 0.863589 cumulative IPC: 0.858397 (Simulation time: 3 hr 14 min 6 sec) 
Heartbeat CPU 1 instructions: 690000002 cycles: 799662559 heartbeat IPC: 0.743921 cumulative IPC: 0.701376 (Simulation time: 3 hr 14 min 51 sec) 
Heartbeat CPU 3 instructions: 1050000000 cycles: 802415785 heartbeat IPC: 1.18949 cumulative IPC: 1.16962 (Simulation time: 3 hr 15 min 26 sec) 
Heartbeat CPU 2 instructions: 810000002 cycles: 806358363 heartbeat IPC: 0.80466 cumulative IPC: 0.800744 (Simulation time: 3 hr 16 min 17 sec) 
Heartbeat CPU 0 instructions: 850000000 cycles: 807833207 heartbeat IPC: 0.863882 cumulative IPC: 0.858487 (Simulation time: 3 hr 16 min 36 sec) 
Heartbeat CPU 3 instructions: 1060000000 cycles: 811004834 heartbeat IPC: 1.16427 cumulative IPC: 1.16956 (Simulation time: 3 hr 17 min 19 sec) 
Heartbeat CPU 1 instructions: 700000000 cycles: 814263408 heartbeat IPC: 0.684892 cumulative IPC: 0.701038 (Simulation time: 3 hr 18 min 1 sec) 
Heartbeat CPU 2 instructions: 820000000 cycles: 818790810 heartbeat IPC: 0.804347 cumulative IPC: 0.800806 (Simulation time: 3 hr 19 min 0 sec) 
Heartbeat CPU 0 instructions: 860000000 cycles: 819402985 heartbeat IPC: 0.864321 cumulative IPC: 0.858581 (Simulation time: 3 hr 19 min 8 sec) 
Heartbeat CPU 3 instructions: 1070000002 cycles: 819445604 heartbeat IPC: 1.18473 cumulative IPC: 1.16974 (Simulation time: 3 hr 19 min 8 sec) 
Heartbeat CPU 3 instructions: 1080000000 cycles: 828050515 heartbeat IPC: 1.16213 cumulative IPC: 1.16965 (Simulation time: 3 hr 21 min 1 sec) 
Heartbeat CPU 1 instructions: 710000001 cycles: 829238204 heartbeat IPC: 0.667789 cumulative IPC: 0.700355 (Simulation time: 3 hr 21 min 17 sec) 
Heartbeat CPU 0 instructions: 870000001 cycles: 830978191 heartbeat IPC: 0.863916 cumulative IPC: 0.858665 (Simulation time: 3 hr 21 min 41 sec) 
Heartbeat CPU 2 instructions: 830000000 cycles: 831258679 heartbeat IPC: 0.802062 cumulative IPC: 0.800828 (Simulation time: 3 hr 21 min 44 sec) 
Heartbeat CPU 3 instructions: 1090000000 cycles: 836671875 heartbeat IPC: 1.15991 cumulative IPC: 1.16953 (Simulation time: 3 hr 22 min 56 sec) 
Heartbeat CPU 0 instructions: 880000000 cycles: 842553104 heartbeat IPC: 0.863937 cumulative IPC: 0.858748 (Simulation time: 3 hr 24 min 14 sec) 
Heartbeat CPU 1 instructions: 720000000 cycles: 842627570 heartbeat IPC: 0.746861 cumulative IPC: 0.701194 (Simulation time: 3 hr 24 min 15 sec) 
Heartbeat CPU 2 instructions: 840000000 cycles: 843701323 heartbeat IPC: 0.803688 cumulative IPC: 0.800876 (Simulation time: 3 hr 24 min 30 sec) 
Heartbeat CPU 3 instructions: 1100000000 cycles: 845212821 heartbeat IPC: 1.17083 cumulative IPC: 1.16955 (Simulation time: 3 hr 24 min 50 sec) 
Heartbeat CPU 3 instructions: 1110000003 cycles: 853759552 heartbeat IPC: 1.17004 cumulative IPC: 1.16955 (Simulation time: 3 hr 26 min 43 sec) 
Heartbeat CPU 0 instructions: 890000001 cycles: 854131281 heartbeat IPC: 0.863694 cumulative IPC: 0.858824 (Simulation time: 3 hr 26 min 48 sec) 
Heartbeat CPU 1 instructions: 730000002 cycles: 855996525 heartbeat IPC: 0.748002 cumulative IPC: 0.702023 (Simulation time: 3 hr 27 min 14 sec) 
Heartbeat CPU 2 instructions: 850000002 cycles: 856151275 heartbeat IPC: 0.803216 cumulative IPC: 0.800914 (Simulation time: 3 hr 27 min 16 sec) 
Heartbeat CPU 3 instructions: 1120000000 cycles: 862366333 heartbeat IPC: 1.16187 cumulative IPC: 1.16946 (Simulation time: 3 hr 28 min 39 sec) 
Heartbeat CPU 0 instructions: 900000000 cycles: 865703102 heartbeat IPC: 0.864168 cumulative IPC: 0.858905 (Simulation time: 3 hr 29 min 24 sec) 
Heartbeat CPU 2 instructions: 860000000 cycles: 868669432 heartbeat IPC: 0.798839 cumulative IPC: 0.80088 (Simulation time: 3 hr 30 min 5 sec) 
Heartbeat CPU 1 instructions: 740000000 cycles: 868789698 heartbeat IPC: 0.781667 cumulative IPC: 0.70335 (Simulation time: 3 hr 30 min 6 sec) 
Heartbeat CPU 3 instructions: 1130000001 cycles: 870891971 heartbeat IPC: 1.17293 cumulative IPC: 1.1695 (Simulation time: 3 hr 30 min 35 sec) 
Heartbeat CPU 0 instructions: 910000002 cycles: 877273486 heartbeat IPC: 0.864276 cumulative IPC: 0.858985 (Simulation time: 3 hr 32 min 2 sec) 
Heartbeat CPU 3 instructions: 1140000000 cycles: 879516815 heartbeat IPC: 1.15944 cumulative IPC: 1.16939 (Simulation time: 3 hr 32 min 33 sec) 
Heartbeat CPU 1 instructions: 750000003 cycles: 880818872 heartbeat IPC: 0.831313 cumulative IPC: 0.705324 (Simulation time: 3 hr 32 min 50 sec) 
Heartbeat CPU 2 instructions: 870000000 cycles: 881245554 heartbeat IPC: 0.795158 cumulative IPC: 0.800788 (Simulation time: 3 hr 32 min 56 sec) 
Heartbeat CPU 3 instructions: 1150000000 cycles: 888112285 heartbeat IPC: 1.1634 cumulative IPC: 1.16933 (Simulation time: 3 hr 34 min 30 sec) 
Heartbeat CPU 0 instructions: 920000000 cycles: 888841623 heartbeat IPC: 0.864443 cumulative IPC: 0.859065 (Simulation time: 3 hr 34 min 40 sec) 
Heartbeat CPU 1 instructions: 760000000 cycles: 892787289 heartbeat IPC: 0.835532 cumulative IPC: 0.707293 (Simulation time: 3 hr 35 min 34 sec) 
Heartbeat CPU 2 instructions: 880000000 cycles: 893820906 heartbeat IPC: 0.795206 cumulative IPC: 0.800699 (Simulation time: 3 hr 35 min 48 sec) 
Heartbeat CPU 3 instructions: 1160000000 cycles: 896674012 heartbeat IPC: 1.16799 cumulative IPC: 1.16931 (Simulation time: 3 hr 36 min 27 sec) 
Heartbeat CPU 0 instructions: 930000001 cycles: 900417753 heartbeat IPC: 0.863847 cumulative IPC: 0.859134 (Simulation time: 3 hr 37 min 18 sec) 
Heartbeat CPU 1 instructions: 770000001 cycles: 904674910 heartbeat IPC: 0.841211 cumulative IPC: 0.709274 (Simulation time: 3 hr 38 min 16 sec) 
Heartbeat CPU 3 instructions: 1170000002 cycles: 905281163 heartbeat IPC: 1.16182 cumulative IPC: 1.16923 (Simulation time: 3 hr 38 min 25 sec) 
Heartbeat CPU 2 instructions: 890000001 cycles: 906371813 heartbeat IPC: 0.796755 cumulative IPC: 0.800638 (Simulation time: 3 hr 38 min 39 sec) 
Heartbeat CPU 0 instructions: 940000000 cycles: 911977982 heartbeat IPC: 0.865035 cumulative IPC: 0.859218 (Simulation time: 3 hr 39 min 56 sec) 
Heartbeat CPU 3 instructions: 1180000000 cycles: 913826945 heartbeat IPC: 1.17017 cumulative IPC: 1.16924 (Simulation time: 3 hr 40 min 21 sec) 
Heartbeat CPU 1 instructions: 780000000 cycles: 916427468 heartbeat IPC: 0.850878 cumulative IPC: 0.711315 (Simulation time: 3 hr 40 min 57 sec) 
Heartbeat CPU 2 instructions: 900000000 cycles: 918929569 heartbeat IPC: 0.796321 cumulative IPC: 0.800572 (Simulation time: 3 hr 41 min 31 sec) 
Heartbeat CPU 3 instructions: 1190000000 cycles: 922436804 heartbeat IPC: 1.16146 cumulative IPC: 1.16916 (Simulation time: 3 hr 42 min 19 sec) 
Heartbeat CPU 0 instructions: 950000002 cycles: 923552952 heartbeat IPC: 0.863933 cumulative IPC: 0.859285 (Simulation time: 3 hr 42 min 34 sec) 
Heartbeat CPU 1 instructions: 790000001 cycles: 928406393 heartbeat IPC: 0.8348 cumulative IPC: 0.713102 (Simulation time: 3 hr 43 min 40 sec) 
Heartbeat CPU 3 instructions: 1200000000 cycles: 931033707 heartbeat IPC: 1.16321 cumulative IPC: 1.1691 (Simulation time: 3 hr 44 min 16 sec) 
Heartbeat CPU 2 instructions: 910000003 cycles: 931489085 heartbeat IPC: 0.796209 cumulative IPC: 0.800506 (Simulation time: 3 hr 44 min 22 sec) 
Heartbeat CPU 0 instructions: 960000000 cycles: 935116193 heartbeat IPC: 0.864809 cumulative IPC: 0.859361 (Simulation time: 3 hr 45 min 12 sec) 
Heartbeat CPU 3 instructions: 1210000002 cycles: 939596529 heartbeat IPC: 1.16784 cumulative IPC: 1.16909 (Simulation time: 3 hr 46 min 13 sec) 
Heartbeat CPU 1 instructions: 800000000 cycles: 940348428 heartbeat IPC: 0.837378 cumulative IPC: 0.714871 (Simulation time: 3 hr 46 min 23 sec) 
Heartbeat CPU 2 instructions: 920000000 cycles: 944054269 heartbeat IPC: 0.79585 cumulative IPC: 0.800436 (Simulation time: 3 hr 47 min 14 sec) 
Heartbeat CPU 0 instructions: 970000000 cycles: 946672418 heartbeat IPC: 0.865335 cumulative IPC: 0.859443 (Simulation time: 3 hr 47 min 49 sec) 
Heartbeat CPU 3 instructions: 1220000000 cycles: 948224530 heartbeat IPC: 1.15902 cumulative IPC: 1.16898 (Simulation time: 3 hr 48 min 11 sec) 
Heartbeat CPU 1 instructions: 810000001 cycles: 952161191 heartbeat IPC: 0.846542 cumulative IPC: 0.716698 (Simulation time: 3 hr 49 min 4 sec) 
Finished CPU 3 instructions: 1000000001 cycles: 855447948 cumulative IPC: 1.16898 (Simulation time: 3 hr 50 min 2 sec) 
Heartbeat CPU 2 instructions: 930000000 cycles: 956600409 heartbeat IPC: 0.797058 cumulative IPC: 0.800387 (Simulation time: 3 hr 50 min 4 sec) 
Heartbeat CPU 3 instructions: 1230000001 cycles: 956780183 heartbeat IPC: 1.16882 cumulative IPC: 1.16898 (Simulation time: 3 hr 50 min 6 sec) 
Heartbeat CPU 0 instructions: 980000000 cycles: 958230961 heartbeat IPC: 0.865161 cumulative IPC: 0.85952 (Simulation time: 3 hr 50 min 26 sec) 
Heartbeat CPU 1 instructions: 820000000 cycles: 963869109 heartbeat IPC: 0.854123 cumulative IPC: 0.718563 (Simulation time: 3 hr 51 min 43 sec) 
Heartbeat CPU 3 instructions: 1240000000 cycles: 965387155 heartbeat IPC: 1.16185 cumulative IPC: 1.16891 (Simulation time: 3 hr 52 min 4 sec) 
Heartbeat CPU 2 instructions: 940000000 cycles: 969173510 heartbeat IPC: 0.795349 cumulative IPC: 0.800314 (Simulation time: 3 hr 52 min 55 sec) 
Heartbeat CPU 0 instructions: 990000002 cycles: 969797872 heartbeat IPC: 0.864535 cumulative IPC: 0.859587 (Simulation time: 3 hr 53 min 3 sec) 
Heartbeat CPU 3 instructions: 1250000003 cycles: 974029482 heartbeat IPC: 1.1571 cumulative IPC: 1.16879 (Simulation time: 3 hr 54 min 0 sec) 
Heartbeat CPU 1 instructions: 830000001 cycles: 975824805 heartbeat IPC: 0.836421 cumulative IPC: 0.720174 (Simulation time: 3 hr 54 min 25 sec) 
Heartbeat CPU 0 instructions: 1000000000 cycles: 981354032 heartbeat IPC: 0.865339 cumulative IPC: 0.859662 (Simulation time: 3 hr 55 min 40 sec) 
Heartbeat CPU 2 instructions: 950000001 cycles: 981719912 heartbeat IPC: 0.797041 cumulative IPC: 0.800267 (Simulation time: 3 hr 55 min 45 sec) 
Heartbeat CPU 3 instructions: 1260000000 cycles: 982605610 heartbeat IPC: 1.16603 cumulative IPC: 1.16877 (Simulation time: 3 hr 55 min 57 sec) 
Heartbeat CPU 1 instructions: 840000000 cycles: 987888909 heartbeat IPC: 0.828905 cumulative IPC: 0.721653 (Simulation time: 3 hr 57 min 8 sec) 
Heartbeat CPU 3 instructions: 1270000001 cycles: 991230802 heartbeat IPC: 1.15939 cumulative IPC: 1.16868 (Simulation time: 3 hr 57 min 53 sec) 
Heartbeat CPU 0 instructions: 1010000003 cycles: 992917883 heartbeat IPC: 0.864764 cumulative IPC: 0.859728 (Simulation time: 3 hr 58 min 16 sec) 
Heartbeat CPU 2 instructions: 960000000 cycles: 994281424 heartbeat IPC: 0.796082 cumulative IPC: 0.800208 (Simulation time: 3 hr 58 min 34 sec) 
Heartbeat CPU 3 instructions: 1280000000 cycles: 999793880 heartbeat IPC: 1.1678 cumulative IPC: 1.16867 (Simulation time: 3 hr 59 min 49 sec) 
Heartbeat CPU 1 instructions: 850000000 cycles: 999916485 heartbeat IPC: 0.831423 cumulative IPC: 0.723122 (Simulation time: 3 hr 59 min 50 sec) 
Heartbeat CPU 0 instructions: 1020000000 cycles: 1004472819 heartbeat IPC: 0.865431 cumulative IPC: 0.859801 (Simulation time: 4 hr 0 min 52 sec) 
Heartbeat CPU 2 instructions: 970000001 cycles: 1006849735 heartbeat IPC: 0.795652 cumulative IPC: 0.800145 (Simulation time: 4 hr 1 min 25 sec) 
Heartbeat CPU 3 instructions: 1290000003 cycles: 1008415366 heartbeat IPC: 1.15989 cumulative IPC: 1.16858 (Simulation time: 4 hr 1 min 46 sec) 
Heartbeat CPU 1 instructions: 860000000 cycles: 1011913871 heartbeat IPC: 0.833515 cumulative IPC: 0.724576 (Simulation time: 4 hr 2 min 33 sec) 
Heartbeat CPU 0 instructions: 1030000003 cycles: 1016049184 heartbeat IPC: 0.863829 cumulative IPC: 0.859852 (Simulation time: 4 hr 3 min 28 sec) 
Heartbeat CPU 3 instructions: 1300000000 cycles: 1017029501 heartbeat IPC: 1.16088 cumulative IPC: 1.16851 (Simulation time: 4 hr 3 min 42 sec) 
Heartbeat CPU 2 instructions: 980000000 cycles: 1019418468 heartbeat IPC: 0.795625 cumulative IPC: 0.800083 (Simulation time: 4 hr 4 min 14 sec) 
Heartbeat CPU 1 instructions: 870000002 cycles: 1023718972 heartbeat IPC: 0.847092 cumulative IPC: 0.726143 (Simulation time: 4 hr 5 min 13 sec) 
Heartbeat CPU 3 instructions: 1310000001 cycles: 1025606610 heartbeat IPC: 1.16589 cumulative IPC: 1.16849 (Simulation time: 4 hr 5 min 38 sec) 
Heartbeat CPU 0 instructions: 1040000000 cycles: 1027617563 heartbeat IPC: 0.864425 cumulative IPC: 0.859909 (Simulation time: 4 hr 6 min 5 sec) 
Heartbeat CPU 2 instructions: 990000000 cycles: 1031982003 heartbeat IPC: 0.795954 cumulative IPC: 0.800028 (Simulation time: 4 hr 7 min 4 sec) 
Heartbeat CPU 3 instructions: 1320000000 cycles: 1034228753 heartbeat IPC: 1.1598 cumulative IPC: 1.16841 (Simulation time: 4 hr 7 min 35 sec) 
Heartbeat CPU 1 instructions: 880000000 cycles: 1035686962 heartbeat IPC: 0.835562 cumulative IPC: 0.727544 (Simulation time: 4 hr 7 min 55 sec) 
Heartbeat CPU 0 instructions: 1050000003 cycles: 1039181984 heartbeat IPC: 0.864721 cumulative IPC: 0.859969 (Simulation time: 4 hr 8 min 42 sec) 
Heartbeat CPU 3 instructions: 1330000000 cycles: 1042786960 heartbeat IPC: 1.16847 cumulative IPC: 1.16841 (Simulation time: 4 hr 9 min 30 sec) 
Heartbeat CPU 2 instructions: 1000000000 cycles: 1044541283 heartbeat IPC: 0.796224 cumulative IPC: 0.799977 (Simulation time: 4 hr 9 min 54 sec) 
Heartbeat CPU 1 instructions: 890000001 cycles: 1047739288 heartbeat IPC: 0.829715 cumulative IPC: 0.728845 (Simulation time: 4 hr 10 min 37 sec) 
Heartbeat CPU 0 instructions: 1060000000 cycles: 1050757803 heartbeat IPC: 0.863869 cumulative IPC: 0.860016 (Simulation time: 4 hr 11 min 19 sec) 
Heartbeat CPU 3 instructions: 1340000000 cycles: 1051403452 heartbeat IPC: 1.16057 cumulative IPC: 1.16834 (Simulation time: 4 hr 11 min 27 sec) 
Heartbeat CPU 2 instructions: 1010000000 cycles: 1057088453 heartbeat IPC: 0.796992 cumulative IPC: 0.799938 (Simulation time: 4 hr 12 min 44 sec) 
Heartbeat CPU 1 instructions: 900000000 cycles: 1059757661 heartbeat IPC: 0.832059 cumulative IPC: 0.730139 (Simulation time: 4 hr 13 min 20 sec) 
Heartbeat CPU 3 instructions: 1350000001 cycles: 1060021199 heartbeat IPC: 1.1604 cumulative IPC: 1.16827 (Simulation time: 4 hr 13 min 24 sec) 
Heartbeat CPU 0 instructions: 1070000000 cycles: 1062318680 heartbeat IPC: 0.864986 cumulative IPC: 0.860076 (Simulation time: 4 hr 13 min 55 sec) 
Heartbeat CPU 3 instructions: 1360000000 cycles: 1068593956 heartbeat IPC: 1.16649 cumulative IPC: 1.16825 (Simulation time: 4 hr 15 min 20 sec) 
Heartbeat CPU 2 instructions: 1020000000 cycles: 1069635518 heartbeat IPC: 0.796999 cumulative IPC: 0.7999 (Simulation time: 4 hr 15 min 34 sec) 
Heartbeat CPU 1 instructions: 910000003 cycles: 1071591372 heartbeat IPC: 0.845044 cumulative IPC: 0.73154 (Simulation time: 4 hr 16 min 1 sec) 
Heartbeat CPU 0 instructions: 1080000000 cycles: 1073881578 heartbeat IPC: 0.864835 cumulative IPC: 0.860133 (Simulation time: 4 hr 16 min 32 sec) 
Heartbeat CPU 3 instructions: 1370000001 cycles: 1077225725 heartbeat IPC: 1.15851 cumulative IPC: 1.16816 (Simulation time: 4 hr 17 min 17 sec) 
Heartbeat CPU 2 instructions: 1030000001 cycles: 1082202122 heartbeat IPC: 0.79576 cumulative IPC: 0.799847 (Simulation time: 4 hr 18 min 24 sec) 
Heartbeat CPU 1 instructions: 920000000 cycles: 1083606740 heartbeat IPC: 0.832267 cumulative IPC: 0.732771 (Simulation time: 4 hr 18 min 44 sec) 
Heartbeat CPU 0 instructions: 1090000002 cycles: 1085432331 heartbeat IPC: 0.865745 cumulative IPC: 0.860198 (Simulation time: 4 hr 19 min 8 sec) 
Heartbeat CPU 3 instructions: 1380000000 cycles: 1085791687 heartbeat IPC: 1.16741 cumulative IPC: 1.16816 (Simulation time: 4 hr 19 min 13 sec) 
Heartbeat CPU 3 instructions: 1390000002 cycles: 1094423338 heartbeat IPC: 1.15853 cumulative IPC: 1.16807 (Simulation time: 4 hr 21 min 10 sec) 
Heartbeat CPU 2 instructions: 1040000000 cycles: 1094743747 heartbeat IPC: 0.797345 cumulative IPC: 0.799815 (Simulation time: 4 hr 21 min 14 sec) 
Heartbeat CPU 1 instructions: 930000000 cycles: 1095691698 heartbeat IPC: 0.827475 cumulative IPC: 0.733922 (Simulation time: 4 hr 21 min 27 sec) 
Heartbeat CPU 0 instructions: 1100000000 cycles: 1096986145 heartbeat IPC: 0.865515 cumulative IPC: 0.86026 (Simulation time: 4 hr 21 min 44 sec) 
Heartbeat CPU 3 instructions: 1400000000 cycles: 1103014077 heartbeat IPC: 1.16404 cumulative IPC: 1.16804 (Simulation time: 4 hr 23 min 6 sec) 
Heartbeat CPU 2 instructions: 1050000002 cycles: 1107298367 heartbeat IPC: 0.79652 cumulative IPC: 0.799774 (Simulation time: 4 hr 24 min 4 sec) 
Heartbeat CPU 1 instructions: 940000000 cycles: 1107824493 heartbeat IPC: 0.824212 cumulative IPC: 0.73501 (Simulation time: 4 hr 24 min 11 sec) 
Heartbeat CPU 0 instructions: 1110000003 cycles: 1108551216 heartbeat IPC: 0.864673 cumulative IPC: 0.860311 (Simulation time: 4 hr 24 min 21 sec) 
Heartbeat CPU 3 instructions: 1410000000 cycles: 1111601131 heartbeat IPC: 1.16454 cumulative IPC: 1.16801 (Simulation time: 4 hr 25 min 3 sec) 
Heartbeat CPU 1 instructions: 950000000 cycles: 1119734196 heartbeat IPC: 0.839652 cumulative IPC: 0.736234 (Simulation time: 4 hr 26 min 53 sec) 
Heartbeat CPU 2 instructions: 1060000000 cycles: 1119856413 heartbeat IPC: 0.796302 cumulative IPC: 0.799731 (Simulation time: 4 hr 26 min 54 sec) 
Heartbeat CPU 0 instructions: 1120000000 cycles: 1120121731 heartbeat IPC: 0.864266 cumulative IPC: 0.860356 (Simulation time: 4 hr 26 min 58 sec) 
Heartbeat CPU 3 instructions: 1420000000 cycles: 1120225218 heartbeat IPC: 1.15954 cumulative IPC: 1.16794 (Simulation time: 4 hr 27 min 0 sec) 
Heartbeat CPU 3 instructions: 1430000002 cycles: 1128794960 heartbeat IPC: 1.1669 cumulative IPC: 1.16793 (Simulation time: 4 hr 28 min 56 sec) 
Heartbeat CPU 1 instructions: 960000000 cycles: 1131483310 heartbeat IPC: 0.851128 cumulative IPC: 0.737544 (Simulation time: 4 hr 29 min 32 sec) 
Heartbeat CPU 0 instructions: 1130000000 cycles: 1131693730 heartbeat IPC: 0.864155 cumulative IPC: 0.860398 (Simulation time: 4 hr 29 min 35 sec) 
Heartbeat CPU 2 instructions: 1070000000 cycles: 1132414341 heartbeat IPC: 0.79631 cumulative IPC: 0.79969 (Simulation time: 4 hr 29 min 45 sec) 
Heartbeat CPU 3 instructions: 1440000000 cycles: 1137421933 heartbeat IPC: 1.15915 cumulative IPC: 1.16786 (Simulation time: 4 hr 30 min 53 sec) 
Heartbeat CPU 0 instructions: 1140000000 cycles: 1143236348 heartbeat IPC: 0.866355 cumulative IPC: 0.860464 (Simulation time: 4 hr 32 min 12 sec) 
Heartbeat CPU 1 instructions: 970000000 cycles: 1143490791 heartbeat IPC: 0.832814 cumulative IPC: 0.738641 (Simulation time: 4 hr 32 min 15 sec) 
Heartbeat CPU 2 instructions: 1080000000 cycles: 1144953187 heartbeat IPC: 0.797522 cumulative IPC: 0.799663 (Simulation time: 4 hr 32 min 35 sec) 
Heartbeat CPU 3 instructions: 1450000003 cycles: 1146020299 heartbeat IPC: 1.16301 cumulative IPC: 1.16782 (Simulation time: 4 hr 32 min 49 sec) 
Heartbeat CPU 3 instructions: 1460000000 cycles: 1154616659 heartbeat IPC: 1.16328 cumulative IPC: 1.16778 (Simulation time: 4 hr 34 min 46 sec) 
Heartbeat CPU 0 instructions: 1150000001 cycles: 1154794732 heartbeat IPC: 0.865173 cumulative IPC: 0.860516 (Simulation time: 4 hr 34 min 48 sec) 
Heartbeat CPU 1 instructions: 980000000 cycles: 1155493854 heartbeat IPC: 0.833121 cumulative IPC: 0.739716 (Simulation time: 4 hr 34 min 58 sec) 
Heartbeat CPU 2 instructions: 1090000002 cycles: 1157505293 heartbeat IPC: 0.796679 cumulative IPC: 0.799628 (Simulation time: 4 hr 35 min 25 sec) 
Heartbeat CPU 3 instructions: 1470000000 cycles: 1163273459 heartbeat IPC: 1.15516 cumulative IPC: 1.16768 (Simulation time: 4 hr 36 min 43 sec) 
Heartbeat CPU 0 instructions: 1160000000 cycles: 1166348050 heartbeat IPC: 0.865552 cumulative IPC: 0.86057 (Simulation time: 4 hr 37 min 24 sec) 
Heartbeat CPU 1 instructions: 990000001 cycles: 1167456650 heartbeat IPC: 0.835925 cumulative IPC: 0.740796 (Simulation time: 4 hr 37 min 39 sec) 
Heartbeat CPU 2 instructions: 1100000000 cycles: 1170043172 heartbeat IPC: 0.797583 cumulative IPC: 0.799604 (Simulation time: 4 hr 38 min 15 sec) 
Heartbeat CPU 3 instructions: 1480000000 cycles: 1171835674 heartbeat IPC: 1.16792 cumulative IPC: 1.16768 (Simulation time: 4 hr 38 min 39 sec) 
Heartbeat CPU 0 instructions: 1170000000 cycles: 1177895754 heartbeat IPC: 0.865973 cumulative IPC: 0.860628 (Simulation time: 4 hr 40 min 0 sec) 
Heartbeat CPU 1 instructions: 1000000000 cycles: 1179348359 heartbeat IPC: 0.840922 cumulative IPC: 0.7419 (Simulation time: 4 hr 40 min 21 sec) 
Heartbeat CPU 3 instructions: 1490000000 cycles: 1180479144 heartbeat IPC: 1.15694 cumulative IPC: 1.16759 (Simulation time: 4 hr 40 min 36 sec) 
Heartbeat CPU 2 instructions: 1110000003 cycles: 1182568341 heartbeat IPC: 0.798393 cumulative IPC: 0.79959 (Simulation time: 4 hr 41 min 4 sec) 
Heartbeat CPU 3 instructions: 1500000000 cycles: 1189072818 heartbeat IPC: 1.16365 cumulative IPC: 1.16756 (Simulation time: 4 hr 42 min 32 sec) 
Heartbeat CPU 0 instructions: 1180000000 cycles: 1189453581 heartbeat IPC: 0.865215 cumulative IPC: 0.860677 (Simulation time: 4 hr 42 min 37 sec) 
Heartbeat CPU 1 instructions: 1010000000 cycles: 1191269911 heartbeat IPC: 0.838817 cumulative IPC: 0.74296 (Simulation time: 4 hr 43 min 2 sec) 
Heartbeat CPU 2 instructions: 1120000000 cycles: 1195103086 heartbeat IPC: 0.797782 cumulative IPC: 0.799569 (Simulation time: 4 hr 43 min 54 sec) 
Heartbeat CPU 3 instructions: 1510000003 cycles: 1197684545 heartbeat IPC: 1.16121 cumulative IPC: 1.16751 (Simulation time: 4 hr 44 min 29 sec) 
Heartbeat CPU 0 instructions: 1190000001 cycles: 1201021663 heartbeat IPC: 0.864448 cumulative IPC: 0.860717 (Simulation time: 4 hr 45 min 14 sec) 
Heartbeat CPU 1 instructions: 1020000000 cycles: 1203215558 heartbeat IPC: 0.837125 cumulative IPC: 0.74398 (Simulation time: 4 hr 45 min 44 sec) 
Heartbeat CPU 3 instructions: 1520000000 cycles: 1206325645 heartbeat IPC: 1.15726 cumulative IPC: 1.16743 (Simulation time: 4 hr 46 min 26 sec) 
Heartbeat CPU 2 instructions: 1130000002 cycles: 1207645192 heartbeat IPC: 0.797314 cumulative IPC: 0.799544 (Simulation time: 4 hr 46 min 44 sec) 
Heartbeat CPU 0 instructions: 1200000000 cycles: 1212577122 heartbeat IPC: 0.865392 cumulative IPC: 0.860765 (Simulation time: 4 hr 47 min 51 sec) 
Heartbeat CPU 3 instructions: 1530000001 cycles: 1214891637 heartbeat IPC: 1.16741 cumulative IPC: 1.16743 (Simulation time: 4 hr 48 min 22 sec) 
Heartbeat CPU 1 instructions: 1030000003 cycles: 1215215957 heartbeat IPC: 0.833306 cumulative IPC: 0.744942 (Simulation time: 4 hr 48 min 26 sec) 
Heartbeat CPU 2 instructions: 1140000000 cycles: 1220168357 heartbeat IPC: 0.79852 cumulative IPC: 0.799532 (Simulation time: 4 hr 49 min 33 sec) 
Heartbeat CPU 3 instructions: 1540000000 cycles: 1223521162 heartbeat IPC: 1.15881 cumulative IPC: 1.16736 (Simulation time: 4 hr 50 min 19 sec) 
Heartbeat CPU 0 instructions: 1210000003 cycles: 1224127217 heartbeat IPC: 0.865794 cumulative IPC: 0.860817 (Simulation time: 4 hr 50 min 27 sec) 
Heartbeat CPU 1 instructions: 1040000000 cycles: 1227177531 heartbeat IPC: 0.83601 cumulative IPC: 0.74591 (Simulation time: 4 hr 51 min 8 sec) 
Heartbeat CPU 3 instructions: 1550000001 cycles: 1232111641 heartbeat IPC: 1.16408 cumulative IPC: 1.16734 (Simulation time: 4 hr 52 min 15 sec) 
Heartbeat CPU 2 instructions: 1150000003 cycles: 1232702352 heartbeat IPC: 0.79783 cumulative IPC: 0.799513 (Simulation time: 4 hr 52 min 23 sec) 
Heartbeat CPU 0 instructions: 1220000000 cycles: 1235671504 heartbeat IPC: 0.866229 cumulative IPC: 0.860872 (Simulation time: 4 hr 53 min 3 sec) 
Heartbeat CPU 1 instructions: 1050000003 cycles: 1239032220 heartbeat IPC: 0.843548 cumulative IPC: 0.746927 (Simulation time: 4 hr 53 min 49 sec) 
Heartbeat CPU 3 instructions: 1560000000 cycles: 1240727383 heartbeat IPC: 1.16067 cumulative IPC: 1.16729 (Simulation time: 4 hr 54 min 12 sec) 
Heartbeat CPU 2 instructions: 1160000000 cycles: 1245243196 heartbeat IPC: 0.797394 cumulative IPC: 0.79949 (Simulation time: 4 hr 55 min 13 sec) 
Heartbeat CPU 0 instructions: 1230000000 cycles: 1247221306 heartbeat IPC: 0.865816 cumulative IPC: 0.860922 (Simulation time: 4 hr 55 min 40 sec) 
Heartbeat CPU 3 instructions: 1570000000 cycles: 1249357426 heartbeat IPC: 1.15874 cumulative IPC: 1.16722 (Simulation time: 4 hr 56 min 9 sec) 
Heartbeat CPU 1 instructions: 1060000000 cycles: 1251055272 heartbeat IPC: 0.831735 cumulative IPC: 0.747813 (Simulation time: 4 hr 56 min 32 sec) 
Heartbeat CPU 2 instructions: 1170000002 cycles: 1257752372 heartbeat IPC: 0.799413 cumulative IPC: 0.799489 (Simulation time: 4 hr 58 min 3 sec) 
Heartbeat CPU 3 instructions: 1580000000 cycles: 1257920779 heartbeat IPC: 1.16777 cumulative IPC: 1.16723 (Simulation time: 4 hr 58 min 5 sec) 
Heartbeat CPU 0 instructions: 1240000000 cycles: 1258850235 heartbeat IPC: 0.859924 cumulative IPC: 0.860912 (Simulation time: 4 hr 58 min 17 sec) 
Finished CPU 0 instructions: 1000000000 cycles: 1161562825 cumulative IPC: 0.860909 (Simulation time: 4 hr 59 min 8 sec) 
Heartbeat CPU 1 instructions: 1070000001 cycles: 1263118663 heartbeat IPC: 0.828954 cumulative IPC: 0.748656 (Simulation time: 4 hr 59 min 15 sec) 
Heartbeat CPU 3 instructions: 1590000001 cycles: 1266552754 heartbeat IPC: 1.15848 cumulative IPC: 1.16716 (Simulation time: 5 hr 0 min 2 sec) 
Heartbeat CPU 2 instructions: 1180000000 cycles: 1270273170 heartbeat IPC: 0.798671 cumulative IPC: 0.799481 (Simulation time: 5 hr 0 min 52 sec) 
Heartbeat CPU 0 instructions: 1250000003 cycles: 1270491265 heartbeat IPC: 0.859031 cumulative IPC: 0.860893 (Simulation time: 5 hr 0 min 55 sec) 
Heartbeat CPU 1 instructions: 1080000000 cycles: 1275149091 heartbeat IPC: 0.831226 cumulative IPC: 0.749502 (Simulation time: 5 hr 1 min 58 sec) 
Heartbeat CPU 3 instructions: 1600000000 cycles: 1275149139 heartbeat IPC: 1.16328 cumulative IPC: 1.16714 (Simulation time: 5 hr 1 min 58 sec) 
Heartbeat CPU 0 instructions: 1260000000 cycles: 1282125784 heartbeat IPC: 0.859511 cumulative IPC: 0.86088 (Simulation time: 5 hr 3 min 32 sec) 
Heartbeat CPU 2 instructions: 1190000002 cycles: 1282881578 heartbeat IPC: 0.793122 cumulative IPC: 0.799413 (Simulation time: 5 hr 3 min 43 sec) 
Heartbeat CPU 3 instructions: 1610000000 cycles: 1283785274 heartbeat IPC: 1.15793 cumulative IPC: 1.16707 (Simulation time: 5 hr 3 min 55 sec) 
Heartbeat CPU 1 instructions: 1090000003 cycles: 1287098957 heartbeat IPC: 0.83683 cumulative IPC: 0.750382 (Simulation time: 5 hr 4 min 39 sec) 
Heartbeat CPU 3 instructions: 1620000000 cycles: 1292448472 heartbeat IPC: 1.15431 cumulative IPC: 1.16698 (Simulation time: 5 hr 5 min 52 sec) 
Heartbeat CPU 0 instructions: 1270000002 cycles: 1293758668 heartbeat IPC: 0.859632 cumulative IPC: 0.860867 (Simulation time: 5 hr 6 min 10 sec) 
Heartbeat CPU 2 instructions: 1200000000 cycles: 1295464613 heartbeat IPC: 0.794721 cumulative IPC: 0.799363 (Simulation time: 5 hr 6 min 32 sec) 
Heartbeat CPU 1 instructions: 1100000000 cycles: 1298985304 heartbeat IPC: 0.841301 cumulative IPC: 0.751284 (Simulation time: 5 hr 7 min 20 sec) 
Heartbeat CPU 3 instructions: 1630000002 cycles: 1301005686 heartbeat IPC: 1.1686 cumulative IPC: 1.16699 (Simulation time: 5 hr 7 min 47 sec) 
Heartbeat CPU 0 instructions: 1280000000 cycles: 1305398372 heartbeat IPC: 0.859128 cumulative IPC: 0.860851 (Simulation time: 5 hr 8 min 46 sec) 
Heartbeat CPU 2 instructions: 1210000000 cycles: 1308039229 heartbeat IPC: 0.795253 cumulative IPC: 0.799321 (Simulation time: 5 hr 9 min 20 sec) 
Heartbeat CPU 3 instructions: 1640000000 cycles: 1309654715 heartbeat IPC: 1.1562 cumulative IPC: 1.16691 (Simulation time: 5 hr 9 min 41 sec) 
Heartbeat CPU 1 instructions: 1110000002 cycles: 1312334401 heartbeat IPC: 0.749115 cumulative IPC: 0.75126 (Simulation time: 5 hr 10 min 17 sec) 
Heartbeat CPU 0 instructions: 1290000000 cycles: 1317031401 heartbeat IPC: 0.859621 cumulative IPC: 0.860839 (Simulation time: 5 hr 11 min 19 sec) 
Heartbeat CPU 3 instructions: 1650000000 cycles: 1318218099 heartbeat IPC: 1.16776 cumulative IPC: 1.16692 (Simulation time: 5 hr 11 min 35 sec) 
Heartbeat CPU 2 instructions: 1220000000 cycles: 1320635506 heartbeat IPC: 0.793885 cumulative IPC: 0.799264 (Simulation time: 5 hr 12 min 6 sec) 
Heartbeat CPU 1 instructions: 1120000000 cycles: 1326088220 heartbeat IPC: 0.727071 cumulative IPC: 0.750988 (Simulation time: 5 hr 13 min 18 sec) 
Heartbeat CPU 3 instructions: 1660000000 cycles: 1326821990 heartbeat IPC: 1.16226 cumulative IPC: 1.16688 (Simulation time: 5 hr 13 min 27 sec) 
Heartbeat CPU 0 instructions: 1300000000 cycles: 1328688282 heartbeat IPC: 0.857862 cumulative IPC: 0.860811 (Simulation time: 5 hr 13 min 53 sec) 
Heartbeat CPU 2 instructions: 1230000000 cycles: 1333231187 heartbeat IPC: 0.793923 cumulative IPC: 0.79921 (Simulation time: 5 hr 14 min 52 sec) 
Heartbeat CPU 3 instructions: 1670000003 cycles: 1335444075 heartbeat IPC: 1.15981 cumulative IPC: 1.16683 (Simulation time: 5 hr 15 min 22 sec) 
Heartbeat CPU 1 instructions: 1130000001 cycles: 1339430035 heartbeat IPC: 0.749523 cumulative IPC: 0.750972 (Simulation time: 5 hr 16 min 14 sec) 
Heartbeat CPU 0 instructions: 1310000003 cycles: 1340325911 heartbeat IPC: 0.859282 cumulative IPC: 0.860796 (Simulation time: 5 hr 16 min 27 sec) 
Heartbeat CPU 3 instructions: 1680000000 cycles: 1343992925 heartbeat IPC: 1.16975 cumulative IPC: 1.16685 (Simulation time: 5 hr 17 min 14 sec) 
Heartbeat CPU 2 instructions: 1240000000 cycles: 1345829796 heartbeat IPC: 0.793738 cumulative IPC: 0.799154 (Simulation time: 5 hr 17 min 39 sec) 
Heartbeat CPU 0 instructions: 1320000000 cycles: 1351976210 heartbeat IPC: 0.858347 cumulative IPC: 0.860773 (Simulation time: 5 hr 19 min 0 sec) 
Finished CPU 2 instructions: 1000000000 cycles: 1251372465 cumulative IPC: 0.799123 (Simulation time: 5 hr 19 min 6 sec) 
Heartbeat CPU 1 instructions: 1140000000 cycles: 1352587108 heartbeat IPC: 0.760047 cumulative IPC: 0.751068 (Simulation time: 5 hr 19 min 8 sec) 
Heartbeat CPU 3 instructions: 1690000001 cycles: 1352641623 heartbeat IPC: 1.15624 cumulative IPC: 1.16678 (Simulation time: 5 hr 19 min 9 sec) 
Heartbeat CPU 2 instructions: 1250000000 cycles: 1358433550 heartbeat IPC: 0.793414 cumulative IPC: 0.799097 (Simulation time: 5 hr 20 min 26 sec) 
Heartbeat CPU 3 instructions: 1700000000 cycles: 1361201799 heartbeat IPC: 1.1682 cumulative IPC: 1.16679 (Simulation time: 5 hr 21 min 2 sec) 
Heartbeat CPU 0 instructions: 1330000000 cycles: 1363611555 heartbeat IPC: 0.85945 cumulative IPC: 0.860761 (Simulation time: 5 hr 21 min 34 sec) 
Heartbeat CPU 1 instructions: 1150000000 cycles: 1366175482 heartbeat IPC: 0.735923 cumulative IPC: 0.750905 (Simulation time: 5 hr 22 min 8 sec) 
Heartbeat CPU 3 instructions: 1710000003 cycles: 1369829654 heartbeat IPC: 1.15904 cumulative IPC: 1.16674 (Simulation time: 5 hr 22 min 56 sec) 
Heartbeat CPU 2 instructions: 1260000000 cycles: 1371031078 heartbeat IPC: 0.793807 cumulative IPC: 0.799044 (Simulation time: 5 hr 23 min 12 sec) 
Heartbeat CPU 0 instructions: 1340000000 cycles: 1375252590 heartbeat IPC: 0.85903 cumulative IPC: 0.860745 (Simulation time: 5 hr 24 min 9 sec) 
Heartbeat CPU 3 instructions: 1720000000 cycles: 1378449785 heartbeat IPC: 1.16007 cumulative IPC: 1.16669 (Simulation time: 5 hr 24 min 52 sec) 
Heartbeat CPU 1 instructions: 1160000000 cycles: 1378709574 heartbeat IPC: 0.797824 cumulative IPC: 0.751365 (Simulation time: 5 hr 24 min 56 sec) 
Heartbeat CPU 2 instructions: 1270000000 cycles: 1383616467 heartbeat IPC: 0.794572 cumulative IPC: 0.799001 (Simulation time: 5 hr 26 min 2 sec) 
Heartbeat CPU 0 instructions: 1350000001 cycles: 1386896395 heartbeat IPC: 0.858826 cumulative IPC: 0.860728 (Simulation time: 5 hr 26 min 47 sec) 
Heartbeat CPU 3 instructions: 1730000000 cycles: 1387098598 heartbeat IPC: 1.15623 cumulative IPC: 1.16662 (Simulation time: 5 hr 26 min 49 sec) 
Heartbeat CPU 1 instructions: 1170000000 cycles: 1390707734 heartbeat IPC: 0.833461 cumulative IPC: 0.752129 (Simulation time: 5 hr 27 min 38 sec) 
Heartbeat CPU 3 instructions: 1740000000 cycles: 1395678181 heartbeat IPC: 1.16556 cumulative IPC: 1.16662 (Simulation time: 5 hr 28 min 45 sec) 
Heartbeat CPU 2 instructions: 1280000000 cycles: 1396215727 heartbeat IPC: 0.793697 cumulative IPC: 0.798949 (Simulation time: 5 hr 28 min 52 sec) 
Heartbeat CPU 0 instructions: 1360000000 cycles: 1398516801 heartbeat IPC: 0.860555 cumulative IPC: 0.860727 (Simulation time: 5 hr 29 min 24 sec) 
Heartbeat CPU 1 instructions: 1180000000 cycles: 1402730901 heartbeat IPC: 0.831728 cumulative IPC: 0.752864 (Simulation time: 5 hr 30 min 20 sec) 
Heartbeat CPU 3 instructions: 1750000003 cycles: 1404311413 heartbeat IPC: 1.15832 cumulative IPC: 1.16656 (Simulation time: 5 hr 30 min 42 sec) 
Heartbeat CPU 2 instructions: 1290000000 cycles: 1408846953 heartbeat IPC: 0.791689 cumulative IPC: 0.798879 (Simulation time: 5 hr 31 min 43 sec) 
Heartbeat CPU 0 instructions: 1370000001 cycles: 1410160923 heartbeat IPC: 0.858802 cumulative IPC: 0.860709 (Simulation time: 5 hr 32 min 1 sec) 
Heartbeat CPU 3 instructions: 1760000000 cycles: 1412956670 heartbeat IPC: 1.1567 cumulative IPC: 1.1665 (Simulation time: 5 hr 32 min 38 sec) 
Heartbeat CPU 1 instructions: 1190000001 cycles: 1414566396 heartbeat IPC: 0.844916 cumulative IPC: 0.753694 (Simulation time: 5 hr 33 min 0 sec) 
Heartbeat CPU 2 instructions: 1300000000 cycles: 1421417542 heartbeat IPC: 0.795508 cumulative IPC: 0.798847 (Simulation time: 5 hr 34 min 33 sec) 
Heartbeat CPU 3 instructions: 1770000002 cycles: 1421566309 heartbeat IPC: 1.16149 cumulative IPC: 1.16646 (Simulation time: 5 hr 34 min 35 sec) 
Heartbeat CPU 0 instructions: 1380000000 cycles: 1421793938 heartbeat IPC: 0.859622 cumulative IPC: 0.8607 (Simulation time: 5 hr 34 min 38 sec) 
Heartbeat CPU 1 instructions: 1200000000 cycles: 1426621914 heartbeat IPC: 0.829496 cumulative IPC: 0.754383 (Simulation time: 5 hr 35 min 43 sec) 
Finished CPU 1 instructions: 1000000003 cycles: 1325586166 cumulative IPC: 0.754383 (Simulation time: 5 hr 35 min 43 sec) 

CPU 0 Branch Prediction Accuracy: 99.9421% MPKI: 0.143667

CPU 1 Branch Prediction Accuracy: 99.7939% MPKI: 0.114253

CPU 2 Branch Prediction Accuracy: 99.947% MPKI: 0.129667

CPU 3 Branch Prediction Accuracy: 99.975% MPKI: 0.0042993

ChampSim completed all CPUs

Total Simulation Statistics (not including warmup)

CPU 0 cumulative IPC: 0.8607 instructions: 1140931814 cycles: 1325586166
L1D TOTAL     ACCESS:  244529792  HIT:  215592806  MISS:   28936986
L1D LOAD      ACCESS:  223367432  HIT:  194459409  MISS:   28908023
L1D RFO       ACCESS:   21162360  HIT:   21133397  MISS:      28963
L1D PREFETCH  ACCESS:          0  HIT:          0  MISS:          0
L1D WRITEBACK ACCESS:          0  HIT:          0  MISS:          0
L1I TOTAL     ACCESS:  397254878  HIT:  397254877  MISS:          1
L1I LOAD      ACCESS:  397254878  HIT:  397254877  MISS:          1
L1I RFO       ACCESS:          0  HIT:          0  MISS:          0
L1I PREFETCH  ACCESS:          0  HIT:          0  MISS:          0
L1I WRITEBACK ACCESS:          0  HIT:          0  MISS:          0
L2C TOTAL     ACCESS:   60426610  HIT:   31765868  MISS:   28660742
L2C LOAD      ACCESS:   28908023  HIT:   27567500  MISS:    1340523
L2C RFO       ACCESS:      28963  HIT:      15956  MISS:      13007
L2C PREFETCH  ACCESS:   31447221  HIT:    4140014  MISS:   27307207
L2C WRITEBACK ACCESS:      42403  HIT:      42398  MISS:          5

Avg Lookahead Depth:	6.37418
TOTAL: 1.43981e+08	L2C: 1.24527e+08	LLC: 1.94542e+07	GOOD_L2C: 9.54691e+07
Printing all the perceptron weights to: perc_weights_0.csv
LLC TOTAL     ACCESS:   30945357  HIT:   30823792  MISS:     121565
LLC LOAD      ACCESS:    1244283  HIT:    1231705  MISS:      12578
LLC RFO       ACCESS:      12998  HIT:      10220  MISS:       2778
LLC PREFETCH  ACCESS:   29645859  HIT:   29542513  MISS:     103346
LLC WRITEBACK ACCESS:      42217  HIT:      39354  MISS:       2863

CPU 1 cumulative IPC: 0.754383 instructions: 1000000003 cycles: 1325586166
L1D TOTAL     ACCESS:  407796432  HIT:  374938420  MISS:   32858012
L1D LOAD      ACCESS:  320973230  HIT:  292185330  MISS:   28787900
L1D RFO       ACCESS:   86823202  HIT:   82753090  MISS:    4070112
L1D PREFETCH  ACCESS:          0  HIT:          0  MISS:          0
L1D WRITEBACK ACCESS:          0  HIT:          0  MISS:          0
L1I TOTAL     ACCESS:  309107528  HIT:  309107195  MISS:        333
L1I LOAD      ACCESS:  309107528  HIT:  309107195  MISS:        333
L1I RFO       ACCESS:          0  HIT:          0  MISS:          0
L1I PREFETCH  ACCESS:          0  HIT:          0  MISS:          0
L1I WRITEBACK ACCESS:          0  HIT:          0  MISS:          0
L2C TOTAL     ACCESS:   58133471  HIT:   45700958  MISS:   12432513
L2C LOAD      ACCESS:   28785986  HIT:   25137404  MISS:    3648582
L2C RFO       ACCESS:    4068972  HIT:    1361413  MISS:    2707559
L2C PREFETCH  ACCESS:   19911508  HIT:   13836875  MISS:    6074633
L2C WRITEBACK ACCESS:    5367005  HIT:    5365266  MISS:       1739

Avg Lookahead Depth:	6.37418
TOTAL: 1.43981e+08	L2C: 1.24527e+08	LLC: 1.94542e+07	GOOD_L2C: 9.54691e+07
Printing all the perceptron weights to: perc_weights_0.csv
LLC TOTAL     ACCESS:   21378338  HIT:   15871583  MISS:    5506755
LLC LOAD      ACCESS:    3620941  HIT:    2929214  MISS:     691727
LLC RFO       ACCESS:    2707555  HIT:    1902055  MISS:     805500
LLC PREFETCH  ACCESS:   11261066  HIT:    7281050  MISS:    3980016
LLC WRITEBACK ACCESS:    3788776  HIT:    3759264  MISS:      29512

CPU 2 cumulative IPC: 0.798835 instructions: 1058924834 cycles: 1325586167
L1D TOTAL     ACCESS:  219952913  HIT:  191242966  MISS:   28709947
L1D LOAD      ACCESS:  198822701  HIT:  170112755  MISS:   28709946
L1D RFO       ACCESS:   21130212  HIT:   21130211  MISS:          1
L1D PREFETCH  ACCESS:          0  HIT:          0  MISS:          0
L1D WRITEBACK ACCESS:          0  HIT:          0  MISS:          0
L1I TOTAL     ACCESS:  366235153  HIT:  366235142  MISS:         11
L1I LOAD      ACCESS:  366235153  HIT:  366235142  MISS:         11
L1I RFO       ACCESS:          0  HIT:          0  MISS:          0
L1I PREFETCH  ACCESS:          0  HIT:          0  MISS:          0
L1I WRITEBACK ACCESS:          0  HIT:          0  MISS:          0
L2C TOTAL     ACCESS:   60101317  HIT:   31130893  MISS:   28970424
L2C LOAD      ACCESS:   28709957  HIT:   27237676  MISS:    1472281
L2C RFO       ACCESS:          1  HIT:          1  MISS:          0
L2C PREFETCH  ACCESS:   31389164  HIT:    3891021  MISS:   27498143
L2C WRITEBACK ACCESS:       2195  HIT:       2195  MISS:          0

Avg Lookahead Depth:	6.37418
TOTAL: 1.43981e+08	L2C: 1.24527e+08	LLC: 1.94542e+07	GOOD_L2C: 9.54691e+07
Printing all the perceptron weights to: perc_weights_0.csv
LLC TOTAL     ACCESS:   32853998  HIT:   31716636  MISS:    1137362
LLC LOAD      ACCESS:    1263486  HIT:    1215435  MISS:      48051
LLC RFO       ACCESS:          0  HIT:          0  MISS:          0
LLC PREFETCH  ACCESS:   31588544  HIT:   30499235  MISS:    1089309
LLC WRITEBACK ACCESS:       1968  HIT:       1966  MISS:          2

CPU 3 cumulative IPC: 1.16642 instructions: 1546187847 cycles: 1325586167
L1D TOTAL     ACCESS:  330289914  HIT:  309828000  MISS:   20461914
L1D LOAD      ACCESS:  221783104  HIT:  201341571  MISS:   20441533
L1D RFO       ACCESS:  108506810  HIT:  108486429  MISS:      20381
L1D PREFETCH  ACCESS:          0  HIT:          0  MISS:          0
L1D WRITEBACK ACCESS:          0  HIT:          0  MISS:          0
L1I TOTAL     ACCESS:  320832823  HIT:  320832823  MISS:          0
L1I LOAD      ACCESS:  320832823  HIT:  320832823  MISS:          0
L1I RFO       ACCESS:          0  HIT:          0  MISS:          0
L1I PREFETCH  ACCESS:          0  HIT:          0  MISS:          0
L1I WRITEBACK ACCESS:          0  HIT:          0  MISS:          0
L2C TOTAL     ACCESS:   58616510  HIT:   38258987  MISS:   20357523
L2C LOAD      ACCESS:   20441533  HIT:   19622693  MISS:     818840
L2C RFO       ACCESS:      20381  HIT:       4490  MISS:      15891
L2C PREFETCH  ACCESS:   24567933  HIT:    5045141  MISS:   19522792
L2C WRITEBACK ACCESS:   13586663  HIT:   13586663  MISS:          0

Avg Lookahead Depth:	6.37418
TOTAL: 1.43981e+08	L2C: 1.24527e+08	LLC: 1.94542e+07	GOOD_L2C: 9.54691e+07
Printing all the perceptron weights to: perc_weights_0.csv
LLC TOTAL     ACCESS:   34123824  HIT:   20556645  MISS:   13567179
LLC LOAD      ACCESS:     555263  HIT:     230232  MISS:     325031
LLC RFO       ACCESS:      15887  HIT:      15886  MISS:          1
LLC PREFETCH  ACCESS:   19972092  HIT:    6729945  MISS:   13242147
LLC WRITEBACK ACCESS:   13580582  HIT:   13580582  MISS:          0

Region of Interest Statistics

CPU 0 cumulative IPC: 0.860909 instructions: 1000000000 cycles: 1161562825
L1D TOTAL     ACCESS:  214485147  HIT:  189115639  MISS:   25369508
L1D LOAD      ACCESS:  195902682  HIT:  170560102  MISS:   25342580
L1D RFO       ACCESS:   18582465  HIT:   18555537  MISS:      26928
L1D PREFETCH  ACCESS:          0  HIT:          0  MISS:          0
L1D WRITEBACK ACCESS:          0  HIT:          0  MISS:          0
L1D PREFETCH  REQUESTED:          0  ISSUED:          0  USEFUL:          0  USELESS:          0
L1I TOTAL     ACCESS:  347745831  HIT:  347745830  MISS:          1
L1I LOAD      ACCESS:  347745831  HIT:  347745830  MISS:          1
L1I RFO       ACCESS:          0  HIT:          0  MISS:          0
L1I PREFETCH  ACCESS:          0  HIT:          0  MISS:          0
L1I WRITEBACK ACCESS:          0  HIT:          0  MISS:          0
L1I PREFETCH  REQUESTED:          0  ISSUED:          0  USEFUL:          0  USELESS:          0
L2C TOTAL     ACCESS:   53014921  HIT:   27988499  MISS:   25026422
L2C LOAD      ACCESS:   25342580  HIT:   24164109  MISS:    1178471
L2C RFO       ACCESS:      26928  HIT:      14933  MISS:      11995
L2C PREFETCH  ACCESS:   27606025  HIT:    3770074  MISS:   23835951
L2C WRITEBACK ACCESS:      39388  HIT:      39383  MISS:          5
L2C PREFETCH  REQUESTED:   41643625  ISSUED:   41643622  USEFUL:   30645085  USELESS:    1030666
LLC TOTAL     ACCESS:   27070963  HIT:   26975399  MISS:      95564
LLC LOAD      ACCESS:    1092128  HIT:    1080697  MISS:      11431
LLC RFO       ACCESS:      11986  HIT:       9418  MISS:       2568
LLC PREFETCH  ACCESS:   25927662  HIT:   25848960  MISS:      78702
LLC WRITEBACK ACCESS:      39187  HIT:      36324  MISS:       2863
LLC PREFETCH  REQUESTED:          0  ISSUED:          0  USEFUL:    1842865  USELESS:   22241706
Major fault: 0 Minor fault: 4152

CPU 1 cumulative IPC: 0.754383 instructions: 1000000003 cycles: 1325586166
L1D TOTAL     ACCESS:  407796432  HIT:  374938420  MISS:   32858012
L1D LOAD      ACCESS:  320973230  HIT:  292185330  MISS:   28787900
L1D RFO       ACCESS:   86823202  HIT:   82753090  MISS:    4070112
L1D PREFETCH  ACCESS:          0  HIT:          0  MISS:          0
L1D WRITEBACK ACCESS:          0  HIT:          0  MISS:          0
L1D PREFETCH  REQUESTED:          0  ISSUED:          0  USEFUL:          0  USELESS:          0
L1I TOTAL     ACCESS:  309107528  HIT:  309107195  MISS:        333
L1I LOAD      ACCESS:  309107528  HIT:  309107195  MISS:        333
L1I RFO       ACCESS:          0  HIT:          0  MISS:          0
L1I PREFETCH  ACCESS:          0  HIT:          0  MISS:          0
L1I WRITEBACK ACCESS:          0  HIT:          0  MISS:          0
L1I PREFETCH  REQUESTED:          0  ISSUED:          0  USEFUL:          0  USELESS:          0
L2C TOTAL     ACCESS:   58133471  HIT:   45700958  MISS:   12432513
L2C LOAD      ACCESS:   28785986  HIT:   25137404  MISS:    3648582
L2C RFO       ACCESS:    4068972  HIT:    1361413  MISS:    2707559
L2C PREFETCH  ACCESS:   19911508  HIT:   13836875  MISS:    6074633
L2C WRITEBACK ACCESS:    5367005  HIT:    5365266  MISS:       1739
L2C PREFETCH  REQUESTED:   27129417  ISSUED:   27119425  USEFUL:    6549025  USELESS:     425550
LLC TOTAL     ACCESS:   21378338  HIT:   15871583  MISS:    5506755
LLC LOAD      ACCESS:    3620941  HIT:    2929214  MISS:     691727
LLC RFO       ACCESS:    2707555  HIT:    1902055  MISS:     805500
LLC PREFETCH  ACCESS:   11261066  HIT:    7281050  MISS:    3980016
LLC WRITEBACK ACCESS:    3788776  HIT:    3759264  MISS:      29512
LLC PREFETCH  REQUESTED:          0  ISSUED:          0  USEFUL:    1842865  USELESS:   22241706
Major fault: 0 Minor fault: 111193

CPU 2 cumulative IPC: 0.799123 instructions: 1000000000 cycles: 1251372465
L1D TOTAL     ACCESS:  207832513  HIT:  180713080  MISS:   27119433
L1D LOAD      ACCESS:  187905519  HIT:  160786087  MISS:   27119432
L1D RFO       ACCESS:   19926994  HIT:   19926993  MISS:          1
L1D PREFETCH  ACCESS:          0  HIT:          0  MISS:          0
L1D WRITEBACK ACCESS:          0  HIT:          0  MISS:          0
L1D PREFETCH  REQUESTED:          0  ISSUED:          0  USEFUL:          0  USELESS:          0
L1I TOTAL     ACCESS:  345884719  HIT:  345884708  MISS:         11
L1I LOAD      ACCESS:  345884719  HIT:  345884708  MISS:         11
L1I RFO       ACCESS:          0  HIT:          0  MISS:          0
L1I PREFETCH  ACCESS:          0  HIT:          0  MISS:          0
L1I WRITEBACK ACCESS:          0  HIT:          0  MISS:          0
L1I PREFETCH  REQUESTED:          0  ISSUED:          0  USEFUL:          0  USELESS:          0
L2C TOTAL     ACCESS:   56794948  HIT:   29486579  MISS:   27308369
L2C LOAD      ACCESS:   27119443  HIT:   25741818  MISS:    1377625
L2C RFO       ACCESS:          1  HIT:          1  MISS:          0
L2C PREFETCH  ACCESS:   29673380  HIT:    3742636  MISS:   25930744
L2C WRITEBACK ACCESS:       2124  HIT:       2124  MISS:          0
L2C PREFETCH  REQUESTED:   45676116  ISSUED:   45676116  USEFUL:   32370137  USELESS:    1218010
LLC TOTAL     ACCESS:   30921764  HIT:   29804818  MISS:    1116946
LLC LOAD      ACCESS:    1183795  HIT:    1136482  MISS:      47313
LLC RFO       ACCESS:          0  HIT:          0  MISS:          0
LLC PREFETCH  ACCESS:   29736072  HIT:   28666441  MISS:    1069631
LLC WRITEBACK ACCESS:       1897  HIT:       1895  MISS:          2
LLC PREFETCH  REQUESTED:          0  ISSUED:          0  USEFUL:    1842865  USELESS:   22241706
Major fault: 0 Minor fault: 4700

CPU 3 cumulative IPC: 1.16898 instructions: 1000000001 cycles: 855447948
L1D TOTAL     ACCESS:  213624838  HIT:  200391056  MISS:   13233782
L1D LOAD      ACCESS:  143448116  HIT:  130227514  MISS:   13220602
L1D RFO       ACCESS:   70176722  HIT:   70163542  MISS:      13180
L1D PREFETCH  ACCESS:          0  HIT:          0  MISS:          0
L1D WRITEBACK ACCESS:          0  HIT:          0  MISS:          0
L1D PREFETCH  REQUESTED:          0  ISSUED:          0  USEFUL:          0  USELESS:          0
L1I TOTAL     ACCESS:  207515170  HIT:  207515170  MISS:          0
L1I LOAD      ACCESS:  207515170  HIT:  207515170  MISS:          0
L1I RFO       ACCESS:          0  HIT:          0  MISS:          0
L1I PREFETCH  ACCESS:          0  HIT:          0  MISS:          0
L1I WRITEBACK ACCESS:          0  HIT:          0  MISS:          0
L1I PREFETCH  REQUESTED:          0  ISSUED:          0  USEFUL:          0  USELESS:          0
L2C TOTAL     ACCESS:   38010009  HIT:   24839249  MISS:   13170760
L2C LOAD      ACCESS:   13220602  HIT:   12706716  MISS:     513886
L2C RFO       ACCESS:      13180  HIT:       2822  MISS:      10358
L2C PREFETCH  ACCESS:   15989037  HIT:    3342521  MISS:   12646516
L2C WRITEBACK ACCESS:    8787190  HIT:    8787190  MISS:          0
L2C PREFETCH  REQUESTED:   29532101  ISSUED:   29532101  USEFUL:   22389452  USELESS:      74216
LLC TOTAL     ACCESS:   22071979  HIT:   13297639  MISS:    8774340
LLC LOAD      ACCESS:     359852  HIT:     149317  MISS:     210535
LLC RFO       ACCESS:      10357  HIT:      10356  MISS:          1
LLC PREFETCH  ACCESS:   12918553  HIT:    4354749  MISS:    8563804
LLC WRITEBACK ACCESS:    8783217  HIT:    8783217  MISS:          0
LLC PREFETCH  REQUESTED:          0  ISSUED:          0  USEFUL:    1842865  USELESS:   22241706
Major fault: 0 Minor fault: 243730

Avg Lookahead Depth:	6.37418
TOTAL: 1.43981e+08	L2C: 1.24527e+08	LLC: 1.94542e+07	GOOD_L2C: 9.54691e+07
Printing all the perceptron weights to: perc_weights_0.csv

Avg Lookahead Depth:	6.37418
TOTAL: 1.43981e+08	L2C: 1.24527e+08	LLC: 1.94542e+07	GOOD_L2C: 9.54691e+07
Printing all the perceptron weights to: perc_weights_0.csv

Avg Lookahead Depth:	6.37418
TOTAL: 1.43981e+08	L2C: 1.24527e+08	LLC: 1.94542e+07	GOOD_L2C: 9.54691e+07
Printing all the perceptron weights to: perc_weights_0.csv

Avg Lookahead Depth:	6.37418
TOTAL: 1.43981e+08	L2C: 1.24527e+08	LLC: 1.94542e+07	GOOD_L2C: 9.54691e+07
Printing all the perceptron weights to: perc_weights_0.csv

DRAM Statistics
 CHANNEL 0
 RQ ROW_BUFFER_HIT:    5814502  ROW_BUFFER_MISS:    4326108
 DBUS_CONGESTED:   18915425
 WQ ROW_BUFFER_HIT:    1778296  ROW_BUFFER_MISS:    5429842  FULL:          0

 CHANNEL 1
 RQ ROW_BUFFER_HIT:    5790027  ROW_BUFFER_MISS:    4368646
 DBUS_CONGESTED:   18915425
 WQ ROW_BUFFER_HIT:    1755367  ROW_BUFFER_MISS:    5453198  FULL:          0

 AVG_CONGESTED_CYCLE: 14
