Initialize SIGNATURE TABLE
ST_SET: 1
ST_WAY: 256
ST_TAG_BIT: 16
ST_TAG_MASK: ffff

Initialize PATTERN TABLE
PT_SET: 512
PT_WAY: 4
SIG_DELTA_BIT: 7
C_SIG_BIT: 4
C_DELTA_BIT: 4

Initialize PREFETCH FILTER
FILTER_SET: 1024

Initialize PERCEPTRON
PERC_ENTRIES: 4096
PERC_FEATURES: 9

*** ChampSim Multicore Out-of-Order Simulator ***

Warmup Instructions: 200000000
Simulation Instructions: 1000000000
Number of CPUs: 4
LLC sets: 8192
LLC ways: 16
Off-chip DRAM Size: 8192 MB Channels: 2 Width: 64-bit Data Rate: 1600 MT/s

CPU 0 runs /scratch/user/djimenez/champsim-traces/speccpu2017/xz/654.roms_s/654.roms_s-294B.champsimtrace.xz
CPU 1 runs /scratch/user/djimenez/champsim-traces/speccpu2017/xz/603.bwaves_s/603.bwaves_s-2609B.champsimtrace.xz
CPU 2 runs /scratch/user/djimenez/champsim-traces/speccpu2017/xz/605.mcf_s/605.mcf_s-665B.champsimtrace.xz
CPU 3 runs /scratch/user/djimenez/champsim-traces/speccpu2017/xz/605.mcf_s/605.mcf_s-1152B.champsimtrace.xz
Heartbeat CPU 0 instructions: 10000003 cycles: 4879428 heartbeat IPC: 2.04942 cumulative IPC: 2.04942 (Simulation time: 0 hr 1 min 24 sec) 
Heartbeat CPU 1 instructions: 10000001 cycles: 5273875 heartbeat IPC: 1.89614 cumulative IPC: 1.89614 (Simulation time: 0 hr 1 min 31 sec) 
Heartbeat CPU 2 instructions: 10000001 cycles: 6505529 heartbeat IPC: 1.53715 cumulative IPC: 1.53715 (Simulation time: 0 hr 1 min 52 sec) 
Heartbeat CPU 3 instructions: 10000001 cycles: 6544609 heartbeat IPC: 1.52798 cumulative IPC: 1.52798 (Simulation time: 0 hr 1 min 52 sec) 
Heartbeat CPU 0 instructions: 20000000 cycles: 9758699 heartbeat IPC: 2.04949 cumulative IPC: 2.04945 (Simulation time: 0 hr 2 min 48 sec) 
Heartbeat CPU 1 instructions: 20000000 cycles: 10549254 heartbeat IPC: 1.8956 cumulative IPC: 1.89587 (Simulation time: 0 hr 3 min 1 sec) 
Heartbeat CPU 2 instructions: 20000000 cycles: 12998639 heartbeat IPC: 1.54009 cumulative IPC: 1.53862 (Simulation time: 0 hr 3 min 43 sec) 
Heartbeat CPU 3 instructions: 20000000 cycles: 13092108 heartbeat IPC: 1.5273 cumulative IPC: 1.52764 (Simulation time: 0 hr 3 min 45 sec) 
Heartbeat CPU 0 instructions: 30000002 cycles: 14637803 heartbeat IPC: 2.04956 cumulative IPC: 2.04949 (Simulation time: 0 hr 4 min 12 sec) 
Heartbeat CPU 1 instructions: 30000000 cycles: 15821046 heartbeat IPC: 1.89689 cumulative IPC: 1.89621 (Simulation time: 0 hr 4 min 32 sec) 
Heartbeat CPU 2 instructions: 30000001 cycles: 19483529 heartbeat IPC: 1.54205 cumulative IPC: 1.53976 (Simulation time: 0 hr 5 min 35 sec) 
Heartbeat CPU 0 instructions: 40000000 cycles: 19516940 heartbeat IPC: 2.04954 cumulative IPC: 2.0495 (Simulation time: 0 hr 5 min 35 sec) 
Heartbeat CPU 3 instructions: 30000001 cycles: 19626120 heartbeat IPC: 1.53045 cumulative IPC: 1.52858 (Simulation time: 0 hr 5 min 37 sec) 
Heartbeat CPU 1 instructions: 40000000 cycles: 21094878 heartbeat IPC: 1.89615 cumulative IPC: 1.89619 (Simulation time: 0 hr 6 min 3 sec) 
Heartbeat CPU 0 instructions: 50000000 cycles: 24396281 heartbeat IPC: 2.04946 cumulative IPC: 2.04949 (Simulation time: 0 hr 6 min 59 sec) 
Heartbeat CPU 2 instructions: 40000000 cycles: 25983664 heartbeat IPC: 1.53843 cumulative IPC: 1.53943 (Simulation time: 0 hr 7 min 26 sec) 
Heartbeat CPU 3 instructions: 40000000 cycles: 26168223 heartbeat IPC: 1.52856 cumulative IPC: 1.52857 (Simulation time: 0 hr 7 min 30 sec) 
Heartbeat CPU 1 instructions: 50000002 cycles: 26371773 heartbeat IPC: 1.89505 cumulative IPC: 1.89597 (Simulation time: 0 hr 7 min 33 sec) 
Heartbeat CPU 0 instructions: 60000000 cycles: 29275722 heartbeat IPC: 2.04942 cumulative IPC: 2.04948 (Simulation time: 0 hr 8 min 23 sec) 
Heartbeat CPU 1 instructions: 60000000 cycles: 31645187 heartbeat IPC: 1.8963 cumulative IPC: 1.89602 (Simulation time: 0 hr 9 min 4 sec) 
Heartbeat CPU 2 instructions: 50000000 cycles: 32488452 heartbeat IPC: 1.53733 cumulative IPC: 1.53901 (Simulation time: 0 hr 9 min 18 sec) 
Heartbeat CPU 3 instructions: 50000000 cycles: 32704601 heartbeat IPC: 1.5299 cumulative IPC: 1.52884 (Simulation time: 0 hr 9 min 22 sec) 
Heartbeat CPU 0 instructions: 70000003 cycles: 34155056 heartbeat IPC: 2.04946 cumulative IPC: 2.04948 (Simulation time: 0 hr 9 min 47 sec) 
Heartbeat CPU 1 instructions: 70000000 cycles: 36920355 heartbeat IPC: 1.89567 cumulative IPC: 1.89597 (Simulation time: 0 hr 10 min 34 sec) 
Heartbeat CPU 2 instructions: 60000000 cycles: 38988291 heartbeat IPC: 1.5385 cumulative IPC: 1.53892 (Simulation time: 0 hr 11 min 10 sec) 
Heartbeat CPU 0 instructions: 80000000 cycles: 39034268 heartbeat IPC: 2.04951 cumulative IPC: 2.04948 (Simulation time: 0 hr 11 min 11 sec) 
Heartbeat CPU 3 instructions: 60000000 cycles: 39232896 heartbeat IPC: 1.53179 cumulative IPC: 1.52933 (Simulation time: 0 hr 11 min 14 sec) 
Heartbeat CPU 1 instructions: 80000000 cycles: 42194984 heartbeat IPC: 1.89587 cumulative IPC: 1.89596 (Simulation time: 0 hr 12 min 5 sec) 
Heartbeat CPU 0 instructions: 90000000 cycles: 43913521 heartbeat IPC: 2.04949 cumulative IPC: 2.04948 (Simulation time: 0 hr 12 min 35 sec) 
Heartbeat CPU 2 instructions: 70000002 cycles: 45508299 heartbeat IPC: 1.53374 cumulative IPC: 1.53818 (Simulation time: 0 hr 13 min 2 sec) 
Heartbeat CPU 3 instructions: 70000000 cycles: 45778330 heartbeat IPC: 1.52778 cumulative IPC: 1.52911 (Simulation time: 0 hr 13 min 7 sec) 
Heartbeat CPU 1 instructions: 90000002 cycles: 47467847 heartbeat IPC: 1.8965 cumulative IPC: 1.89602 (Simulation time: 0 hr 13 min 36 sec) 
Heartbeat CPU 0 instructions: 100000000 cycles: 48792768 heartbeat IPC: 2.0495 cumulative IPC: 2.04948 (Simulation time: 0 hr 13 min 59 sec) 
Heartbeat CPU 2 instructions: 80000000 cycles: 52011552 heartbeat IPC: 1.53769 cumulative IPC: 1.53812 (Simulation time: 0 hr 14 min 54 sec) 
Heartbeat CPU 3 instructions: 80000000 cycles: 52297080 heartbeat IPC: 1.53404 cumulative IPC: 1.52972 (Simulation time: 0 hr 14 min 59 sec) 
Heartbeat CPU 1 instructions: 100000000 cycles: 52742301 heartbeat IPC: 1.89593 cumulative IPC: 1.89601 (Simulation time: 0 hr 15 min 7 sec) 
Heartbeat CPU 0 instructions: 110000001 cycles: 53671355 heartbeat IPC: 2.04977 cumulative IPC: 2.04951 (Simulation time: 0 hr 15 min 23 sec) 
Heartbeat CPU 1 instructions: 110000002 cycles: 58017853 heartbeat IPC: 1.89554 cumulative IPC: 1.89597 (Simulation time: 0 hr 16 min 37 sec) 
Heartbeat CPU 2 instructions: 90000002 cycles: 58527719 heartbeat IPC: 1.53464 cumulative IPC: 1.53773 (Simulation time: 0 hr 16 min 46 sec) 
Heartbeat CPU 0 instructions: 120000000 cycles: 58550468 heartbeat IPC: 2.04955 cumulative IPC: 2.04951 (Simulation time: 0 hr 16 min 47 sec) 
Heartbeat CPU 3 instructions: 90000002 cycles: 58810739 heartbeat IPC: 1.53524 cumulative IPC: 1.53033 (Simulation time: 0 hr 16 min 51 sec) 
Heartbeat CPU 1 instructions: 120000000 cycles: 63291634 heartbeat IPC: 1.89617 cumulative IPC: 1.89599 (Simulation time: 0 hr 18 min 8 sec) 
Heartbeat CPU 0 instructions: 130000000 cycles: 63429704 heartbeat IPC: 2.0495 cumulative IPC: 2.04951 (Simulation time: 0 hr 18 min 10 sec) 
Heartbeat CPU 2 instructions: 100000000 cycles: 65073017 heartbeat IPC: 1.52781 cumulative IPC: 1.53674 (Simulation time: 0 hr 18 min 39 sec) 
Heartbeat CPU 3 instructions: 100000000 cycles: 65312192 heartbeat IPC: 1.53812 cumulative IPC: 1.53111 (Simulation time: 0 hr 18 min 43 sec) 
Heartbeat CPU 0 instructions: 140000000 cycles: 68308630 heartbeat IPC: 2.04963 cumulative IPC: 2.04952 (Simulation time: 0 hr 19 min 34 sec) 
Heartbeat CPU 1 instructions: 130000002 cycles: 68567105 heartbeat IPC: 1.89557 cumulative IPC: 1.89595 (Simulation time: 0 hr 19 min 39 sec) 
Heartbeat CPU 2 instructions: 110000000 cycles: 71612128 heartbeat IPC: 1.52926 cumulative IPC: 1.53605 (Simulation time: 0 hr 20 min 31 sec) 
Heartbeat CPU 3 instructions: 110000000 cycles: 71807270 heartbeat IPC: 1.53963 cumulative IPC: 1.53188 (Simulation time: 0 hr 20 min 34 sec) 
Heartbeat CPU 0 instructions: 150000003 cycles: 73188034 heartbeat IPC: 2.04943 cumulative IPC: 2.04952 (Simulation time: 0 hr 20 min 58 sec) 
Heartbeat CPU 1 instructions: 140000000 cycles: 73841031 heartbeat IPC: 1.89612 cumulative IPC: 1.89596 (Simulation time: 0 hr 21 min 10 sec) 
Heartbeat CPU 0 instructions: 160000000 cycles: 78066852 heartbeat IPC: 2.04968 cumulative IPC: 2.04953 (Simulation time: 0 hr 22 min 22 sec) 
Heartbeat CPU 2 instructions: 120000000 cycles: 78161378 heartbeat IPC: 1.52689 cumulative IPC: 1.53529 (Simulation time: 0 hr 22 min 24 sec) 
Heartbeat CPU 3 instructions: 120000000 cycles: 78297834 heartbeat IPC: 1.5407 cumulative IPC: 1.53261 (Simulation time: 0 hr 22 min 26 sec) 
Heartbeat CPU 1 instructions: 150000002 cycles: 79114966 heartbeat IPC: 1.89612 cumulative IPC: 1.89598 (Simulation time: 0 hr 22 min 41 sec) 
Heartbeat CPU 0 instructions: 170000002 cycles: 82946156 heartbeat IPC: 2.04947 cumulative IPC: 2.04952 (Simulation time: 0 hr 23 min 47 sec) 
Heartbeat CPU 1 instructions: 160000000 cycles: 84388838 heartbeat IPC: 1.89614 cumulative IPC: 1.89599 (Simulation time: 0 hr 24 min 12 sec) 
Heartbeat CPU 2 instructions: 130000001 cycles: 84705270 heartbeat IPC: 1.52814 cumulative IPC: 1.53473 (Simulation time: 0 hr 24 min 17 sec) 
Heartbeat CPU 3 instructions: 130000001 cycles: 84757182 heartbeat IPC: 1.54814 cumulative IPC: 1.53379 (Simulation time: 0 hr 24 min 18 sec) 
Heartbeat CPU 0 instructions: 180000000 cycles: 87825112 heartbeat IPC: 2.04962 cumulative IPC: 2.04953 (Simulation time: 0 hr 25 min 11 sec) 
Heartbeat CPU 1 instructions: 170000002 cycles: 89662897 heartbeat IPC: 1.89607 cumulative IPC: 1.89599 (Simulation time: 0 hr 25 min 43 sec) 
Heartbeat CPU 3 instructions: 140000000 cycles: 91199742 heartbeat IPC: 1.55218 cumulative IPC: 1.53509 (Simulation time: 0 hr 26 min 10 sec) 
Heartbeat CPU 2 instructions: 140000000 cycles: 91278902 heartbeat IPC: 1.52123 cumulative IPC: 1.53376 (Simulation time: 0 hr 26 min 11 sec) 
Heartbeat CPU 0 instructions: 190000001 cycles: 92704395 heartbeat IPC: 2.04948 cumulative IPC: 2.04953 (Simulation time: 0 hr 26 min 36 sec) 
Heartbeat CPU 1 instructions: 180000000 cycles: 94937017 heartbeat IPC: 1.89605 cumulative IPC: 1.89599 (Simulation time: 0 hr 27 min 15 sec) 
Heartbeat CPU 3 instructions: 150000000 cycles: 97558017 heartbeat IPC: 1.57275 cumulative IPC: 1.53755 (Simulation time: 0 hr 28 min 1 sec) 
Heartbeat CPU 0 instructions: 200000000 cycles: 97583359 heartbeat IPC: 2.04962 cumulative IPC: 2.04953 (Simulation time: 0 hr 28 min 2 sec) 
Heartbeat CPU 2 instructions: 150000000 cycles: 97843004 heartbeat IPC: 1.52344 cumulative IPC: 1.53307 (Simulation time: 0 hr 28 min 6 sec) 
Heartbeat CPU 1 instructions: 190000000 cycles: 100211951 heartbeat IPC: 1.89576 cumulative IPC: 1.89598 (Simulation time: 0 hr 28 min 48 sec) 
Heartbeat CPU 0 instructions: 210000000 cycles: 102462643 heartbeat IPC: 2.04948 cumulative IPC: 0.0975965 (Simulation time: 0 hr 29 min 28 sec) 
Heartbeat CPU 3 instructions: 160000000 cycles: 103847563 heartbeat IPC: 1.58994 cumulative IPC: 1.54072 (Simulation time: 0 hr 29 min 53 sec) 
Heartbeat CPU 2 instructions: 160000000 cycles: 104401037 heartbeat IPC: 1.52485 cumulative IPC: 1.53255 (Simulation time: 0 hr 30 min 3 sec) 
Heartbeat CPU 1 instructions: 200000000 cycles: 105486268 heartbeat IPC: 1.89598 cumulative IPC: 1.89598 (Simulation time: 0 hr 30 min 22 sec) 
Heartbeat CPU 0 instructions: 220000000 cycles: 107341200 heartbeat IPC: 2.04979 cumulative IPC: 0.186322 (Simulation time: 0 hr 30 min 55 sec) 
Heartbeat CPU 3 instructions: 170000000 cycles: 110118532 heartbeat IPC: 1.59465 cumulative IPC: 1.54379 (Simulation time: 0 hr 31 min 45 sec) 
Heartbeat CPU 1 instructions: 210000001 cycles: 110759941 heartbeat IPC: 1.89621 cumulative IPC: 0.0902854 (Simulation time: 0 hr 31 min 56 sec) 
Heartbeat CPU 2 instructions: 170000003 cycles: 110982515 heartbeat IPC: 1.51942 cumulative IPC: 1.53177 (Simulation time: 0 hr 32 min 0 sec) 
Heartbeat CPU 0 instructions: 230000000 cycles: 112220530 heartbeat IPC: 2.04946 cumulative IPC: 0.267331 (Simulation time: 0 hr 32 min 22 sec) 
Heartbeat CPU 1 instructions: 220000000 cycles: 116032596 heartbeat IPC: 1.89658 cumulative IPC: 0.172365 (Simulation time: 0 hr 33 min 31 sec) 
Heartbeat CPU 3 instructions: 180000000 cycles: 116287813 heartbeat IPC: 1.62093 cumulative IPC: 1.54788 (Simulation time: 0 hr 33 min 36 sec) 
Heartbeat CPU 0 instructions: 240000000 cycles: 117099552 heartbeat IPC: 2.04959 cumulative IPC: 0.34159 (Simulation time: 0 hr 33 min 51 sec) 
Heartbeat CPU 2 instructions: 180000000 cycles: 117561326 heartbeat IPC: 1.52003 cumulative IPC: 1.53112 (Simulation time: 0 hr 33 min 59 sec) 
Heartbeat CPU 1 instructions: 230000001 cycles: 121308781 heartbeat IPC: 1.89531 cumulative IPC: 0.247303 (Simulation time: 0 hr 35 min 6 sec) 
Heartbeat CPU 0 instructions: 250000003 cycles: 121979192 heartbeat IPC: 2.04933 cumulative IPC: 0.409906 (Simulation time: 0 hr 35 min 18 sec) 
Heartbeat CPU 3 instructions: 190000001 cycles: 122498751 heartbeat IPC: 1.61006 cumulative IPC: 1.55104 (Simulation time: 0 hr 35 min 28 sec) 
Heartbeat CPU 2 instructions: 190000001 cycles: 124124382 heartbeat IPC: 1.52368 cumulative IPC: 1.53072 (Simulation time: 0 hr 35 min 57 sec) 
Heartbeat CPU 1 instructions: 240000000 cycles: 126584065 heartbeat IPC: 1.89563 cumulative IPC: 0.315996 (Simulation time: 0 hr 36 min 41 sec) 
Heartbeat CPU 0 instructions: 260000000 cycles: 126858120 heartbeat IPC: 2.04963 cumulative IPC: 0.472969 (Simulation time: 0 hr 36 min 46 sec) 
Heartbeat CPU 3 instructions: 200000000 cycles: 128728036 heartbeat IPC: 1.60532 cumulative IPC: 1.55366 (Simulation time: 0 hr 37 min 20 sec) 
Heartbeat CPU 2 instructions: 200000000 cycles: 130685854 heartbeat IPC: 1.52405 cumulative IPC: 1.53039 (Simulation time: 0 hr 37 min 54 sec) 

Warmup complete CPU 0 instructions: 267844516 cycles: 130685855 (Simulation time: 0 hr 37 min 54 sec) 
Warmup complete CPU 1 instructions: 247780055 cycles: 130685855 (Simulation time: 0 hr 37 min 54 sec) 
Warmup complete CPU 2 instructions: 200000002 cycles: 130685855 (Simulation time: 0 hr 37 min 54 sec) 
Warmup complete CPU 3 instructions: 203137159 cycles: 130685854 (Simulation time: 0 hr 37 min 54 sec) 

Heartbeat CPU 1 instructions: 250000001 cycles: 132388821 heartbeat IPC: 1.72273 cumulative IPC: 1.30358 (Simulation time: 0 hr 38 min 12 sec) 
Heartbeat CPU 0 instructions: 270000000 cycles: 132734942 heartbeat IPC: 1.7016 cumulative IPC: 1.05192 (Simulation time: 0 hr 38 min 15 sec) 
Heartbeat CPU 1 instructions: 260000000 cycles: 140080346 heartbeat IPC: 1.30013 cumulative IPC: 1.30076 (Simulation time: 0 hr 39 min 29 sec) 
Heartbeat CPU 0 instructions: 280000000 cycles: 142245234 heartbeat IPC: 1.05149 cumulative IPC: 1.05157 (Simulation time: 0 hr 39 min 50 sec) 
Heartbeat CPU 1 instructions: 270000003 cycles: 147794115 heartbeat IPC: 1.29638 cumulative IPC: 1.29878 (Simulation time: 0 hr 40 min 46 sec) 
Heartbeat CPU 0 instructions: 290000002 cycles: 151769495 heartbeat IPC: 1.04995 cumulative IPC: 1.05084 (Simulation time: 0 hr 41 min 26 sec) 
Heartbeat CPU 1 instructions: 280000000 cycles: 155495293 heartbeat IPC: 1.2985 cumulative IPC: 1.2987 (Simulation time: 0 hr 42 min 4 sec) 
Heartbeat CPU 3 instructions: 210000002 cycles: 155790642 heartbeat IPC: 0.369514 cumulative IPC: 0.273368 (Simulation time: 0 hr 42 min 6 sec) 
Heartbeat CPU 0 instructions: 300000000 cycles: 161279314 heartbeat IPC: 1.05154 cumulative IPC: 1.05106 (Simulation time: 0 hr 43 min 2 sec) 
Heartbeat CPU 1 instructions: 290000003 cycles: 163182995 heartbeat IPC: 1.30078 cumulative IPC: 1.29919 (Simulation time: 0 hr 43 min 21 sec) 
Heartbeat CPU 2 instructions: 210000002 cycles: 167151386 heartbeat IPC: 0.274232 cumulative IPC: 0.274232 (Simulation time: 0 hr 44 min 0 sec) 
Heartbeat CPU 0 instructions: 310000002 cycles: 170701965 heartbeat IPC: 1.06127 cumulative IPC: 1.05346 (Simulation time: 0 hr 44 min 36 sec) 
Heartbeat CPU 1 instructions: 300000000 cycles: 170880209 heartbeat IPC: 1.29917 cumulative IPC: 1.29919 (Simulation time: 0 hr 44 min 38 sec) 
Heartbeat CPU 1 instructions: 310000001 cycles: 178572820 heartbeat IPC: 1.29995 cumulative IPC: 1.29931 (Simulation time: 0 hr 45 min 55 sec) 
Heartbeat CPU 0 instructions: 320000000 cycles: 180184578 heartbeat IPC: 1.05456 cumulative IPC: 1.05367 (Simulation time: 0 hr 46 min 11 sec) 
Heartbeat CPU 1 instructions: 320000000 cycles: 186276687 heartbeat IPC: 1.29805 cumulative IPC: 1.29913 (Simulation time: 0 hr 47 min 10 sec) 
Heartbeat CPU 0 instructions: 330000001 cycles: 189679620 heartbeat IPC: 1.05318 cumulative IPC: 1.05359 (Simulation time: 0 hr 47 min 43 sec) 
Heartbeat CPU 3 instructions: 220000000 cycles: 191941602 heartbeat IPC: 0.276618 cumulative IPC: 0.275286 (Simulation time: 0 hr 48 min 5 sec) 
Heartbeat CPU 1 instructions: 330000002 cycles: 193965193 heartbeat IPC: 1.30064 cumulative IPC: 1.29932 (Simulation time: 0 hr 48 min 24 sec) 
Heartbeat CPU 0 instructions: 340000000 cycles: 199190826 heartbeat IPC: 1.05139 cumulative IPC: 1.05329 (Simulation time: 0 hr 49 min 15 sec) 
Heartbeat CPU 1 instructions: 340000000 cycles: 201651364 heartbeat IPC: 1.30104 cumulative IPC: 1.2995 (Simulation time: 0 hr 49 min 38 sec) 
Heartbeat CPU 2 instructions: 220000000 cycles: 202605691 heartbeat IPC: 0.282053 cumulative IPC: 0.278087 (Simulation time: 0 hr 49 min 48 sec) 
Heartbeat CPU 0 instructions: 350000002 cycles: 208694201 heartbeat IPC: 1.05226 cumulative IPC: 1.05316 (Simulation time: 0 hr 50 min 47 sec) 
Heartbeat CPU 1 instructions: 350000000 cycles: 209344296 heartbeat IPC: 1.29989 cumulative IPC: 1.29954 (Simulation time: 0 hr 50 min 53 sec) 
Heartbeat CPU 1 instructions: 360000000 cycles: 217039426 heartbeat IPC: 1.29952 cumulative IPC: 1.29954 (Simulation time: 0 hr 52 min 7 sec) 
Heartbeat CPU 0 instructions: 360000000 cycles: 218203545 heartbeat IPC: 1.0516 cumulative IPC: 1.05299 (Simulation time: 0 hr 52 min 18 sec) 
Heartbeat CPU 1 instructions: 370000000 cycles: 224753657 heartbeat IPC: 1.29631 cumulative IPC: 1.29928 (Simulation time: 0 hr 53 min 20 sec) 
Heartbeat CPU 0 instructions: 370000001 cycles: 227718343 heartbeat IPC: 1.05099 cumulative IPC: 1.0528 (Simulation time: 0 hr 53 min 49 sec) 
Heartbeat CPU 3 instructions: 230000001 cycles: 228128473 heartbeat IPC: 0.276343 cumulative IPC: 0.275679 (Simulation time: 0 hr 53 min 53 sec) 
Heartbeat CPU 1 instructions: 380000000 cycles: 232448712 heartbeat IPC: 1.29954 cumulative IPC: 1.29929 (Simulation time: 0 hr 54 min 34 sec) 
Heartbeat CPU 0 instructions: 380000000 cycles: 237225802 heartbeat IPC: 1.05181 cumulative IPC: 1.05271 (Simulation time: 0 hr 55 min 20 sec) 
Heartbeat CPU 2 instructions: 230000002 cycles: 239854267 heartbeat IPC: 0.268467 cumulative IPC: 0.274805 (Simulation time: 0 hr 55 min 45 sec) 
Heartbeat CPU 1 instructions: 390000003 cycles: 240146119 heartbeat IPC: 1.29914 cumulative IPC: 1.29928 (Simulation time: 0 hr 55 min 48 sec) 
Heartbeat CPU 0 instructions: 390000001 cycles: 246738152 heartbeat IPC: 1.05127 cumulative IPC: 1.05259 (Simulation time: 0 hr 56 min 51 sec) 
Heartbeat CPU 1 instructions: 400000000 cycles: 247850396 heartbeat IPC: 1.29798 cumulative IPC: 1.2992 (Simulation time: 0 hr 57 min 2 sec) 
Heartbeat CPU 1 instructions: 410000000 cycles: 255573986 heartbeat IPC: 1.29473 cumulative IPC: 1.29892 (Simulation time: 0 hr 58 min 13 sec) 
Heartbeat CPU 0 instructions: 400000000 cycles: 256293143 heartbeat IPC: 1.04657 cumulative IPC: 1.05213 (Simulation time: 0 hr 58 min 19 sec) 
Heartbeat CPU 1 instructions: 420000000 cycles: 263313615 heartbeat IPC: 1.29205 cumulative IPC: 1.29852 (Simulation time: 0 hr 59 min 27 sec) 
Heartbeat CPU 0 instructions: 410000000 cycles: 265810415 heartbeat IPC: 1.05072 cumulative IPC: 1.05203 (Simulation time: 0 hr 59 min 51 sec) 
Heartbeat CPU 3 instructions: 240000000 cycles: 268723112 heartbeat IPC: 0.246338 cumulative IPC: 0.26705 (Simulation time: 1 hr 0 min 19 sec) 
Heartbeat CPU 1 instructions: 430000000 cycles: 271011957 heartbeat IPC: 1.29898 cumulative IPC: 1.29855 (Simulation time: 1 hr 0 min 41 sec) 
Heartbeat CPU 0 instructions: 420000000 cycles: 275324680 heartbeat IPC: 1.05105 cumulative IPC: 1.05197 (Simulation time: 1 hr 1 min 22 sec) 
Heartbeat CPU 2 instructions: 240000000 cycles: 275918300 heartbeat IPC: 0.277285 cumulative IPC: 0.275421 (Simulation time: 1 hr 1 min 28 sec) 
Heartbeat CPU 1 instructions: 440000000 cycles: 278717224 heartbeat IPC: 1.29781 cumulative IPC: 1.29851 (Simulation time: 1 hr 1 min 55 sec) 
Heartbeat CPU 0 instructions: 430000000 cycles: 284837431 heartbeat IPC: 1.05122 cumulative IPC: 1.05192 (Simulation time: 1 hr 2 min 53 sec) 
Heartbeat CPU 1 instructions: 450000002 cycles: 286415394 heartbeat IPC: 1.29901 cumulative IPC: 1.29853 (Simulation time: 1 hr 3 min 9 sec) 
Heartbeat CPU 1 instructions: 460000000 cycles: 294117359 heartbeat IPC: 1.29837 cumulative IPC: 1.29853 (Simulation time: 1 hr 4 min 21 sec) 
Heartbeat CPU 0 instructions: 440000000 cycles: 294332938 heartbeat IPC: 1.05313 cumulative IPC: 1.05199 (Simulation time: 1 hr 4 min 23 sec) 
Heartbeat CPU 1 instructions: 470000000 cycles: 301858708 heartbeat IPC: 1.29176 cumulative IPC: 1.29822 (Simulation time: 1 hr 5 min 34 sec) 
Heartbeat CPU 0 instructions: 450000001 cycles: 303846322 heartbeat IPC: 1.05115 cumulative IPC: 1.05195 (Simulation time: 1 hr 5 min 53 sec) 
Heartbeat CPU 3 instructions: 250000000 cycles: 306694973 heartbeat IPC: 0.263353 cumulative IPC: 0.266252 (Simulation time: 1 hr 6 min 20 sec) 
Heartbeat CPU 1 instructions: 480000000 cycles: 309562121 heartbeat IPC: 1.29813 cumulative IPC: 1.29822 (Simulation time: 1 hr 6 min 47 sec) 
Heartbeat CPU 2 instructions: 250000002 cycles: 312501658 heartbeat IPC: 0.273348 cumulative IPC: 0.275004 (Simulation time: 1 hr 7 min 15 sec) 
Heartbeat CPU 0 instructions: 460000000 cycles: 313327916 heartbeat IPC: 1.05467 cumulative IPC: 1.05209 (Simulation time: 1 hr 7 min 23 sec) 
Heartbeat CPU 1 instructions: 490000001 cycles: 317248541 heartbeat IPC: 1.301 cumulative IPC: 1.29833 (Simulation time: 1 hr 8 min 1 sec) 
Heartbeat CPU 0 instructions: 470000001 cycles: 322838281 heartbeat IPC: 1.05148 cumulative IPC: 1.05206 (Simulation time: 1 hr 8 min 54 sec) 
Heartbeat CPU 1 instructions: 500000000 cycles: 324947846 heartbeat IPC: 1.29882 cumulative IPC: 1.29835 (Simulation time: 1 hr 9 min 14 sec) 
Heartbeat CPU 0 instructions: 480000000 cycles: 332353761 heartbeat IPC: 1.05092 cumulative IPC: 1.052 (Simulation time: 1 hr 10 min 25 sec) 
Heartbeat CPU 1 instructions: 510000001 cycles: 332651259 heartbeat IPC: 1.29813 cumulative IPC: 1.29834 (Simulation time: 1 hr 10 min 28 sec) 
Heartbeat CPU 1 instructions: 520000000 cycles: 340343577 heartbeat IPC: 1.3 cumulative IPC: 1.2984 (Simulation time: 1 hr 11 min 42 sec) 
Heartbeat CPU 3 instructions: 260000000 cycles: 341776761 heartbeat IPC: 0.285048 cumulative IPC: 0.269376 (Simulation time: 1 hr 11 min 55 sec) 
Heartbeat CPU 0 instructions: 490000000 cycles: 341845504 heartbeat IPC: 1.05355 cumulative IPC: 1.05207 (Simulation time: 1 hr 11 min 56 sec) 
Heartbeat CPU 1 instructions: 530000002 cycles: 348042012 heartbeat IPC: 1.29897 cumulative IPC: 1.29842 (Simulation time: 1 hr 12 min 55 sec) 
Heartbeat CPU 2 instructions: 260000000 cycles: 349142833 heartbeat IPC: 0.272917 cumulative IPC: 0.274654 (Simulation time: 1 hr 13 min 6 sec) 
Heartbeat CPU 0 instructions: 500000000 cycles: 351354613 heartbeat IPC: 1.05162 cumulative IPC: 1.05205 (Simulation time: 1 hr 13 min 27 sec) 
Heartbeat CPU 1 instructions: 540000000 cycles: 355744892 heartbeat IPC: 1.29822 cumulative IPC: 1.29841 (Simulation time: 1 hr 14 min 8 sec) 
Heartbeat CPU 0 instructions: 510000003 cycles: 360867498 heartbeat IPC: 1.05121 cumulative IPC: 1.05202 (Simulation time: 1 hr 14 min 58 sec) 
Heartbeat CPU 1 instructions: 550000000 cycles: 363439636 heartbeat IPC: 1.29959 cumulative IPC: 1.29845 (Simulation time: 1 hr 15 min 22 sec) 
Heartbeat CPU 0 instructions: 520000000 cycles: 370373894 heartbeat IPC: 1.05192 cumulative IPC: 1.05202 (Simulation time: 1 hr 16 min 29 sec) 
Heartbeat CPU 1 instructions: 560000000 cycles: 371128706 heartbeat IPC: 1.30055 cumulative IPC: 1.29852 (Simulation time: 1 hr 16 min 36 sec) 
Heartbeat CPU 3 instructions: 270000000 cycles: 377434766 heartbeat IPC: 0.280442 cumulative IPC: 0.270975 (Simulation time: 1 hr 17 min 36 sec) 
Heartbeat CPU 1 instructions: 570000003 cycles: 378819653 heartbeat IPC: 1.30023 cumulative IPC: 1.29857 (Simulation time: 1 hr 17 min 50 sec) 
Heartbeat CPU 0 instructions: 530000003 cycles: 379884407 heartbeat IPC: 1.05147 cumulative IPC: 1.05199 (Simulation time: 1 hr 18 min 0 sec) 
Heartbeat CPU 2 instructions: 270000003 cycles: 385681443 heartbeat IPC: 0.273683 cumulative IPC: 0.274515 (Simulation time: 1 hr 18 min 56 sec) 
Heartbeat CPU 1 instructions: 580000000 cycles: 386530524 heartbeat IPC: 1.29687 cumulative IPC: 1.29852 (Simulation time: 1 hr 19 min 4 sec) 
Heartbeat CPU 0 instructions: 540000000 cycles: 389388707 heartbeat IPC: 1.05216 cumulative IPC: 1.052 (Simulation time: 1 hr 19 min 32 sec) 
Heartbeat CPU 1 instructions: 590000003 cycles: 394238110 heartbeat IPC: 1.29742 cumulative IPC: 1.29849 (Simulation time: 1 hr 20 min 18 sec) 
Heartbeat CPU 0 instructions: 550000000 cycles: 398909043 heartbeat IPC: 1.05038 cumulative IPC: 1.05194 (Simulation time: 1 hr 21 min 3 sec) 
Heartbeat CPU 1 instructions: 600000000 cycles: 401929877 heartbeat IPC: 1.30009 cumulative IPC: 1.29854 (Simulation time: 1 hr 21 min 32 sec) 
Heartbeat CPU 0 instructions: 560000000 cycles: 408428827 heartbeat IPC: 1.05044 cumulative IPC: 1.05189 (Simulation time: 1 hr 22 min 35 sec) 
Heartbeat CPU 1 instructions: 610000002 cycles: 409626178 heartbeat IPC: 1.29933 cumulative IPC: 1.29856 (Simulation time: 1 hr 22 min 46 sec) 
Heartbeat CPU 3 instructions: 280000000 cycles: 412754631 heartbeat IPC: 0.283127 cumulative IPC: 0.272497 (Simulation time: 1 hr 23 min 16 sec) 
Heartbeat CPU 1 instructions: 620000000 cycles: 417331517 heartbeat IPC: 1.2978 cumulative IPC: 1.29854 (Simulation time: 1 hr 24 min 0 sec) 
Heartbeat CPU 0 instructions: 570000003 cycles: 417948369 heartbeat IPC: 1.05047 cumulative IPC: 1.05184 (Simulation time: 1 hr 24 min 6 sec) 
Heartbeat CPU 2 instructions: 280000000 cycles: 422114497 heartbeat IPC: 0.274476 cumulative IPC: 0.27451 (Simulation time: 1 hr 24 min 46 sec) 
Heartbeat CPU 1 instructions: 630000000 cycles: 425020187 heartbeat IPC: 1.30062 cumulative IPC: 1.29859 (Simulation time: 1 hr 25 min 14 sec) 
Heartbeat CPU 0 instructions: 580000000 cycles: 427461750 heartbeat IPC: 1.05115 cumulative IPC: 1.05182 (Simulation time: 1 hr 25 min 38 sec) 
Heartbeat CPU 1 instructions: 640000000 cycles: 432709951 heartbeat IPC: 1.30043 cumulative IPC: 1.29864 (Simulation time: 1 hr 26 min 28 sec) 
Heartbeat CPU 0 instructions: 590000003 cycles: 436985131 heartbeat IPC: 1.05005 cumulative IPC: 1.05177 (Simulation time: 1 hr 27 min 9 sec) 
Heartbeat CPU 1 instructions: 650000002 cycles: 440410270 heartbeat IPC: 1.29865 cumulative IPC: 1.29864 (Simulation time: 1 hr 27 min 42 sec) 
Heartbeat CPU 0 instructions: 600000000 cycles: 446507193 heartbeat IPC: 1.05019 cumulative IPC: 1.05172 (Simulation time: 1 hr 28 min 41 sec) 
Heartbeat CPU 1 instructions: 660000000 cycles: 448108185 heartbeat IPC: 1.29905 cumulative IPC: 1.29865 (Simulation time: 1 hr 28 min 56 sec) 
Heartbeat CPU 3 instructions: 290000000 cycles: 448335056 heartbeat IPC: 0.281053 cumulative IPC: 0.273455 (Simulation time: 1 hr 28 min 58 sec) 
Heartbeat CPU 1 instructions: 670000003 cycles: 455816126 heartbeat IPC: 1.29736 cumulative IPC: 1.29862 (Simulation time: 1 hr 30 min 10 sec) 
Heartbeat CPU 0 instructions: 610000002 cycles: 456027540 heartbeat IPC: 1.05038 cumulative IPC: 1.05168 (Simulation time: 1 hr 30 min 12 sec) 
Heartbeat CPU 2 instructions: 290000000 cycles: 458146881 heartbeat IPC: 0.277528 cumulative IPC: 0.274842 (Simulation time: 1 hr 30 min 33 sec) 
Heartbeat CPU 1 instructions: 680000000 cycles: 463512970 heartbeat IPC: 1.29923 cumulative IPC: 1.29863 (Simulation time: 1 hr 31 min 24 sec) 
Heartbeat CPU 0 instructions: 620000000 cycles: 465545362 heartbeat IPC: 1.05066 cumulative IPC: 1.05165 (Simulation time: 1 hr 31 min 44 sec) 
Heartbeat CPU 1 instructions: 690000002 cycles: 471309291 heartbeat IPC: 1.28266 cumulative IPC: 1.29827 (Simulation time: 1 hr 32 min 37 sec) 
Heartbeat CPU 0 instructions: 630000000 cycles: 478237383 heartbeat IPC: 0.787897 cumulative IPC: 1.04202 (Simulation time: 1 hr 33 min 39 sec) 
Heartbeat CPU 1 instructions: 700000000 cycles: 479037219 heartbeat IPC: 1.29401 cumulative IPC: 1.29817 (Simulation time: 1 hr 33 min 46 sec) 
Heartbeat CPU 3 instructions: 300000000 cycles: 483468662 heartbeat IPC: 0.284628 cumulative IPC: 0.274568 (Simulation time: 1 hr 34 min 25 sec) 
Heartbeat CPU 1 instructions: 710000002 cycles: 486743292 heartbeat IPC: 1.29768 cumulative IPC: 1.29816 (Simulation time: 1 hr 34 min 55 sec) 
Heartbeat CPU 2 instructions: 300000000 cycles: 492020347 heartbeat IPC: 0.295216 cumulative IPC: 0.276752 (Simulation time: 1 hr 35 min 42 sec) 
Heartbeat CPU 0 instructions: 640000000 cycles: 493848899 heartbeat IPC: 0.640553 cumulative IPC: 1.02476 (Simulation time: 1 hr 35 min 58 sec) 
Heartbeat CPU 1 instructions: 720000000 cycles: 494444566 heartbeat IPC: 1.29849 cumulative IPC: 1.29817 (Simulation time: 1 hr 36 min 3 sec) 
Heartbeat CPU 1 instructions: 730000002 cycles: 502143474 heartbeat IPC: 1.29889 cumulative IPC: 1.29818 (Simulation time: 1 hr 37 min 12 sec) 
Heartbeat CPU 0 instructions: 650000002 cycles: 509543245 heartbeat IPC: 0.637172 cumulative IPC: 1.00871 (Simulation time: 1 hr 38 min 18 sec) 
Heartbeat CPU 1 instructions: 740000000 cycles: 509844478 heartbeat IPC: 1.29853 cumulative IPC: 1.29819 (Simulation time: 1 hr 38 min 20 sec) 
Heartbeat CPU 3 instructions: 310000003 cycles: 517243445 heartbeat IPC: 0.296079 cumulative IPC: 0.276447 (Simulation time: 1 hr 39 min 26 sec) 
Heartbeat CPU 1 instructions: 750000000 cycles: 517551563 heartbeat IPC: 1.29751 cumulative IPC: 1.29818 (Simulation time: 1 hr 39 min 29 sec) 
Heartbeat CPU 2 instructions: 310000001 cycles: 522054000 heartbeat IPC: 0.33296 cumulative IPC: 0.281065 (Simulation time: 1 hr 40 min 9 sec) 
Heartbeat CPU 0 instructions: 660000000 cycles: 525172088 heartbeat IPC: 0.639843 cumulative IPC: 0.994092 (Simulation time: 1 hr 40 min 37 sec) 
Heartbeat CPU 1 instructions: 760000000 cycles: 525247275 heartbeat IPC: 1.29942 cumulative IPC: 1.2982 (Simulation time: 1 hr 40 min 37 sec) 
Heartbeat CPU 1 instructions: 770000000 cycles: 532958048 heartbeat IPC: 1.29689 cumulative IPC: 1.29818 (Simulation time: 1 hr 41 min 46 sec) 
Heartbeat CPU 1 instructions: 780000000 cycles: 540655615 heartbeat IPC: 1.29911 cumulative IPC: 1.29819 (Simulation time: 1 hr 42 min 54 sec) 
Heartbeat CPU 0 instructions: 670000001 cycles: 540889527 heartbeat IPC: 0.636236 cumulative IPC: 0.98038 (Simulation time: 1 hr 42 min 56 sec) 
Heartbeat CPU 1 instructions: 790000001 cycles: 548374001 heartbeat IPC: 1.29561 cumulative IPC: 1.29815 (Simulation time: 1 hr 44 min 2 sec) 
Heartbeat CPU 3 instructions: 320000000 cycles: 551108586 heartbeat IPC: 0.295289 cumulative IPC: 0.277965 (Simulation time: 1 hr 44 min 27 sec) 
Heartbeat CPU 2 instructions: 320000000 cycles: 552799568 heartbeat IPC: 0.32525 cumulative IPC: 0.284284 (Simulation time: 1 hr 44 min 42 sec) 
Heartbeat CPU 1 instructions: 800000000 cycles: 556080508 heartbeat IPC: 1.2976 cumulative IPC: 1.29814 (Simulation time: 1 hr 45 min 11 sec) 
Heartbeat CPU 0 instructions: 680000000 cycles: 556621114 heartbeat IPC: 0.635664 cumulative IPC: 0.967648 (Simulation time: 1 hr 45 min 16 sec) 
Heartbeat CPU 1 instructions: 810000003 cycles: 563779930 heartbeat IPC: 1.2988 cumulative IPC: 1.29815 (Simulation time: 1 hr 46 min 19 sec) 
Heartbeat CPU 1 instructions: 820000000 cycles: 571494024 heartbeat IPC: 1.29633 cumulative IPC: 1.29812 (Simulation time: 1 hr 47 min 28 sec) 
Heartbeat CPU 0 instructions: 690000001 cycles: 572154708 heartbeat IPC: 0.643766 cumulative IPC: 0.956252 (Simulation time: 1 hr 47 min 34 sec) 
Heartbeat CPU 1 instructions: 830000001 cycles: 579194965 heartbeat IPC: 1.29854 cumulative IPC: 1.29812 (Simulation time: 1 hr 48 min 37 sec) 
Heartbeat CPU 2 instructions: 330000002 cycles: 583039416 heartbeat IPC: 0.33069 cumulative IPC: 0.287386 (Simulation time: 1 hr 49 min 11 sec) 
Heartbeat CPU 3 instructions: 330000002 cycles: 584574843 heartbeat IPC: 0.298808 cumulative IPC: 0.279502 (Simulation time: 1 hr 49 min 25 sec) 
Heartbeat CPU 1 instructions: 840000000 cycles: 586901106 heartbeat IPC: 1.29767 cumulative IPC: 1.29812 (Simulation time: 1 hr 49 min 46 sec) 
Heartbeat CPU 0 instructions: 700000000 cycles: 587873347 heartbeat IPC: 0.636187 cumulative IPC: 0.945248 (Simulation time: 1 hr 49 min 54 sec) 
Heartbeat CPU 1 instructions: 850000002 cycles: 594607260 heartbeat IPC: 1.29766 cumulative IPC: 1.29811 (Simulation time: 1 hr 50 min 54 sec) 
Heartbeat CPU 1 instructions: 860000000 cycles: 602306618 heartbeat IPC: 1.29881 cumulative IPC: 1.29812 (Simulation time: 1 hr 52 min 3 sec) 
Heartbeat CPU 0 instructions: 710000001 cycles: 603507250 heartbeat IPC: 0.639636 cumulative IPC: 0.935143 (Simulation time: 1 hr 52 min 14 sec) 
Heartbeat CPU 1 instructions: 870000000 cycles: 610010513 heartbeat IPC: 1.29804 cumulative IPC: 1.29812 (Simulation time: 1 hr 53 min 12 sec) 
Heartbeat CPU 2 instructions: 340000000 cycles: 613270311 heartbeat IPC: 0.330787 cumulative IPC: 0.290105 (Simulation time: 1 hr 53 min 41 sec) 
Heartbeat CPU 1 instructions: 880000000 cycles: 617717753 heartbeat IPC: 1.29748 cumulative IPC: 1.29811 (Simulation time: 1 hr 54 min 21 sec) 
Heartbeat CPU 3 instructions: 340000000 cycles: 618282983 heartbeat IPC: 0.296664 cumulative IPC: 0.280688 (Simulation time: 1 hr 54 min 26 sec) 
Heartbeat CPU 0 instructions: 720000000 cycles: 619203496 heartbeat IPC: 0.637095 cumulative IPC: 0.925566 (Simulation time: 1 hr 54 min 34 sec) 
Heartbeat CPU 1 instructions: 890000003 cycles: 625427739 heartbeat IPC: 1.29702 cumulative IPC: 1.29809 (Simulation time: 1 hr 55 min 30 sec) 
Heartbeat CPU 1 instructions: 900000000 cycles: 633136612 heartbeat IPC: 1.29721 cumulative IPC: 1.29808 (Simulation time: 1 hr 56 min 39 sec) 
Heartbeat CPU 0 instructions: 730000000 cycles: 634713762 heartbeat IPC: 0.644734 cumulative IPC: 0.916924 (Simulation time: 1 hr 56 min 53 sec) 
Heartbeat CPU 1 instructions: 910000001 cycles: 640836979 heartbeat IPC: 1.29864 cumulative IPC: 1.29809 (Simulation time: 1 hr 57 min 47 sec) 
Heartbeat CPU 2 instructions: 350000001 cycles: 643532055 heartbeat IPC: 0.33045 cumulative IPC: 0.292485 (Simulation time: 1 hr 58 min 11 sec) 
Heartbeat CPU 1 instructions: 920000000 cycles: 648538397 heartbeat IPC: 1.29846 cumulative IPC: 1.29809 (Simulation time: 1 hr 58 min 56 sec) 
Heartbeat CPU 0 instructions: 740000000 cycles: 650417660 heartbeat IPC: 0.636785 cumulative IPC: 0.90846 (Simulation time: 1 hr 59 min 13 sec) 
Heartbeat CPU 3 instructions: 350000001 cycles: 651881282 heartbeat IPC: 0.297634 cumulative IPC: 0.281781 (Simulation time: 1 hr 59 min 26 sec) 
Heartbeat CPU 1 instructions: 930000003 cycles: 656235725 heartbeat IPC: 1.29915 cumulative IPC: 1.29811 (Simulation time: 2 hr 0 min 5 sec) 
Heartbeat CPU 1 instructions: 940000000 cycles: 663950485 heartbeat IPC: 1.29622 cumulative IPC: 1.29808 (Simulation time: 2 hr 1 min 14 sec) 
Heartbeat CPU 0 instructions: 750000000 cycles: 666121347 heartbeat IPC: 0.636793 cumulative IPC: 0.900492 (Simulation time: 2 hr 1 min 34 sec) 
Heartbeat CPU 1 instructions: 950000001 cycles: 671652783 heartbeat IPC: 1.29831 cumulative IPC: 1.29808 (Simulation time: 2 hr 2 min 23 sec) 
Heartbeat CPU 2 instructions: 360000000 cycles: 673561121 heartbeat IPC: 0.333011 cumulative IPC: 0.294727 (Simulation time: 2 hr 2 min 40 sec) 
Heartbeat CPU 1 instructions: 960000000 cycles: 679348028 heartbeat IPC: 1.2995 cumulative IPC: 1.2981 (Simulation time: 2 hr 3 min 32 sec) 
Heartbeat CPU 0 instructions: 760000000 cycles: 681782346 heartbeat IPC: 0.638529 cumulative IPC: 0.893048 (Simulation time: 2 hr 3 min 53 sec) 
Heartbeat CPU 3 instructions: 360000000 cycles: 685319484 heartbeat IPC: 0.299059 cumulative IPC: 0.282822 (Simulation time: 2 hr 4 min 25 sec) 
Heartbeat CPU 1 instructions: 970000002 cycles: 687051098 heartbeat IPC: 1.29818 cumulative IPC: 1.2981 (Simulation time: 2 hr 4 min 40 sec) 
Heartbeat CPU 1 instructions: 980000000 cycles: 694750261 heartbeat IPC: 1.29884 cumulative IPC: 1.29811 (Simulation time: 2 hr 5 min 49 sec) 
Heartbeat CPU 0 instructions: 770000000 cycles: 697519100 heartbeat IPC: 0.635455 cumulative IPC: 0.885896 (Simulation time: 2 hr 6 min 13 sec) 
Heartbeat CPU 1 instructions: 990000001 cycles: 702455456 heartbeat IPC: 1.29783 cumulative IPC: 1.29811 (Simulation time: 2 hr 6 min 57 sec) 
Heartbeat CPU 2 instructions: 370000001 cycles: 703614220 heartbeat IPC: 0.332744 cumulative IPC: 0.296721 (Simulation time: 2 hr 7 min 8 sec) 
Heartbeat CPU 1 instructions: 1000000000 cycles: 710164454 heartbeat IPC: 1.29719 cumulative IPC: 1.2981 (Simulation time: 2 hr 8 min 6 sec) 
Heartbeat CPU 0 instructions: 780000000 cycles: 713163680 heartbeat IPC: 0.639199 cumulative IPC: 0.87927 (Simulation time: 2 hr 8 min 32 sec) 
Heartbeat CPU 1 instructions: 1010000003 cycles: 717865818 heartbeat IPC: 1.29847 cumulative IPC: 1.2981 (Simulation time: 2 hr 9 min 14 sec) 
Heartbeat CPU 3 instructions: 370000001 cycles: 718986584 heartbeat IPC: 0.297026 cumulative IPC: 0.283635 (Simulation time: 2 hr 9 min 24 sec) 
Heartbeat CPU 1 instructions: 1020000000 cycles: 725555172 heartbeat IPC: 1.3005 cumulative IPC: 1.29813 (Simulation time: 2 hr 10 min 23 sec) 
Heartbeat CPU 0 instructions: 790000002 cycles: 728902608 heartbeat IPC: 0.635367 cumulative IPC: 0.872853 (Simulation time: 2 hr 10 min 53 sec) 
Heartbeat CPU 1 instructions: 1030000002 cycles: 733246748 heartbeat IPC: 1.30012 cumulative IPC: 1.29816 (Simulation time: 2 hr 11 min 32 sec) 
Heartbeat CPU 2 instructions: 380000000 cycles: 733956403 heartbeat IPC: 0.329574 cumulative IPC: 0.298374 (Simulation time: 2 hr 11 min 38 sec) 
Heartbeat CPU 1 instructions: 1040000000 cycles: 740949543 heartbeat IPC: 1.29823 cumulative IPC: 1.29816 (Simulation time: 2 hr 12 min 40 sec) 
Heartbeat CPU 0 instructions: 800000000 cycles: 744505643 heartbeat IPC: 0.640901 cumulative IPC: 0.866957 (Simulation time: 2 hr 13 min 12 sec) 
Heartbeat CPU 1 instructions: 1050000002 cycles: 748637998 heartbeat IPC: 1.30065 cumulative IPC: 1.29819 (Simulation time: 2 hr 13 min 48 sec) 
Heartbeat CPU 3 instructions: 380000000 cycles: 753051972 heartbeat IPC: 0.293553 cumulative IPC: 0.284178 (Simulation time: 2 hr 14 min 27 sec) 
Heartbeat CPU 1 instructions: 1060000000 cycles: 756338138 heartbeat IPC: 1.29868 cumulative IPC: 1.2982 (Simulation time: 2 hr 14 min 56 sec) 
Heartbeat CPU 0 instructions: 810000003 cycles: 760267210 heartbeat IPC: 0.634455 cumulative IPC: 0.861136 (Simulation time: 2 hr 15 min 31 sec) 
Heartbeat CPU 1 instructions: 1070000000 cycles: 764029743 heartbeat IPC: 1.30012 cumulative IPC: 1.29822 (Simulation time: 2 hr 16 min 5 sec) 
Heartbeat CPU 2 instructions: 390000003 cycles: 764254806 heartbeat IPC: 0.33005 cumulative IPC: 0.299888 (Simulation time: 2 hr 16 min 7 sec) 
Heartbeat CPU 1 instructions: 1080000000 cycles: 771745850 heartbeat IPC: 1.29599 cumulative IPC: 1.29819 (Simulation time: 2 hr 17 min 13 sec) 
Heartbeat CPU 0 instructions: 820000000 cycles: 775996893 heartbeat IPC: 0.635741 cumulative IPC: 0.855642 (Simulation time: 2 hr 17 min 51 sec) 
Heartbeat CPU 1 instructions: 1090000003 cycles: 779455583 heartbeat IPC: 1.29706 cumulative IPC: 1.29818 (Simulation time: 2 hr 18 min 21 sec) 
Heartbeat CPU 1 instructions: 1100000000 cycles: 787146072 heartbeat IPC: 1.30031 cumulative IPC: 1.29821 (Simulation time: 2 hr 19 min 30 sec) 
Heartbeat CPU 3 instructions: 390000001 cycles: 787196538 heartbeat IPC: 0.292872 cumulative IPC: 0.28463 (Simulation time: 2 hr 19 min 30 sec) 
Heartbeat CPU 0 instructions: 830000000 cycles: 791658083 heartbeat IPC: 0.638521 cumulative IPC: 0.850498 (Simulation time: 2 hr 20 min 10 sec) 
Heartbeat CPU 2 instructions: 400000000 cycles: 794624067 heartbeat IPC: 0.32928 cumulative IPC: 0.301233 (Simulation time: 2 hr 20 min 36 sec) 
Heartbeat CPU 1 instructions: 1110000001 cycles: 794844852 heartbeat IPC: 1.29891 cumulative IPC: 1.29821 (Simulation time: 2 hr 20 min 38 sec) 
Heartbeat CPU 1 instructions: 1120000000 cycles: 802539264 heartbeat IPC: 1.29964 cumulative IPC: 1.29823 (Simulation time: 2 hr 21 min 46 sec) 
Heartbeat CPU 0 instructions: 840000000 cycles: 807379297 heartbeat IPC: 0.636083 cumulative IPC: 0.845517 (Simulation time: 2 hr 22 min 29 sec) 
Heartbeat CPU 1 instructions: 1130000003 cycles: 810233498 heartbeat IPC: 1.29967 cumulative IPC: 1.29825 (Simulation time: 2 hr 22 min 55 sec) 
Heartbeat CPU 1 instructions: 1140000000 cycles: 817926453 heartbeat IPC: 1.29989 cumulative IPC: 1.29826 (Simulation time: 2 hr 24 min 3 sec) 
Heartbeat CPU 3 instructions: 400000000 cycles: 822100182 heartbeat IPC: 0.286503 cumulative IPC: 0.284725 (Simulation time: 2 hr 24 min 40 sec) 
Heartbeat CPU 0 instructions: 850000001 cycles: 823038043 heartbeat IPC: 0.638621 cumulative IPC: 0.840837 (Simulation time: 2 hr 24 min 49 sec) 
Heartbeat CPU 2 instructions: 410000003 cycles: 825273604 heartbeat IPC: 0.326269 cumulative IPC: 0.302338 (Simulation time: 2 hr 25 min 8 sec) 
Heartbeat CPU 1 instructions: 1150000000 cycles: 825623655 heartbeat IPC: 1.29917 cumulative IPC: 1.29827 (Simulation time: 2 hr 25 min 11 sec) 
Heartbeat CPU 1 instructions: 1160000000 cycles: 833321661 heartbeat IPC: 1.29904 cumulative IPC: 1.29828 (Simulation time: 2 hr 26 min 20 sec) 
Heartbeat CPU 0 instructions: 860000000 cycles: 838779703 heartbeat IPC: 0.635257 cumulative IPC: 0.836267 (Simulation time: 2 hr 27 min 7 sec) 
Heartbeat CPU 1 instructions: 1170000003 cycles: 841059460 heartbeat IPC: 1.29236 cumulative IPC: 1.29822 (Simulation time: 2 hr 27 min 25 sec) 
Heartbeat CPU 1 instructions: 1180000000 cycles: 848831815 heartbeat IPC: 1.28661 cumulative IPC: 1.29809 (Simulation time: 2 hr 28 min 32 sec) 
Heartbeat CPU 0 instructions: 870000001 cycles: 854438314 heartbeat IPC: 0.638626 cumulative IPC: 0.831991 (Simulation time: 2 hr 29 min 22 sec) 
Heartbeat CPU 2 instructions: 420000000 cycles: 855908232 heartbeat IPC: 0.326428 cumulative IPC: 0.303355 (Simulation time: 2 hr 29 min 35 sec) 
Heartbeat CPU 1 instructions: 1190000001 cycles: 856533617 heartbeat IPC: 1.2984 cumulative IPC: 1.2981 (Simulation time: 2 hr 29 min 41 sec) 
Heartbeat CPU 3 instructions: 410000003 cycles: 862479171 heartbeat IPC: 0.247654 cumulative IPC: 0.282679 (Simulation time: 2 hr 30 min 34 sec) 
Heartbeat CPU 1 instructions: 1200000000 cycles: 864242418 heartbeat IPC: 1.29722 cumulative IPC: 1.29809 (Simulation time: 2 hr 30 min 49 sec) 
Heartbeat CPU 0 instructions: 880000000 cycles: 870167992 heartbeat IPC: 0.635741 cumulative IPC: 0.827816 (Simulation time: 2 hr 31 min 42 sec) 
Heartbeat CPU 1 instructions: 1210000003 cycles: 871944784 heartbeat IPC: 1.2983 cumulative IPC: 1.29809 (Simulation time: 2 hr 31 min 58 sec) 
Heartbeat CPU 1 instructions: 1220000000 cycles: 879661479 heartbeat IPC: 1.29589 cumulative IPC: 1.29807 (Simulation time: 2 hr 33 min 6 sec) 
Heartbeat CPU 0 instructions: 890000003 cycles: 885844637 heartbeat IPC: 0.637892 cumulative IPC: 0.823874 (Simulation time: 2 hr 34 min 1 sec) 
Heartbeat CPU 2 instructions: 430000000 cycles: 886274834 heartbeat IPC: 0.329309 cumulative IPC: 0.304398 (Simulation time: 2 hr 34 min 5 sec) 
Heartbeat CPU 1 instructions: 1230000002 cycles: 887375502 heartbeat IPC: 1.29634 cumulative IPC: 1.29805 (Simulation time: 2 hr 34 min 15 sec) 
Heartbeat CPU 1 instructions: 1240000000 cycles: 895083410 heartbeat IPC: 1.29737 cumulative IPC: 1.29804 (Simulation time: 2 hr 35 min 23 sec) 
Heartbeat CPU 3 instructions: 420000000 cycles: 896190177 heartbeat IPC: 0.296639 cumulative IPC: 0.283294 (Simulation time: 2 hr 35 min 33 sec) 
Finished CPU 1 instructions: 1000000001 cycles: 770395039 cumulative IPC: 1.29804 (Simulation time: 2 hr 36 min 16 sec) 
Heartbeat CPU 0 instructions: 900000000 cycles: 901528283 heartbeat IPC: 0.637607 cumulative IPC: 0.820084 (Simulation time: 2 hr 36 min 20 sec) 
Heartbeat CPU 1 instructions: 1250000002 cycles: 902789485 heartbeat IPC: 1.29768 cumulative IPC: 1.29804 (Simulation time: 2 hr 36 min 32 sec) 
Heartbeat CPU 1 instructions: 1260000000 cycles: 910506535 heartbeat IPC: 1.29583 cumulative IPC: 1.29802 (Simulation time: 2 hr 37 min 41 sec) 
Heartbeat CPU 2 instructions: 440000000 cycles: 916745818 heartbeat IPC: 0.328181 cumulative IPC: 0.30532 (Simulation time: 2 hr 38 min 36 sec) 
Heartbeat CPU 0 instructions: 910000001 cycles: 917223595 heartbeat IPC: 0.637133 cumulative IPC: 0.816433 (Simulation time: 2 hr 38 min 41 sec) 
Heartbeat CPU 1 instructions: 1270000000 cycles: 918206685 heartbeat IPC: 1.29868 cumulative IPC: 1.29802 (Simulation time: 2 hr 38 min 49 sec) 
Heartbeat CPU 1 instructions: 1280000000 cycles: 925908180 heartbeat IPC: 1.29845 cumulative IPC: 1.29803 (Simulation time: 2 hr 39 min 58 sec) 
Heartbeat CPU 3 instructions: 430000001 cycles: 930465257 heartbeat IPC: 0.291757 cumulative IPC: 0.283657 (Simulation time: 2 hr 40 min 39 sec) 
Heartbeat CPU 0 instructions: 920000000 cycles: 932844848 heartbeat IPC: 0.640153 cumulative IPC: 0.813 (Simulation time: 2 hr 41 min 0 sec) 
Heartbeat CPU 1 instructions: 1290000000 cycles: 933609175 heartbeat IPC: 1.29853 cumulative IPC: 1.29803 (Simulation time: 2 hr 41 min 7 sec) 
Heartbeat CPU 1 instructions: 1300000000 cycles: 941300449 heartbeat IPC: 1.30017 cumulative IPC: 1.29805 (Simulation time: 2 hr 42 min 16 sec) 
Heartbeat CPU 2 instructions: 450000003 cycles: 947507312 heartbeat IPC: 0.325082 cumulative IPC: 0.306064 (Simulation time: 2 hr 43 min 12 sec) 
Heartbeat CPU 0 instructions: 930000000 cycles: 948519995 heartbeat IPC: 0.637953 cumulative IPC: 0.809645 (Simulation time: 2 hr 43 min 21 sec) 
Heartbeat CPU 1 instructions: 1310000002 cycles: 949010644 heartbeat IPC: 1.29698 cumulative IPC: 1.29804 (Simulation time: 2 hr 43 min 25 sec) 
Heartbeat CPU 1 instructions: 1320000000 cycles: 956699822 heartbeat IPC: 1.30053 cumulative IPC: 1.29807 (Simulation time: 2 hr 44 min 34 sec) 
Heartbeat CPU 0 instructions: 940000000 cycles: 964162479 heartbeat IPC: 0.639285 cumulative IPC: 0.806448 (Simulation time: 2 hr 45 min 41 sec) 
Heartbeat CPU 1 instructions: 1330000003 cycles: 964413228 heartbeat IPC: 1.29644 cumulative IPC: 1.29805 (Simulation time: 2 hr 45 min 43 sec) 
Heartbeat CPU 3 instructions: 440000000 cycles: 964606819 heartbeat IPC: 0.292898 cumulative IPC: 0.284035 (Simulation time: 2 hr 45 min 44 sec) 
Heartbeat CPU 1 instructions: 1340000000 cycles: 972123123 heartbeat IPC: 1.29703 cumulative IPC: 1.29804 (Simulation time: 2 hr 46 min 51 sec) 
Heartbeat CPU 2 instructions: 460000000 cycles: 978430392 heartbeat IPC: 0.323383 cumulative IPC: 0.306696 (Simulation time: 2 hr 47 min 47 sec) 
Heartbeat CPU 1 instructions: 1350000001 cycles: 979812009 heartbeat IPC: 1.30058 cumulative IPC: 1.29806 (Simulation time: 2 hr 48 min 0 sec) 
Heartbeat CPU 0 instructions: 950000002 cycles: 979938384 heartbeat IPC: 0.633878 cumulative IPC: 0.803242 (Simulation time: 2 hr 48 min 1 sec) 
Heartbeat CPU 1 instructions: 1360000000 cycles: 987516876 heartbeat IPC: 1.29788 cumulative IPC: 1.29806 (Simulation time: 2 hr 49 min 8 sec) 
Heartbeat CPU 1 instructions: 1370000000 cycles: 995212717 heartbeat IPC: 1.2994 cumulative IPC: 1.29807 (Simulation time: 2 hr 50 min 17 sec) 
Heartbeat CPU 0 instructions: 960000000 cycles: 995575778 heartbeat IPC: 0.639493 cumulative IPC: 0.800282 (Simulation time: 2 hr 50 min 21 sec) 
Heartbeat CPU 3 instructions: 450000001 cycles: 998665365 heartbeat IPC: 0.293612 cumulative IPC: 0.284411 (Simulation time: 2 hr 50 min 48 sec) 
Heartbeat CPU 1 instructions: 1380000000 cycles: 1002914374 heartbeat IPC: 1.29842 cumulative IPC: 1.29808 (Simulation time: 2 hr 51 min 26 sec) 
Heartbeat CPU 2 instructions: 470000003 cycles: 1009551581 heartbeat IPC: 0.321325 cumulative IPC: 0.307214 (Simulation time: 2 hr 52 min 25 sec) 
Heartbeat CPU 1 instructions: 1390000001 cycles: 1010603054 heartbeat IPC: 1.30061 cumulative IPC: 1.2981 (Simulation time: 2 hr 52 min 35 sec) 
Heartbeat CPU 0 instructions: 970000000 cycles: 1011308857 heartbeat IPC: 0.635603 cumulative IPC: 0.797339 (Simulation time: 2 hr 52 min 41 sec) 
Heartbeat CPU 1 instructions: 1400000000 cycles: 1018298575 heartbeat IPC: 1.29946 cumulative IPC: 1.29811 (Simulation time: 2 hr 53 min 43 sec) 
Heartbeat CPU 1 instructions: 1410000003 cycles: 1025997750 heartbeat IPC: 1.29884 cumulative IPC: 1.29812 (Simulation time: 2 hr 54 min 51 sec) 
Heartbeat CPU 0 instructions: 980000000 cycles: 1027071606 heartbeat IPC: 0.634407 cumulative IPC: 0.794474 (Simulation time: 2 hr 55 min 1 sec) 
Heartbeat CPU 3 instructions: 460000000 cycles: 1032600573 heartbeat IPC: 0.294679 cumulative IPC: 0.284797 (Simulation time: 2 hr 55 min 50 sec) 
Heartbeat CPU 1 instructions: 1420000000 cycles: 1033707191 heartbeat IPC: 1.29711 cumulative IPC: 1.29811 (Simulation time: 2 hr 56 min 0 sec) 
Heartbeat CPU 2 instructions: 480000000 cycles: 1040226145 heartbeat IPC: 0.326003 cumulative IPC: 0.307848 (Simulation time: 2 hr 56 min 57 sec) 
Heartbeat CPU 1 instructions: 1430000001 cycles: 1041404066 heartbeat IPC: 1.29923 cumulative IPC: 1.29812 (Simulation time: 2 hr 57 min 8 sec) 
Heartbeat CPU 0 instructions: 990000000 cycles: 1042737016 heartbeat IPC: 0.638349 cumulative IPC: 0.791793 (Simulation time: 2 hr 57 min 19 sec) 
Heartbeat CPU 1 instructions: 1440000000 cycles: 1049117299 heartbeat IPC: 1.29647 cumulative IPC: 1.2981 (Simulation time: 2 hr 58 min 16 sec) 
Heartbeat CPU 1 instructions: 1450000000 cycles: 1056811920 heartbeat IPC: 1.29961 cumulative IPC: 1.29812 (Simulation time: 2 hr 59 min 24 sec) 
Heartbeat CPU 0 instructions: 1000000000 cycles: 1058495708 heartbeat IPC: 0.63457 cumulative IPC: 0.789122 (Simulation time: 2 hr 59 min 39 sec) 
Heartbeat CPU 1 instructions: 1460000000 cycles: 1064508618 heartbeat IPC: 1.29926 cumulative IPC: 1.29813 (Simulation time: 3 hr 0 min 32 sec) 
Heartbeat CPU 3 instructions: 470000000 cycles: 1066484582 heartbeat IPC: 0.295124 cumulative IPC: 0.285171 (Simulation time: 3 hr 0 min 50 sec) 
Heartbeat CPU 2 instructions: 490000001 cycles: 1070942163 heartbeat IPC: 0.325563 cumulative IPC: 0.308427 (Simulation time: 3 hr 1 min 30 sec) 
Heartbeat CPU 1 instructions: 1470000001 cycles: 1072203142 heartbeat IPC: 1.29963 cumulative IPC: 1.29814 (Simulation time: 3 hr 1 min 41 sec) 
Heartbeat CPU 0 instructions: 1010000001 cycles: 1074118626 heartbeat IPC: 0.640085 cumulative IPC: 0.786654 (Simulation time: 3 hr 1 min 58 sec) 
Heartbeat CPU 1 instructions: 1480000000 cycles: 1079916865 heartbeat IPC: 1.29639 cumulative IPC: 1.29812 (Simulation time: 3 hr 2 min 49 sec) 
Heartbeat CPU 1 instructions: 1490000000 cycles: 1087610769 heartbeat IPC: 1.29973 cumulative IPC: 1.29814 (Simulation time: 3 hr 3 min 58 sec) 
Heartbeat CPU 0 instructions: 1020000000 cycles: 1089517982 heartbeat IPC: 0.649378 cumulative IPC: 0.78445 (Simulation time: 3 hr 4 min 15 sec) 
Heartbeat CPU 1 instructions: 1500000000 cycles: 1095305176 heartbeat IPC: 1.29965 cumulative IPC: 1.29815 (Simulation time: 3 hr 5 min 6 sec) 
Heartbeat CPU 3 instructions: 480000000 cycles: 1100490304 heartbeat IPC: 0.294068 cumulative IPC: 0.285483 (Simulation time: 3 hr 5 min 52 sec) 
Heartbeat CPU 2 instructions: 500000000 cycles: 1102182412 heartbeat IPC: 0.3201 cumulative IPC: 0.308802 (Simulation time: 3 hr 6 min 7 sec) 
Heartbeat CPU 1 instructions: 1510000003 cycles: 1103006686 heartbeat IPC: 1.29845 cumulative IPC: 1.29815 (Simulation time: 3 hr 6 min 14 sec) 
Heartbeat CPU 0 instructions: 1030000001 cycles: 1104737498 heartbeat IPC: 0.657051 cumulative IPC: 0.782459 (Simulation time: 3 hr 6 min 30 sec) 
Heartbeat CPU 1 instructions: 1520000000 cycles: 1110719512 heartbeat IPC: 1.29654 cumulative IPC: 1.29814 (Simulation time: 3 hr 7 min 22 sec) 
Heartbeat CPU 1 instructions: 1530000003 cycles: 1118410904 heartbeat IPC: 1.30016 cumulative IPC: 1.29815 (Simulation time: 3 hr 8 min 31 sec) 
Heartbeat CPU 0 instructions: 1040000000 cycles: 1120088816 heartbeat IPC: 0.65141 cumulative IPC: 0.780426 (Simulation time: 3 hr 8 min 46 sec) 
Heartbeat CPU 1 instructions: 1540000000 cycles: 1126109502 heartbeat IPC: 1.29894 cumulative IPC: 1.29816 (Simulation time: 3 hr 9 min 39 sec) 
Heartbeat CPU 2 instructions: 510000003 cycles: 1132776706 heartbeat IPC: 0.326858 cumulative IPC: 0.309353 (Simulation time: 3 hr 10 min 39 sec) 
Heartbeat CPU 1 instructions: 1550000001 cycles: 1133800846 heartbeat IPC: 1.30016 cumulative IPC: 1.29818 (Simulation time: 3 hr 10 min 48 sec) 
Heartbeat CPU 0 instructions: 1050000000 cycles: 1135423799 heartbeat IPC: 0.652104 cumulative IPC: 0.778467 (Simulation time: 3 hr 11 min 2 sec) 
Heartbeat CPU 3 instructions: 490000001 cycles: 1135461493 heartbeat IPC: 0.28595 cumulative IPC: 0.285499 (Simulation time: 3 hr 11 min 2 sec) 
Heartbeat CPU 1 instructions: 1560000000 cycles: 1141501555 heartbeat IPC: 1.29858 cumulative IPC: 1.29818 (Simulation time: 3 hr 11 min 56 sec) 
Heartbeat CPU 1 instructions: 1570000000 cycles: 1149211720 heartbeat IPC: 1.29699 cumulative IPC: 1.29817 (Simulation time: 3 hr 13 min 5 sec) 
Heartbeat CPU 0 instructions: 1060000000 cycles: 1150688428 heartbeat IPC: 0.655109 cumulative IPC: 0.776621 (Simulation time: 3 hr 13 min 18 sec) 
Heartbeat CPU 1 instructions: 1580000000 cycles: 1156886145 heartbeat IPC: 1.30303 cumulative IPC: 1.29821 (Simulation time: 3 hr 14 min 13 sec) 
Heartbeat CPU 2 instructions: 520000000 cycles: 1163371962 heartbeat IPC: 0.326848 cumulative IPC: 0.309871 (Simulation time: 3 hr 15 min 11 sec) 
Heartbeat CPU 1 instructions: 1590000000 cycles: 1164586017 heartbeat IPC: 1.29872 cumulative IPC: 1.29821 (Simulation time: 3 hr 15 min 22 sec) 
Heartbeat CPU 0 instructions: 1070000001 cycles: 1165999934 heartbeat IPC: 0.653104 cumulative IPC: 0.774794 (Simulation time: 3 hr 15 min 34 sec) 
Heartbeat CPU 3 instructions: 500000000 cycles: 1169421467 heartbeat IPC: 0.294464 cumulative IPC: 0.285792 (Simulation time: 3 hr 16 min 5 sec) 
Heartbeat CPU 1 instructions: 1600000000 cycles: 1172289018 heartbeat IPC: 1.2982 cumulative IPC: 1.29821 (Simulation time: 3 hr 16 min 30 sec) 
Heartbeat CPU 1 instructions: 1610000003 cycles: 1179997767 heartbeat IPC: 1.29723 cumulative IPC: 1.2982 (Simulation time: 3 hr 17 min 39 sec) 
Heartbeat CPU 0 instructions: 1080000000 cycles: 1181249034 heartbeat IPC: 0.655776 cumulative IPC: 0.773067 (Simulation time: 3 hr 17 min 50 sec) 
Heartbeat CPU 1 instructions: 1620000000 cycles: 1187696177 heartbeat IPC: 1.29897 cumulative IPC: 1.29821 (Simulation time: 3 hr 18 min 47 sec) 
Heartbeat CPU 2 instructions: 530000002 cycles: 1194444225 heartbeat IPC: 0.321831 cumulative IPC: 0.310221 (Simulation time: 3 hr 19 min 46 sec) 
Heartbeat CPU 1 instructions: 1630000001 cycles: 1195411736 heartbeat IPC: 1.29608 cumulative IPC: 1.29819 (Simulation time: 3 hr 19 min 55 sec) 
Heartbeat CPU 0 instructions: 1090000000 cycles: 1196560879 heartbeat IPC: 0.653089 cumulative IPC: 0.771343 (Simulation time: 3 hr 20 min 5 sec) 
Heartbeat CPU 1 instructions: 1640000000 cycles: 1203109511 heartbeat IPC: 1.29908 cumulative IPC: 1.2982 (Simulation time: 3 hr 21 min 3 sec) 
Heartbeat CPU 3 instructions: 510000000 cycles: 1204298408 heartbeat IPC: 0.286722 cumulative IPC: 0.285823 (Simulation time: 3 hr 21 min 13 sec) 
Heartbeat CPU 1 instructions: 1650000000 cycles: 1210823879 heartbeat IPC: 1.29628 cumulative IPC: 1.29819 (Simulation time: 3 hr 22 min 11 sec) 
Heartbeat CPU 0 instructions: 1100000000 cycles: 1211880996 heartbeat IPC: 0.652737 cumulative IPC: 0.769663 (Simulation time: 3 hr 22 min 21 sec) 
Heartbeat CPU 1 instructions: 1660000000 cycles: 1218511598 heartbeat IPC: 1.30078 cumulative IPC: 1.2982 (Simulation time: 3 hr 23 min 20 sec) 
Heartbeat CPU 2 instructions: 540000000 cycles: 1224972613 heartbeat IPC: 0.327564 cumulative IPC: 0.310705 (Simulation time: 3 hr 24 min 17 sec) 
Heartbeat CPU 1 instructions: 1670000002 cycles: 1226212068 heartbeat IPC: 1.29862 cumulative IPC: 1.29821 (Simulation time: 3 hr 24 min 28 sec) 
Heartbeat CPU 0 instructions: 1110000000 cycles: 1227187891 heartbeat IPC: 0.6533 cumulative IPC: 0.768038 (Simulation time: 3 hr 24 min 37 sec) 
Heartbeat CPU 1 instructions: 1680000000 cycles: 1233907746 heartbeat IPC: 1.29943 cumulative IPC: 1.29822 (Simulation time: 3 hr 25 min 36 sec) 
Heartbeat CPU 3 instructions: 520000000 cycles: 1238013115 heartbeat IPC: 0.296606 cumulative IPC: 0.286151 (Simulation time: 3 hr 26 min 13 sec) 
Heartbeat CPU 1 instructions: 1690000000 cycles: 1241613627 heartbeat IPC: 1.29771 cumulative IPC: 1.29821 (Simulation time: 3 hr 26 min 45 sec) 
Heartbeat CPU 0 instructions: 1120000000 cycles: 1242573663 heartbeat IPC: 0.649951 cumulative IPC: 0.766404 (Simulation time: 3 hr 26 min 53 sec) 
Heartbeat CPU 1 instructions: 1700000000 cycles: 1249299894 heartbeat IPC: 1.30102 cumulative IPC: 1.29823 (Simulation time: 3 hr 27 min 52 sec) 
Heartbeat CPU 2 instructions: 550000002 cycles: 1256068249 heartbeat IPC: 0.321589 cumulative IPC: 0.311005 (Simulation time: 3 hr 28 min 52 sec) 
Heartbeat CPU 1 instructions: 1710000003 cycles: 1256997598 heartbeat IPC: 1.29909 cumulative IPC: 1.29824 (Simulation time: 3 hr 29 min 1 sec) 
Heartbeat CPU 0 instructions: 1130000000 cycles: 1257896235 heartbeat IPC: 0.652632 cumulative IPC: 0.764858 (Simulation time: 3 hr 29 min 9 sec) 
Heartbeat CPU 1 instructions: 1720000000 cycles: 1264687363 heartbeat IPC: 1.30043 cumulative IPC: 1.29825 (Simulation time: 3 hr 30 min 9 sec) 
Heartbeat CPU 3 instructions: 530000000 cycles: 1271846908 heartbeat IPC: 0.295562 cumulative IPC: 0.28643 (Simulation time: 3 hr 31 min 12 sec) 
Heartbeat CPU 1 instructions: 1730000003 cycles: 1272397684 heartbeat IPC: 1.29696 cumulative IPC: 1.29824 (Simulation time: 3 hr 31 min 17 sec) 
Heartbeat CPU 0 instructions: 1140000000 cycles: 1273276860 heartbeat IPC: 0.650169 cumulative IPC: 0.763314 (Simulation time: 3 hr 31 min 25 sec) 
Heartbeat CPU 1 instructions: 1740000000 cycles: 1280096670 heartbeat IPC: 1.29887 cumulative IPC: 1.29825 (Simulation time: 3 hr 32 min 26 sec) 
Heartbeat CPU 2 instructions: 560000000 cycles: 1287234405 heartbeat IPC: 0.320861 cumulative IPC: 0.311271 (Simulation time: 3 hr 33 min 29 sec) 
Heartbeat CPU 1 instructions: 1750000001 cycles: 1287795321 heartbeat IPC: 1.29893 cumulative IPC: 1.29825 (Simulation time: 3 hr 33 min 34 sec) 
Heartbeat CPU 0 instructions: 1150000003 cycles: 1288668704 heartbeat IPC: 0.649695 cumulative IPC: 0.761804 (Simulation time: 3 hr 33 min 42 sec) 
Heartbeat CPU 1 instructions: 1760000000 cycles: 1295481151 heartbeat IPC: 1.3011 cumulative IPC: 1.29827 (Simulation time: 3 hr 34 min 42 sec) 
Heartbeat CPU 1 instructions: 1770000000 cycles: 1303172787 heartbeat IPC: 1.30011 cumulative IPC: 1.29828 (Simulation time: 3 hr 35 min 50 sec) 
Heartbeat CPU 0 instructions: 1160000000 cycles: 1304021766 heartbeat IPC: 0.651336 cumulative IPC: 0.760358 (Simulation time: 3 hr 35 min 58 sec) 
Heartbeat CPU 3 instructions: 540000000 cycles: 1305395550 heartbeat IPC: 0.298075 cumulative IPC: 0.286763 (Simulation time: 3 hr 36 min 10 sec) 
Heartbeat CPU 1 instructions: 1780000000 cycles: 1310880750 heartbeat IPC: 1.29736 cumulative IPC: 1.29828 (Simulation time: 3 hr 36 min 59 sec) 
Heartbeat CPU 1 instructions: 1790000003 cycles: 1318630752 heartbeat IPC: 1.29032 cumulative IPC: 1.29823 (Simulation time: 3 hr 38 min 3 sec) 
Heartbeat CPU 0 instructions: 1170000002 cycles: 1319377269 heartbeat IPC: 0.651232 cumulative IPC: 0.758948 (Simulation time: 3 hr 38 min 9 sec) 
Heartbeat CPU 2 instructions: 570000001 cycles: 1326205888 heartbeat IPC: 0.256598 cumulative IPC: 0.309489 (Simulation time: 3 hr 39 min 8 sec) 
Heartbeat CPU 1 instructions: 1800000000 cycles: 1326393724 heartbeat IPC: 1.28817 cumulative IPC: 1.29816 (Simulation time: 3 hr 39 min 10 sec) 
Heartbeat CPU 1 instructions: 1810000003 cycles: 1334097169 heartbeat IPC: 1.29812 cumulative IPC: 1.29816 (Simulation time: 3 hr 40 min 18 sec) 
Heartbeat CPU 0 instructions: 1180000000 cycles: 1334569540 heartbeat IPC: 0.658229 cumulative IPC: 0.757677 (Simulation time: 3 hr 40 min 22 sec) 
Heartbeat CPU 3 instructions: 550000000 cycles: 1339467024 heartbeat IPC: 0.293501 cumulative IPC: 0.286953 (Simulation time: 3 hr 41 min 5 sec) 
Heartbeat CPU 1 instructions: 1820000000 cycles: 1341802893 heartbeat IPC: 1.29774 cumulative IPC: 1.29816 (Simulation time: 3 hr 41 min 26 sec) 
Heartbeat CPU 1 instructions: 1830000002 cycles: 1349507666 heartbeat IPC: 1.2979 cumulative IPC: 1.29816 (Simulation time: 3 hr 42 min 34 sec) 
Heartbeat CPU 0 instructions: 1190000001 cycles: 1349759945 heartbeat IPC: 0.65831 cumulative IPC: 0.756439 (Simulation time: 3 hr 42 min 37 sec) 
Heartbeat CPU 1 instructions: 1840000000 cycles: 1357224767 heartbeat IPC: 1.29582 cumulative IPC: 1.29814 (Simulation time: 3 hr 43 min 43 sec) 
Heartbeat CPU 2 instructions: 580000000 cycles: 1357810388 heartbeat IPC: 0.316411 cumulative IPC: 0.309667 (Simulation time: 3 hr 43 min 48 sec) 
Heartbeat CPU 0 instructions: 1200000000 cycles: 1364903515 heartbeat IPC: 0.660346 cumulative IPC: 0.75526 (Simulation time: 3 hr 44 min 51 sec) 
Heartbeat CPU 1 instructions: 1850000000 cycles: 1364926357 heartbeat IPC: 1.29843 cumulative IPC: 1.29814 (Simulation time: 3 hr 44 min 52 sec) 
Heartbeat CPU 1 instructions: 1860000000 cycles: 1372617703 heartbeat IPC: 1.30016 cumulative IPC: 1.29815 (Simulation time: 3 hr 46 min 1 sec) 
Heartbeat CPU 3 instructions: 560000000 cycles: 1372856162 heartbeat IPC: 0.299499 cumulative IPC: 0.28729 (Simulation time: 3 hr 46 min 3 sec) 
Heartbeat CPU 0 instructions: 1210000002 cycles: 1380006115 heartbeat IPC: 0.662138 cumulative IPC: 0.754134 (Simulation time: 3 hr 47 min 6 sec) 
Heartbeat CPU 1 instructions: 1870000002 cycles: 1380318423 heartbeat IPC: 1.29858 cumulative IPC: 1.29816 (Simulation time: 3 hr 47 min 9 sec) 
Heartbeat CPU 1 instructions: 1880000000 cycles: 1388014779 heartbeat IPC: 1.29932 cumulative IPC: 1.29816 (Simulation time: 3 hr 48 min 18 sec) 
Heartbeat CPU 2 instructions: 590000001 cycles: 1389802859 heartbeat IPC: 0.312574 cumulative IPC: 0.309741 (Simulation time: 3 hr 48 min 33 sec) 
Heartbeat CPU 0 instructions: 1220000000 cycles: 1395214615 heartbeat IPC: 0.657527 cumulative IPC: 0.752973 (Simulation time: 3 hr 49 min 21 sec) 
Heartbeat CPU 1 instructions: 1890000000 cycles: 1395721440 heartbeat IPC: 1.29758 cumulative IPC: 1.29816 (Simulation time: 3 hr 49 min 26 sec) 
Heartbeat CPU 1 instructions: 1900000000 cycles: 1403430545 heartbeat IPC: 1.29717 cumulative IPC: 1.29816 (Simulation time: 3 hr 50 min 35 sec) 
Heartbeat CPU 3 instructions: 570000001 cycles: 1406328327 heartbeat IPC: 0.298756 cumulative IPC: 0.287591 (Simulation time: 3 hr 51 min 0 sec) 
Heartbeat CPU 0 instructions: 1230000000 cycles: 1410352768 heartbeat IPC: 0.660583 cumulative IPC: 0.75188 (Simulation time: 3 hr 51 min 36 sec) 
Heartbeat CPU 1 instructions: 1910000000 cycles: 1411140424 heartbeat IPC: 1.29704 cumulative IPC: 1.29815 (Simulation time: 3 hr 51 min 43 sec) 
Heartbeat CPU 1 instructions: 1920000000 cycles: 1418846769 heartbeat IPC: 1.29763 cumulative IPC: 1.29815 (Simulation time: 3 hr 52 min 52 sec) 
Heartbeat CPU 2 instructions: 600000000 cycles: 1421774390 heartbeat IPC: 0.312778 cumulative IPC: 0.309816 (Simulation time: 3 hr 53 min 17 sec) 
Heartbeat CPU 0 instructions: 1240000000 cycles: 1425624382 heartbeat IPC: 0.65481 cumulative IPC: 0.750735 (Simulation time: 3 hr 53 min 52 sec) 
Heartbeat CPU 1 instructions: 1930000000 cycles: 1426570114 heartbeat IPC: 1.29478 cumulative IPC: 1.29813 (Simulation time: 3 hr 54 min 0 sec) 
Heartbeat CPU 1 instructions: 1940000000 cycles: 1434271846 heartbeat IPC: 1.29841 cumulative IPC: 1.29813 (Simulation time: 3 hr 55 min 6 sec) 
Heartbeat CPU 0 instructions: 1250000001 cycles: 1441026339 heartbeat IPC: 0.649268 cumulative IPC: 0.749542 (Simulation time: 3 hr 56 min 3 sec) 
Heartbeat CPU 1 instructions: 1950000002 cycles: 1442076959 heartbeat IPC: 1.28121 cumulative IPC: 1.29803 (Simulation time: 3 hr 56 min 12 sec) 
Heartbeat CPU 3 instructions: 580000000 cycles: 1446232842 heartbeat IPC: 0.250598 cumulative IPC: 0.286469 (Simulation time: 3 hr 56 min 49 sec) 
Heartbeat CPU 1 instructions: 1960000000 cycles: 1449796204 heartbeat IPC: 1.29546 cumulative IPC: 1.29801 (Simulation time: 3 hr 57 min 20 sec) 
Heartbeat CPU 2 instructions: 610000000 cycles: 1453656574 heartbeat IPC: 0.313655 cumulative IPC: 0.309909 (Simulation time: 3 hr 57 min 54 sec) 
Heartbeat CPU 0 instructions: 1260000000 cycles: 1456358635 heartbeat IPC: 0.652218 cumulative IPC: 0.748417 (Simulation time: 3 hr 58 min 18 sec) 
Heartbeat CPU 1 instructions: 1970000001 cycles: 1457488787 heartbeat IPC: 1.29995 cumulative IPC: 1.29802 (Simulation time: 3 hr 58 min 28 sec) 
Heartbeat CPU 1 instructions: 1980000000 cycles: 1465205863 heartbeat IPC: 1.29583 cumulative IPC: 1.29801 (Simulation time: 3 hr 59 min 36 sec) 
Finished CPU 0 instructions: 1000000001 cycles: 1337700631 cumulative IPC: 0.747551 (Simulation time: 4 hr 0 min 4 sec) 
Heartbeat CPU 0 instructions: 1270000001 cycles: 1471737416 heartbeat IPC: 0.650247 cumulative IPC: 0.747291 (Simulation time: 4 hr 0 min 34 sec) 
Heartbeat CPU 1 instructions: 1990000002 cycles: 1472906952 heartbeat IPC: 1.29852 cumulative IPC: 1.29801 (Simulation time: 4 hr 0 min 44 sec) 
Heartbeat CPU 3 instructions: 590000000 cycles: 1479906332 heartbeat IPC: 0.29697 cumulative IPC: 0.286731 (Simulation time: 4 hr 1 min 46 sec) 
*** Reached end of trace for Core: 1 Repeating trace: /scratch/user/djimenez/champsim-traces/speccpu2017/xz/603.bwaves_s/603.bwaves_s-2609B.champsimtrace.xz
Heartbeat CPU 1 instructions: 2000000000 cycles: 1480614178 heartbeat IPC: 1.29748 cumulative IPC: 1.29801 (Simulation time: 4 hr 1 min 52 sec) 
Heartbeat CPU 2 instructions: 620000000 cycles: 1484859415 heartbeat IPC: 0.320484 cumulative IPC: 0.310152 (Simulation time: 4 hr 2 min 30 sec) 
Heartbeat CPU 0 instructions: 1280000000 cycles: 1487051245 heartbeat IPC: 0.653004 cumulative IPC: 0.746226 (Simulation time: 4 hr 2 min 49 sec) 
Heartbeat CPU 1 instructions: 2010000001 cycles: 1488365313 heartbeat IPC: 1.29013 cumulative IPC: 1.29796 (Simulation time: 4 hr 3 min 0 sec) 
Heartbeat CPU 1 instructions: 2020000000 cycles: 1496105918 heartbeat IPC: 1.29189 cumulative IPC: 1.29793 (Simulation time: 4 hr 4 min 8 sec) 
Heartbeat CPU 0 instructions: 1290000001 cycles: 1502393853 heartbeat IPC: 0.65178 cumulative IPC: 0.74517 (Simulation time: 4 hr 5 min 4 sec) 
Heartbeat CPU 1 instructions: 2030000000 cycles: 1503868332 heartbeat IPC: 1.28826 cumulative IPC: 1.29788 (Simulation time: 4 hr 5 min 17 sec) 
Heartbeat CPU 1 instructions: 2040000000 cycles: 1511601203 heartbeat IPC: 1.29318 cumulative IPC: 1.29785 (Simulation time: 4 hr 6 min 25 sec) 
Heartbeat CPU 3 instructions: 600000000 cycles: 1513426712 heartbeat IPC: 0.298326 cumulative IPC: 0.287012 (Simulation time: 4 hr 6 min 41 sec) 
Heartbeat CPU 2 instructions: 630000000 cycles: 1516703227 heartbeat IPC: 0.314033 cumulative IPC: 0.310241 (Simulation time: 4 hr 7 min 10 sec) 
Heartbeat CPU 0 instructions: 1300000000 cycles: 1517699131 heartbeat IPC: 0.653369 cumulative IPC: 0.744157 (Simulation time: 4 hr 7 min 19 sec) 
Heartbeat CPU 1 instructions: 2050000001 cycles: 1519344621 heartbeat IPC: 1.29142 cumulative IPC: 1.29781 (Simulation time: 4 hr 7 min 34 sec) 
Heartbeat CPU 1 instructions: 2060000000 cycles: 1527091002 heartbeat IPC: 1.29093 cumulative IPC: 1.29778 (Simulation time: 4 hr 8 min 42 sec) 
Heartbeat CPU 0 instructions: 1310000003 cycles: 1532951654 heartbeat IPC: 0.655629 cumulative IPC: 0.743194 (Simulation time: 4 hr 9 min 34 sec) 
Heartbeat CPU 1 instructions: 2070000003 cycles: 1534835698 heartbeat IPC: 1.29121 cumulative IPC: 1.29774 (Simulation time: 4 hr 9 min 50 sec) 
Heartbeat CPU 1 instructions: 2080000000 cycles: 1542586807 heartbeat IPC: 1.29014 cumulative IPC: 1.2977 (Simulation time: 4 hr 10 min 59 sec) 
Heartbeat CPU 3 instructions: 610000000 cycles: 1546664891 heartbeat IPC: 0.300859 cumulative IPC: 0.287337 (Simulation time: 4 hr 11 min 35 sec) 
Heartbeat CPU 0 instructions: 1320000000 cycles: 1548261730 heartbeat IPC: 0.653164 cumulative IPC: 0.742222 (Simulation time: 4 hr 11 min 49 sec) 
Heartbeat CPU 2 instructions: 640000000 cycles: 1548548612 heartbeat IPC: 0.314017 cumulative IPC: 0.310326 (Simulation time: 4 hr 11 min 52 sec) 
Heartbeat CPU 1 instructions: 2090000002 cycles: 1550334828 heartbeat IPC: 1.29065 cumulative IPC: 1.29766 (Simulation time: 4 hr 12 min 7 sec) 
Heartbeat CPU 1 instructions: 2100000000 cycles: 1558066735 heartbeat IPC: 1.29334 cumulative IPC: 1.29764 (Simulation time: 4 hr 13 min 16 sec) 
Heartbeat CPU 0 instructions: 1330000000 cycles: 1563526168 heartbeat IPC: 0.655117 cumulative IPC: 0.741294 (Simulation time: 4 hr 14 min 4 sec) 
Heartbeat CPU 1 instructions: 2110000002 cycles: 1565804302 heartbeat IPC: 1.2924 cumulative IPC: 1.29761 (Simulation time: 4 hr 14 min 24 sec) 
Heartbeat CPU 1 instructions: 2120000000 cycles: 1573561111 heartbeat IPC: 1.28919 cumulative IPC: 1.29756 (Simulation time: 4 hr 15 min 33 sec) 
Heartbeat CPU 0 instructions: 1340000000 cycles: 1578903075 heartbeat IPC: 0.650326 cumulative IPC: 0.740328 (Simulation time: 4 hr 16 min 20 sec) 
Heartbeat CPU 3 instructions: 620000000 cycles: 1579858504 heartbeat IPC: 0.301263 cumulative IPC: 0.287656 (Simulation time: 4 hr 16 min 29 sec) 
Heartbeat CPU 2 instructions: 650000002 cycles: 1579869479 heartbeat IPC: 0.319276 cumulative IPC: 0.31052 (Simulation time: 4 hr 16 min 29 sec) 
Heartbeat CPU 1 instructions: 2130000002 cycles: 1581314788 heartbeat IPC: 1.28971 cumulative IPC: 1.29752 (Simulation time: 4 hr 16 min 41 sec) 
Heartbeat CPU 1 instructions: 2140000000 cycles: 1589056431 heartbeat IPC: 1.29172 cumulative IPC: 1.29749 (Simulation time: 4 hr 17 min 50 sec) 
Heartbeat CPU 0 instructions: 1350000002 cycles: 1594274552 heartbeat IPC: 0.650556 cumulative IPC: 0.739385 (Simulation time: 4 hr 18 min 36 sec) 
Heartbeat CPU 1 instructions: 2150000002 cycles: 1596803221 heartbeat IPC: 1.29086 cumulative IPC: 1.29745 (Simulation time: 4 hr 18 min 59 sec) 
Heartbeat CPU 1 instructions: 2160000000 cycles: 1604555635 heartbeat IPC: 1.28992 cumulative IPC: 1.29741 (Simulation time: 4 hr 20 min 7 sec) 
Heartbeat CPU 0 instructions: 1360000000 cycles: 1609606498 heartbeat IPC: 0.652233 cumulative IPC: 0.738481 (Simulation time: 4 hr 20 min 52 sec) 
Heartbeat CPU 2 instructions: 660000000 cycles: 1611480308 heartbeat IPC: 0.316347 cumulative IPC: 0.310644 (Simulation time: 4 hr 21 min 9 sec) 
Heartbeat CPU 1 instructions: 2170000002 cycles: 1612299387 heartbeat IPC: 1.29136 cumulative IPC: 1.29738 (Simulation time: 4 hr 21 min 16 sec) 
Heartbeat CPU 3 instructions: 630000002 cycles: 1613218019 heartbeat IPC: 0.299765 cumulative IPC: 0.287928 (Simulation time: 4 hr 21 min 24 sec) 
Heartbeat CPU 1 instructions: 2180000000 cycles: 1620049567 heartbeat IPC: 1.29029 cumulative IPC: 1.29735 (Simulation time: 4 hr 22 min 25 sec) 
Heartbeat CPU 0 instructions: 1370000001 cycles: 1625028421 heartbeat IPC: 0.648428 cumulative IPC: 0.737552 (Simulation time: 4 hr 23 min 8 sec) 
Heartbeat CPU 1 instructions: 2190000000 cycles: 1627788454 heartbeat IPC: 1.29218 cumulative IPC: 1.29732 (Simulation time: 4 hr 23 min 33 sec) 
Heartbeat CPU 1 instructions: 2200000000 cycles: 1635523799 heartbeat IPC: 1.29277 cumulative IPC: 1.2973 (Simulation time: 4 hr 24 min 41 sec) 
Heartbeat CPU 0 instructions: 1380000000 cycles: 1640379128 heartbeat IPC: 0.651436 cumulative IPC: 0.736676 (Simulation time: 4 hr 25 min 24 sec) 
Heartbeat CPU 2 instructions: 670000000 cycles: 1643093111 heartbeat IPC: 0.316328 cumulative IPC: 0.310763 (Simulation time: 4 hr 25 min 48 sec) 
Heartbeat CPU 1 instructions: 2210000002 cycles: 1643273019 heartbeat IPC: 1.29045 cumulative IPC: 1.29726 (Simulation time: 4 hr 25 min 49 sec) 
Heartbeat CPU 3 instructions: 640000000 cycles: 1646234895 heartbeat IPC: 0.302875 cumulative IPC: 0.288254 (Simulation time: 4 hr 26 min 15 sec) 
Heartbeat CPU 1 instructions: 2220000000 cycles: 1651015994 heartbeat IPC: 1.29149 cumulative IPC: 1.29723 (Simulation time: 4 hr 26 min 57 sec) 
Heartbeat CPU 0 instructions: 1390000001 cycles: 1655805841 heartbeat IPC: 0.648226 cumulative IPC: 0.735782 (Simulation time: 4 hr 27 min 39 sec) 
Heartbeat CPU 1 instructions: 2230000001 cycles: 1658769565 heartbeat IPC: 1.28973 cumulative IPC: 1.29719 (Simulation time: 4 hr 28 min 5 sec) 
Heartbeat CPU 1 instructions: 2240000000 cycles: 1666513555 heartbeat IPC: 1.29132 cumulative IPC: 1.29716 (Simulation time: 4 hr 29 min 13 sec) 
Heartbeat CPU 0 instructions: 1400000000 cycles: 1671170822 heartbeat IPC: 0.650831 cumulative IPC: 0.734934 (Simulation time: 4 hr 29 min 54 sec) 
Heartbeat CPU 1 instructions: 2250000001 cycles: 1674263926 heartbeat IPC: 1.29026 cumulative IPC: 1.29713 (Simulation time: 4 hr 30 min 21 sec) 
Heartbeat CPU 2 instructions: 680000000 cycles: 1674774642 heartbeat IPC: 0.315641 cumulative IPC: 0.310863 (Simulation time: 4 hr 30 min 26 sec) 
Heartbeat CPU 3 instructions: 650000000 cycles: 1679052178 heartbeat IPC: 0.304717 cumulative IPC: 0.288603 (Simulation time: 4 hr 31 min 4 sec) 
Heartbeat CPU 1 instructions: 2260000000 cycles: 1682001689 heartbeat IPC: 1.29236 cumulative IPC: 1.29711 (Simulation time: 4 hr 31 min 30 sec) 
Heartbeat CPU 0 instructions: 1410000000 cycles: 1686455475 heartbeat IPC: 0.654251 cumulative IPC: 0.734142 (Simulation time: 4 hr 32 min 9 sec) 
Heartbeat CPU 1 instructions: 2270000003 cycles: 1689742886 heartbeat IPC: 1.29179 cumulative IPC: 1.29708 (Simulation time: 4 hr 32 min 38 sec) 
Heartbeat CPU 1 instructions: 2280000000 cycles: 1697485274 heartbeat IPC: 1.29159 cumulative IPC: 1.29705 (Simulation time: 4 hr 33 min 46 sec) 
Heartbeat CPU 0 instructions: 1420000000 cycles: 1701797278 heartbeat IPC: 0.651814 cumulative IPC: 0.733338 (Simulation time: 4 hr 34 min 24 sec) 
Heartbeat CPU 1 instructions: 2290000003 cycles: 1705233610 heartbeat IPC: 1.2906 cumulative IPC: 1.29702 (Simulation time: 4 hr 34 min 54 sec) 
Heartbeat CPU 2 instructions: 690000000 cycles: 1706029189 heartbeat IPC: 0.319953 cumulative IPC: 0.311043 (Simulation time: 4 hr 35 min 1 sec) 
Heartbeat CPU 3 instructions: 660000000 cycles: 1712047126 heartbeat IPC: 0.303077 cumulative IPC: 0.288905 (Simulation time: 4 hr 35 min 53 sec) 
Heartbeat CPU 1 instructions: 2300000000 cycles: 1712988207 heartbeat IPC: 1.28956 cumulative IPC: 1.29698 (Simulation time: 4 hr 36 min 2 sec) 
Heartbeat CPU 0 instructions: 1430000001 cycles: 1717047802 heartbeat IPC: 0.655715 cumulative IPC: 0.732592 (Simulation time: 4 hr 36 min 37 sec) 
Heartbeat CPU 1 instructions: 2310000001 cycles: 1720732461 heartbeat IPC: 1.29128 cumulative IPC: 1.29696 (Simulation time: 4 hr 37 min 10 sec) 
Heartbeat CPU 1 instructions: 2320000000 cycles: 1728480962 heartbeat IPC: 1.29057 cumulative IPC: 1.29692 (Simulation time: 4 hr 38 min 18 sec) 
Heartbeat CPU 0 instructions: 1440000000 cycles: 1732396043 heartbeat IPC: 0.65154 cumulative IPC: 0.731815 (Simulation time: 4 hr 38 min 52 sec) 
Heartbeat CPU 1 instructions: 2330000002 cycles: 1736231264 heartbeat IPC: 1.29027 cumulative IPC: 1.29689 (Simulation time: 4 hr 39 min 26 sec) 
Heartbeat CPU 2 instructions: 700000000 cycles: 1737707200 heartbeat IPC: 0.315676 cumulative IPC: 0.311135 (Simulation time: 4 hr 39 min 39 sec) 
Heartbeat CPU 1 instructions: 2340000000 cycles: 1743987148 heartbeat IPC: 1.28934 cumulative IPC: 1.29686 (Simulation time: 4 hr 40 min 34 sec) 
Heartbeat CPU 3 instructions: 670000000 cycles: 1745260139 heartbeat IPC: 0.301087 cumulative IPC: 0.289155 (Simulation time: 4 hr 40 min 45 sec) 
Heartbeat CPU 0 instructions: 1450000000 cycles: 1747738942 heartbeat IPC: 0.651767 cumulative IPC: 0.731055 (Simulation time: 4 hr 41 min 7 sec) 
Heartbeat CPU 1 instructions: 2350000000 cycles: 1751739571 heartbeat IPC: 1.28992 cumulative IPC: 1.29682 (Simulation time: 4 hr 41 min 42 sec) 
Heartbeat CPU 1 instructions: 2360000000 cycles: 1759486926 heartbeat IPC: 1.29076 cumulative IPC: 1.29679 (Simulation time: 4 hr 42 min 50 sec) 
Heartbeat CPU 0 instructions: 1460000000 cycles: 1763086556 heartbeat IPC: 0.651567 cumulative IPC: 0.730308 (Simulation time: 4 hr 43 min 22 sec) 
Heartbeat CPU 1 instructions: 2370000000 cycles: 1767233958 heartbeat IPC: 1.29082 cumulative IPC: 1.29677 (Simulation time: 4 hr 43 min 59 sec) 
Heartbeat CPU 2 instructions: 710000000 cycles: 1769145816 heartbeat IPC: 0.31808 cumulative IPC: 0.311268 (Simulation time: 4 hr 44 min 16 sec) 
Heartbeat CPU 1 instructions: 2380000000 cycles: 1774984180 heartbeat IPC: 1.29029 cumulative IPC: 1.29674 (Simulation time: 4 hr 45 min 7 sec) 
Heartbeat CPU 3 instructions: 680000000 cycles: 1778412128 heartbeat IPC: 0.301641 cumulative IPC: 0.289407 (Simulation time: 4 hr 45 min 37 sec) 
Heartbeat CPU 0 instructions: 1470000002 cycles: 1778470139 heartbeat IPC: 0.650044 cumulative IPC: 0.729559 (Simulation time: 4 hr 45 min 38 sec) 
Heartbeat CPU 1 instructions: 2390000003 cycles: 1782726920 heartbeat IPC: 1.29153 cumulative IPC: 1.29671 (Simulation time: 4 hr 46 min 15 sec) 
Heartbeat CPU 1 instructions: 2400000000 cycles: 1790458214 heartbeat IPC: 1.29344 cumulative IPC: 1.2967 (Simulation time: 4 hr 47 min 24 sec) 
Heartbeat CPU 0 instructions: 1480000000 cycles: 1793784927 heartbeat IPC: 0.652964 cumulative IPC: 0.728853 (Simulation time: 4 hr 47 min 53 sec) 
Heartbeat CPU 1 instructions: 2410000000 cycles: 1798202854 heartbeat IPC: 1.29122 cumulative IPC: 1.29667 (Simulation time: 4 hr 48 min 32 sec) 
Heartbeat CPU 2 instructions: 720000000 cycles: 1800861624 heartbeat IPC: 0.3153 cumulative IPC: 0.311344 (Simulation time: 4 hr 48 min 56 sec) 
Heartbeat CPU 1 instructions: 2420000000 cycles: 1805956427 heartbeat IPC: 1.28973 cumulative IPC: 1.29664 (Simulation time: 4 hr 49 min 40 sec) 
Heartbeat CPU 0 instructions: 1490000001 cycles: 1809171575 heartbeat IPC: 0.649914 cumulative IPC: 0.72813 (Simulation time: 4 hr 50 min 9 sec) 
Heartbeat CPU 3 instructions: 690000001 cycles: 1811873791 heartbeat IPC: 0.298849 cumulative IPC: 0.289595 (Simulation time: 4 hr 50 min 32 sec) 
Heartbeat CPU 1 instructions: 2430000000 cycles: 1813699891 heartbeat IPC: 1.29141 cumulative IPC: 1.29661 (Simulation time: 4 hr 50 min 48 sec) 
Heartbeat CPU 1 instructions: 2440000000 cycles: 1821452571 heartbeat IPC: 1.28988 cumulative IPC: 1.29658 (Simulation time: 4 hr 51 min 57 sec) 
Heartbeat CPU 0 instructions: 1500000000 cycles: 1824560521 heartbeat IPC: 0.649817 cumulative IPC: 0.727418 (Simulation time: 4 hr 52 min 24 sec) 
Heartbeat CPU 1 instructions: 2450000002 cycles: 1829201639 heartbeat IPC: 1.29048 cumulative IPC: 1.29656 (Simulation time: 4 hr 53 min 5 sec) 
Heartbeat CPU 2 instructions: 730000003 cycles: 1832715380 heartbeat IPC: 0.313935 cumulative IPC: 0.311393 (Simulation time: 4 hr 53 min 35 sec) 
Heartbeat CPU 1 instructions: 2460000000 cycles: 1836974758 heartbeat IPC: 1.28648 cumulative IPC: 1.29651 (Simulation time: 4 hr 54 min 12 sec) 
Heartbeat CPU 0 instructions: 1510000002 cycles: 1839886853 heartbeat IPC: 0.652472 cumulative IPC: 0.726746 (Simulation time: 4 hr 54 min 38 sec) 
Heartbeat CPU 1 instructions: 2470000000 cycles: 1844712504 heartbeat IPC: 1.29237 cumulative IPC: 1.29649 (Simulation time: 4 hr 55 min 20 sec) 
[...]
Heartbeat CPU 1 instructions: 4580000000 cycles: 3478619625 heartbeat IPC: 1.29087 cumulative IPC: 1.294 (Simulation time: 9 hr 5 min 45 sec) 
Heartbeat CPU 0 instructions: 2810000003 cycles: 3479339431 heartbeat IPC: 0.63382 cumulative IPC: 0.759157 (Simulation time: 9 hr 5 min 51 sec) 
Heartbeat CPU 3 instructions: 1170000001 cycles: 3485752787 heartbeat IPC: 0.292912 cumulative IPC: 0.28818 (Simulation time: 9 hr 6 min 48 sec) 
Heartbeat CPU 1 instructions: 4590000003 cycles: 3486360860 heartbeat IPC: 1.29178 cumulative IPC: 1.29399 (Simulation time: 9 hr 6 min 54 sec) 
Heartbeat CPU 1 instructions: 4600000000 cycles: 3494102263 heartbeat IPC: 1.29176 cumulative IPC: 1.29399 (Simulation time: 9 hr 8 min 2 sec) 
Heartbeat CPU 0 instructions: 2820000000 cycles: 3495066464 heartbeat IPC: 0.635848 cumulative IPC: 0.758581 (Simulation time: 9 hr 8 min 11 sec) 
Heartbeat CPU 1 instructions: 4610000002 cycles: 3501834597 heartbeat IPC: 1.29327 cumulative IPC: 1.29399 (Simulation time: 9 hr 9 min 11 sec) 
Heartbeat CPU 2 instructions: 1240000000 cycles: 3507617964 heartbeat IPC: 0.309437 cumulative IPC: 0.307972 (Simulation time: 9 hr 10 min 2 sec) 
Heartbeat CPU 1 instructions: 4620000000 cycles: 3509570398 heartbeat IPC: 1.29269 cumulative IPC: 1.29398 (Simulation time: 9 hr 10 min 20 sec) 
Heartbeat CPU 0 instructions: 2830000000 cycles: 3510732418 heartbeat IPC: 0.638327 cumulative IPC: 0.758024 (Simulation time: 9 hr 10 min 30 sec) 
Heartbeat CPU 1 instructions: 4630000000 cycles: 3517308460 heartbeat IPC: 1.29231 cumulative IPC: 1.29398 (Simulation time: 9 hr 11 min 29 sec) 
Heartbeat CPU 3 instructions: 1180000000 cycles: 3520007969 heartbeat IPC: 0.291927 cumulative IPC: 0.288218 (Simulation time: 9 hr 11 min 53 sec) 
Heartbeat CPU 1 instructions: 4640000000 cycles: 3525060807 heartbeat IPC: 1.28993 cumulative IPC: 1.29397 (Simulation time: 9 hr 12 min 37 sec) 
Heartbeat CPU 0 instructions: 2840000000 cycles: 3526448931 heartbeat IPC: 0.636273 cumulative IPC: 0.75746 (Simulation time: 9 hr 12 min 50 sec) 
Heartbeat CPU 1 instructions: 4650000002 cycles: 3532799560 heartbeat IPC: 1.2922 cumulative IPC: 1.29397 (Simulation time: 9 hr 13 min 46 sec) 
Heartbeat CPU 2 instructions: 1250000002 cycles: 3539752060 heartbeat IPC: 0.311196 cumulative IPC: 0.308002 (Simulation time: 9 hr 14 min 48 sec) 
Heartbeat CPU 1 instructions: 4660000000 cycles: 3540541743 heartbeat IPC: 1.29163 cumulative IPC: 1.29396 (Simulation time: 9 hr 14 min 55 sec) 
Heartbeat CPU 0 instructions: 2850000001 cycles: 3542097515 heartbeat IPC: 0.639036 cumulative IPC: 0.756917 (Simulation time: 9 hr 15 min 9 sec) 
Heartbeat CPU 1 instructions: 4670000003 cycles: 3548281877 heartbeat IPC: 1.29197 cumulative IPC: 1.29396 (Simulation time: 9 hr 16 min 4 sec) 
Heartbeat CPU 3 instructions: 1190000003 cycles: 3554446165 heartbeat IPC: 0.290375 cumulative IPC: 0.288239 (Simulation time: 9 hr 16 min 59 sec) 
Heartbeat CPU 1 instructions: 4680000000 cycles: 3556035301 heartbeat IPC: 1.28975 cumulative IPC: 1.29395 (Simulation time: 9 hr 17 min 13 sec) 
Heartbeat CPU 0 instructions: 2860000000 cycles: 3557832320 heartbeat IPC: 0.635534 cumulative IPC: 0.75636 (Simulation time: 9 hr 17 min 29 sec) 
Heartbeat CPU 1 instructions: 4690000002 cycles: 3563774409 heartbeat IPC: 1.29214 cumulative IPC: 1.29394 (Simulation time: 9 hr 18 min 22 sec) 
Heartbeat CPU 1 instructions: 4700000000 cycles: 3571505122 heartbeat IPC: 1.29354 cumulative IPC: 1.29394 (Simulation time: 9 hr 19 min 30 sec) 
Heartbeat CPU 2 instructions: 1260000000 cycles: 3571991925 heartbeat IPC: 0.310175 cumulative IPC: 0.308023 (Simulation time: 9 hr 19 min 35 sec) 
Heartbeat CPU 0 instructions: 2870000001 cycles: 3573506393 heartbeat IPC: 0.637996 cumulative IPC: 0.755821 (Simulation time: 9 hr 19 min 48 sec) 
Heartbeat CPU 1 instructions: 4710000002 cycles: 3579252558 heartbeat IPC: 1.29075 cumulative IPC: 1.29393 (Simulation time: 9 hr 20 min 39 sec) 
Heartbeat CPU 1 instructions: 4720000000 cycles: 3586975969 heartbeat IPC: 1.29476 cumulative IPC: 1.29394 (Simulation time: 9 hr 21 min 48 sec) 
Heartbeat CPU 3 instructions: 1200000000 cycles: 3588702253 heartbeat IPC: 0.291919 cumulative IPC: 0.288276 (Simulation time: 9 hr 22 min 3 sec) 
Heartbeat CPU 0 instructions: 2880000000 cycles: 3589242485 heartbeat IPC: 0.635482 cumulative IPC: 0.755273 (Simulation time: 9 hr 22 min 8 sec) 
Heartbeat CPU 1 instructions: 4730000002 cycles: 3594723208 heartbeat IPC: 1.29078 cumulative IPC: 1.29393 (Simulation time: 9 hr 22 min 56 sec) 
Finished CPU 3 instructions: 1000000000 cycles: 3468867361 cumulative IPC: 0.288279 (Simulation time: 9 hr 23 min 39 sec) 

CPU 0 Branch Prediction Accuracy: 99.9529% MPKI: 0.0362185

CPU 1 Branch Prediction Accuracy: 99.9709% MPKI: 0.00719934

CPU 2 Branch Prediction Accuracy: 90.4853% MPKI: 18.9366

CPU 3 Branch Prediction Accuracy: 92.7867% MPKI: 15.771

ChampSim completed all CPUs

Total Simulation Statistics (not including warmup)

CPU 0 cumulative IPC: 0.754925 instructions: 2618734668 cycles: 3468867360
L1D TOTAL     ACCESS:  770329884  HIT:  748188146  MISS:   22141738
L1D LOAD      ACCESS:  561646953  HIT:  540573058  MISS:   21073895
L1D RFO       ACCESS:  208682931  HIT:  207615088  MISS:    1067843
L1D PREFETCH  ACCESS:          0  HIT:          0  MISS:          0
L1D WRITEBACK ACCESS:          0  HIT:          0  MISS:          0
L1I TOTAL     ACCESS:  908680995  HIT:  908678102  MISS:       2893
L1I LOAD      ACCESS:  908680995  HIT:  908678102  MISS:       2893
L1I RFO       ACCESS:          0  HIT:          0  MISS:          0
L1I PREFETCH  ACCESS:          0  HIT:          0  MISS:          0
L1I WRITEBACK ACCESS:          0  HIT:          0  MISS:          0
L2C TOTAL     ACCESS:   56791825  HIT:   42380790  MISS:   14411035
L2C LOAD      ACCESS:   21075187  HIT:   20214364  MISS:     860823
L2C RFO       ACCESS:    1067001  HIT:     799014  MISS:     267987
L2C PREFETCH  ACCESS:   29526990  HIT:   16246382  MISS:   13280608
L2C WRITEBACK ACCESS:    5122647  HIT:    5121030  MISS:       1617

Avg Lookahead Depth:	3.82333
TOTAL: 2.3283e+08	L2C: 2.08228e+08	LLC: 2.46024e+07	GOOD_L2C: 1.39135e+08
Printing all the perceptron weights to: perc_weights_0.csv
LLC TOTAL     ACCESS:   16332464  HIT:    3927567  MISS:   12404897
LLC LOAD      ACCESS:     852272  HIT:     187211  MISS:     665061
LLC RFO       ACCESS:     267986  HIT:      19040  MISS:     248946
LLC PREFETCH  ACCESS:   14930907  HIT:    3619991  MISS:   11310916
LLC WRITEBACK ACCESS:     281299  HIT:     101325  MISS:     179974

CPU 1 cumulative IPC: 1.29393 instructions: 4488468068 cycles: 3468867360
L1D TOTAL     ACCESS: 1718325113  HIT: 1625011588  MISS:   93313525
L1D LOAD      ACCESS: 1468005629  HIT: 1377558008  MISS:   90447621
L1D RFO       ACCESS:  250319484  HIT:  247453580  MISS:    2865904
L1D PREFETCH  ACCESS:          0  HIT:          0  MISS:          0
L1D WRITEBACK ACCESS:          0  HIT:          0  MISS:          0
L1I TOTAL     ACCESS: 1101659143  HIT: 1101659143  MISS:          0
L1I LOAD      ACCESS: 1101659143  HIT: 1101659143  MISS:          0
L1I RFO       ACCESS:          0  HIT:          0  MISS:          0
L1I PREFETCH  ACCESS:          0  HIT:          0  MISS:          0
L1I WRITEBACK ACCESS:          0  HIT:          0  MISS:          0
L2C TOTAL     ACCESS:  214031743  HIT:  128633524  MISS:   85398219
L2C LOAD      ACCESS:   90419564  HIT:   86805114  MISS:    3614450
L2C RFO       ACCESS:    2806147  HIT:     619169  MISS:    2186978
L2C PREFETCH  ACCESS:  117681331  HIT:   38096044  MISS:   79585287
L2C WRITEBACK ACCESS:    3124701  HIT:    3113197  MISS:      11504

Avg Lookahead Depth:	3.82333
TOTAL: 2.3283e+08	L2C: 2.08228e+08	LLC: 2.46024e+07	GOOD_L2C: 1.39135e+08
Printing all the perceptron weights to: perc_weights_0.csv
LLC TOTAL     ACCESS:   91847691  HIT:    6545840  MISS:   85301851
LLC LOAD      ACCESS:    3412095  HIT:      31818  MISS:    3380277
LLC RFO       ACCESS:    2186978  HIT:          0  MISS:    2186978
LLC PREFETCH  ACCESS:   84044933  HIT:    4312408  MISS:   79732525
LLC WRITEBACK ACCESS:    2203685  HIT:    2201614  MISS:       2071

CPU 2 cumulative IPC: 0.308025 instructions: 1068498174 cycles: 3468867360
L1D TOTAL     ACCESS:  410360418  HIT:  362715472  MISS:   47644946
L1D LOAD      ACCESS:  294405949  HIT:  250906534  MISS:   43499415
L1D RFO       ACCESS:  115954469  HIT:  111808938  MISS:    4145531
L1D PREFETCH  ACCESS:          0  HIT:          0  MISS:          0
L1D WRITEBACK ACCESS:          0  HIT:          0  MISS:          0
L1I TOTAL     ACCESS:  258361322  HIT:  258361322  MISS:          0
L1I LOAD      ACCESS:  258361322  HIT:  258361322  MISS:          0
L1I RFO       ACCESS:          0  HIT:          0  MISS:          0
L1I PREFETCH  ACCESS:          0  HIT:          0  MISS:          0
L1I WRITEBACK ACCESS:          0  HIT:          0  MISS:          0
L2C TOTAL     ACCESS:   68312490  HIT:   32753583  MISS:   35558907
L2C LOAD      ACCESS:   43499315  HIT:   21180048  MISS:   22319267
L2C RFO       ACCESS:    4145405  HIT:    1061910  MISS:    3083495
L2C PREFETCH  ACCESS:   14322134  HIT:    4175798  MISS:   10146336
L2C WRITEBACK ACCESS:    6345636  HIT:    6335827  MISS:       9809

Avg Lookahead Depth:	3.82333
TOTAL: 2.3283e+08	L2C: 2.08228e+08	LLC: 2.46024e+07	GOOD_L2C: 1.39135e+08
Printing all the perceptron weights to: perc_weights_0.csv
LLC TOTAL     ACCESS:   42588647  HIT:   24642633  MISS:   17946014
LLC LOAD      ACCESS:   21894837  HIT:   14950388  MISS:    6944449
LLC RFO       ACCESS:    3083466  HIT:    2990873  MISS:      92593
LLC PREFETCH  ACCESS:   13013934  HIT:    2127591  MISS:   10886343
LLC WRITEBACK ACCESS:    4596410  HIT:    4573781  MISS:      22629

CPU 3 cumulative IPC: 0.288279 instructions: 1000000000 cycles: 3468867361
L1D TOTAL     ACCESS:  342971511  HIT:  270704093  MISS:   72267418
L1D LOAD      ACCESS:  260234944  HIT:  191114242  MISS:   69120702
L1D RFO       ACCESS:   82736567  HIT:   79589851  MISS:    3146716
L1D PREFETCH  ACCESS:          0  HIT:          0  MISS:          0
L1D WRITEBACK ACCESS:          0  HIT:          0  MISS:          0
L1I TOTAL     ACCESS:  234073612  HIT:  234073610  MISS:          2
L1I LOAD      ACCESS:  234073612  HIT:  234073610  MISS:          2
L1I RFO       ACCESS:          0  HIT:          0  MISS:          0
L1I PREFETCH  ACCESS:          0  HIT:          0  MISS:          0
L1I WRITEBACK ACCESS:          0  HIT:          0  MISS:          0
L2C TOTAL     ACCESS:   99217925  HIT:   35661852  MISS:   63556073
L2C LOAD      ACCESS:   69120398  HIT:   26876036  MISS:   42244362
L2C RFO       ACCESS:    3146657  HIT:     551833  MISS:    2594824
L2C PREFETCH  ACCESS:   21830661  HIT:    3120180  MISS:   18710481
L2C WRITEBACK ACCESS:    5120209  HIT:    5113803  MISS:       6406

Avg Lookahead Depth:	3.82333
TOTAL: 2.3283e+08	L2C: 2.08228e+08	LLC: 2.46024e+07	GOOD_L2C: 1.39135e+08
Printing all the perceptron weights to: perc_weights_0.csv
LLC TOTAL     ACCESS:   71143173  HIT:   41236242  MISS:   29906931
LLC LOAD      ACCESS:   40196634  HIT:   32115374  MISS:    8081260
LLC RFO       ACCESS:    2594807  HIT:    2567228  MISS:      27579
LLC PREFETCH  ACCESS:   24042604  HIT:    2245679  MISS:   21796925
LLC WRITEBACK ACCESS:    4309128  HIT:    4307961  MISS:       1167

Region of Interest Statistics

CPU 0 cumulative IPC: 0.747551 instructions: 1000000001 cycles: 1337700631
L1D TOTAL     ACCESS:  294695924  HIT:  286519300  MISS:    8176624
L1D LOAD      ACCESS:  213511367  HIT:  205752223  MISS:    7759144
L1D RFO       ACCESS:   81184557  HIT:   80767077  MISS:     417480
L1D PREFETCH  ACCESS:          0  HIT:          0  MISS:          0
L1D WRITEBACK ACCESS:          0  HIT:          0  MISS:          0
L1D PREFETCH  REQUESTED:          0  ISSUED:          0  USEFUL:          0  USELESS:          0
L1I TOTAL     ACCESS:  349832162  HIT:  349830722  MISS:       1440
L1I LOAD      ACCESS:  349832162  HIT:  349830722  MISS:       1440
L1I RFO       ACCESS:          0  HIT:          0  MISS:          0
L1I PREFETCH  ACCESS:          0  HIT:          0  MISS:          0
L1I WRITEBACK ACCESS:          0  HIT:          0  MISS:          0
L1I PREFETCH  REQUESTED:          0  ISSUED:          0  USEFUL:          0  USELESS:          0
L2C TOTAL     ACCESS:   20888427  HIT:   15594599  MISS:    5293828
L2C LOAD      ACCESS:    7759905  HIT:    7440077  MISS:     319828
L2C RFO       ACCESS:     417176  HIT:     313469  MISS:     103707
L2C PREFETCH  ACCESS:   10808735  HIT:    5939225  MISS:    4869510
L2C WRITEBACK ACCESS:    1902611  HIT:    1901828  MISS:        783
L2C PREFETCH  REQUESTED:   39691079  ISSUED:   39689922  USEFUL:   15409007  USELESS:    1377999
LLC TOTAL     ACCESS:    5976194  HIT:    1412437  MISS:    4563757
LLC LOAD      ACCESS:     316735  HIT:      69974  MISS:     246761
LLC RFO       ACCESS:     103707  HIT:       7904  MISS:      95803
LLC PREFETCH  ACCESS:    5447937  HIT:    1295677  MISS:    4152260
LLC WRITEBACK ACCESS:     107815  HIT:      38882  MISS:      68933
LLC PREFETCH  REQUESTED:          0  ISSUED:          0  USEFUL:    3668249  USELESS:  133016106
Major fault: 0 Minor fault: 213839

CPU 1 cumulative IPC: 1.29804 instructions: 1000000001 cycles: 770395039
L1D TOTAL     ACCESS:  382885937  HIT:  362096198  MISS:   20789739
L1D LOAD      ACCESS:  327064490  HIT:  306913464  MISS:   20151026
L1D RFO       ACCESS:   55821447  HIT:   55182734  MISS:     638713
L1D PREFETCH  ACCESS:          0  HIT:          0  MISS:          0
L1D WRITEBACK ACCESS:          0  HIT:          0  MISS:          0
L1D PREFETCH  REQUESTED:          0  ISSUED:          0  USEFUL:          0  USELESS:          0
L1I TOTAL     ACCESS:  245426959  HIT:  245426959  MISS:          0
L1I LOAD      ACCESS:  245426959  HIT:  245426959  MISS:          0
L1I RFO       ACCESS:          0  HIT:          0  MISS:          0
L1I PREFETCH  ACCESS:          0  HIT:          0  MISS:          0
L1I WRITEBACK ACCESS:          0  HIT:          0  MISS:          0
L1I PREFETCH  REQUESTED:          0  ISSUED:          0  USEFUL:          0  USELESS:          0
L2C TOTAL     ACCESS:   47766850  HIT:   28740387  MISS:   19026463
L2C LOAD      ACCESS:   20144826  HIT:   19351627  MISS:     793199
L2C RFO       ACCESS:     625419  HIT:     138176  MISS:     487243
L2C PREFETCH  ACCESS:   26300258  HIT:    8556752  MISS:   17743506
L2C WRITEBACK ACCESS:     696347  HIT:     693832  MISS:       2515
L2C PREFETCH  REQUESTED:  137509756  ISSUED:  135856220  USEFUL:   84016027  USELESS:       9403
LLC TOTAL     ACCESS:   20454998  HIT:    1450192  MISS:   19004806
LLC LOAD      ACCESS:     749684  HIT:       6605  MISS:     743079
LLC RFO       ACCESS:     487243  HIT:          0  MISS:     487243
LLC PREFETCH  ACCESS:   18727248  HIT:     953233  MISS:   17774015
LLC WRITEBACK ACCESS:     490823  HIT:     490354  MISS:        469
LLC PREFETCH  REQUESTED:          0  ISSUED:          0  USEFUL:    3668249  USELESS:  133016106
Major fault: 0 Minor fault: 563665

CPU 2 cumulative IPC: 0.307964 instructions: 1000000000 cycles: 3247136405
L1D TOTAL     ACCESS:  384740646  HIT:  340433260  MISS:   44307386
L1D LOAD      ACCESS:  275923230  HIT:  235499244  MISS:   40423986
L1D RFO       ACCESS:  108817416  HIT:  104934016  MISS:    3883400
L1D PREFETCH  ACCESS:          0  HIT:          0  MISS:          0
L1D WRITEBACK ACCESS:          0  HIT:          0  MISS:          0
L1D PREFETCH  REQUESTED:          0  ISSUED:          0  USEFUL:          0  USELESS:          0
L1I TOTAL     ACCESS:  242176151  HIT:  242176151  MISS:          0
L1I LOAD      ACCESS:  242176151  HIT:  242176151  MISS:          0
L1I RFO       ACCESS:          0  HIT:          0  MISS:          0
L1I PREFETCH  ACCESS:          0  HIT:          0  MISS:          0
L1I WRITEBACK ACCESS:          0  HIT:          0  MISS:          0
L1I PREFETCH  REQUESTED:          0  ISSUED:          0  USEFUL:          0  USELESS:          0
L2C TOTAL     ACCESS:   63579966  HIT:   30713158  MISS:   32866808
L2C LOAD      ACCESS:   40423900  HIT:   19800738  MISS:   20623162
L2C RFO       ACCESS:    3883279  HIT:     997500  MISS:    2885779
L2C PREFETCH  ACCESS:   13301503  HIT:    3952523  MISS:    9348980
L2C WRITEBACK ACCESS:    5971284  HIT:    5962397  MISS:       8887
L2C PREFETCH  REQUESTED:   21143211  ISSUED:   21143211  USEFUL:   11155599  USELESS:     689526
LLC TOTAL     ACCESS:   39451960  HIT:   22862792  MISS:   16589168
LLC LOAD      ACCESS:   20240259  HIT:   13778650  MISS:    6461609
LLC RFO       ACCESS:    2885751  HIT:    2794665  MISS:      91086
LLC PREFETCH  ACCESS:   12009720  HIT:    1995749  MISS:   10013971
LLC WRITEBACK ACCESS:    4316230  HIT:    4293728  MISS:      22502
LLC PREFETCH  REQUESTED:          0  ISSUED:          0  USEFUL:    3668249  USELESS:  133016106
Major fault: 0 Minor fault: 182411

CPU 3 cumulative IPC: 0.288279 instructions: 1000000000 cycles: 3468867361
L1D TOTAL     ACCESS:  342971511  HIT:  270704093  MISS:   72267418
L1D LOAD      ACCESS:  260234944  HIT:  191114242  MISS:   69120702
L1D RFO       ACCESS:   82736567  HIT:   79589851  MISS:    3146716
L1D PREFETCH  ACCESS:          0  HIT:          0  MISS:          0
L1D WRITEBACK ACCESS:          0  HIT:          0  MISS:          0
L1D PREFETCH  REQUESTED:          0  ISSUED:          0  USEFUL:          0  USELESS:          0
L1I TOTAL     ACCESS:  234073612  HIT:  234073610  MISS:          2
L1I LOAD      ACCESS:  234073612  HIT:  234073610  MISS:          2
L1I RFO       ACCESS:          0  HIT:          0  MISS:          0
L1I PREFETCH  ACCESS:          0  HIT:          0  MISS:          0
L1I WRITEBACK ACCESS:          0  HIT:          0  MISS:          0
L1I PREFETCH  REQUESTED:          0  ISSUED:          0  USEFUL:          0  USELESS:          0
L2C TOTAL     ACCESS:   99217925  HIT:   35661852  MISS:   63556073
L2C LOAD      ACCESS:   69120398  HIT:   26876036  MISS:   42244362
L2C RFO       ACCESS:    3146657  HIT:     551833  MISS:    2594824
L2C PREFETCH  ACCESS:   21830661  HIT:    3120180  MISS:   18710481
L2C WRITEBACK ACCESS:    5120209  HIT:    5113803  MISS:       6406
L2C PREFETCH  REQUESTED:   34486101  ISSUED:   34486101  USEFUL:   21806753  USELESS:     834981
LLC TOTAL     ACCESS:   71143173  HIT:   41236242  MISS:   29906931
LLC LOAD      ACCESS:   40196634  HIT:   32115374  MISS:    8081260
LLC RFO       ACCESS:    2594807  HIT:    2567228  MISS:      27579
LLC PREFETCH  ACCESS:   24042604  HIT:    2245679  MISS:   21796925
LLC WRITEBACK ACCESS:    4309128  HIT:    4307961  MISS:       1167
LLC PREFETCH  REQUESTED:          0  ISSUED:          0  USEFUL:    3668249  USELESS:  133016106
Major fault: 0 Minor fault: 393773

Avg Lookahead Depth:	3.82333
TOTAL: 2.3283e+08	L2C: 2.08228e+08	LLC: 2.46024e+07	GOOD_L2C: 1.39135e+08
Printing all the perceptron weights to: perc_weights_0.csv

Avg Lookahead Depth:	3.82333
TOTAL: 2.3283e+08	L2C: 2.08228e+08	LLC: 2.46024e+07	GOOD_L2C: 1.39135e+08
Printing all the perceptron weights to: perc_weights_0.csv

Avg Lookahead Depth:	3.82333
TOTAL: 2.3283e+08	L2C: 2.08228e+08	LLC: 2.46024e+07	GOOD_L2C: 1.39135e+08
Printing all the perceptron weights to: perc_weights_0.csv

Avg Lookahead Depth:	3.82333
TOTAL: 2.3283e+08	L2C: 2.08228e+08	LLC: 2.46024e+07	GOOD_L2C: 1.39135e+08
Printing all the perceptron weights to: perc_weights_0.csv

DRAM Statistics
 CHANNEL 0
 RQ ROW_BUFFER_HIT:   52929348  ROW_BUFFER_MISS:   19724593
 DBUS_CONGESTED:   67238525
 WQ ROW_BUFFER_HIT:     101271  ROW_BUFFER_MISS:    1464221  FULL:          0

 CHANNEL 1
 RQ ROW_BUFFER_HIT:   52871932  ROW_BUFFER_MISS:   19807646
 DBUS_CONGESTED:   67238525
 WQ ROW_BUFFER_HIT:     101612  ROW_BUFFER_MISS:    1463285  FULL:          0

 AVG_CONGESTED_CYCLE: 12
