Initialize SIGNATURE TABLE
ST_SET: 1
ST_WAY: 256
ST_TAG_BIT: 16
ST_TAG_MASK: ffff

Initialize PATTERN TABLE
PT_SET: 512
PT_WAY: 4
SIG_DELTA_BIT: 7
C_SIG_BIT: 4
C_DELTA_BIT: 4

Initialize PREFETCH FILTER
FILTER_SET: 1024

Initialize PERCEPTRON
PERC_ENTRIES: 4096
PERC_FEATURES: 9

*** ChampSim Multicore Out-of-Order Simulator ***

Warmup Instructions: 200000000
Simulation Instructions: 1000000000
Number of CPUs: 4
LLC sets: 8192
LLC ways: 16
Off-chip DRAM Size: 8192 MB Channels: 2 Width: 64-bit Data Rate: 1600 MT/s

CPU 0 runs /scratch/user/djimenez/champsim-traces/speccpu2017/xz/654.roms_s/654.roms_s-294B.champsimtrace.xz
CPU 1 runs /scratch/user/djimenez/champsim-traces/speccpu2017/xz/605.mcf_s/605.mcf_s-1536B.champsimtrace.xz
CPU 2 runs /scratch/user/djimenez/champsim-traces/speccpu2017/xz/620.omnetpp_s/620.omnetpp_s-874B.champsimtrace.xz
CPU 3 runs /scratch/user/djimenez/champsim-traces/speccpu2017/xz/602.gcc_s/602.gcc_s-734B.champsimtrace.xz
Heartbeat CPU 1 instructions: 10000002 cycles: 3656257 heartbeat IPC: 2.73504 cumulative IPC: 2.73504 (Simulation time: 0 hr 1 min 25 sec) 
Heartbeat CPU 0 instructions: 10000003 cycles: 4879448 heartbeat IPC: 2.04941 cumulative IPC: 2.04941 (Simulation time: 0 hr 1 min 54 sec) 
Heartbeat CPU 3 instructions: 10000000 cycles: 5381486 heartbeat IPC: 1.85822 cumulative IPC: 1.85822 (Simulation time: 0 hr 2 min 5 sec) 
Heartbeat CPU 1 instructions: 20000000 cycles: 7309980 heartbeat IPC: 2.73693 cumulative IPC: 2.73599 (Simulation time: 0 hr 2 min 51 sec) 
Heartbeat CPU 2 instructions: 10000000 cycles: 7373568 heartbeat IPC: 1.3562 cumulative IPC: 1.3562 (Simulation time: 0 hr 2 min 52 sec) 
Heartbeat CPU 0 instructions: 20000000 cycles: 9758674 heartbeat IPC: 2.0495 cumulative IPC: 2.04946 (Simulation time: 0 hr 3 min 48 sec) 
Heartbeat CPU 3 instructions: 20000000 cycles: 10780598 heartbeat IPC: 1.85216 cumulative IPC: 1.85518 (Simulation time: 0 hr 4 min 12 sec) 
Heartbeat CPU 1 instructions: 30000002 cycles: 10980847 heartbeat IPC: 2.72415 cumulative IPC: 2.73203 (Simulation time: 0 hr 4 min 17 sec) 
Heartbeat CPU 0 instructions: 30000002 cycles: 14637803 heartbeat IPC: 2.04955 cumulative IPC: 2.04949 (Simulation time: 0 hr 5 min 43 sec) 
Heartbeat CPU 1 instructions: 40000000 cycles: 14641649 heartbeat IPC: 2.73164 cumulative IPC: 2.73193 (Simulation time: 0 hr 5 min 43 sec) 
Heartbeat CPU 2 instructions: 20000000 cycles: 14729244 heartbeat IPC: 1.35949 cumulative IPC: 1.35784 (Simulation time: 0 hr 5 min 45 sec) 
Heartbeat CPU 3 instructions: 30000003 cycles: 16152039 heartbeat IPC: 1.8617 cumulative IPC: 1.85735 (Simulation time: 0 hr 6 min 19 sec) 
Heartbeat CPU 1 instructions: 50000002 cycles: 18313035 heartbeat IPC: 2.72377 cumulative IPC: 2.7303 (Simulation time: 0 hr 7 min 10 sec) 
Heartbeat CPU 0 instructions: 40000000 cycles: 19517068 heartbeat IPC: 2.04949 cumulative IPC: 2.04949 (Simulation time: 0 hr 7 min 39 sec) 
Heartbeat CPU 3 instructions: 40000000 cycles: 21546043 heartbeat IPC: 1.85391 cumulative IPC: 1.85649 (Simulation time: 0 hr 8 min 27 sec) 
Heartbeat CPU 1 instructions: 60000000 cycles: 21980786 heartbeat IPC: 2.72647 cumulative IPC: 2.72966 (Simulation time: 0 hr 8 min 37 sec) 
Heartbeat CPU 2 instructions: 30000001 cycles: 22086354 heartbeat IPC: 1.35923 cumulative IPC: 1.3583 (Simulation time: 0 hr 8 min 40 sec) 
Heartbeat CPU 0 instructions: 50000000 cycles: 24396399 heartbeat IPC: 2.04946 cumulative IPC: 2.04948 (Simulation time: 0 hr 9 min 35 sec) 
Heartbeat CPU 1 instructions: 70000002 cycles: 25647913 heartbeat IPC: 2.72693 cumulative IPC: 2.72927 (Simulation time: 0 hr 10 min 4 sec) 
Heartbeat CPU 3 instructions: 50000000 cycles: 26917746 heartbeat IPC: 1.86161 cumulative IPC: 1.85751 (Simulation time: 0 hr 10 min 34 sec) 
Heartbeat CPU 0 instructions: 60000000 cycles: 29275838 heartbeat IPC: 2.04942 cumulative IPC: 2.04947 (Simulation time: 0 hr 11 min 31 sec) 
Heartbeat CPU 1 instructions: 80000000 cycles: 29315038 heartbeat IPC: 2.72693 cumulative IPC: 2.72897 (Simulation time: 0 hr 11 min 32 sec) 
Heartbeat CPU 2 instructions: 40000000 cycles: 29451677 heartbeat IPC: 1.35771 cumulative IPC: 1.35816 (Simulation time: 0 hr 11 min 35 sec) 
Heartbeat CPU 3 instructions: 60000000 cycles: 32301856 heartbeat IPC: 1.85732 cumulative IPC: 1.85748 (Simulation time: 0 hr 12 min 43 sec) 
Heartbeat CPU 1 instructions: 90000002 cycles: 32984123 heartbeat IPC: 2.72548 cumulative IPC: 2.72859 (Simulation time: 0 hr 12 min 59 sec) 
Heartbeat CPU 0 instructions: 70000003 cycles: 34155147 heartbeat IPC: 2.04947 cumulative IPC: 2.04947 (Simulation time: 0 hr 13 min 26 sec) 
Heartbeat CPU 1 instructions: 100000000 cycles: 36653727 heartbeat IPC: 2.72509 cumulative IPC: 2.72824 (Simulation time: 0 hr 14 min 25 sec) 
Heartbeat CPU 2 instructions: 50000000 cycles: 36817524 heartbeat IPC: 1.35762 cumulative IPC: 1.35805 (Simulation time: 0 hr 14 min 29 sec) 
Heartbeat CPU 3 instructions: 70000001 cycles: 37734943 heartbeat IPC: 1.84057 cumulative IPC: 1.85504 (Simulation time: 0 hr 14 min 51 sec) 
Heartbeat CPU 0 instructions: 80000000 cycles: 39034470 heartbeat IPC: 2.04946 cumulative IPC: 2.04947 (Simulation time: 0 hr 15 min 22 sec) 
Heartbeat CPU 1 instructions: 110000001 cycles: 40327520 heartbeat IPC: 2.72198 cumulative IPC: 2.72767 (Simulation time: 0 hr 15 min 52 sec) 
Heartbeat CPU 3 instructions: 80000000 cycles: 43102203 heartbeat IPC: 1.86315 cumulative IPC: 1.85605 (Simulation time: 0 hr 16 min 59 sec) 
Heartbeat CPU 0 instructions: 90000000 cycles: 43913694 heartbeat IPC: 2.04951 cumulative IPC: 2.04947 (Simulation time: 0 hr 17 min 18 sec) 
Heartbeat CPU 1 instructions: 120000000 cycles: 43998281 heartbeat IPC: 2.72423 cumulative IPC: 2.72738 (Simulation time: 0 hr 17 min 20 sec) 
Heartbeat CPU 2 instructions: 60000000 cycles: 44191268 heartbeat IPC: 1.35616 cumulative IPC: 1.35773 (Simulation time: 0 hr 17 min 24 sec) 
Heartbeat CPU 1 instructions: 130000000 cycles: 47666319 heartbeat IPC: 2.72625 cumulative IPC: 2.72729 (Simulation time: 0 hr 18 min 47 sec) 
Heartbeat CPU 3 instructions: 90000003 cycles: 48480460 heartbeat IPC: 1.85934 cumulative IPC: 1.85642 (Simulation time: 0 hr 19 min 6 sec) 
Heartbeat CPU 0 instructions: 100000000 cycles: 48792952 heartbeat IPC: 2.04949 cumulative IPC: 2.04948 (Simulation time: 0 hr 19 min 14 sec) 
Heartbeat CPU 1 instructions: 140000000 cycles: 51339513 heartbeat IPC: 2.72243 cumulative IPC: 2.72694 (Simulation time: 0 hr 20 min 13 sec) 
Heartbeat CPU 2 instructions: 70000000 cycles: 51553623 heartbeat IPC: 1.35826 cumulative IPC: 1.35781 (Simulation time: 0 hr 20 min 18 sec) 
Heartbeat CPU 0 instructions: 110000001 cycles: 53671508 heartbeat IPC: 2.04979 cumulative IPC: 2.0495 (Simulation time: 0 hr 21 min 8 sec) 
Heartbeat CPU 3 instructions: 100000000 cycles: 53907338 heartbeat IPC: 1.84268 cumulative IPC: 1.85504 (Simulation time: 0 hr 21 min 13 sec) 
Heartbeat CPU 1 instructions: 150000003 cycles: 55014337 heartbeat IPC: 2.72122 cumulative IPC: 2.72656 (Simulation time: 0 hr 21 min 40 sec) 
Heartbeat CPU 0 instructions: 120000000 cycles: 58550621 heartbeat IPC: 2.04955 cumulative IPC: 2.04951 (Simulation time: 0 hr 23 min 4 sec) 
Heartbeat CPU 1 instructions: 160000000 cycles: 58692447 heartbeat IPC: 2.71879 cumulative IPC: 2.72607 (Simulation time: 0 hr 23 min 7 sec) 
Heartbeat CPU 2 instructions: 80000000 cycles: 58909766 heartbeat IPC: 1.35941 cumulative IPC: 1.35801 (Simulation time: 0 hr 23 min 12 sec) 
Heartbeat CPU 3 instructions: 110000002 cycles: 59280167 heartbeat IPC: 1.86122 cumulative IPC: 1.8556 (Simulation time: 0 hr 23 min 21 sec) 
Heartbeat CPU 1 instructions: 170000003 cycles: 62373424 heartbeat IPC: 2.71667 cumulative IPC: 2.72552 (Simulation time: 0 hr 24 min 35 sec) 
Heartbeat CPU 0 instructions: 130000000 cycles: 63429896 heartbeat IPC: 2.04948 cumulative IPC: 2.04951 (Simulation time: 0 hr 25 min 0 sec) 
Heartbeat CPU 3 instructions: 120000000 cycles: 64657110 heartbeat IPC: 1.85979 cumulative IPC: 1.85594 (Simulation time: 0 hr 25 min 29 sec) 
Heartbeat CPU 1 instructions: 180000000 cycles: 66056050 heartbeat IPC: 2.71545 cumulative IPC: 2.72496 (Simulation time: 0 hr 26 min 3 sec) 
Heartbeat CPU 2 instructions: 90000000 cycles: 66267692 heartbeat IPC: 1.35908 cumulative IPC: 1.35813 (Simulation time: 0 hr 26 min 8 sec) 
Heartbeat CPU 0 instructions: 140000000 cycles: 68308714 heartbeat IPC: 2.04968 cumulative IPC: 2.04952 (Simulation time: 0 hr 26 min 55 sec) 
Heartbeat CPU 1 instructions: 190000002 cycles: 69742982 heartbeat IPC: 2.71228 cumulative IPC: 2.72429 (Simulation time: 0 hr 27 min 29 sec) 
Heartbeat CPU 3 instructions: 130000000 cycles: 70243614 heartbeat IPC: 1.79003 cumulative IPC: 1.8507 (Simulation time: 0 hr 27 min 41 sec) 
Heartbeat CPU 0 instructions: 150000003 cycles: 73188022 heartbeat IPC: 2.04947 cumulative IPC: 2.04952 (Simulation time: 0 hr 28 min 51 sec) 
Heartbeat CPU 1 instructions: 200000000 cycles: 73426085 heartbeat IPC: 2.7151 cumulative IPC: 2.72383 (Simulation time: 0 hr 28 min 57 sec) 
Heartbeat CPU 2 instructions: 100000000 cycles: 73645858 heartbeat IPC: 1.35535 cumulative IPC: 1.35785 (Simulation time: 0 hr 29 min 2 sec) 
Heartbeat CPU 3 instructions: 140000000 cycles: 75643025 heartbeat IPC: 1.85205 cumulative IPC: 1.8508 (Simulation time: 0 hr 29 min 50 sec) 
Heartbeat CPU 1 instructions: 210000002 cycles: 77108467 heartbeat IPC: 2.71563 cumulative IPC: 0.129687 (Simulation time: 0 hr 30 min 25 sec) 
Heartbeat CPU 0 instructions: 160000000 cycles: 78066696 heartbeat IPC: 2.04974 cumulative IPC: 2.04953 (Simulation time: 0 hr 30 min 48 sec) 
Heartbeat CPU 1 instructions: 220000000 cycles: 80792423 heartbeat IPC: 2.71447 cumulative IPC: 0.247548 (Simulation time: 0 hr 31 min 53 sec) 
Heartbeat CPU 2 instructions: 110000003 cycles: 80987123 heartbeat IPC: 1.36216 cumulative IPC: 1.35824 (Simulation time: 0 hr 31 min 58 sec) 
Heartbeat CPU 3 instructions: 150000002 cycles: 81047400 heartbeat IPC: 1.85035 cumulative IPC: 1.85077 (Simulation time: 0 hr 31 min 59 sec) 
Heartbeat CPU 0 instructions: 170000002 cycles: 82945821 heartbeat IPC: 2.04955 cumulative IPC: 2.04953 (Simulation time: 0 hr 32 min 45 sec) 
Heartbeat CPU 1 instructions: 230000002 cycles: 84475715 heartbeat IPC: 2.71496 cumulative IPC: 0.355132 (Simulation time: 0 hr 33 min 21 sec) 
Heartbeat CPU 3 instructions: 160000000 cycles: 86472459 heartbeat IPC: 1.8433 cumulative IPC: 1.8503 (Simulation time: 0 hr 34 min 8 sec) 
Heartbeat CPU 0 instructions: 180000000 cycles: 87824666 heartbeat IPC: 2.04966 cumulative IPC: 2.04954 (Simulation time: 0 hr 34 min 41 sec) 
Heartbeat CPU 1 instructions: 240000000 cycles: 88158771 heartbeat IPC: 2.71514 cumulative IPC: 0.453727 (Simulation time: 0 hr 34 min 49 sec) 
Heartbeat CPU 2 instructions: 120000000 cycles: 88348945 heartbeat IPC: 1.35836 cumulative IPC: 1.35825 (Simulation time: 0 hr 34 min 53 sec) 
Heartbeat CPU 1 instructions: 250000002 cycles: 91843890 heartbeat IPC: 2.71362 cumulative IPC: 0.544402 (Simulation time: 0 hr 36 min 16 sec) 
Heartbeat CPU 3 instructions: 170000003 cycles: 91844753 heartbeat IPC: 1.8614 cumulative IPC: 1.85095 (Simulation time: 0 hr 36 min 16 sec) 
Heartbeat CPU 0 instructions: 190000001 cycles: 92703895 heartbeat IPC: 2.0495 cumulative IPC: 2.04954 (Simulation time: 0 hr 36 min 37 sec) 
Heartbeat CPU 1 instructions: 260000000 cycles: 95524906 heartbeat IPC: 2.71664 cumulative IPC: 0.628108 (Simulation time: 0 hr 37 min 44 sec) 
Heartbeat CPU 2 instructions: 130000000 cycles: 95694997 heartbeat IPC: 1.36128 cumulative IPC: 1.35848 (Simulation time: 0 hr 37 min 48 sec) 
Heartbeat CPU 3 instructions: 180000000 cycles: 97218220 heartbeat IPC: 1.861 cumulative IPC: 1.8515 (Simulation time: 0 hr 38 min 24 sec) 
Heartbeat CPU 0 instructions: 200000000 cycles: 97582787 heartbeat IPC: 2.04965 cumulative IPC: 2.04954 (Simulation time: 0 hr 38 min 32 sec) 
Heartbeat CPU 1 instructions: 270000002 cycles: 99208287 heartbeat IPC: 2.7149 cumulative IPC: 0.705586 (Simulation time: 0 hr 39 min 7 sec) 
Heartbeat CPU 0 instructions: 210000000 cycles: 102461956 heartbeat IPC: 2.04953 cumulative IPC: 0.0975972 (Simulation time: 0 hr 40 min 17 sec) 
Heartbeat CPU 3 instructions: 190000001 cycles: 102799670 heartbeat IPC: 1.79165 cumulative IPC: 1.84825 (Simulation time: 0 hr 40 min 25 sec) 
Heartbeat CPU 1 instructions: 280000000 cycles: 102887767 heartbeat IPC: 2.71777 cumulative IPC: 0.777546 (Simulation time: 0 hr 40 min 27 sec) 
Heartbeat CPU 2 instructions: 140000000 cycles: 103065270 heartbeat IPC: 1.3568 cumulative IPC: 1.35836 (Simulation time: 0 hr 40 min 30 sec) 
Heartbeat CPU 1 instructions: 290000000 cycles: 106565129 heartbeat IPC: 2.71934 cumulative IPC: 0.844554 (Simulation time: 0 hr 41 min 51 sec) 
Heartbeat CPU 0 instructions: 220000000 cycles: 107340385 heartbeat IPC: 2.04984 cumulative IPC: 0.186323 (Simulation time: 0 hr 42 min 10 sec) 
Heartbeat CPU 3 instructions: 200000000 cycles: 108264100 heartbeat IPC: 1.83002 cumulative IPC: 1.84733 (Simulation time: 0 hr 42 min 32 sec) 
Heartbeat CPU 1 instructions: 300000000 cycles: 110250269 heartbeat IPC: 2.7136 cumulative IPC: 0.907027 (Simulation time: 0 hr 43 min 20 sec) 
Heartbeat CPU 2 instructions: 150000001 cycles: 110442759 heartbeat IPC: 1.35547 cumulative IPC: 1.35817 (Simulation time: 0 hr 43 min 24 sec) 
Heartbeat CPU 0 instructions: 230000000 cycles: 112219544 heartbeat IPC: 2.04953 cumulative IPC: 0.267333 (Simulation time: 0 hr 44 min 7 sec) 
Heartbeat CPU 3 instructions: 210000003 cycles: 113640447 heartbeat IPC: 1.86 cumulative IPC: 0.0879969 (Simulation time: 0 hr 44 min 41 sec) 
Heartbeat CPU 1 instructions: 310000002 cycles: 113930138 heartbeat IPC: 2.71749 cumulative IPC: 0.965504 (Simulation time: 0 hr 44 min 48 sec) 
Heartbeat CPU 0 instructions: 240000000 cycles: 117098456 heartbeat IPC: 2.04964 cumulative IPC: 0.341593 (Simulation time: 0 hr 46 min 4 sec) 
Heartbeat CPU 1 instructions: 320000000 cycles: 117607982 heartbeat IPC: 2.71898 cumulative IPC: 1.02034 (Simulation time: 0 hr 46 min 16 sec) 
Heartbeat CPU 2 instructions: 160000000 cycles: 117825818 heartbeat IPC: 1.35445 cumulative IPC: 1.35794 (Simulation time: 0 hr 46 min 21 sec) 
Heartbeat CPU 3 instructions: 220000000 cycles: 119033281 heartbeat IPC: 1.85431 cumulative IPC: 0.16802 (Simulation time: 0 hr 46 min 50 sec) 
Heartbeat CPU 1 instructions: 330000000 cycles: 121284772 heartbeat IPC: 2.71976 cumulative IPC: 1.07186 (Simulation time: 0 hr 47 min 44 sec) 
Heartbeat CPU 0 instructions: 250000003 cycles: 121977936 heartbeat IPC: 2.0494 cumulative IPC: 0.40991 (Simulation time: 0 hr 48 min 1 sec) 
Heartbeat CPU 3 instructions: 230000000 cycles: 124404766 heartbeat IPC: 1.86168 cumulative IPC: 0.241148 (Simulation time: 0 hr 48 min 59 sec) 
Heartbeat CPU 1 instructions: 340000000 cycles: 124961604 heartbeat IPC: 2.71973 cumulative IPC: 1.12034 (Simulation time: 0 hr 49 min 12 sec) 
Heartbeat CPU 2 instructions: 170000003 cycles: 125185293 heartbeat IPC: 1.35879 cumulative IPC: 1.35799 (Simulation time: 0 hr 49 min 18 sec) 
Heartbeat CPU 0 instructions: 260000000 cycles: 126856816 heartbeat IPC: 2.04965 cumulative IPC: 0.472974 (Simulation time: 0 hr 49 min 58 sec) 
Heartbeat CPU 1 instructions: 350000003 cycles: 128642796 heartbeat IPC: 2.71651 cumulative IPC: 1.16602 (Simulation time: 0 hr 50 min 40 sec) 
Heartbeat CPU 3 instructions: 240000000 cycles: 129773265 heartbeat IPC: 1.86272 cumulative IPC: 0.30823 (Simulation time: 0 hr 51 min 8 sec) 
Heartbeat CPU 0 instructions: 270000003 cycles: 131735915 heartbeat IPC: 2.04956 cumulative IPC: 0.531366 (Simulation time: 0 hr 51 min 53 sec) 
Heartbeat CPU 1 instructions: 360000000 cycles: 132319025 heartbeat IPC: 2.72018 cumulative IPC: 1.2092 (Simulation time: 0 hr 52 min 7 sec) 
Heartbeat CPU 2 instructions: 180000000 cycles: 132555059 heartbeat IPC: 1.35689 cumulative IPC: 1.35793 (Simulation time: 0 hr 52 min 13 sec) 
Heartbeat CPU 3 instructions: 250000001 cycles: 135213135 heartbeat IPC: 1.83828 cumulative IPC: 0.369787 (Simulation time: 0 hr 53 min 17 sec) 
Heartbeat CPU 1 instructions: 370000002 cycles: 135996201 heartbeat IPC: 2.71948 cumulative IPC: 1.25003 (Simulation time: 0 hr 53 min 35 sec) 
Heartbeat CPU 0 instructions: 280000000 cycles: 136614878 heartbeat IPC: 2.04962 cumulative IPC: 0.585588 (Simulation time: 0 hr 53 min 50 sec) 
Heartbeat CPU 1 instructions: 380000000 cycles: 139672803 heartbeat IPC: 2.7199 cumulative IPC: 1.28873 (Simulation time: 0 hr 55 min 4 sec) 
Heartbeat CPU 2 instructions: 190000002 cycles: 139909810 heartbeat IPC: 1.35967 cumulative IPC: 1.35802 (Simulation time: 0 hr 55 min 9 sec) 
Heartbeat CPU 3 instructions: 260000000 cycles: 140583068 heartbeat IPC: 1.86222 cumulative IPC: 0.426794 (Simulation time: 0 hr 55 min 25 sec) 
Heartbeat CPU 0 instructions: 290000002 cycles: 141494025 heartbeat IPC: 2.04954 cumulative IPC: 0.636069 (Simulation time: 0 hr 55 min 47 sec) 
Heartbeat CPU 1 instructions: 390000000 cycles: 143346981 heartbeat IPC: 2.7217 cumulative IPC: 1.32546 (Simulation time: 0 hr 56 min 32 sec) 
Heartbeat CPU 3 instructions: 270000000 cycles: 145983392 heartbeat IPC: 1.85174 cumulative IPC: 0.479507 (Simulation time: 0 hr 57 min 34 sec) 
Heartbeat CPU 0 instructions: 300000000 cycles: 146373250 heartbeat IPC: 2.04951 cumulative IPC: 0.683185 (Simulation time: 0 hr 57 min 43 sec) 
Heartbeat CPU 1 instructions: 400000000 cycles: 147025032 heartbeat IPC: 2.71883 cumulative IPC: 1.36031 (Simulation time: 0 hr 57 min 58 sec) 
Heartbeat CPU 2 instructions: 200000000 cycles: 147267579 heartbeat IPC: 1.35911 cumulative IPC: 1.35807 (Simulation time: 0 hr 58 min 4 sec) 

Warmup complete CPU 0 instructions: 301833543 cycles: 147267581 (Simulation time: 0 hr 58 min 4 sec) 
Warmup complete CPU 1 instructions: 400659461 cycles: 147267581 (Simulation time: 0 hr 58 min 4 sec) 
Warmup complete CPU 2 instructions: 200000001 cycles: 147267581 (Simulation time: 0 hr 58 min 4 sec) 
Warmup complete CPU 3 instructions: 272391090 cycles: 147267580 (Simulation time: 0 hr 58 min 4 sec) 

Heartbeat CPU 0 instructions: 310000002 cycles: 155166305 heartbeat IPC: 1.13726 cumulative IPC: 1.0339 (Simulation time: 0 hr 59 min 7 sec) 
Heartbeat CPU 0 instructions: 320000000 cycles: 164754047 heartbeat IPC: 1.043 cumulative IPC: 1.03889 (Simulation time: 1 hr 0 min 23 sec) 
Heartbeat CPU 3 instructions: 280000000 cycles: 164930314 heartbeat IPC: 0.52779 cumulative IPC: 0.430789 (Simulation time: 1 hr 0 min 24 sec) 
Heartbeat CPU 0 instructions: 330000001 cycles: 174346425 heartbeat IPC: 1.04249 cumulative IPC: 1.04016 (Simulation time: 1 hr 1 min 39 sec) 
Heartbeat CPU 0 instructions: 340000000 cycles: 183952257 heartbeat IPC: 1.04103 cumulative IPC: 1.04039 (Simulation time: 1 hr 2 min 55 sec) 
Heartbeat CPU 3 instructions: 290000001 cycles: 188251538 heartbeat IPC: 0.428794 cumulative IPC: 0.429654 (Simulation time: 1 hr 3 min 28 sec) 
Heartbeat CPU 2 instructions: 210000003 cycles: 189907066 heartbeat IPC: 0.234524 cumulative IPC: 0.234524 (Simulation time: 1 hr 3 min 42 sec) 
Heartbeat CPU 0 instructions: 350000002 cycles: 193512502 heartbeat IPC: 1.046 cumulative IPC: 1.04155 (Simulation time: 1 hr 4 min 10 sec) 
Heartbeat CPU 1 instructions: 410000000 cycles: 195541765 heartbeat IPC: 0.206114 cumulative IPC: 0.193489 (Simulation time: 1 hr 4 min 26 sec) 
Heartbeat CPU 0 instructions: 360000000 cycles: 203077484 heartbeat IPC: 1.04548 cumulative IPC: 1.04222 (Simulation time: 1 hr 5 min 25 sec) 
Heartbeat CPU 3 instructions: 300000000 cycles: 211885277 heartbeat IPC: 0.423124 cumulative IPC: 0.427265 (Simulation time: 1 hr 6 min 35 sec) 
Heartbeat CPU 0 instructions: 370000001 cycles: 212670765 heartbeat IPC: 1.0424 cumulative IPC: 1.04225 (Simulation time: 1 hr 6 min 41 sec) 
Heartbeat CPU 0 instructions: 380000000 cycles: 222270814 heartbeat IPC: 1.04166 cumulative IPC: 1.04217 (Simulation time: 1 hr 7 min 57 sec) 
Heartbeat CPU 0 instructions: 390000001 cycles: 231845294 heartbeat IPC: 1.04444 cumulative IPC: 1.04243 (Simulation time: 1 hr 9 min 13 sec) 
Heartbeat CPU 2 instructions: 220000000 cycles: 232166635 heartbeat IPC: 0.236633 cumulative IPC: 0.235574 (Simulation time: 1 hr 9 min 16 sec) 
Heartbeat CPU 3 instructions: 310000000 cycles: 235110431 heartbeat IPC: 0.430568 cumulative IPC: 0.428139 (Simulation time: 1 hr 9 min 39 sec) 
Heartbeat CPU 0 instructions: 400000000 cycles: 241450509 heartbeat IPC: 1.0411 cumulative IPC: 1.0423 (Simulation time: 1 hr 10 min 30 sec) 
Heartbeat CPU 1 instructions: 420000000 cycles: 246955078 heartbeat IPC: 0.194502 cumulative IPC: 0.194012 (Simulation time: 1 hr 11 min 13 sec) 
Heartbeat CPU 0 instructions: 410000000 cycles: 251020785 heartbeat IPC: 1.0449 cumulative IPC: 1.04254 (Simulation time: 1 hr 11 min 46 sec) 
Heartbeat CPU 3 instructions: 320000000 cycles: 258562201 heartbeat IPC: 0.426407 cumulative IPC: 0.427774 (Simulation time: 1 hr 12 min 45 sec) 
Heartbeat CPU 0 instructions: 420000000 cycles: 260602551 heartbeat IPC: 1.04365 cumulative IPC: 1.04263 (Simulation time: 1 hr 13 min 1 sec) 
Heartbeat CPU 0 instructions: 430000000 cycles: 270185511 heartbeat IPC: 1.04352 cumulative IPC: 1.0427 (Simulation time: 1 hr 14 min 16 sec) 
Heartbeat CPU 2 instructions: 230000002 cycles: 273955864 heartbeat IPC: 0.239296 cumulative IPC: 0.236802 (Simulation time: 1 hr 14 min 46 sec) 
Heartbeat CPU 0 instructions: 440000000 cycles: 279787397 heartbeat IPC: 1.04146 cumulative IPC: 1.04261 (Simulation time: 1 hr 15 min 32 sec) 
Heartbeat CPU 3 instructions: 330000000 cycles: 282118502 heartbeat IPC: 0.424515 cumulative IPC: 0.427204 (Simulation time: 1 hr 15 min 50 sec) 
Heartbeat CPU 0 instructions: 450000001 cycles: 289376960 heartbeat IPC: 1.0428 cumulative IPC: 1.04262 (Simulation time: 1 hr 16 min 48 sec) 
Heartbeat CPU 1 instructions: 430000002 cycles: 298421274 heartbeat IPC: 0.194302 cumulative IPC: 0.194111 (Simulation time: 1 hr 17 min 59 sec) 
Heartbeat CPU 0 instructions: 460000000 cycles: 298975039 heartbeat IPC: 1.04188 cumulative IPC: 1.04258 (Simulation time: 1 hr 18 min 4 sec) 
Heartbeat CPU 3 instructions: 340000000 cycles: 305347321 heartbeat IPC: 0.4305 cumulative IPC: 0.427689 (Simulation time: 1 hr 18 min 54 sec) 
Heartbeat CPU 0 instructions: 470000001 cycles: 308586519 heartbeat IPC: 1.04042 cumulative IPC: 1.04245 (Simulation time: 1 hr 19 min 19 sec) 
Heartbeat CPU 2 instructions: 240000000 cycles: 316269622 heartbeat IPC: 0.23633 cumulative IPC: 0.236684 (Simulation time: 1 hr 20 min 21 sec) 
Heartbeat CPU 0 instructions: 480000000 cycles: 318108462 heartbeat IPC: 1.05021 cumulative IPC: 1.04288 (Simulation time: 1 hr 20 min 35 sec) 
Heartbeat CPU 0 instructions: 490000000 cycles: 327656281 heartbeat IPC: 1.04736 cumulative IPC: 1.04312 (Simulation time: 1 hr 21 min 50 sec) 
Heartbeat CPU 3 instructions: 350000003 cycles: 328763483 heartbeat IPC: 0.427056 cumulative IPC: 0.427607 (Simulation time: 1 hr 21 min 59 sec) 
Heartbeat CPU 0 instructions: 500000000 cycles: 337217402 heartbeat IPC: 1.0459 cumulative IPC: 1.04326 (Simulation time: 1 hr 23 min 5 sec) 
Heartbeat CPU 0 instructions: 510000003 cycles: 346850068 heartbeat IPC: 1.03813 cumulative IPC: 1.04301 (Simulation time: 1 hr 24 min 21 sec) 
Heartbeat CPU 1 instructions: 440000000 cycles: 349859866 heartbeat IPC: 0.194407 cumulative IPC: 0.194186 (Simulation time: 1 hr 24 min 45 sec) 
Heartbeat CPU 3 instructions: 360000000 cycles: 352309463 heartbeat IPC: 0.424701 cumulative IPC: 0.427273 (Simulation time: 1 hr 25 min 4 sec) 
Heartbeat CPU 0 instructions: 520000000 cycles: 356408866 heartbeat IPC: 1.04616 cumulative IPC: 1.04315 (Simulation time: 1 hr 25 min 37 sec) 
Heartbeat CPU 2 instructions: 250000000 cycles: 358597994 heartbeat IPC: 0.236248 cumulative IPC: 0.236596 (Simulation time: 1 hr 25 min 54 sec) 
Heartbeat CPU 0 instructions: 530000003 cycles: 366033146 heartbeat IPC: 1.03904 cumulative IPC: 1.04297 (Simulation time: 1 hr 26 min 53 sec) 
Heartbeat CPU 3 instructions: 370000003 cycles: 375552541 heartbeat IPC: 0.430236 cumulative IPC: 0.427575 (Simulation time: 1 hr 28 min 8 sec) 
Heartbeat CPU 0 instructions: 540000000 cycles: 375606181 heartbeat IPC: 1.0446 cumulative IPC: 1.04304 (Simulation time: 1 hr 28 min 9 sec) 
Heartbeat CPU 0 instructions: 550000000 cycles: 385213447 heartbeat IPC: 1.04088 cumulative IPC: 1.04295 (Simulation time: 1 hr 29 min 25 sec) 
Heartbeat CPU 0 instructions: 560000000 cycles: 394794096 heartbeat IPC: 1.04377 cumulative IPC: 1.04299 (Simulation time: 1 hr 30 min 41 sec) 
Heartbeat CPU 3 instructions: 380000000 cycles: 399040975 heartbeat IPC: 0.425741 cumulative IPC: 0.427404 (Simulation time: 1 hr 31 min 14 sec) 
Heartbeat CPU 2 instructions: 260000000 cycles: 401005553 heartbeat IPC: 0.235807 cumulative IPC: 0.236464 (Simulation time: 1 hr 31 min 29 sec) 
Heartbeat CPU 1 instructions: 450000001 cycles: 401631820 heartbeat IPC: 0.193155 cumulative IPC: 0.193976 (Simulation time: 1 hr 31 min 34 sec) 
Heartbeat CPU 0 instructions: 570000003 cycles: 404387505 heartbeat IPC: 1.04238 cumulative IPC: 1.04296 (Simulation time: 1 hr 31 min 56 sec) 
Heartbeat CPU 0 instructions: 580000000 cycles: 413965475 heartbeat IPC: 1.04406 cumulative IPC: 1.043 (Simulation time: 1 hr 33 min 10 sec) 
Heartbeat CPU 3 instructions: 390000000 cycles: 422109721 heartbeat IPC: 0.433487 cumulative IPC: 0.427914 (Simulation time: 1 hr 34 min 15 sec) 
Heartbeat CPU 0 instructions: 590000003 cycles: 423526835 heartbeat IPC: 1.04588 cumulative IPC: 1.0431 (Simulation time: 1 hr 34 min 26 sec) 
Heartbeat CPU 0 instructions: 600000000 cycles: 433115426 heartbeat IPC: 1.04291 cumulative IPC: 1.04309 (Simulation time: 1 hr 35 min 42 sec) 
Heartbeat CPU 0 instructions: 610000002 cycles: 442739492 heartbeat IPC: 1.03906 cumulative IPC: 1.04296 (Simulation time: 1 hr 36 min 55 sec) 
Heartbeat CPU 2 instructions: 270000000 cycles: 443872727 heartbeat IPC: 0.233279 cumulative IPC: 0.236004 (Simulation time: 1 hr 37 min 4 sec) 
Heartbeat CPU 3 instructions: 400000000 cycles: 445331557 heartbeat IPC: 0.430629 cumulative IPC: 0.428126 (Simulation time: 1 hr 37 min 15 sec) 
Heartbeat CPU 0 instructions: 620000000 cycles: 452331907 heartbeat IPC: 1.04249 cumulative IPC: 1.04295 (Simulation time: 1 hr 38 min 7 sec) 
Heartbeat CPU 1 instructions: 460000000 cycles: 460768940 heartbeat IPC: 0.169099 cumulative IPC: 0.189283 (Simulation time: 1 hr 39 min 16 sec) 
Heartbeat CPU 0 instructions: 630000000 cycles: 465218712 heartbeat IPC: 0.775988 cumulative IPC: 1.03213 (Simulation time: 1 hr 39 min 52 sec) 
Heartbeat CPU 3 instructions: 410000001 cycles: 468786074 heartbeat IPC: 0.426357 cumulative IPC: 0.427997 (Simulation time: 1 hr 40 min 21 sec) 
Heartbeat CPU 0 instructions: 640000000 cycles: 480837439 heartbeat IPC: 0.640257 cumulative IPC: 1.01378 (Simulation time: 1 hr 42 min 0 sec) 
Heartbeat CPU 2 instructions: 280000000 cycles: 487651986 heartbeat IPC: 0.228419 cumulative IPC: 0.235028 (Simulation time: 1 hr 42 min 50 sec) 
Heartbeat CPU 1 instructions: 470000002 cycles: 492638899 heartbeat IPC: 0.313775 cumulative IPC: 0.200771 (Simulation time: 1 hr 43 min 31 sec) 
Heartbeat CPU 3 instructions: 420000000 cycles: 494007803 heartbeat IPC: 0.396483 cumulative IPC: 0.425705 (Simulation time: 1 hr 43 min 42 sec) 
Heartbeat CPU 0 instructions: 650000002 cycles: 496529205 heartbeat IPC: 0.637277 cumulative IPC: 0.996864 (Simulation time: 1 hr 44 min 2 sec) 
Heartbeat CPU 0 instructions: 660000000 cycles: 512145554 heartbeat IPC: 0.640354 cumulative IPC: 0.981606 (Simulation time: 1 hr 46 min 11 sec) 
Heartbeat CPU 3 instructions: 430000000 cycles: 517192981 heartbeat IPC: 0.43131 cumulative IPC: 0.426056 (Simulation time: 1 hr 46 min 53 sec) 
Heartbeat CPU 1 instructions: 480000000 cycles: 524293804 heartbeat IPC: 0.315907 cumulative IPC: 0.210438 (Simulation time: 1 hr 47 min 51 sec) 
Heartbeat CPU 0 instructions: 670000001 cycles: 527834815 heartbeat IPC: 0.637379 cumulative IPC: 0.967415 (Simulation time: 1 hr 48 min 21 sec) 
Heartbeat CPU 2 instructions: 290000000 cycles: 531392954 heartbeat IPC: 0.228619 cumulative IPC: 0.234298 (Simulation time: 1 hr 48 min 50 sec) 
Heartbeat CPU 3 instructions: 440000000 cycles: 540574040 heartbeat IPC: 0.427697 cumulative IPC: 0.426153 (Simulation time: 1 hr 50 min 6 sec) 
Heartbeat CPU 0 instructions: 680000000 cycles: 543537989 heartbeat IPC: 0.636814 cumulative IPC: 0.954314 (Simulation time: 1 hr 50 min 30 sec) 
Heartbeat CPU 1 instructions: 490000002 cycles: 555896976 heartbeat IPC: 0.316424 cumulative IPC: 0.218635 (Simulation time: 1 hr 52 min 11 sec) 
Heartbeat CPU 0 instructions: 690000001 cycles: 559035942 heartbeat IPC: 0.645247 cumulative IPC: 0.942682 (Simulation time: 1 hr 52 min 36 sec) 
Heartbeat CPU 3 instructions: 450000001 cycles: 564083453 heartbeat IPC: 0.425362 cumulative IPC: 0.426109 (Simulation time: 1 hr 53 min 18 sec) 
Heartbeat CPU 0 instructions: 700000000 cycles: 574726833 heartbeat IPC: 0.637312 cumulative IPC: 0.931472 (Simulation time: 1 hr 54 min 46 sec) 
Heartbeat CPU 2 instructions: 300000000 cycles: 575176109 heartbeat IPC: 0.228398 cumulative IPC: 0.233695 (Simulation time: 1 hr 54 min 49 sec) 
Heartbeat CPU 3 instructions: 460000000 cycles: 587258837 heartbeat IPC: 0.431492 cumulative IPC: 0.426392 (Simulation time: 1 hr 56 min 29 sec) 
Heartbeat CPU 1 instructions: 500000000 cycles: 587497960 heartbeat IPC: 0.316446 cumulative IPC: 0.225656 (Simulation time: 1 hr 56 min 31 sec) 
Heartbeat CPU 0 instructions: 710000001 cycles: 590336931 heartbeat IPC: 0.640611 cumulative IPC: 0.921225 (Simulation time: 1 hr 56 min 55 sec) 
Heartbeat CPU 0 instructions: 720000000 cycles: 605999020 heartbeat IPC: 0.638484 cumulative IPC: 0.911571 (Simulation time: 1 hr 59 min 4 sec) 
Heartbeat CPU 3 instructions: 470000000 cycles: 610758982 heartbeat IPC: 0.425529 cumulative IPC: 0.426349 (Simulation time: 1 hr 59 min 43 sec) 
Heartbeat CPU 2 instructions: 310000000 cycles: 618379898 heartbeat IPC: 0.231461 cumulative IPC: 0.23349 (Simulation time: 2 hr 0 min 42 sec) 
Heartbeat CPU 1 instructions: 510000000 cycles: 619086732 heartbeat IPC: 0.316568 cumulative IPC: 0.231742 (Simulation time: 2 hr 0 min 48 sec) 
Heartbeat CPU 0 instructions: 730000000 cycles: 621483729 heartbeat IPC: 0.645798 cumulative IPC: 0.902893 (Simulation time: 2 hr 1 min 8 sec) 
Heartbeat CPU 3 instructions: 480000000 cycles: 635274007 heartbeat IPC: 0.407913 cumulative IPC: 0.425422 (Simulation time: 2 hr 3 min 2 sec) 
Heartbeat CPU 0 instructions: 740000000 cycles: 637158720 heartbeat IPC: 0.637959 cumulative IPC: 0.894416 (Simulation time: 2 hr 3 min 17 sec) 
Heartbeat CPU 1 instructions: 520000000 cycles: 650548567 heartbeat IPC: 0.317845 cumulative IPC: 0.237125 (Simulation time: 2 hr 5 min 8 sec) 
Heartbeat CPU 0 instructions: 750000000 cycles: 652842138 heartbeat IPC: 0.637616 cumulative IPC: 0.88645 (Simulation time: 2 hr 5 min 27 sec) 
Heartbeat CPU 3 instructions: 490000000 cycles: 658504637 heartbeat IPC: 0.430466 cumulative IPC: 0.425652 (Simulation time: 2 hr 6 min 13 sec) 
Heartbeat CPU 2 instructions: 320000000 cycles: 662082458 heartbeat IPC: 0.22882 cumulative IPC: 0.233094 (Simulation time: 2 hr 6 min 43 sec) 
Heartbeat CPU 0 instructions: 760000000 cycles: 668462224 heartbeat IPC: 0.640201 cumulative IPC: 0.87907 (Simulation time: 2 hr 7 min 35 sec) 
Heartbeat CPU 3 instructions: 500000000 cycles: 682083577 heartbeat IPC: 0.424107 cumulative IPC: 0.425584 (Simulation time: 2 hr 9 min 27 sec) 
Heartbeat CPU 1 instructions: 530000002 cycles: 682158284 heartbeat IPC: 0.316358 cumulative IPC: 0.241807 (Simulation time: 2 hr 9 min 27 sec) 
Heartbeat CPU 0 instructions: 770000000 cycles: 684172367 heartbeat IPC: 0.636531 cumulative IPC: 0.871973 (Simulation time: 2 hr 9 min 43 sec) 
Heartbeat CPU 0 instructions: 780000000 cycles: 699823707 heartbeat IPC: 0.638923 cumulative IPC: 0.865372 (Simulation time: 2 hr 11 min 51 sec) 
Heartbeat CPU 3 instructions: 510000000 cycles: 705495776 heartbeat IPC: 0.427128 cumulative IPC: 0.425648 (Simulation time: 2 hr 12 min 36 sec) 
Heartbeat CPU 2 instructions: 330000003 cycles: 707481937 heartbeat IPC: 0.220267 cumulative IPC: 0.232054 (Simulation time: 2 hr 12 min 53 sec) 
Heartbeat CPU 1 instructions: 540000000 cycles: 709947046 heartbeat IPC: 0.359858 cumulative IPC: 0.247638 (Simulation time: 2 hr 13 min 14 sec) 
Heartbeat CPU 0 instructions: 790000002 cycles: 715573496 heartbeat IPC: 0.634929 cumulative IPC: 0.858985 (Simulation time: 2 hr 14 min 1 sec) 
Heartbeat CPU 1 instructions: 550000001 cycles: 721429191 heartbeat IPC: 0.870917 cumulative IPC: 0.260102 (Simulation time: 2 hr 14 min 51 sec) 
Heartbeat CPU 3 instructions: 520000000 cycles: 729804288 heartbeat IPC: 0.411379 cumulative IPC: 0.425053 (Simulation time: 2 hr 16 min 1 sec) 
Heartbeat CPU 0 instructions: 800000000 cycles: 731231691 heartbeat IPC: 0.638643 cumulative IPC: 0.853077 (Simulation time: 2 hr 16 min 13 sec) 
Heartbeat CPU 1 instructions: 560000000 cycles: 732822664 heartbeat IPC: 0.877695 cumulative IPC: 0.272119 (Simulation time: 2 hr 16 min 26 sec) 
Heartbeat CPU 1 instructions: 570000001 cycles: 744285525 heartbeat IPC: 0.872383 cumulative IPC: 0.283644 (Simulation time: 2 hr 18 min 2 sec) 
Heartbeat CPU 0 instructions: 810000003 cycles: 746997362 heartbeat IPC: 0.63429 cumulative IPC: 0.847326 (Simulation time: 2 hr 18 min 24 sec) 
Heartbeat CPU 3 instructions: 530000000 cycles: 753808808 heartbeat IPC: 0.416588 cumulative IPC: 0.424718 (Simulation time: 2 hr 19 min 22 sec) 
Heartbeat CPU 1 instructions: 580000000 cycles: 755752418 heartbeat IPC: 0.872076 cumulative IPC: 0.294733 (Simulation time: 2 hr 19 min 38 sec) 
Heartbeat CPU 2 instructions: 340000000 cycles: 759741672 heartbeat IPC: 0.191352 cumulative IPC: 0.228581 (Simulation time: 2 hr 20 min 12 sec) 
Heartbeat CPU 0 instructions: 820000000 cycles: 762734705 heartbeat IPC: 0.635431 cumulative IPC: 0.841908 (Simulation time: 2 hr 20 min 37 sec) 
Heartbeat CPU 1 instructions: 590000003 cycles: 767194745 heartbeat IPC: 0.873948 cumulative IPC: 0.305424 (Simulation time: 2 hr 21 min 15 sec) 
Heartbeat CPU 3 instructions: 540000000 cycles: 777552072 heartbeat IPC: 0.421172 cumulative IPC: 0.424584 (Simulation time: 2 hr 22 min 43 sec) 
Heartbeat CPU 0 instructions: 830000000 cycles: 778424787 heartbeat IPC: 0.637345 cumulative IPC: 0.836822 (Simulation time: 2 hr 22 min 50 sec) 
Heartbeat CPU 1 instructions: 600000000 cycles: 778704890 heartbeat IPC: 0.868799 cumulative IPC: 0.315693 (Simulation time: 2 hr 22 min 53 sec) 
Heartbeat CPU 1 instructions: 610000001 cycles: 790228894 heartbeat IPC: 0.867754 cumulative IPC: 0.325588 (Simulation time: 2 hr 24 min 30 sec) 
Heartbeat CPU 0 instructions: 840000000 cycles: 794145962 heartbeat IPC: 0.636085 cumulative IPC: 0.831944 (Simulation time: 2 hr 25 min 3 sec) 
Heartbeat CPU 3 instructions: 550000000 cycles: 801545322 heartbeat IPC: 0.416784 cumulative IPC: 0.424298 (Simulation time: 2 hr 26 min 5 sec) 
Heartbeat CPU 1 instructions: 620000000 cycles: 801697670 heartbeat IPC: 0.871933 cumulative IPC: 0.335163 (Simulation time: 2 hr 26 min 7 sec) 
Heartbeat CPU 0 instructions: 850000001 cycles: 809794422 heartbeat IPC: 0.639041 cumulative IPC: 0.827388 (Simulation time: 2 hr 27 min 12 sec) 
Heartbeat CPU 2 instructions: 350000001 cycles: 812748213 heartbeat IPC: 0.188656 cumulative IPC: 0.225401 (Simulation time: 2 hr 27 min 31 sec) 
Heartbeat CPU 1 instructions: 630000003 cycles: 813156552 heartbeat IPC: 0.872686 cumulative IPC: 0.344413 (Simulation time: 2 hr 27 min 34 sec) 
Heartbeat CPU 1 instructions: 640000000 cycles: 824672130 heartbeat IPC: 0.868389 cumulative IPC: 0.35332 (Simulation time: 2 hr 29 min 11 sec) 
Heartbeat CPU 0 instructions: 860000000 cycles: 825529904 heartbeat IPC: 0.635506 cumulative IPC: 0.822936 (Simulation time: 2 hr 29 min 18 sec) 
Heartbeat CPU 3 instructions: 560000000 cycles: 829035390 heartbeat IPC: 0.363768 cumulative IPC: 0.421858 (Simulation time: 2 hr 29 min 48 sec) 
Heartbeat CPU 0 instructions: 870000001 cycles: 841163149 heartbeat IPC: 0.639663 cumulative IPC: 0.818807 (Simulation time: 2 hr 31 min 22 sec) 
Heartbeat CPU 1 instructions: 650000002 cycles: 846185758 heartbeat IPC: 0.464822 cumulative IPC: 0.356752 (Simulation time: 2 hr 32 min 1 sec) 
Heartbeat CPU 3 instructions: 570000000 cycles: 852463790 heartbeat IPC: 0.426832 cumulative IPC: 0.422023 (Simulation time: 2 hr 32 min 50 sec) 
Heartbeat CPU 0 instructions: 880000000 cycles: 856862251 heartbeat IPC: 0.636979 cumulative IPC: 0.814784 (Simulation time: 2 hr 33 min 25 sec) 
Heartbeat CPU 2 instructions: 360000000 cycles: 857418150 heartbeat IPC: 0.223864 cumulative IPC: 0.225304 (Simulation time: 2 hr 33 min 30 sec) 
Heartbeat CPU 0 instructions: 890000003 cycles: 872539911 heartbeat IPC: 0.63785 cumulative IPC: 0.810959 (Simulation time: 2 hr 35 min 31 sec) 
Heartbeat CPU 1 instructions: 660000000 cycles: 873566859 heartbeat IPC: 0.365215 cumulative IPC: 0.357071 (Simulation time: 2 hr 35 min 39 sec) 
Heartbeat CPU 3 instructions: 580000000 cycles: 876015830 heartbeat IPC: 0.424592 cumulative IPC: 0.422106 (Simulation time: 2 hr 35 min 59 sec) 
Heartbeat CPU 0 instructions: 900000000 cycles: 888218319 heartbeat IPC: 0.63782 cumulative IPC: 0.807296 (Simulation time: 2 hr 37 min 40 sec) 
Heartbeat CPU 2 instructions: 370000001 cycles: 897210214 heartbeat IPC: 0.251306 cumulative IPC: 0.226684 (Simulation time: 2 hr 38 min 55 sec) 
Heartbeat CPU 1 instructions: 670000000 cycles: 898665999 heartbeat IPC: 0.39842 cumulative IPC: 0.358452 (Simulation time: 2 hr 39 min 7 sec) 
Heartbeat CPU 3 instructions: 590000003 cycles: 899184391 heartbeat IPC: 0.43162 cumulative IPC: 0.422399 (Simulation time: 2 hr 39 min 11 sec) 
Heartbeat CPU 0 instructions: 910000001 cycles: 903905253 heartbeat IPC: 0.637473 cumulative IPC: 0.803775 (Simulation time: 2 hr 39 min 50 sec) 
Heartbeat CPU 0 instructions: 920000000 cycles: 919530717 heartbeat IPC: 0.639981 cumulative IPC: 0.800461 (Simulation time: 2 hr 42 min 1 sec) 
Heartbeat CPU 3 instructions: 600000000 cycles: 922458265 heartbeat IPC: 0.429666 cumulative IPC: 0.422617 (Simulation time: 2 hr 42 min 26 sec) 
Heartbeat CPU 1 instructions: 680000000 cycles: 923078879 heartbeat IPC: 0.40962 cumulative IPC: 0.360062 (Simulation time: 2 hr 42 min 31 sec) 
Heartbeat CPU 0 instructions: 930000000 cycles: 935228058 heartbeat IPC: 0.637051 cumulative IPC: 0.797206 (Simulation time: 2 hr 44 min 12 sec) 
Heartbeat CPU 2 instructions: 380000000 cycles: 937111136 heartbeat IPC: 0.250621 cumulative IPC: 0.227893 (Simulation time: 2 hr 44 min 29 sec) 
Heartbeat CPU 3 instructions: 610000000 cycles: 946022859 heartbeat IPC: 0.424365 cumulative IPC: 0.422669 (Simulation time: 2 hr 45 min 44 sec) 
Heartbeat CPU 1 instructions: 690000001 cycles: 946627138 heartbeat IPC: 0.42466 cumulative IPC: 0.361965 (Simulation time: 2 hr 45 min 49 sec) 
Heartbeat CPU 0 instructions: 940000000 cycles: 950867889 heartbeat IPC: 0.639393 cumulative IPC: 0.794134 (Simulation time: 2 hr 46 min 25 sec) 
Heartbeat CPU 0 instructions: 950000002 cycles: 966640973 heartbeat IPC: 0.633992 cumulative IPC: 0.791051 (Simulation time: 2 hr 48 min 39 sec) 
Heartbeat CPU 3 instructions: 620000000 cycles: 969189209 heartbeat IPC: 0.431661 cumulative IPC: 0.422922 (Simulation time: 2 hr 49 min 0 sec) 
Heartbeat CPU 1 instructions: 700000000 cycles: 969770435 heartbeat IPC: 0.432091 cumulative IPC: 0.363939 (Simulation time: 2 hr 49 min 5 sec) 
Heartbeat CPU 2 instructions: 390000002 cycles: 976598970 heartbeat IPC: 0.253243 cumulative IPC: 0.2291 (Simulation time: 2 hr 50 min 3 sec) 
Heartbeat CPU 0 instructions: 960000000 cycles: 982283772 heartbeat IPC: 0.639272 cumulative IPC: 0.788208 (Simulation time: 2 hr 50 min 51 sec) 
Heartbeat CPU 3 instructions: 630000003 cycles: 992470933 heartbeat IPC: 0.429522 cumulative IPC: 0.423104 (Simulation time: 2 hr 52 min 18 sec) 
Heartbeat CPU 1 instructions: 710000001 cycles: 992745581 heartbeat IPC: 0.435253 cumulative IPC: 0.365876 (Simulation time: 2 hr 52 min 20 sec) 
Heartbeat CPU 0 instructions: 970000000 cycles: 998019198 heartbeat IPC: 0.635509 cumulative IPC: 0.785384 (Simulation time: 2 hr 53 min 5 sec) 
Heartbeat CPU 0 instructions: 980000000 cycles: 1013780973 heartbeat IPC: 0.634446 cumulative IPC: 0.782638 (Simulation time: 2 hr 55 min 19 sec) 
Heartbeat CPU 1 instructions: 720000000 cycles: 1015532306 heartbeat IPC: 0.438852 cumulative IPC: 0.367792 (Simulation time: 2 hr 55 min 34 sec) 
Heartbeat CPU 3 instructions: 640000000 cycles: 1016038166 heartbeat IPC: 0.424318 cumulative IPC: 0.423137 (Simulation time: 2 hr 55 min 38 sec) 
Heartbeat CPU 2 instructions: 400000000 cycles: 1016603888 heartbeat IPC: 0.249969 cumulative IPC: 0.230061 (Simulation time: 2 hr 55 min 43 sec) 
Heartbeat CPU 0 instructions: 990000000 cycles: 1029426749 heartbeat IPC: 0.63915 cumulative IPC: 0.780093 (Simulation time: 2 hr 57 min 33 sec) 
Heartbeat CPU 1 instructions: 730000000 cycles: 1037866121 heartbeat IPC: 0.447752 cumulative IPC: 0.369797 (Simulation time: 2 hr 58 min 45 sec) 
Heartbeat CPU 3 instructions: 650000000 cycles: 1039187296 heartbeat IPC: 0.431982 cumulative IPC: 0.423366 (Simulation time: 2 hr 58 min 57 sec) 
Heartbeat CPU 0 instructions: 1000000000 cycles: 1045165505 heartbeat IPC: 0.635374 cumulative IPC: 0.777557 (Simulation time: 2 hr 59 min 48 sec) 
Heartbeat CPU 2 instructions: 410000000 cycles: 1056356149 heartbeat IPC: 0.251558 cumulative IPC: 0.231001 (Simulation time: 3 hr 1 min 24 sec) 
Heartbeat CPU 1 instructions: 740000000 cycles: 1060003924 heartbeat IPC: 0.451716 cumulative IPC: 0.371784 (Simulation time: 3 hr 1 min 56 sec) 
Heartbeat CPU 0 instructions: 1010000001 cycles: 1060761338 heartbeat IPC: 0.641197 cumulative IPC: 0.775229 (Simulation time: 3 hr 2 min 2 sec) 
Heartbeat CPU 3 instructions: 660000000 cycles: 1062511412 heartbeat IPC: 0.428741 cumulative IPC: 0.423503 (Simulation time: 3 hr 2 min 17 sec) 
Heartbeat CPU 0 instructions: 1020000000 cycles: 1076135752 heartbeat IPC: 0.650431 cumulative IPC: 0.773163 (Simulation time: 3 hr 4 min 15 sec) 
Heartbeat CPU 1 instructions: 750000002 cycles: 1081888578 heartbeat IPC: 0.456941 cumulative IPC: 0.373778 (Simulation time: 3 hr 5 min 4 sec) 
Heartbeat CPU 3 instructions: 670000000 cycles: 1085952466 heartbeat IPC: 0.426602 cumulative IPC: 0.423581 (Simulation time: 3 hr 5 min 40 sec) 
Heartbeat CPU 0 instructions: 1030000001 cycles: 1091329629 heartbeat IPC: 0.65816 cumulative IPC: 0.771312 (Simulation time: 3 hr 6 min 27 sec) 
Heartbeat CPU 2 instructions: 420000000 cycles: 1096162040 heartbeat IPC: 0.251219 cumulative IPC: 0.231849 (Simulation time: 3 hr 7 min 9 sec) 
Heartbeat CPU 1 instructions: 760000000 cycles: 1103402939 heartbeat IPC: 0.464806 cumulative IPC: 0.375826 (Simulation time: 3 hr 8 min 12 sec) 
Heartbeat CPU 0 instructions: 1040000000 cycles: 1106670207 heartbeat IPC: 0.651866 cumulative IPC: 0.769402 (Simulation time: 3 hr 8 min 41 sec) 
Heartbeat CPU 3 instructions: 680000000 cycles: 1109120786 heartbeat IPC: 0.431624 cumulative IPC: 0.423775 (Simulation time: 3 hr 9 min 2 sec) 
Heartbeat CPU 0 instructions: 1050000000 cycles: 1121995155 heartbeat IPC: 0.652531 cumulative IPC: 0.767565 (Simulation time: 3 hr 10 min 55 sec) 
Heartbeat CPU 1 instructions: 770000000 cycles: 1124668178 heartbeat IPC: 0.470251 cumulative IPC: 0.37788 (Simulation time: 3 hr 11 min 19 sec) 
Heartbeat CPU 3 instructions: 690000003 cycles: 1132432877 heartbeat IPC: 0.428962 cumulative IPC: 0.423897 (Simulation time: 3 hr 12 min 26 sec) 
Heartbeat CPU 2 instructions: 430000000 cycles: 1136169036 heartbeat IPC: 0.249956 cumulative IPC: 0.232581 (Simulation time: 3 hr 12 min 59 sec) 
Heartbeat CPU 0 instructions: 1060000000 cycles: 1137243748 heartbeat IPC: 0.655798 cumulative IPC: 0.765843 (Simulation time: 3 hr 13 min 9 sec) 
Heartbeat CPU 1 instructions: 780000000 cycles: 1145873962 heartbeat IPC: 0.471569 cumulative IPC: 0.37987 (Simulation time: 3 hr 14 min 24 sec) 
Heartbeat CPU 0 instructions: 1070000001 cycles: 1152543713 heartbeat IPC: 0.653596 cumulative IPC: 0.764135 (Simulation time: 3 hr 15 min 23 sec) 
Heartbeat CPU 3 instructions: 700000000 cycles: 1155963502 heartbeat IPC: 0.424978 cumulative IPC: 0.423923 (Simulation time: 3 hr 15 min 53 sec) 
Heartbeat CPU 1 instructions: 790000003 cycles: 1166913721 heartbeat IPC: 0.475291 cumulative IPC: 0.381839 (Simulation time: 3 hr 17 min 29 sec) 
Heartbeat CPU 0 instructions: 1080000000 cycles: 1167760108 heartbeat IPC: 0.657186 cumulative IPC: 0.76254 (Simulation time: 3 hr 17 min 37 sec) 
Heartbeat CPU 2 instructions: 440000000 cycles: 1175809149 heartbeat IPC: 0.25227 cumulative IPC: 0.23334 (Simulation time: 3 hr 18 min 48 sec) 
Heartbeat CPU 3 instructions: 710000000 cycles: 1179147023 heartbeat IPC: 0.431341 cumulative IPC: 0.424089 (Simulation time: 3 hr 19 min 17 sec) 
Heartbeat CPU 0 instructions: 1090000000 cycles: 1183075003 heartbeat IPC: 0.652959 cumulative IPC: 0.76092 (Simulation time: 3 hr 19 min 52 sec) 
Heartbeat CPU 1 instructions: 800000000 cycles: 1187873716 heartbeat IPC: 0.477099 cumulative IPC: 0.383758 (Simulation time: 3 hr 20 min 34 sec) 
Heartbeat CPU 0 instructions: 1100000000 cycles: 1198370110 heartbeat IPC: 0.653804 cumulative IPC: 0.759361 (Simulation time: 3 hr 22 min 7 sec) 
Heartbeat CPU 3 instructions: 720000000 cycles: 1202521371 heartbeat IPC: 0.427819 cumulative IPC: 0.424172 (Simulation time: 3 hr 22 min 44 sec) 
Heartbeat CPU 1 instructions: 810000002 cycles: 1208532514 heartbeat IPC: 0.484055 cumulative IPC: 0.38571 (Simulation time: 3 hr 23 min 37 sec) 
Heartbeat CPU 0 instructions: 1110000000 cycles: 1213651663 heartbeat IPC: 0.654384 cumulative IPC: 0.757857 (Simulation time: 3 hr 24 min 22 sec) 
Heartbeat CPU 2 instructions: 450000002 cycles: 1215645123 heartbeat IPC: 0.251029 cumulative IPC: 0.234 (Simulation time: 3 hr 24 min 39 sec) 
Heartbeat CPU 3 instructions: 730000003 cycles: 1225911367 heartbeat IPC: 0.427533 cumulative IPC: 0.424245 (Simulation time: 3 hr 26 min 11 sec) 
Heartbeat CPU 0 instructions: 1120000000 cycles: 1229012337 heartbeat IPC: 0.651013 cumulative IPC: 0.75634 (Simulation time: 3 hr 26 min 38 sec) 
Heartbeat CPU 1 instructions: 820000000 cycles: 1229206739 heartbeat IPC: 0.483694 cumulative IPC: 0.387582 (Simulation time: 3 hr 26 min 40 sec) 
Heartbeat CPU 0 instructions: 1130000000 cycles: 1244327336 heartbeat IPC: 0.652955 cumulative IPC: 0.754896 (Simulation time: 3 hr 28 min 54 sec) 
Heartbeat CPU 3 instructions: 740000000 cycles: 1249202757 heartbeat IPC: 0.429343 cumulative IPC: 0.424352 (Simulation time: 3 hr 29 min 37 sec) 
Heartbeat CPU 1 instructions: 830000003 cycles: 1249782254 heartbeat IPC: 0.486015 cumulative IPC: 0.389419 (Simulation time: 3 hr 29 min 42 sec) 
Heartbeat CPU 2 instructions: 460000000 cycles: 1254926640 heartbeat IPC: 0.254573 cumulative IPC: 0.234729 (Simulation time: 3 hr 30 min 28 sec) 
Heartbeat CPU 0 instructions: 1140000000 cycles: 1259688697 heartbeat IPC: 0.650984 cumulative IPC: 0.753461 (Simulation time: 3 hr 31 min 9 sec) 
Heartbeat CPU 1 instructions: 840000000 cycles: 1270235600 heartbeat IPC: 0.488917 cumulative IPC: 0.391232 (Simulation time: 3 hr 32 min 42 sec) 
Heartbeat CPU 3 instructions: 750000002 cycles: 1272770533 heartbeat IPC: 0.424308 cumulative IPC: 0.424352 (Simulation time: 3 hr 33 min 5 sec) 
Heartbeat CPU 0 instructions: 1150000003 cycles: 1275054821 heartbeat IPC: 0.650782 cumulative IPC: 0.752062 (Simulation time: 3 hr 33 min 24 sec) 
Heartbeat CPU 0 instructions: 1160000000 cycles: 1290378210 heartbeat IPC: 0.652597 cumulative IPC: 0.750729 (Simulation time: 3 hr 35 min 27 sec) 
Heartbeat CPU 1 instructions: 850000002 cycles: 1290543792 heartbeat IPC: 0.492412 cumulative IPC: 0.393029 (Simulation time: 3 hr 35 min 28 sec) 
Heartbeat CPU 2 instructions: 470000001 cycles: 1295180035 heartbeat IPC: 0.248426 cumulative IPC: 0.23521 (Simulation time: 3 hr 36 min 6 sec) 
Heartbeat CPU 3 instructions: 760000000 cycles: 1297747304 heartbeat IPC: 0.400372 cumulative IPC: 0.423831 (Simulation time: 3 hr 36 min 26 sec) 
Heartbeat CPU 0 instructions: 1170000002 cycles: 1305718269 heartbeat IPC: 0.651888 cumulative IPC: 0.74942 (Simulation time: 3 hr 37 min 31 sec) 
Heartbeat CPU 1 instructions: 860000000 cycles: 1310865323 heartbeat IPC: 0.492089 cumulative IPC: 0.394759 (Simulation time: 3 hr 38 min 16 sec) 
Heartbeat CPU 0 instructions: 1180000000 cycles: 1320884068 heartbeat IPC: 0.659378 cumulative IPC: 0.748257 (Simulation time: 3 hr 39 min 44 sec) 
Heartbeat CPU 3 instructions: 770000000 cycles: 1321586031 heartbeat IPC: 0.419485 cumulative IPC: 0.423743 (Simulation time: 3 hr 39 min 51 sec) 
Heartbeat CPU 1 instructions: 870000000 cycles: 1331083939 heartbeat IPC: 0.494594 cumulative IPC: 0.396464 (Simulation time: 3 hr 41 min 15 sec) 
Heartbeat CPU 2 instructions: 480000000 cycles: 1335145003 heartbeat IPC: 0.250219 cumulative IPC: 0.235715 (Simulation time: 3 hr 41 min 51 sec) 
Heartbeat CPU 0 instructions: 1190000001 cycles: 1336055585 heartbeat IPC: 0.65913 cumulative IPC: 0.747119 (Simulation time: 3 hr 41 min 59 sec) 
Heartbeat CPU 3 instructions: 780000000 cycles: 1344771390 heartbeat IPC: 0.431307 cumulative IPC: 0.423889 (Simulation time: 3 hr 43 min 17 sec) 
Heartbeat CPU 1 instructions: 880000000 cycles: 1350940436 heartbeat IPC: 0.503614 cumulative IPC: 0.398232 (Simulation time: 3 hr 44 min 12 sec) 
Heartbeat CPU 0 instructions: 1200000000 cycles: 1351202006 heartbeat IPC: 0.660222 cumulative IPC: 0.746026 (Simulation time: 3 hr 44 min 14 sec) 
Heartbeat CPU 0 instructions: 1210000002 cycles: 1366308244 heartbeat IPC: 0.661978 cumulative IPC: 0.744985 (Simulation time: 3 hr 46 min 28 sec) 
Heartbeat CPU 3 instructions: 790000002 cycles: 1368241992 heartbeat IPC: 0.426065 cumulative IPC: 0.423931 (Simulation time: 3 hr 46 min 45 sec) 
Heartbeat CPU 1 instructions: 890000003 cycles: 1370751759 heartbeat IPC: 0.504762 cumulative IPC: 0.399957 (Simulation time: 3 hr 47 min 8 sec) 
Heartbeat CPU 2 instructions: 490000002 cycles: 1375086544 heartbeat IPC: 0.250366 cumulative IPC: 0.236191 (Simulation time: 3 hr 47 min 46 sec) 
Heartbeat CPU 0 instructions: 1220000000 cycles: 1381513346 heartbeat IPC: 0.657674 cumulative IPC: 0.743909 (Simulation time: 3 hr 48 min 43 sec) 
Heartbeat CPU 1 instructions: 900000000 cycles: 1390574931 heartbeat IPC: 0.50446 cumulative IPC: 0.401623 (Simulation time: 3 hr 50 min 4 sec) 
Heartbeat CPU 3 instructions: 800000000 cycles: 1391557650 heartbeat IPC: 0.428896 cumulative IPC: 0.424024 (Simulation time: 3 hr 50 min 12 sec) 
Heartbeat CPU 0 instructions: 1230000000 cycles: 1396633789 heartbeat IPC: 0.661356 cumulative IPC: 0.74291 (Simulation time: 3 hr 50 min 58 sec) 
Heartbeat CPU 1 instructions: 910000003 cycles: 1410073132 heartbeat IPC: 0.512868 cumulative IPC: 0.40334 (Simulation time: 3 hr 52 min 58 sec) 
Heartbeat CPU 0 instructions: 1240000000 cycles: 1411881550 heartbeat IPC: 0.655834 cumulative IPC: 0.74186 (Simulation time: 3 hr 53 min 14 sec) 
Heartbeat CPU 3 instructions: 810000000 cycles: 1414749649 heartbeat IPC: 0.431183 cumulative IPC: 0.424155 (Simulation time: 3 hr 53 min 39 sec) 
Heartbeat CPU 2 instructions: 500000000 cycles: 1415177651 heartbeat IPC: 0.249432 cumulative IPC: 0.23661 (Simulation time: 3 hr 53 min 43 sec) 
Heartbeat CPU 0 instructions: 1250000001 cycles: 1427275680 heartbeat IPC: 0.649598 cumulative IPC: 0.74075 (Simulation time: 3 hr 55 min 31 sec) 
Heartbeat CPU 1 instructions: 920000000 cycles: 1429367154 heartbeat IPC: 0.518295 cumulative IPC: 0.40507 (Simulation time: 3 hr 55 min 50 sec) 
Heartbeat CPU 3 instructions: 820000000 cycles: 1438330242 heartbeat IPC: 0.424078 cumulative IPC: 0.424154 (Simulation time: 3 hr 57 min 10 sec) 
Heartbeat CPU 0 instructions: 1260000000 cycles: 1442589274 heartbeat IPC: 0.653014 cumulative IPC: 0.739713 (Simulation time: 3 hr 57 min 49 sec) 
Heartbeat CPU 1 instructions: 930000002 cycles: 1448153393 heartbeat IPC: 0.532305 cumulative IPC: 0.406908 (Simulation time: 3 hr 58 min 39 sec) 
Heartbeat CPU 2 instructions: 510000002 cycles: 1455266948 heartbeat IPC: 0.249443 cumulative IPC: 0.237003 (Simulation time: 3 hr 59 min 44 sec) 
Heartbeat CPU 0 instructions: 1270000001 cycles: 1457935263 heartbeat IPC: 0.651636 cumulative IPC: 0.738682 (Simulation time: 4 hr 0 min 8 sec) 
Heartbeat CPU 3 instructions: 830000000 cycles: 1461574131 heartbeat IPC: 0.430221 cumulative IPC: 0.424261 (Simulation time: 4 hr 0 min 41 sec) 
Heartbeat CPU 1 instructions: 940000000 cycles: 1466907027 heartbeat IPC: 0.53323 cumulative IPC: 0.408703 (Simulation time: 4 hr 1 min 29 sec) 
Heartbeat CPU 0 instructions: 1280000000 cycles: 1473222252 heartbeat IPC: 0.654151 cumulative IPC: 0.737707 (Simulation time: 4 hr 2 min 26 sec) 
Heartbeat CPU 3 instructions: 840000000 cycles: 1484879992 heartbeat IPC: 0.429077 cumulative IPC: 0.424345 (Simulation time: 4 hr 4 min 12 sec) 
Heartbeat CPU 1 instructions: 950000001 cycles: 1485531983 heartbeat IPC: 0.536914 cumulative IPC: 0.410487 (Simulation time: 4 hr 4 min 18 sec) 
Heartbeat CPU 0 instructions: 1290000001 cycles: 1488540102 heartbeat IPC: 0.652833 cumulative IPC: 0.736738 (Simulation time: 4 hr 4 min 45 sec) 
Heartbeat CPU 2 instructions: 520000000 cycles: 1495273879 heartbeat IPC: 0.249957 cumulative IPC: 0.237388 (Simulation time: 4 hr 5 min 44 sec) 
Heartbeat CPU 0 instructions: 1300000000 cycles: 1503825145 heartbeat IPC: 0.654234 cumulative IPC: 0.735808 (Simulation time: 4 hr 7 min 2 sec) 
Heartbeat CPU 1 instructions: 960000000 cycles: 1503997505 heartbeat IPC: 0.54155 cumulative IPC: 0.412271 (Simulation time: 4 hr 7 min 4 sec) 
Finished CPU 0 instructions: 1000000001 cycles: 1359327205 cumulative IPC: 0.735658 (Simulation time: 4 hr 7 min 28 sec) 
Heartbeat CPU 3 instructions: 850000002 cycles: 1508166521 heartbeat IPC: 0.429433 cumulative IPC: 0.424432 (Simulation time: 4 hr 7 min 42 sec) 
Heartbeat CPU 0 instructions: 1310000003 cycles: 1519057946 heartbeat IPC: 0.656478 cumulative IPC: 0.734927 (Simulation time: 4 hr 9 min 22 sec) 
Heartbeat CPU 1 instructions: 970000002 cycles: 1522442489 heartbeat IPC: 0.542153 cumulative IPC: 0.414013 (Simulation time: 4 hr 9 min 52 sec) 
Heartbeat CPU 3 instructions: 860000000 cycles: 1531297581 heartbeat IPC: 0.432319 cumulative IPC: 0.424564 (Simulation time: 4 hr 11 min 14 sec) 
Heartbeat CPU 0 instructions: 1320000000 cycles: 1534337516 heartbeat IPC: 0.654468 cumulative IPC: 0.734041 (Simulation time: 4 hr 11 min 41 sec) 
Heartbeat CPU 2 instructions: 530000000 cycles: 1535501264 heartbeat IPC: 0.248587 cumulative IPC: 0.237712 (Simulation time: 4 hr 11 min 52 sec) 
Heartbeat CPU 1 instructions: 980000000 cycles: 1540601891 heartbeat IPC: 0.550679 cumulative IPC: 0.415794 (Simulation time: 4 hr 12 min 39 sec) 
Heartbeat CPU 0 instructions: 1330000000 cycles: 1549577791 heartbeat IPC: 0.656156 cumulative IPC: 0.733195 (Simulation time: 4 hr 14 min 1 sec) 
Heartbeat CPU 3 instructions: 870000002 cycles: 1554670495 heartbeat IPC: 0.427846 cumulative IPC: 0.424618 (Simulation time: 4 hr 14 min 47 sec) 
Heartbeat CPU 1 instructions: 990000003 cycles: 1558957900 heartbeat IPC: 0.544781 cumulative IPC: 0.417472 (Simulation time: 4 hr 15 min 27 sec) 
Heartbeat CPU 0 instructions: 1340000000 cycles: 1564937605 heartbeat IPC: 0.65105 cumulative IPC: 0.732305 (Simulation time: 4 hr 16 min 21 sec) 
Heartbeat CPU 2 instructions: 540000000 cycles: 1575316466 heartbeat IPC: 0.25116 cumulative IPC: 0.238087 (Simulation time: 4 hr 17 min 56 sec) 
Heartbeat CPU 1 instructions: 1000000000 cycles: 1577205580 heartbeat IPC: 0.548015 cumulative IPC: 0.419137 (Simulation time: 4 hr 18 min 14 sec) 
Heartbeat CPU 3 instructions: 880000000 cycles: 1578110679 heartbeat IPC: 0.426618 cumulative IPC: 0.424651 (Simulation time: 4 hr 18 min 23 sec) 
Heartbeat CPU 0 instructions: 1350000002 cycles: 1580298800 heartbeat IPC: 0.650991 cumulative IPC: 0.731433 (Simulation time: 4 hr 18 min 42 sec) 
Heartbeat CPU 1 instructions: 1010000000 cycles: 1595372844 heartbeat IPC: 0.550441 cumulative IPC: 0.420785 (Simulation time: 4 hr 21 min 1 sec) 
Heartbeat CPU 0 instructions: 1360000000 cycles: 1595620944 heartbeat IPC: 0.65265 cumulative IPC: 0.7306 (Simulation time: 4 hr 21 min 3 sec) 
Heartbeat CPU 3 instructions: 890000000 cycles: 1601319307 heartbeat IPC: 0.430874 cumulative IPC: 0.42475 (Simulation time: 4 hr 21 min 56 sec) 
Heartbeat CPU 0 instructions: 1370000001 cycles: 1611050277 heartbeat IPC: 0.648116 cumulative IPC: 0.72973 (Simulation time: 4 hr 23 min 25 sec) 
Heartbeat CPU 1 instructions: 1020000000 cycles: 1613368407 heartbeat IPC: 0.555693 cumulative IPC: 0.422441 (Simulation time: 4 hr 23 min 46 sec) 
Heartbeat CPU 2 instructions: 550000001 cycles: 1615805950 heartbeat IPC: 0.246978 cumulative IPC: 0.238332 (Simulation time: 4 hr 24 min 9 sec) 
Heartbeat CPU 3 instructions: 900000000 cycles: 1624805819 heartbeat IPC: 0.425776 cumulative IPC: 0.424767 (Simulation time: 4 hr 25 min 31 sec) 
Heartbeat CPU 0 instructions: 1380000000 cycles: 1626379037 heartbeat IPC: 0.652368 cumulative IPC: 0.728928 (Simulation time: 4 hr 25 min 46 sec) 
Heartbeat CPU 1 instructions: 1030000001 cycles: 1631332093 heartbeat IPC: 0.556679 cumulative IPC: 0.424066 (Simulation time: 4 hr 26 min 31 sec) 
Heartbeat CPU 0 instructions: 1390000001 cycles: 1641779808 heartbeat IPC: 0.649318 cumulative IPC: 0.728108 (Simulation time: 4 hr 28 min 5 sec) 
Heartbeat CPU 3 instructions: 910000002 cycles: 1648085921 heartbeat IPC: 0.429551 cumulative IPC: 0.424841 (Simulation time: 4 hr 29 min 3 sec) 
Heartbeat CPU 1 instructions: 1040000000 cycles: 1649567843 heartbeat IPC: 0.548373 cumulative IPC: 0.425574 (Simulation time: 4 hr 29 min 17 sec) 
Heartbeat CPU 2 instructions: 560000000 cycles: 1656359510 heartbeat IPC: 0.246587 cumulative IPC: 0.238554 (Simulation time: 4 hr 30 min 20 sec) 
Heartbeat CPU 0 instructions: 1400000000 cycles: 1657127434 heartbeat IPC: 0.651567 cumulative IPC: 0.72733 (Simulation time: 4 hr 30 min 28 sec) 
Heartbeat CPU 1 instructions: 1050000003 cycles: 1667397541 heartbeat IPC: 0.560862 cumulative IPC: 0.427161 (Simulation time: 4 hr 32 min 3 sec) 
Heartbeat CPU 3 instructions: 920000000 cycles: 1671258335 heartbeat IPC: 0.431548 cumulative IPC: 0.424943 (Simulation time: 4 hr 32 min 39 sec) 
Heartbeat CPU 0 instructions: 1410000000 cycles: 1672400629 heartbeat IPC: 0.654742 cumulative IPC: 0.726603 (Simulation time: 4 hr 32 min 49 sec) 
Heartbeat CPU 1 instructions: 1060000000 cycles: 1685321167 heartbeat IPC: 0.557923 cumulative IPC: 0.428685 (Simulation time: 4 hr 34 min 47 sec) 
Heartbeat CPU 0 instructions: 1420000000 cycles: 1687725791 heartbeat IPC: 0.652522 cumulative IPC: 0.725866 (Simulation time: 4 hr 35 min 9 sec) 
Heartbeat CPU 3 instructions: 930000000 cycles: 1694732037 heartbeat IPC: 0.426009 cumulative IPC: 0.424959 (Simulation time: 4 hr 36 min 13 sec) 
Heartbeat CPU 2 instructions: 570000001 cycles: 1696500710 heartbeat IPC: 0.249121 cumulative IPC: 0.238828 (Simulation time: 4 hr 36 min 29 sec) 
Heartbeat CPU 0 instructions: 1430000001 cycles: 1702966387 heartbeat IPC: 0.656142 cumulative IPC: 0.725183 (Simulation time: 4 hr 37 min 28 sec) 
Heartbeat CPU 1 instructions: 1070000000 cycles: 1703286250 heartbeat IPC: 0.556635 cumulative IPC: 0.430162 (Simulation time: 4 hr 37 min 31 sec) 
Heartbeat CPU 3 instructions: 940000000 cycles: 1718007632 heartbeat IPC: 0.429635 cumulative IPC: 0.425028 (Simulation time: 4 hr 39 min 47 sec) 
Heartbeat CPU 0 instructions: 1440000000 cycles: 1718315233 heartbeat IPC: 0.651515 cumulative IPC: 0.724463 (Simulation time: 4 hr 39 min 50 sec) 
Heartbeat CPU 1 instructions: 1080000000 cycles: 1721056392 heartbeat IPC: 0.562742 cumulative IPC: 0.431659 (Simulation time: 4 hr 40 min 16 sec) 
Heartbeat CPU 0 instructions: 1450000000 cycles: 1733651941 heartbeat IPC: 0.65203 cumulative IPC: 0.723763 (Simulation time: 4 hr 42 min 12 sec) 
Heartbeat CPU 2 instructions: 580000000 cycles: 1736590881 heartbeat IPC: 0.249438 cumulative IPC: 0.239095 (Simulation time: 4 hr 42 min 40 sec) 
Heartbeat CPU 1 instructions: 1090000002 cycles: 1738821455 heartbeat IPC: 0.562903 cumulative IPC: 0.433124 (Simulation time: 4 hr 43 min 0 sec) 
Heartbeat CPU 3 instructions: 950000001 cycles: 1741205809 heartbeat IPC: 0.431068 cumulative IPC: 0.425116 (Simulation time: 4 hr 43 min 23 sec) 
Heartbeat CPU 0 instructions: 1460000000 cycles: 1748991427 heartbeat IPC: 0.651912 cumulative IPC: 0.723075 (Simulation time: 4 hr 44 min 34 sec) 
Heartbeat CPU 1 instructions: 1100000000 cycles: 1756544087 heartbeat IPC: 0.56425 cumulative IPC: 0.434568 (Simulation time: 4 hr 45 min 44 sec) 
Heartbeat CPU 0 instructions: 1470000002 cycles: 1764373364 heartbeat IPC: 0.650113 cumulative IPC: 0.722381 (Simulation time: 4 hr 46 min 56 sec) 
Heartbeat CPU 3 instructions: 960000000 cycles: 1764690159 heartbeat IPC: 0.425815 cumulative IPC: 0.425126 (Simulation time: 4 hr 46 min 59 sec) 
Heartbeat CPU 1 instructions: 1110000000 cycles: 1774251975 heartbeat IPC: 0.56472 cumulative IPC: 0.435985 (Simulation time: 4 hr 48 min 28 sec) 
Heartbeat CPU 2 instructions: 590000001 cycles: 1777148088 heartbeat IPC: 0.246565 cumulative IPC: 0.239281 (Simulation time: 4 hr 48 min 54 sec) 
Heartbeat CPU 0 instructions: 1480000000 cycles: 1779681253 heartbeat IPC: 0.653258 cumulative IPC: 0.721733 (Simulation time: 4 hr 49 min 18 sec) 
Heartbeat CPU 3 instructions: 970000000 cycles: 1787977703 heartbeat IPC: 0.429414 cumulative IPC: 0.425187 (Simulation time: 4 hr 50 min 35 sec) 
Heartbeat CPU 1 instructions: 1120000000 cycles: 1791964531 heartbeat IPC: 0.564571 cumulative IPC: 0.43737 (Simulation time: 4 hr 51 min 11 sec) 
Heartbeat CPU 0 instructions: 1490000001 cycles: 1795055172 heartbeat IPC: 0.650452 cumulative IPC: 0.721068 (Simulation time: 4 hr 51 min 40 sec) 
Heartbeat CPU 1 instructions: 1130000000 cycles: 1809534774 heartbeat IPC: 0.569144 cumulative IPC: 0.438763 (Simulation time: 4 hr 53 min 54 sec) 
Heartbeat CPU 0 instructions: 1500000000 cycles: 1810442513 heartbeat IPC: 0.649885 cumulative IPC: 0.720409 (Simulation time: 4 hr 54 min 2 sec) 
Heartbeat CPU 3 instructions: 980000000 cycles: 1811235035 heartbeat IPC: 0.429972 cumulative IPC: 0.425254 (Simulation time: 4 hr 54 min 10 sec) 
Heartbeat CPU 2 instructions: 600000000 cycles: 1817656850 heartbeat IPC: 0.24686 cumulative IPC: 0.239465 (Simulation time: 4 hr 55 min 9 sec) 
Heartbeat CPU 0 instructions: 1510000002 cycles: 1825752284 heartbeat IPC: 0.653178 cumulative IPC: 0.719796 (Simulation time: 4 hr 56 min 24 sec) 
Heartbeat CPU 1 instructions: 1140000000 cycles: 1826997233 heartbeat IPC: 0.572657 cumulative IPC: 0.440154 (Simulation time: 4 hr 56 min 36 sec) 
Heartbeat CPU 3 instructions: 990000001 cycles: 1834651702 heartbeat IPC: 0.427046 cumulative IPC: 0.425279 (Simulation time: 4 hr 57 min 46 sec) 
Heartbeat CPU 0 instructions: 1520000000 cycles: 1841120773 heartbeat IPC: 0.650682 cumulative IPC: 0.719169 (Simulation time: 4 hr 58 min 46 sec) 
Heartbeat CPU 1 instructions: 1150000000 cycles: 1844548052 heartbeat IPC: 0.569774 cumulative IPC: 0.441495 (Simulation time: 4 hr 59 min 17 sec) 
Heartbeat CPU 0 instructions: 1530000000 cycles: 1856477445 heartbeat IPC: 0.651183 cumulative IPC: 0.718558 (Simulation time: 5 hr 1 min 8 sec) 
Heartbeat CPU 3 instructions: 1000000000 cycles: 1857842264 heartbeat IPC: 0.43121 cumulative IPC: 0.425359 (Simulation time: 5 hr 1 min 20 sec) 
Heartbeat CPU 2 instructions: 610000003 cycles: 1858492102 heartbeat IPC: 0.244887 cumulative IPC: 0.239595 (Simulation time: 5 hr 1 min 26 sec) 
Heartbeat CPU 1 instructions: 1160000000 cycles: 1862090984 heartbeat IPC: 0.57003 cumulative IPC: 0.44281 (Simulation time: 5 hr 2 min 0 sec) 
Heartbeat CPU 0 instructions: 1540000000 cycles: 1871747385 heartbeat IPC: 0.654881 cumulative IPC: 0.717994 (Simulation time: 5 hr 3 min 29 sec) 
Heartbeat CPU 1 instructions: 1170000002 cycles: 1879646069 heartbeat IPC: 0.569636 cumulative IPC: 0.444095 (Simulation time: 5 hr 4 min 42 sec) 
Heartbeat CPU 3 instructions: 1010000000 cycles: 1881048145 heartbeat IPC: 0.430925 cumulative IPC: 0.425434 (Simulation time: 5 hr 4 min 55 sec) 
Heartbeat CPU 0 instructions: 1550000002 cycles: 1887053013 heartbeat IPC: 0.653355 cumulative IPC: 0.717426 (Simulation time: 5 hr 5 min 50 sec) 
Heartbeat CPU 1 instructions: 1180000000 cycles: 1897186980 heartbeat IPC: 0.570096 cumulative IPC: 0.445358 (Simulation time: 5 hr 7 min 24 sec) 
Heartbeat CPU 2 instructions: 620000000 cycles: 1899830054 heartbeat IPC: 0.241908 cumulative IPC: 0.239649 (Simulation time: 5 hr 7 min 48 sec) 
Heartbeat CPU 0 instructions: 1560000000 cycles: 1902291796 heartbeat IPC: 0.65622 cumulative IPC: 0.716894 (Simulation time: 5 hr 8 min 11 sec) 
Heartbeat CPU 3 instructions: 1020000000 cycles: 1904639443 heartbeat IPC: 0.423885 cumulative IPC: 0.425413 (Simulation time: 5 hr 8 min 32 sec) 
Heartbeat CPU 1 instructions: 1190000001 cycles: 1914637214 heartbeat IPC: 0.573058 cumulative IPC: 0.446619 (Simulation time: 5 hr 10 min 5 sec) 
Heartbeat CPU 0 instructions: 1570000002 cycles: 1917577635 heartbeat IPC: 0.6542 cumulative IPC: 0.716353 (Simulation time: 5 hr 10 min 33 sec) 
Heartbeat CPU 3 instructions: 1030000001 cycles: 1927824238 heartbeat IPC: 0.431317 cumulative IPC: 0.42549 (Simulation time: 5 hr 12 min 7 sec) 
Heartbeat CPU 1 instructions: 1200000000 cycles: 1932289048 heartbeat IPC: 0.566513 cumulative IPC: 0.447804 (Simulation time: 5 hr 12 min 48 sec) 
Heartbeat CPU 0 instructions: 1580000000 cycles: 1932793274 heartbeat IPC: 0.657218 cumulative IPC: 0.715849 (Simulation time: 5 hr 12 min 53 sec) 
Heartbeat CPU 2 instructions: 630000000 cycles: 1940571401 heartbeat IPC: 0.245451 cumulative IPC: 0.239781 (Simulation time: 5 hr 14 min 6 sec) 
Heartbeat CPU 0 instructions: 1590000001 cycles: 1948077028 heartbeat IPC: 0.65429 cumulative IPC: 0.715326 (Simulation time: 5 hr 15 min 17 sec) 
Heartbeat CPU 1 instructions: 1210000000 cycles: 1949666603 heartbeat IPC: 0.575455 cumulative IPC: 0.449035 (Simulation time: 5 hr 15 min 31 sec) 
Heartbeat CPU 3 instructions: 1040000000 cycles: 1951057361 heartbeat IPC: 0.43042 cumulative IPC: 0.425553 (Simulation time: 5 hr 15 min 45 sec) 
Heartbeat CPU 0 instructions: 1600000000 cycles: 1963349104 heartbeat IPC: 0.65479 cumulative IPC: 0.714817 (Simulation time: 5 hr 17 min 39 sec) 
Heartbeat CPU 1 instructions: 1220000000 cycles: 1967087094 heartbeat IPC: 0.574037 cumulative IPC: 0.450232 (Simulation time: 5 hr 18 min 15 sec) 
Heartbeat CPU 3 instructions: 1050000000 cycles: 1974662494 heartbeat IPC: 0.423637 cumulative IPC: 0.425529 (Simulation time: 5 hr 19 min 25 sec) 
Heartbeat CPU 0 instructions: 1610000000 cycles: 1978584825 heartbeat IPC: 0.656352 cumulative IPC: 0.714331 (Simulation time: 5 hr 20 min 3 sec) 
Heartbeat CPU 2 instructions: 640000000 cycles: 1981265632 heartbeat IPC: 0.245735 cumulative IPC: 0.239913 (Simulation time: 5 hr 20 min 28 sec) 
Heartbeat CPU 1 instructions: 1230000001 cycles: 1984526765 heartbeat IPC: 0.573405 cumulative IPC: 0.451401 (Simulation time: 5 hr 20 min 59 sec) 
Heartbeat CPU 0 instructions: 1620000000 cycles: 1993840824 heartbeat IPC: 0.65548 cumulative IPC: 0.713845 (Simulation time: 5 hr 22 min 28 sec) 
Heartbeat CPU 3 instructions: 1060000000 cycles: 1997839716 heartbeat IPC: 0.431458 cumulative IPC: 0.425603 (Simulation time: 5 hr 23 min 5 sec) 
Heartbeat CPU 1 instructions: 1240000000 cycles: 2001799052 heartbeat IPC: 0.578962 cumulative IPC: 0.452589 (Simulation time: 5 hr 23 min 43 sec) 
Heartbeat CPU 0 instructions: 1630000001 cycles: 2009034776 heartbeat IPC: 0.658157 cumulative IPC: 0.71339 (Simulation time: 5 hr 24 min 51 sec) 
Heartbeat CPU 1 instructions: 1250000002 cycles: 2019132834 heartbeat IPC: 0.576908 cumulative IPC: 0.45374 (Simulation time: 5 hr 26 min 25 sec) 
Heartbeat CPU 3 instructions: 1070000002 cycles: 2021074620 heartbeat IPC: 0.430387 cumulative IPC: 0.425662 (Simulation time: 5 hr 26 min 43 sec) 
Heartbeat CPU 2 instructions: 650000000 cycles: 2022166381 heartbeat IPC: 0.244494 cumulative IPC: 0.240013 (Simulation time: 5 hr 26 min 54 sec) 
Heartbeat CPU 0 instructions: 1640000000 cycles: 2024362452 heartbeat IPC: 0.652415 cumulative IPC: 0.712892 (Simulation time: 5 hr 27 min 15 sec) 
Heartbeat CPU 1 instructions: 1260000000 cycles: 2036446338 heartbeat IPC: 0.577584 cumulative IPC: 0.454875 (Simulation time: 5 hr 29 min 7 sec) 
Heartbeat CPU 0 instructions: 1650000000 cycles: 2039703413 heartbeat IPC: 0.65185 cumulative IPC: 0.712397 (Simulation time: 5 hr 29 min 37 sec) 
Heartbeat CPU 3 instructions: 1080000000 cycles: 2044745748 heartbeat IPC: 0.422455 cumulative IPC: 0.425622 (Simulation time: 5 hr 30 min 24 sec) 
Heartbeat CPU 1 instructions: 1270000000 cycles: 2053950429 heartbeat IPC: 0.571295 cumulative IPC: 0.455944 (Simulation time: 5 hr 31 min 49 sec) 
Heartbeat CPU 0 instructions: 1660000000 cycles: 2055012518 heartbeat IPC: 0.653206 cumulative IPC: 0.711922 (Simulation time: 5 hr 31 min 59 sec) 
Heartbeat CPU 2 instructions: 660000000 cycles: 2063254915 heartbeat IPC: 0.243377 cumulative IPC: 0.240085 (Simulation time: 5 hr 33 min 17 sec) 
Heartbeat CPU 3 instructions: 1090000003 cycles: 2068014360 heartbeat IPC: 0.429764 cumulative IPC: 0.425672 (Simulation time: 5 hr 34 min 2 sec) 
Heartbeat CPU 0 instructions: 1670000001 cycles: 2070375788 heartbeat IPC: 0.650903 cumulative IPC: 0.711435 (Simulation time: 5 hr 34 min 24 sec) 
Heartbeat CPU 1 instructions: 1280000000 cycles: 2071174804 heartbeat IPC: 0.580573 cumulative IPC: 0.45706 (Simulation time: 5 hr 34 min 32 sec) 
Heartbeat CPU 0 instructions: 1680000000 cycles: 2085652311 heartbeat IPC: 0.654599 cumulative IPC: 0.710987 (Simulation time: 5 hr 36 min 47 sec) 
Heartbeat CPU 1 instructions: 1290000001 cycles: 2088478127 heartbeat IPC: 0.577924 cumulative IPC: 0.458137 (Simulation time: 5 hr 37 min 14 sec) 
Heartbeat CPU 3 instructions: 1100000000 cycles: 2091267339 heartbeat IPC: 0.430052 cumulative IPC: 0.425725 (Simulation time: 5 hr 37 min 40 sec) 
Heartbeat CPU 0 instructions: 1690000001 cycles: 2101003445 heartbeat IPC: 0.651418 cumulative IPC: 0.710519 (Simulation time: 5 hr 39 min 10 sec) 
Heartbeat CPU 2 instructions: 670000003 cycles: 2104244420 heartbeat IPC: 0.243965 cumulative IPC: 0.240166 (Simulation time: 5 hr 39 min 42 sec) 
Heartbeat CPU 1 instructions: 1300000000 cycles: 2105748415 heartbeat IPC: 0.579029 cumulative IPC: 0.459203 (Simulation time: 5 hr 39 min 55 sec) 
Heartbeat CPU 3 instructions: 1110000000 cycles: 2114768292 heartbeat IPC: 0.425515 cumulative IPC: 0.425722 (Simulation time: 5 hr 41 min 20 sec) 
Heartbeat CPU 0 instructions: 1700000000 cycles: 2116338371 heartbeat IPC: 0.652106 cumulative IPC: 0.710064 (Simulation time: 5 hr 41 min 34 sec) 
Heartbeat CPU 1 instructions: 1310000003 cycles: 2122922688 heartbeat IPC: 0.582266 cumulative IPC: 0.460273 (Simulation time: 5 hr 42 min 36 sec) 
Heartbeat CPU 0 instructions: 1710000002 cycles: 2131634287 heartbeat IPC: 0.653769 cumulative IPC: 0.70963 (Simulation time: 5 hr 43 min 59 sec) 
Heartbeat CPU 3 instructions: 1120000000 cycles: 2137993055 heartbeat IPC: 0.430575 cumulative IPC: 0.425779 (Simulation time: 5 hr 44 min 59 sec) 
Heartbeat CPU 1 instructions: 1320000000 cycles: 2140180542 heartbeat IPC: 0.579446 cumulative IPC: 0.461305 (Simulation time: 5 hr 45 min 20 sec) 
Heartbeat CPU 2 instructions: 680000000 cycles: 2144794880 heartbeat IPC: 0.246606 cumulative IPC: 0.240297 (Simulation time: 5 hr 46 min 3 sec) 
Heartbeat CPU 0 instructions: 1720000000 cycles: 2146973819 heartbeat IPC: 0.65191 cumulative IPC: 0.709187 (Simulation time: 5 hr 46 min 23 sec) 
Heartbeat CPU 1 instructions: 1330000001 cycles: 2157404635 heartbeat IPC: 0.580582 cumulative IPC: 0.462327 (Simulation time: 5 hr 48 min 1 sec) 
Heartbeat CPU 3 instructions: 1130000000 cycles: 2161313379 heartbeat IPC: 0.428811 cumulative IPC: 0.425814 (Simulation time: 5 hr 48 min 38 sec) 
Heartbeat CPU 0 instructions: 1730000002 cycles: 2162253793 heartbeat IPC: 0.654451 cumulative IPC: 0.708772 (Simulation time: 5 hr 48 min 47 sec) 
Heartbeat CPU 1 instructions: 1340000000 cycles: 2174621453 heartbeat IPC: 0.580827 cumulative IPC: 0.463333 (Simulation time: 5 hr 50 min 43 sec) 
Heartbeat CPU 0 instructions: 1740000000 cycles: 2177595901 heartbeat IPC: 0.651801 cumulative IPC: 0.708342 (Simulation time: 5 hr 51 min 12 sec) 
Heartbeat CPU 3 instructions: 1140000000 cycles: 2184811142 heartbeat IPC: 0.425572 cumulative IPC: 0.425811 (Simulation time: 5 hr 52 min 21 sec) 
Heartbeat CPU 2 instructions: 690000001 cycles: 2185578876 heartbeat IPC: 0.245194 cumulative IPC: 0.240395 (Simulation time: 5 hr 52 min 28 sec) 
Heartbeat CPU 1 instructions: 1350000002 cycles: 2191654478 heartbeat IPC: 0.587095 cumulative IPC: 0.464364 (Simulation time: 5 hr 53 min 26 sec) 
Heartbeat CPU 0 instructions: 1750000000 cycles: 2192895341 heartbeat IPC: 0.653619 cumulative IPC: 0.707933 (Simulation time: 5 hr 53 min 37 sec) 
Heartbeat CPU 3 instructions: 1150000000 cycles: 2207929248 heartbeat IPC: 0.432561 cumulative IPC: 0.425887 (Simulation time: 5 hr 55 min 59 sec) 
Heartbeat CPU 0 instructions: 1760000000 cycles: 2208112646 heartbeat IPC: 0.657147 cumulative IPC: 0.707558 (Simulation time: 5 hr 56 min 0 sec) 
Heartbeat CPU 1 instructions: 1360000000 cycles: 2208770080 heartbeat IPC: 0.584262 cumulative IPC: 0.46536 (Simulation time: 5 hr 56 min 7 sec) 
Heartbeat CPU 0 instructions: 1770000001 cycles: 2223372942 heartbeat IPC: 0.655295 cumulative IPC: 0.707173 (Simulation time: 5 hr 58 min 24 sec) 
Heartbeat CPU 2 instructions: 700000000 cycles: 2225894353 heartbeat IPC: 0.248044 cumulative IPC: 0.240543 (Simulation time: 5 hr 58 min 48 sec) 
Heartbeat CPU 1 instructions: 1370000002 cycles: 2225922705 heartbeat IPC: 0.583001 cumulative IPC: 0.466331 (Simulation time: 5 hr 58 min 48 sec) 
Heartbeat CPU 3 instructions: 1160000000 cycles: 2231170945 heartbeat IPC: 0.430261 cumulative IPC: 0.425936 (Simulation time: 5 hr 59 min 37 sec) 
Heartbeat CPU 0 instructions: 1780000000 cycles: 2238589378 heartbeat IPC: 0.657184 cumulative IPC: 0.70681 (Simulation time: 6 hr 0 min 46 sec) 
Heartbeat CPU 1 instructions: 1380000000 cycles: 2243104494 heartbeat IPC: 0.582011 cumulative IPC: 0.467279 (Simulation time: 6 hr 1 min 28 sec) 
Heartbeat CPU 0 instructions: 1790000001 cycles: 2253878925 heartbeat IPC: 0.654042 cumulative IPC: 0.706427 (Simulation time: 6 hr 3 min 8 sec) 
Heartbeat CPU 3 instructions: 1170000001 cycles: 2254688871 heartbeat IPC: 0.425208 cumulative IPC: 0.425928 (Simulation time: 6 hr 3 min 15 sec) 
Heartbeat CPU 1 instructions: 1390000002 cycles: 2260306478 heartbeat IPC: 0.581328 cumulative IPC: 0.468207 (Simulation time: 6 hr 4 min 7 sec) 
Heartbeat CPU 2 instructions: 710000000 cycles: 2266454339 heartbeat IPC: 0.246548 cumulative IPC: 0.240658 (Simulation time: 6 hr 5 min 6 sec) 
Heartbeat CPU 0 instructions: 1800000000 cycles: 2269094135 heartbeat IPC: 0.657237 cumulative IPC: 0.706074 (Simulation time: 6 hr 5 min 30 sec) 
Heartbeat CPU 1 instructions: 1400000000 cycles: 2277402917 heartbeat IPC: 0.584917 cumulative IPC: 0.469144 (Simulation time: 6 hr 6 min 47 sec) 
Heartbeat CPU 3 instructions: 1180000000 cycles: 2277883768 heartbeat IPC: 0.431129 cumulative IPC: 0.425984 (Simulation time: 6 hr 6 min 51 sec) 
Finished CPU 1 instructions: 1000000000 cycles: 2131278067 cumulative IPC: 0.469202 (Simulation time: 6 hr 6 min 58 sec) 
Heartbeat CPU 0 instructions: 1810000002 cycles: 2284366957 heartbeat IPC: 0.654758 cumulative IPC: 0.705707 (Simulation time: 6 hr 7 min 52 sec) 
Heartbeat CPU 1 instructions: 1410000002 cycles: 2294548354 heartbeat IPC: 0.583246 cumulative IPC: 0.470055 (Simulation time: 6 hr 9 min 27 sec) 
Heartbeat CPU 0 instructions: 1820000000 cycles: 2299669237 heartbeat IPC: 0.653497 cumulative IPC: 0.705336 (Simulation time: 6 hr 10 min 15 sec) 
Heartbeat CPU 3 instructions: 1190000000 cycles: 2301374460 heartbeat IPC: 0.425701 cumulative IPC: 0.425981 (Simulation time: 6 hr 10 min 31 sec) 
Heartbeat CPU 2 instructions: 720000000 cycles: 2307440961 heartbeat IPC: 0.243982 cumulative IPC: 0.240721 (Simulation time: 6 hr 11 min 27 sec) 
Heartbeat CPU 1 instructions: 1420000000 cycles: 2311516184 heartbeat IPC: 0.58935 cumulative IPC: 0.470991 (Simulation time: 6 hr 12 min 6 sec) 
Heartbeat CPU 0 instructions: 1830000002 cycles: 2314929475 heartbeat IPC: 0.655298 cumulative IPC: 0.704984 (Simulation time: 6 hr 12 min 37 sec) 
Heartbeat CPU 3 instructions: 1200000000 cycles: 2324845406 heartbeat IPC: 0.426059 cumulative IPC: 0.425982 (Simulation time: 6 hr 14 min 8 sec) 
Heartbeat CPU 1 instructions: 1430000001 cycles: 2328731782 heartbeat IPC: 0.580869 cumulative IPC: 0.471858 (Simulation time: 6 hr 14 min 44 sec) 
Heartbeat CPU 0 instructions: 1840000000 cycles: 2330265902 heartbeat IPC: 0.652042 cumulative IPC: 0.704612 (Simulation time: 6 hr 14 min 58 sec) 
Heartbeat CPU 0 instructions: 1850000000 cycles: 2345524474 heartbeat IPC: 0.655369 cumulative IPC: 0.70427 (Simulation time: 6 hr 17 min 18 sec) 
Heartbeat CPU 1 instructions: 1440000000 cycles: 2345924224 heartbeat IPC: 0.581651 cumulative IPC: 0.472716 (Simulation time: 6 hr 17 min 22 sec) 
Heartbeat CPU 3 instructions: 1210000000 cycles: 2348078443 heartbeat IPC: 0.430422 cumulative IPC: 0.426029 (Simulation time: 6 hr 17 min 41 sec) 
Heartbeat CPU 2 instructions: 730000000 cycles: 2348940657 heartbeat IPC: 0.240966 cumulative IPC: 0.240726 (Simulation time: 6 hr 17 min 49 sec) 
Heartbeat CPU 0 instructions: 1860000000 cycles: 2360917289 heartbeat IPC: 0.649654 cumulative IPC: 0.70389 (Simulation time: 6 hr 19 min 40 sec) 
Heartbeat CPU 1 instructions: 1450000000 cycles: 2363149415 heartbeat IPC: 0.580545 cumulative IPC: 0.473554 (Simulation time: 6 hr 20 min 1 sec) 
Heartbeat CPU 3 instructions: 1220000000 cycles: 2371927006 heartbeat IPC: 0.419312 cumulative IPC: 0.425957 (Simulation time: 6 hr 21 min 19 sec) 
Heartbeat CPU 0 instructions: 1870000000 cycles: 2376309877 heartbeat IPC: 0.649663 cumulative IPC: 0.703516 (Simulation time: 6 hr 21 min 56 sec) 
Heartbeat CPU 1 instructions: 1460000000 cycles: 2380436732 heartbeat IPC: 0.578459 cumulative IPC: 0.474366 (Simulation time: 6 hr 22 min 30 sec) 
Heartbeat CPU 2 instructions: 740000000 cycles: 2390508980 heartbeat IPC: 0.240568 cumulative IPC: 0.240723 (Simulation time: 6 hr 23 min 55 sec) 
Heartbeat CPU 0 instructions: 1880000000 cycles: 2391621478 heartbeat IPC: 0.6531 cumulative IPC: 0.703172 (Simulation time: 6 hr 24 min 4 sec) 
Heartbeat CPU 3 instructions: 1230000001 cycles: 2397076858 heartbeat IPC: 0.397617 cumulative IPC: 0.42564 (Simulation time: 6 hr 24 min 51 sec) 
Heartbeat CPU 1 instructions: 1470000000 cycles: 2397668034 heartbeat IPC: 0.580339 cumulative IPC: 0.475178 (Simulation time: 6 hr 24 min 56 sec) 
Heartbeat CPU 0 instructions: 1890000002 cycles: 2406995764 heartbeat IPC: 0.650437 cumulative IPC: 0.702813 (Simulation time: 6 hr 26 min 23 sec) 
Heartbeat CPU 1 instructions: 1480000000 cycles: 2414867458 heartbeat IPC: 0.581415 cumulative IPC: 0.475984 (Simulation time: 6 hr 27 min 36 sec) 
Heartbeat CPU 3 instructions: 1240000000 cycles: 2420295121 heartbeat IPC: 0.430695 cumulative IPC: 0.425692 (Simulation time: 6 hr 28 min 26 sec) 
Heartbeat CPU 0 instructions: 1900000000 cycles: 2422304832 heartbeat IPC: 0.653207 cumulative IPC: 0.702479 (Simulation time: 6 hr 28 min 44 sec) 
Heartbeat CPU 2 instructions: 750000001 cycles: 2432044378 heartbeat IPC: 0.240759 cumulative IPC: 0.240724 (Simulation time: 6 hr 30 min 14 sec) 
Heartbeat CPU 1 instructions: 1490000002 cycles: 2432183023 heartbeat IPC: 0.577515 cumulative IPC: 0.476753 (Simulation time: 6 hr 30 min 15 sec) 
[...]
Heartbeat CPU 0 instructions: 3230000000 cycles: 4117606395 heartbeat IPC: 0.661169 cumulative IPC: 0.737511 (Simulation time: 10 hr 27 min 36 sec) 
Heartbeat CPU 1 instructions: 2170000001 cycles: 4121845958 heartbeat IPC: 0.198221 cumulative IPC: 0.445164 (Simulation time: 10 hr 28 min 5 sec) 
Heartbeat CPU 0 instructions: 3240000000 cycles: 4132839042 heartbeat IPC: 0.656485 cumulative IPC: 0.737201 (Simulation time: 10 hr 29 min 22 sec) 
Heartbeat CPU 3 instructions: 1970000003 cycles: 4137599194 heartbeat IPC: 0.422468 cumulative IPC: 0.425431 (Simulation time: 10 hr 29 min 54 sec) 
Heartbeat CPU 0 instructions: 3250000001 cycles: 4148229388 heartbeat IPC: 0.649758 cumulative IPC: 0.736864 (Simulation time: 10 hr 31 min 8 sec) 
Heartbeat CPU 2 instructions: 1160000000 cycles: 4148419128 heartbeat IPC: 0.240261 cumulative IPC: 0.239931 (Simulation time: 10 hr 31 min 9 sec) 
Heartbeat CPU 3 instructions: 1980000000 cycles: 4161020298 heartbeat IPC: 0.426965 cumulative IPC: 0.425439 (Simulation time: 10 hr 32 min 37 sec) 
Heartbeat CPU 0 instructions: 3260000000 cycles: 4163529050 heartbeat IPC: 0.653609 cumulative IPC: 0.736547 (Simulation time: 10 hr 32 min 54 sec) 
Heartbeat CPU 1 instructions: 2180000000 cycles: 4172529360 heartbeat IPC: 0.197303 cumulative IPC: 0.442043 (Simulation time: 10 hr 33 min 57 sec) 
Heartbeat CPU 0 instructions: 3270000001 cycles: 4178869015 heartbeat IPC: 0.651892 cumulative IPC: 0.736225 (Simulation time: 10 hr 34 min 42 sec) 
Heartbeat CPU 3 instructions: 1990000002 cycles: 4184266966 heartbeat IPC: 0.430169 cumulative IPC: 0.425467 (Simulation time: 10 hr 35 min 19 sec) 
Heartbeat CPU 2 instructions: 1170000000 cycles: 4189497696 heartbeat IPC: 0.243436 cumulative IPC: 0.239967 (Simulation time: 10 hr 35 min 56 sec) 
Heartbeat CPU 0 instructions: 3280000000 cycles: 4194162350 heartbeat IPC: 0.65388 cumulative IPC: 0.735914 (Simulation time: 10 hr 36 min 28 sec) 
*** Reached end of trace for Core: 3 Repeating trace: /scratch/user/djimenez/champsim-traces/speccpu2017/xz/602.gcc_s/602.gcc_s-734B.champsimtrace.xz
Heartbeat CPU 3 instructions: 2000000000 cycles: 4207982247 heartbeat IPC: 0.421669 cumulative IPC: 0.425445 (Simulation time: 10 hr 38 min 4 sec) 
Heartbeat CPU 0 instructions: 3290000001 cycles: 4209484693 heartbeat IPC: 0.652642 cumulative IPC: 0.7356 (Simulation time: 10 hr 38 min 14 sec) 
Heartbeat CPU 1 instructions: 2190000003 cycles: 4223305164 heartbeat IPC: 0.196944 cumulative IPC: 0.43899 (Simulation time: 10 hr 39 min 50 sec) 
Heartbeat CPU 0 instructions: 3300000000 cycles: 4224762464 heartbeat IPC: 0.654546 cumulative IPC: 0.735296 (Simulation time: 10 hr 40 min 0 sec) 
Heartbeat CPU 2 instructions: 1180000000 cycles: 4231092372 heartbeat IPC: 0.240415 cumulative IPC: 0.239971 (Simulation time: 10 hr 40 min 43 sec) 
Heartbeat CPU 3 instructions: 2010000000 cycles: 4231396400 heartbeat IPC: 0.427092 cumulative IPC: 0.425454 (Simulation time: 10 hr 40 min 45 sec) 
Heartbeat CPU 0 instructions: 3310000003 cycles: 4239982716 heartbeat IPC: 0.65702 cumulative IPC: 0.735005 (Simulation time: 10 hr 41 min 45 sec) 
Heartbeat CPU 3 instructions: 2020000000 cycles: 4254836218 heartbeat IPC: 0.426624 cumulative IPC: 0.425461 (Simulation time: 10 hr 43 min 27 sec) 
Heartbeat CPU 0 instructions: 3320000000 cycles: 4255264048 heartbeat IPC: 0.654393 cumulative IPC: 0.734705 (Simulation time: 10 hr 43 min 30 sec) 
Heartbeat CPU 0 instructions: 3330000000 cycles: 4270496914 heartbeat IPC: 0.656475 cumulative IPC: 0.734416 (Simulation time: 10 hr 45 min 16 sec) 
Heartbeat CPU 2 instructions: 1190000001 cycles: 4272677630 heartbeat IPC: 0.24047 cumulative IPC: 0.239976 (Simulation time: 10 hr 45 min 31 sec) 
Heartbeat CPU 1 instructions: 2200000000 cycles: 4274062278 heartbeat IPC: 0.197017 cumulative IPC: 0.436014 (Simulation time: 10 hr 45 min 40 sec) 
Heartbeat CPU 3 instructions: 2030000003 cycles: 4278047130 heartbeat IPC: 0.430832 cumulative IPC: 0.425491 (Simulation time: 10 hr 46 min 8 sec) 
Heartbeat CPU 0 instructions: 3340000000 cycles: 4285824844 heartbeat IPC: 0.652404 cumulative IPC: 0.734112 (Simulation time: 10 hr 47 min 2 sec) 
Heartbeat CPU 0 instructions: 3350000002 cycles: 4301154244 heartbeat IPC: 0.652341 cumulative IPC: 0.733811 (Simulation time: 10 hr 48 min 49 sec) 
Heartbeat CPU 3 instructions: 2040000000 cycles: 4301742262 heartbeat IPC: 0.422027 cumulative IPC: 0.425471 (Simulation time: 10 hr 48 min 53 sec) 
Heartbeat CPU 2 instructions: 1200000000 cycles: 4314116833 heartbeat IPC: 0.241317 cumulative IPC: 0.239989 (Simulation time: 10 hr 50 min 19 sec) 
Finished CPU 2 instructions: 1000000000 cycles: 4166849266 cumulative IPC: 0.239989 (Simulation time: 10 hr 50 min 19 sec) 

CPU 0 Branch Prediction Accuracy: 99.9548% MPKI: 0.0358207

CPU 1 Branch Prediction Accuracy: 98.4989% MPKI: 2.3

CPU 2 Branch Prediction Accuracy: 96.7197% MPKI: 4.86726

CPU 3 Branch Prediction Accuracy: 99.8631% MPKI: 0.279394

ChampSim completed all CPUs

Total Simulation Statistics (not including warmup)

CPU 0 cumulative IPC: 0.733556 instructions: 3056617443 cycles: 4166849266
L1D TOTAL     ACCESS:  895646531  HIT:  873147311  MISS:   22499220
L1D LOAD      ACCESS:  637746550  HIT:  616585466  MISS:   21161084
L1D RFO       ACCESS:  257899981  HIT:  256561845  MISS:    1338136
L1D PREFETCH  ACCESS:          0  HIT:          0  MISS:          0
L1D WRITEBACK ACCESS:          0  HIT:          0  MISS:          0
L1I TOTAL     ACCESS: 1091316049  HIT: 1091313156  MISS:       2893
L1I LOAD      ACCESS: 1091316049  HIT: 1091313156  MISS:       2893
L1I RFO       ACCESS:          0  HIT:          0  MISS:          0
L1I PREFETCH  ACCESS:          0  HIT:          0  MISS:          0
L1I WRITEBACK ACCESS:          0  HIT:          0  MISS:          0
L2C TOTAL     ACCESS:   60187295  HIT:   45648780  MISS:   14538515
L2C LOAD      ACCESS:   21162439  HIT:   20266623  MISS:     895816
L2C RFO       ACCESS:    1337101  HIT:     813303  MISS:     523798
L2C PREFETCH  ACCESS:   32334327  HIT:   19218207  MISS:   13116120
L2C WRITEBACK ACCESS:    5353428  HIT:    5350647  MISS:       2781

Avg Lookahead Depth:	4.71167
TOTAL: 4.65526e+08	L2C: 3.84398e+08	LLC: 8.11286e+07	GOOD_L2C: 2.76399e+08
Printing all the perceptron weights to: perc_weights_0.csv
LLC TOTAL     ACCESS:   18938780  HIT:    6497799  MISS:   12440981
LLC LOAD      ACCESS:     875402  HIT:     249915  MISS:     625487
LLC RFO       ACCESS:     523796  HIT:     231396  MISS:     292400
LLC PREFETCH  ACCESS:   16957474  HIT:    5652995  MISS:   11304479
LLC WRITEBACK ACCESS:     582108  HIT:     363493  MISS:     218615

CPU 1 cumulative IPC: 0.433722 instructions: 1807256105 cycles: 4166849266
L1D TOTAL     ACCESS:  579093307  HIT:  330641960  MISS:  248451347
L1D LOAD      ACCESS:  480577325  HIT:  239582721  MISS:  240994604
L1D RFO       ACCESS:   98515982  HIT:   91059239  MISS:    7456743
L1D PREFETCH  ACCESS:          0  HIT:          0  MISS:          0
L1D WRITEBACK ACCESS:          0  HIT:          0  MISS:          0
L1I TOTAL     ACCESS:  615522326  HIT:  615522178  MISS:        148
L1I LOAD      ACCESS:  615522326  HIT:  615522178  MISS:        148
L1I RFO       ACCESS:          0  HIT:          0  MISS:          0
L1I PREFETCH  ACCESS:          0  HIT:          0  MISS:          0
L1I WRITEBACK ACCESS:          0  HIT:          0  MISS:          0
L2C TOTAL     ACCESS:  499824506  HIT:  218084443  MISS:  281740063
L2C LOAD      ACCESS:  240994728  HIT:  179791069  MISS:   61203659
L2C RFO       ACCESS:    7456734  HIT:     464546  MISS:    6992188
L2C PREFETCH  ACCESS:  237102055  HIT:   23572393  MISS:  213529662
L2C WRITEBACK ACCESS:   14270989  HIT:   14256435  MISS:      14554

Avg Lookahead Depth:	4.71167
TOTAL: 4.65526e+08	L2C: 3.84398e+08	LLC: 8.11286e+07	GOOD_L2C: 2.76399e+08
Printing all the perceptron weights to: perc_weights_0.csv
LLC TOTAL     ACCESS:  329272580  HIT:  299501523  MISS:   29771057
LLC LOAD      ACCESS:   33805871  HIT:   24206344  MISS:    9599527
LLC RFO       ACCESS:    6990438  HIT:     766265  MISS:    6224173
LLC PREFETCH  ACCESS:  274335807  HIT:  260388959  MISS:   13946848
LLC WRITEBACK ACCESS:   14140464  HIT:   14139955  MISS:        509

CPU 2 cumulative IPC: 0.239989 instructions: 1000000000 cycles: 4166849266
L1D TOTAL     ACCESS:  444380351  HIT:  424364257  MISS:   20016094
L1D LOAD      ACCESS:  262794314  HIT:  245298777  MISS:   17495537
L1D RFO       ACCESS:  181586037  HIT:  179065480  MISS:    2520557
L1D PREFETCH  ACCESS:          0  HIT:          0  MISS:          0
L1D WRITEBACK ACCESS:          0  HIT:          0  MISS:          0
L1I TOTAL     ACCESS:  356590905  HIT:  356211135  MISS:     379770
L1I LOAD      ACCESS:  356590905  HIT:  356211135  MISS:     379770
L1I RFO       ACCESS:          0  HIT:          0  MISS:          0
L1I PREFETCH  ACCESS:          0  HIT:          0  MISS:          0
L1I WRITEBACK ACCESS:          0  HIT:          0  MISS:          0
L2C TOTAL     ACCESS:   39457532  HIT:   20983442  MISS:   18474090
L2C LOAD      ACCESS:   17874696  HIT:    7177603  MISS:   10697093
L2C RFO       ACCESS:    2520420  HIT:     533757  MISS:    1986663
L2C PREFETCH  ACCESS:    9388910  HIT:    3636334  MISS:    5752576
L2C WRITEBACK ACCESS:    9673506  HIT:    9635748  MISS:      37758

Avg Lookahead Depth:	4.71167
TOTAL: 4.65526e+08	L2C: 3.84398e+08	LLC: 8.11286e+07	GOOD_L2C: 2.76399e+08
Printing all the perceptron weights to: perc_weights_0.csv
LLC TOTAL     ACCESS:   31779222  HIT:   15889589  MISS:   15889633
LLC LOAD      ACCESS:   10561276  HIT:    4122106  MISS:    6439170
LLC RFO       ACCESS:    1978771  HIT:    1021497  MISS:     957274
LLC PREFETCH  ACCESS:   11764418  HIT:    3363144  MISS:    8401274
LLC WRITEBACK ACCESS:    7474757  HIT:    7382842  MISS:      91915

CPU 3 cumulative IPC: 0.425485 instructions: 1772933049 cycles: 4166849267
L1D TOTAL     ACCESS:  565457713  HIT:  536033754  MISS:   29423959
L1D LOAD      ACCESS:  366463182  HIT:  337061237  MISS:   29401945
L1D RFO       ACCESS:  198994531  HIT:  198972517  MISS:      22014
L1D PREFETCH  ACCESS:          0  HIT:          0  MISS:          0
L1D WRITEBACK ACCESS:          0  HIT:          0  MISS:          0
L1I TOTAL     ACCESS:  684957008  HIT:  684957007  MISS:          1
L1I LOAD      ACCESS:  684957008  HIT:  684957007  MISS:          1
L1I RFO       ACCESS:          0  HIT:          0  MISS:          0
L1I PREFETCH  ACCESS:          0  HIT:          0  MISS:          0
L1I WRITEBACK ACCESS:          0  HIT:          0  MISS:          0
L2C TOTAL     ACCESS:   70476716  HIT:   55246602  MISS:   15230114
L2C LOAD      ACCESS:   29401946  HIT:   28485454  MISS:     916492
L2C RFO       ACCESS:      22014  HIT:       4562  MISS:      17452
L2C PREFETCH  ACCESS:   40766368  HIT:   26470275  MISS:   14296093
L2C WRITEBACK ACCESS:     286388  HIT:     286311  MISS:         77

Avg Lookahead Depth:	4.71167
TOTAL: 4.65526e+08	L2C: 3.84398e+08	LLC: 8.11286e+07	GOOD_L2C: 2.76399e+08
Printing all the perceptron weights to: perc_weights_0.csv
LLC TOTAL     ACCESS:   17239962  HIT:    1859380  MISS:   15380582
LLC LOAD      ACCESS:     875849  HIT:      89588  MISS:     786261
LLC RFO       ACCESS:      17425  HIT:        604  MISS:      16821
LLC PREFETCH  ACCESS:   16206997  HIT:    1662378  MISS:   14544619
LLC WRITEBACK ACCESS:     139691  HIT:     106810  MISS:      32881

Region of Interest Statistics

CPU 0 cumulative IPC: 0.735658 instructions: 1000000001 cycles: 1359327205
L1D TOTAL     ACCESS:  294135588  HIT:  286524902  MISS:    7610686
L1D LOAD      ACCESS:  210460980  HIT:  203283584  MISS:    7177396
L1D RFO       ACCESS:   83674608  HIT:   83241318  MISS:     433290
L1D PREFETCH  ACCESS:          0  HIT:          0  MISS:          0
L1D WRITEBACK ACCESS:          0  HIT:          0  MISS:          0
L1D PREFETCH  REQUESTED:          0  ISSUED:          0  USEFUL:          0  USELESS:          0
L1I TOTAL     ACCESS:  355010282  HIT:  355008842  MISS:       1440
L1I LOAD      ACCESS:  355010282  HIT:  355008842  MISS:       1440
L1I RFO       ACCESS:          0  HIT:          0  MISS:          0
L1I PREFETCH  ACCESS:          0  HIT:          0  MISS:          0
L1I WRITEBACK ACCESS:          0  HIT:          0  MISS:          0
L1I PREFETCH  REQUESTED:          0  ISSUED:          0  USEFUL:          0  USELESS:          0
L2C TOTAL     ACCESS:   18472058  HIT:   13509886  MISS:    4962172
L2C LOAD      ACCESS:    7178198  HIT:    6894802  MISS:     283396
L2C RFO       ACCESS:     432974  HIT:     261984  MISS:     170990
L2C PREFETCH  ACCESS:    9065264  HIT:    4558402  MISS:    4506862
L2C WRITEBACK ACCESS:    1795622  HIT:    1794698  MISS:        924
L2C PREFETCH  REQUESTED:   45081995  ISSUED:   45081197  USEFUL:   15603689  USELESS:    1455385
LLC TOTAL     ACCESS:    5541988  HIT:    1321632  MISS:    4220356
LLC LOAD      ACCESS:     277268  HIT:      79124  MISS:     198144
LLC RFO       ACCESS:     170990  HIT:      72309  MISS:      98681
LLC PREFETCH  ACCESS:    4904831  HIT:    1057823  MISS:    3847008
LLC WRITEBACK ACCESS:     188899  HIT:     112376  MISS:      76523
LLC PREFETCH  REQUESTED:          0  ISSUED:          0  USEFUL:    2673016  USELESS:   53825108
Major fault: 0 Minor fault: 213839

CPU 1 cumulative IPC: 0.469202 instructions: 1000000000 cycles: 2131278067
L1D TOTAL     ACCESS:  316190252  HIT:  169461391  MISS:  146728861
L1D LOAD      ACCESS:  267363617  HIT:  126149096  MISS:  141214521
L1D RFO       ACCESS:   48826635  HIT:   43312295  MISS:    5514340
L1D PREFETCH  ACCESS:          0  HIT:          0  MISS:          0
L1D WRITEBACK ACCESS:          0  HIT:          0  MISS:          0
L1D PREFETCH  REQUESTED:          0  ISSUED:          0  USEFUL:          0  USELESS:          0
L1I TOTAL     ACCESS:  343891340  HIT:  343891192  MISS:        148
L1I LOAD      ACCESS:  343891340  HIT:  343891192  MISS:        148
L1I RFO       ACCESS:          0  HIT:          0  MISS:          0
L1I PREFETCH  ACCESS:          0  HIT:          0  MISS:          0
L1I WRITEBACK ACCESS:          0  HIT:          0  MISS:          0
L1I PREFETCH  REQUESTED:          0  ISSUED:          0  USEFUL:          0  USELESS:          0
L2C TOTAL     ACCESS:  293641012  HIT:  126151710  MISS:  167489302
L2C LOAD      ACCESS:  141214649  HIT:  105020027  MISS:   36194622
L2C RFO       ACCESS:    5514337  HIT:     222195  MISS:    5292142
L2C PREFETCH  ACCESS:  139262383  HIT:   13271400  MISS:  125990983
L2C WRITEBACK ACCESS:    7649643  HIT:    7638088  MISS:      11555
L2C PREFETCH  REQUESTED:  351474029  ISSUED:  351445080  USEFUL:  180083525  USELESS:   43251392
LLC TOTAL     ACCESS:  194066524  HIT:  173340124  MISS:   20726400
LLC LOAD      ACCESS:   17791590  HIT:   13226126  MISS:    4565464
LLC RFO       ACCESS:    5291200  HIT:     325758  MISS:    4965442
LLC PREFETCH  ACCESS:  163457206  HIT:  152262060  MISS:   11195146
LLC WRITEBACK ACCESS:    7526528  HIT:    7526180  MISS:        348
LLC PREFETCH  REQUESTED:          0  ISSUED:          0  USEFUL:    2673016  USELESS:   53825108
Major fault: 0 Minor fault: 291012

CPU 2 cumulative IPC: 0.239989 instructions: 1000000000 cycles: 4166849266
L1D TOTAL     ACCESS:  444380351  HIT:  424364257  MISS:   20016094
L1D LOAD      ACCESS:  262794314  HIT:  245298777  MISS:   17495537
L1D RFO       ACCESS:  181586037  HIT:  179065480  MISS:    2520557
L1D PREFETCH  ACCESS:          0  HIT:          0  MISS:          0
L1D WRITEBACK ACCESS:          0  HIT:          0  MISS:          0
L1D PREFETCH  REQUESTED:          0  ISSUED:          0  USEFUL:          0  USELESS:          0
L1I TOTAL     ACCESS:  356590905  HIT:  356211135  MISS:     379770
L1I LOAD      ACCESS:  356590905  HIT:  356211135  MISS:     379770
L1I RFO       ACCESS:          0  HIT:          0  MISS:          0
L1I PREFETCH  ACCESS:          0  HIT:          0  MISS:          0
L1I WRITEBACK ACCESS:          0  HIT:          0  MISS:          0
L1I PREFETCH  REQUESTED:          0  ISSUED:          0  USEFUL:          0  USELESS:          0
L2C TOTAL     ACCESS:   39457532  HIT:   20983442  MISS:   18474090
L2C LOAD      ACCESS:   17874696  HIT:    7177603  MISS:   10697093
L2C RFO       ACCESS:    2520420  HIT:     533757  MISS:    1986663
L2C PREFETCH  ACCESS:    9388910  HIT:    3636334  MISS:    5752576
L2C WRITEBACK ACCESS:    9673506  HIT:    9635748  MISS:      37758
L2C PREFETCH  REQUESTED:   20312998  ISSUED:   20312998  USEFUL:    2734037  USELESS:    4096053
LLC TOTAL     ACCESS:   31779222  HIT:   15889589  MISS:   15889633
LLC LOAD      ACCESS:   10561276  HIT:    4122106  MISS:    6439170
LLC RFO       ACCESS:    1978771  HIT:    1021497  MISS:     957274
LLC PREFETCH  ACCESS:   11764418  HIT:    3363144  MISS:    8401274
LLC WRITEBACK ACCESS:    7474757  HIT:    7382842  MISS:      91915
LLC PREFETCH  REQUESTED:          0  ISSUED:          0  USEFUL:    2673016  USELESS:   53825108
Major fault: 0 Minor fault: 52120

CPU 3 cumulative IPC: 0.425547 instructions: 1000000000 cycles: 2349915601
L1D TOTAL     ACCESS:  318840302  HIT:  302182084  MISS:   16658218
L1D LOAD      ACCESS:  206694535  HIT:  190048049  MISS:   16646486
L1D RFO       ACCESS:  112145767  HIT:  112134035  MISS:      11732
L1D PREFETCH  ACCESS:          0  HIT:          0  MISS:          0
L1D WRITEBACK ACCESS:          0  HIT:          0  MISS:          0
L1D PREFETCH  REQUESTED:          0  ISSUED:          0  USEFUL:          0  USELESS:          0
L1I TOTAL     ACCESS:  384636335  HIT:  384636334  MISS:          1
L1I LOAD      ACCESS:  384636335  HIT:  384636334  MISS:          1
L1I RFO       ACCESS:          0  HIT:          0  MISS:          0
L1I PREFETCH  ACCESS:          0  HIT:          0  MISS:          0
L1I WRITEBACK ACCESS:          0  HIT:          0  MISS:          0
L1I PREFETCH  REQUESTED:          0  ISSUED:          0  USEFUL:          0  USELESS:          0
L2C TOTAL     ACCESS:   41246764  HIT:   32537076  MISS:    8709688
L2C LOAD      ACCESS:   16646487  HIT:   16127663  MISS:     518824
L2C RFO       ACCESS:      11732  HIT:       2509  MISS:       9223
L2C PREFETCH  ACCESS:   24426609  HIT:   16245011  MISS:    8181598
L2C WRITEBACK ACCESS:     161936  HIT:     161893  MISS:         43
L2C PREFETCH  REQUESTED:   48657473  ISSUED:   48657473  USEFUL:   16078721  USELESS:     640252
LLC TOTAL     ACCESS:   10005227  HIT:    1215875  MISS:    8789352
LLC LOAD      ACCESS:     492552  HIT:      51733  MISS:     440819
LLC RFO       ACCESS:       9200  HIT:        333  MISS:       8867
LLC PREFETCH  ACCESS:    9424736  HIT:    1102839  MISS:    8321897
LLC WRITEBACK ACCESS:      78739  HIT:      60970  MISS:      17769
LLC PREFETCH  REQUESTED:          0  ISSUED:          0  USEFUL:    2673016  USELESS:   53825108
Major fault: 0 Minor fault: 13708

Avg Lookahead Depth:	4.71167
TOTAL: 4.65526e+08	L2C: 3.84398e+08	LLC: 8.11286e+07	GOOD_L2C: 2.76399e+08
Printing all the perceptron weights to: perc_weights_0.csv

Avg Lookahead Depth:	4.71167
TOTAL: 4.65526e+08	L2C: 3.84398e+08	LLC: 8.11286e+07	GOOD_L2C: 2.76399e+08
Printing all the perceptron weights to: perc_weights_0.csv

Avg Lookahead Depth:	4.71167
TOTAL: 4.65526e+08	L2C: 3.84398e+08	LLC: 8.11286e+07	GOOD_L2C: 2.76399e+08
Printing all the perceptron weights to: perc_weights_0.csv

Avg Lookahead Depth:	4.71167
TOTAL: 4.65526e+08	L2C: 3.84398e+08	LLC: 8.11286e+07	GOOD_L2C: 2.76399e+08
Printing all the perceptron weights to: perc_weights_0.csv

DRAM Statistics
 CHANNEL 0
 RQ ROW_BUFFER_HIT:   15416178  ROW_BUFFER_MISS:   21137205
 DBUS_CONGESTED:   45010305
 WQ ROW_BUFFER_HIT:    1146488  ROW_BUFFER_MISS:    8421683  FULL:          0

 CHANNEL 1
 RQ ROW_BUFFER_HIT:   15410256  ROW_BUFFER_MISS:   21169087
 DBUS_CONGESTED:   45010305
 WQ ROW_BUFFER_HIT:    1148393  ROW_BUFFER_MISS:    8415921  FULL:          0

 AVG_CONGESTED_CYCLE: 13
