Initialize SIGNATURE TABLE
ST_SET: 1
ST_WAY: 256
ST_TAG_BIT: 16
ST_TAG_MASK: ffff

Initialize PATTERN TABLE
PT_SET: 512
PT_WAY: 4
SIG_DELTA_BIT: 7
C_SIG_BIT: 4
C_DELTA_BIT: 4

Initialize PREFETCH FILTER
FILTER_SET: 1024

Initialize PERCEPTRON
PERC_ENTRIES: 4096
PERC_FEATURES: 9

*** ChampSim Multicore Out-of-Order Simulator ***

Warmup Instructions: 200000000
Simulation Instructions: 1000000000
Number of CPUs: 4
LLC sets: 8192
LLC ways: 16
Off-chip DRAM Size: 8192 MB Channels: 2 Width: 64-bit Data Rate: 1600 MT/s

CPU 0 runs /scratch/user/djimenez/champsim-traces/speccpu2017/xz/605.mcf_s/605.mcf_s-1554B.champsimtrace.xz
CPU 1 runs /scratch/user/djimenez/champsim-traces/speccpu2017/xz/602.gcc_s/602.gcc_s-2375B.champsimtrace.xz
CPU 2 runs /scratch/user/djimenez/champsim-traces/speccpu2017/xz/620.omnetpp_s/620.omnetpp_s-141B.champsimtrace.xz
CPU 3 runs /scratch/user/djimenez/champsim-traces/speccpu2017/xz/623.xalancbmk_s/623.xalancbmk_s-700B.champsimtrace.xz
Heartbeat CPU 0 instructions: 10000001 cycles: 5375492 heartbeat IPC: 1.8603 cumulative IPC: 1.8603 (Simulation time: 0 hr 1 min 38 sec) 
Heartbeat CPU 3 instructions: 10000001 cycles: 5970780 heartbeat IPC: 1.67482 cumulative IPC: 1.67482 (Simulation time: 0 hr 1 min 49 sec) 
Heartbeat CPU 1 instructions: 10000002 cycles: 6790196 heartbeat IPC: 1.47271 cumulative IPC: 1.47271 (Simulation time: 0 hr 2 min 4 sec) 
Heartbeat CPU 2 instructions: 10000000 cycles: 7406294 heartbeat IPC: 1.3502 cumulative IPC: 1.3502 (Simulation time: 0 hr 2 min 16 sec) 
Heartbeat CPU 0 instructions: 20000000 cycles: 10712481 heartbeat IPC: 1.87372 cumulative IPC: 1.86698 (Simulation time: 0 hr 3 min 21 sec) 
Heartbeat CPU 3 instructions: 20000000 cycles: 10852268 heartbeat IPC: 2.04856 cumulative IPC: 1.84293 (Simulation time: 0 hr 3 min 24 sec) 
Heartbeat CPU 1 instructions: 20000000 cycles: 13336403 heartbeat IPC: 1.5276 cumulative IPC: 1.49965 (Simulation time: 0 hr 4 min 10 sec) 
Heartbeat CPU 2 instructions: 20000000 cycles: 14836032 heartbeat IPC: 1.34594 cumulative IPC: 1.34807 (Simulation time: 0 hr 4 min 38 sec) 
Heartbeat CPU 0 instructions: 30000003 cycles: 16012775 heartbeat IPC: 1.88669 cumulative IPC: 1.8735 (Simulation time: 0 hr 5 min 0 sec) 
Heartbeat CPU 3 instructions: 30000001 cycles: 16927447 heartbeat IPC: 1.64604 cumulative IPC: 1.77227 (Simulation time: 0 hr 5 min 16 sec) 
Heartbeat CPU 1 instructions: 30000001 cycles: 20193476 heartbeat IPC: 1.45835 cumulative IPC: 1.48563 (Simulation time: 0 hr 6 min 16 sec) 
Heartbeat CPU 0 instructions: 40000000 cycles: 21331850 heartbeat IPC: 1.88003 cumulative IPC: 1.87513 (Simulation time: 0 hr 6 min 38 sec) 
Heartbeat CPU 2 instructions: 30000003 cycles: 22288992 heartbeat IPC: 1.34175 cumulative IPC: 1.34596 (Simulation time: 0 hr 6 min 55 sec) 
Heartbeat CPU 3 instructions: 40000000 cycles: 23221596 heartbeat IPC: 1.58878 cumulative IPC: 1.72253 (Simulation time: 0 hr 7 min 13 sec) 
Heartbeat CPU 1 instructions: 40000000 cycles: 26361419 heartbeat IPC: 1.62129 cumulative IPC: 1.51737 (Simulation time: 0 hr 8 min 12 sec) 
Heartbeat CPU 0 instructions: 50000003 cycles: 26647091 heartbeat IPC: 1.88138 cumulative IPC: 1.87638 (Simulation time: 0 hr 8 min 17 sec) 
Heartbeat CPU 3 instructions: 50000001 cycles: 29382276 heartbeat IPC: 1.6232 cumulative IPC: 1.70171 (Simulation time: 0 hr 9 min 9 sec) 
Heartbeat CPU 2 instructions: 40000000 cycles: 29700181 heartbeat IPC: 1.34931 cumulative IPC: 1.34679 (Simulation time: 0 hr 9 min 16 sec) 
Heartbeat CPU 0 instructions: 60000000 cycles: 31941054 heartbeat IPC: 1.88894 cumulative IPC: 1.87846 (Simulation time: 0 hr 9 min 59 sec) 
Heartbeat CPU 1 instructions: 50000001 cycles: 32233234 heartbeat IPC: 1.70305 cumulative IPC: 1.55119 (Simulation time: 0 hr 10 min 5 sec) 
Heartbeat CPU 3 instructions: 60000000 cycles: 34507459 heartbeat IPC: 1.95115 cumulative IPC: 1.73875 (Simulation time: 0 hr 10 min 48 sec) 
Heartbeat CPU 2 instructions: 50000001 cycles: 37158719 heartbeat IPC: 1.34075 cumulative IPC: 1.34558 (Simulation time: 0 hr 11 min 38 sec) 
Heartbeat CPU 0 instructions: 70000001 cycles: 37276940 heartbeat IPC: 1.8741 cumulative IPC: 1.87784 (Simulation time: 0 hr 11 min 40 sec) 
Heartbeat CPU 1 instructions: 60000000 cycles: 37906008 heartbeat IPC: 1.76281 cumulative IPC: 1.58286 (Simulation time: 0 hr 11 min 52 sec) 
Heartbeat CPU 3 instructions: 70000001 cycles: 39454422 heartbeat IPC: 2.02144 cumulative IPC: 1.7742 (Simulation time: 0 hr 12 min 22 sec) 
Heartbeat CPU 0 instructions: 80000000 cycles: 42619624 heartbeat IPC: 1.87172 cumulative IPC: 1.87707 (Simulation time: 0 hr 13 min 22 sec) 
Heartbeat CPU 1 instructions: 70000001 cycles: 44521769 heartbeat IPC: 1.51154 cumulative IPC: 1.57226 (Simulation time: 0 hr 13 min 59 sec) 
Heartbeat CPU 2 instructions: 60000000 cycles: 44547678 heartbeat IPC: 1.35337 cumulative IPC: 1.34687 (Simulation time: 0 hr 13 min 59 sec) 
Heartbeat CPU 3 instructions: 80000000 cycles: 45632887 heartbeat IPC: 1.61852 cumulative IPC: 1.75312 (Simulation time: 0 hr 14 min 20 sec) 
Heartbeat CPU 0 instructions: 90000003 cycles: 47931696 heartbeat IPC: 1.88251 cumulative IPC: 1.87767 (Simulation time: 0 hr 15 min 3 sec) 
Heartbeat CPU 1 instructions: 80000000 cycles: 50305632 heartbeat IPC: 1.72895 cumulative IPC: 1.59028 (Simulation time: 0 hr 15 min 47 sec) 
Heartbeat CPU 3 instructions: 90000001 cycles: 51513864 heartbeat IPC: 1.7004 cumulative IPC: 1.7471 (Simulation time: 0 hr 16 min 10 sec) 
Heartbeat CPU 2 instructions: 70000000 cycles: 51993144 heartbeat IPC: 1.3431 cumulative IPC: 1.34633 (Simulation time: 0 hr 16 min 19 sec) 
Heartbeat CPU 0 instructions: 100000000 cycles: 53247639 heartbeat IPC: 1.88113 cumulative IPC: 1.87802 (Simulation time: 0 hr 16 min 42 sec) 
Heartbeat CPU 1 instructions: 90000003 cycles: 55896995 heartbeat IPC: 1.78847 cumulative IPC: 1.6101 (Simulation time: 0 hr 17 min 30 sec) 
Heartbeat CPU 3 instructions: 100000000 cycles: 57799068 heartbeat IPC: 1.59104 cumulative IPC: 1.73013 (Simulation time: 0 hr 18 min 5 sec) 
Heartbeat CPU 0 instructions: 110000002 cycles: 58548637 heartbeat IPC: 1.88644 cumulative IPC: 1.87878 (Simulation time: 0 hr 18 min 19 sec) 
Heartbeat CPU 2 instructions: 80000000 cycles: 59416189 heartbeat IPC: 1.34716 cumulative IPC: 1.34643 (Simulation time: 0 hr 18 min 36 sec) 
Heartbeat CPU 1 instructions: 100000000 cycles: 62310266 heartbeat IPC: 1.55927 cumulative IPC: 1.60487 (Simulation time: 0 hr 19 min 35 sec) 
Heartbeat CPU 0 instructions: 120000000 cycles: 63789168 heartbeat IPC: 1.9082 cumulative IPC: 1.8812 (Simulation time: 0 hr 20 min 3 sec) 
Heartbeat CPU 3 instructions: 110000002 cycles: 64147642 heartbeat IPC: 1.57516 cumulative IPC: 1.71479 (Simulation time: 0 hr 20 min 10 sec) 
Heartbeat CPU 2 instructions: 90000002 cycles: 66866233 heartbeat IPC: 1.34227 cumulative IPC: 1.34597 (Simulation time: 0 hr 21 min 1 sec) 
Heartbeat CPU 1 instructions: 110000003 cycles: 68801805 heartbeat IPC: 1.54047 cumulative IPC: 1.5988 (Simulation time: 0 hr 21 min 37 sec) 
Heartbeat CPU 0 instructions: 130000003 cycles: 69084356 heartbeat IPC: 1.88851 cumulative IPC: 1.88176 (Simulation time: 0 hr 21 min 43 sec) 
Heartbeat CPU 3 instructions: 120000000 cycles: 70321712 heartbeat IPC: 1.61968 cumulative IPC: 1.70644 (Simulation time: 0 hr 22 min 6 sec) 
Heartbeat CPU 2 instructions: 100000000 cycles: 74297824 heartbeat IPC: 1.34561 cumulative IPC: 1.34593 (Simulation time: 0 hr 23 min 24 sec) 
Heartbeat CPU 0 instructions: 140000000 cycles: 74350274 heartbeat IPC: 1.899 cumulative IPC: 1.88298 (Simulation time: 0 hr 23 min 24 sec) 
Heartbeat CPU 1 instructions: 120000000 cycles: 75552674 heartbeat IPC: 1.48129 cumulative IPC: 1.5883 (Simulation time: 0 hr 23 min 48 sec) 
Heartbeat CPU 3 instructions: 130000001 cycles: 75599706 heartbeat IPC: 1.89466 cumulative IPC: 1.71958 (Simulation time: 0 hr 23 min 49 sec) 
Heartbeat CPU 0 instructions: 150000000 cycles: 79605726 heartbeat IPC: 1.90279 cumulative IPC: 1.88429 (Simulation time: 0 hr 25 min 10 sec) 
Heartbeat CPU 3 instructions: 140000000 cycles: 80549669 heartbeat IPC: 2.02022 cumulative IPC: 1.73806 (Simulation time: 0 hr 25 min 29 sec) 
Heartbeat CPU 1 instructions: 130000002 cycles: 81679605 heartbeat IPC: 1.63214 cumulative IPC: 1.59158 (Simulation time: 0 hr 25 min 52 sec) 
Heartbeat CPU 2 instructions: 110000002 cycles: 81730324 heartbeat IPC: 1.34544 cumulative IPC: 1.34589 (Simulation time: 0 hr 25 min 53 sec) 
Heartbeat CPU 0 instructions: 160000000 cycles: 84812341 heartbeat IPC: 1.92063 cumulative IPC: 1.88652 (Simulation time: 0 hr 26 min 53 sec) 
Heartbeat CPU 3 instructions: 150000001 cycles: 86909066 heartbeat IPC: 1.57248 cumulative IPC: 1.72594 (Simulation time: 0 hr 27 min 33 sec) 
Heartbeat CPU 1 instructions: 140000000 cycles: 88227595 heartbeat IPC: 1.52719 cumulative IPC: 1.58681 (Simulation time: 0 hr 27 min 59 sec) 
Heartbeat CPU 2 instructions: 120000000 cycles: 89160540 heartbeat IPC: 1.34586 cumulative IPC: 1.34589 (Simulation time: 0 hr 28 min 18 sec) 
Heartbeat CPU 0 instructions: 170000002 cycles: 89999141 heartbeat IPC: 1.92797 cumulative IPC: 1.88891 (Simulation time: 0 hr 28 min 36 sec) 
Heartbeat CPU 3 instructions: 160000000 cycles: 92417854 heartbeat IPC: 1.81528 cumulative IPC: 1.73127 (Simulation time: 0 hr 29 min 25 sec) 
Heartbeat CPU 1 instructions: 150000000 cycles: 94766366 heartbeat IPC: 1.52934 cumulative IPC: 1.58284 (Simulation time: 0 hr 30 min 11 sec) 
Heartbeat CPU 0 instructions: 180000000 cycles: 95192049 heartbeat IPC: 1.9257 cumulative IPC: 1.89091 (Simulation time: 0 hr 30 min 20 sec) 
Heartbeat CPU 2 instructions: 130000000 cycles: 96557385 heartbeat IPC: 1.35193 cumulative IPC: 1.34635 (Simulation time: 0 hr 30 min 48 sec) 
Heartbeat CPU 3 instructions: 170000000 cycles: 98550004 heartbeat IPC: 1.63075 cumulative IPC: 1.72501 (Simulation time: 0 hr 31 min 29 sec) 
Heartbeat CPU 0 instructions: 190000001 cycles: 100413462 heartbeat IPC: 1.91519 cumulative IPC: 1.89218 (Simulation time: 0 hr 32 min 7 sec) 
Heartbeat CPU 1 instructions: 160000000 cycles: 100504758 heartbeat IPC: 1.74265 cumulative IPC: 1.59196 (Simulation time: 0 hr 32 min 9 sec) 
Heartbeat CPU 2 instructions: 140000000 cycles: 103984339 heartbeat IPC: 1.34645 cumulative IPC: 1.34636 (Simulation time: 0 hr 33 min 16 sec) 
Heartbeat CPU 3 instructions: 180000000 cycles: 104964103 heartbeat IPC: 1.55907 cumulative IPC: 1.71487 (Simulation time: 0 hr 33 min 35 sec) 
Heartbeat CPU 0 instructions: 200000000 cycles: 105583372 heartbeat IPC: 1.93427 cumulative IPC: 1.89424 (Simulation time: 0 hr 33 min 46 sec) 
Heartbeat CPU 1 instructions: 170000000 cycles: 107390669 heartbeat IPC: 1.45224 cumulative IPC: 1.58301 (Simulation time: 0 hr 34 min 21 sec) 
Heartbeat CPU 0 instructions: 210000000 cycles: 110847850 heartbeat IPC: 1.89952 cumulative IPC: 0.0902137 (Simulation time: 0 hr 35 min 25 sec) 
Heartbeat CPU 3 instructions: 190000001 cycles: 111172820 heartbeat IPC: 1.61064 cumulative IPC: 1.70905 (Simulation time: 0 hr 35 min 31 sec) 
Heartbeat CPU 2 instructions: 150000001 cycles: 111426529 heartbeat IPC: 1.34369 cumulative IPC: 1.34618 (Simulation time: 0 hr 35 min 36 sec) 
Heartbeat CPU 1 instructions: 180000000 cycles: 113614748 heartbeat IPC: 1.60666 cumulative IPC: 1.5843 (Simulation time: 0 hr 36 min 15 sec) 
Heartbeat CPU 0 instructions: 220000000 cycles: 116128296 heartbeat IPC: 1.89378 cumulative IPC: 0.172223 (Simulation time: 0 hr 37 min 3 sec) 
Heartbeat CPU 3 instructions: 200000000 cycles: 116855273 heartbeat IPC: 1.7598 cumulative IPC: 1.71152 (Simulation time: 0 hr 37 min 17 sec) 
Heartbeat CPU 2 instructions: 160000000 cycles: 118862792 heartbeat IPC: 1.34476 cumulative IPC: 1.34609 (Simulation time: 0 hr 37 min 56 sec) 
Heartbeat CPU 1 instructions: 190000001 cycles: 120537703 heartbeat IPC: 1.44447 cumulative IPC: 1.57627 (Simulation time: 0 hr 38 min 30 sec) 
Heartbeat CPU 0 instructions: 230000000 cycles: 121322753 heartbeat IPC: 1.92513 cumulative IPC: 0.247274 (Simulation time: 0 hr 38 min 45 sec) 
Heartbeat CPU 3 instructions: 210000000 cycles: 121739967 heartbeat IPC: 2.04721 cumulative IPC: 0.0821423 (Simulation time: 0 hr 38 min 54 sec) 
Heartbeat CPU 2 instructions: 170000003 cycles: 126270730 heartbeat IPC: 1.3499 cumulative IPC: 1.34631 (Simulation time: 0 hr 40 min 20 sec) 
Heartbeat CPU 0 instructions: 240000000 cycles: 126612972 heartbeat IPC: 1.89028 cumulative IPC: 0.315923 (Simulation time: 0 hr 40 min 26 sec) 
Heartbeat CPU 1 instructions: 200000000 cycles: 127300024 heartbeat IPC: 1.47878 cumulative IPC: 1.57109 (Simulation time: 0 hr 40 min 39 sec) 
Heartbeat CPU 3 instructions: 220000000 cycles: 127578413 heartbeat IPC: 1.71278 cumulative IPC: 0.156766 (Simulation time: 0 hr 40 min 45 sec) 
Heartbeat CPU 0 instructions: 250000000 cycles: 131878173 heartbeat IPC: 1.89926 cumulative IPC: 0.379138 (Simulation time: 0 hr 42 min 4 sec) 
Heartbeat CPU 2 instructions: 180000000 cycles: 133698575 heartbeat IPC: 1.34629 cumulative IPC: 1.34631 (Simulation time: 0 hr 42 min 40 sec) 
Heartbeat CPU 1 instructions: 210000000 cycles: 133906343 heartbeat IPC: 1.5137 cumulative IPC: 0.0746791 (Simulation time: 0 hr 42 min 44 sec) 
Heartbeat CPU 3 instructions: 230000000 cycles: 133935339 heartbeat IPC: 1.57309 cumulative IPC: 0.223989 (Simulation time: 0 hr 42 min 45 sec) 
Heartbeat CPU 0 instructions: 260000000 cycles: 137047995 heartbeat IPC: 1.9343 cumulative IPC: 0.437803 (Simulation time: 0 hr 43 min 44 sec) 
Heartbeat CPU 3 instructions: 240000000 cycles: 140150617 heartbeat IPC: 1.60894 cumulative IPC: 0.285407 (Simulation time: 0 hr 44 min 42 sec) 
Heartbeat CPU 1 instructions: 220000000 cycles: 140519109 heartbeat IPC: 1.51223 cumulative IPC: 0.142329 (Simulation time: 0 hr 44 min 49 sec) 
Heartbeat CPU 2 instructions: 190000003 cycles: 141122528 heartbeat IPC: 1.34699 cumulative IPC: 1.34635 (Simulation time: 0 hr 44 min 59 sec) 
Heartbeat CPU 0 instructions: 270000002 cycles: 142405592 heartbeat IPC: 1.86651 cumulative IPC: 0.491554 (Simulation time: 0 hr 45 min 24 sec) 
Heartbeat CPU 3 instructions: 250000001 cycles: 146296636 heartbeat IPC: 1.62707 cumulative IPC: 0.341771 (Simulation time: 0 hr 46 min 35 sec) 
Heartbeat CPU 1 instructions: 230000003 cycles: 147272439 heartbeat IPC: 1.48075 cumulative IPC: 0.203704 (Simulation time: 0 hr 46 min 53 sec) 
Heartbeat CPU 0 instructions: 280000000 cycles: 147726751 heartbeat IPC: 1.87929 cumulative IPC: 0.54154 (Simulation time: 0 hr 47 min 2 sec) 
Heartbeat CPU 2 instructions: 200000000 cycles: 148564290 heartbeat IPC: 1.34377 cumulative IPC: 1.34622 (Simulation time: 0 hr 47 min 17 sec) 

Warmup complete CPU 0 instructions: 281612953 cycles: 148564291 (Simulation time: 0 hr 47 min 17 sec) 
Warmup complete CPU 1 instructions: 231863122 cycles: 148564291 (Simulation time: 0 hr 47 min 17 sec) 
Warmup complete CPU 2 instructions: 200000003 cycles: 148564291 (Simulation time: 0 hr 47 min 17 sec) 
Warmup complete CPU 3 instructions: 253716234 cycles: 148564290 (Simulation time: 0 hr 47 min 17 sec) 

Heartbeat CPU 3 instructions: 260000000 cycles: 162992795 heartbeat IPC: 0.59894 cumulative IPC: 0.435511 (Simulation time: 0 hr 49 min 1 sec) 
Heartbeat CPU 0 instructions: 290000000 cycles: 163223032 heartbeat IPC: 0.645316 cumulative IPC: 0.572153 (Simulation time: 0 hr 49 min 3 sec) 
Heartbeat CPU 1 instructions: 240000000 cycles: 172811482 heartbeat IPC: 0.391557 cumulative IPC: 0.33558 (Simulation time: 0 hr 50 min 19 sec) 
Heartbeat CPU 3 instructions: 270000000 cycles: 179818019 heartbeat IPC: 0.594346 cumulative IPC: 0.521018 (Simulation time: 0 hr 51 min 13 sec) 
Heartbeat CPU 0 instructions: 300000000 cycles: 180314262 heartbeat IPC: 0.585095 cumulative IPC: 0.57912 (Simulation time: 0 hr 51 min 16 sec) 
Heartbeat CPU 2 instructions: 210000003 cycles: 192020379 heartbeat IPC: 0.230117 cumulative IPC: 0.230117 (Simulation time: 0 hr 52 min 42 sec) 
Heartbeat CPU 0 instructions: 310000003 cycles: 197586947 heartbeat IPC: 0.578949 cumulative IPC: 0.57906 (Simulation time: 0 hr 53 min 24 sec) 
Heartbeat CPU 3 instructions: 280000000 cycles: 198228962 heartbeat IPC: 0.543155 cumulative IPC: 0.529225 (Simulation time: 0 hr 53 min 28 sec) 
Heartbeat CPU 1 instructions: 250000001 cycles: 201216420 heartbeat IPC: 0.352051 cumulative IPC: 0.344466 (Simulation time: 0 hr 53 min 52 sec) 
Heartbeat CPU 0 instructions: 320000000 cycles: 214997891 heartbeat IPC: 0.574351 cumulative IPC: 0.577826 (Simulation time: 0 hr 55 min 31 sec) 
Heartbeat CPU 3 instructions: 290000000 cycles: 220667405 heartbeat IPC: 0.445664 cumulative IPC: 0.50322 (Simulation time: 0 hr 56 min 10 sec) 
Heartbeat CPU 1 instructions: 260000000 cycles: 228446079 heartbeat IPC: 0.367247 cumulative IPC: 0.352231 (Simulation time: 0 hr 57 min 1 sec) 
Heartbeat CPU 0 instructions: 330000003 cycles: 232581322 heartbeat IPC: 0.568717 cumulative IPC: 0.57592 (Simulation time: 0 hr 57 min 30 sec) 
Heartbeat CPU 2 instructions: 220000000 cycles: 235627011 heartbeat IPC: 0.229323 cumulative IPC: 0.229719 (Simulation time: 0 hr 57 min 49 sec) 
Heartbeat CPU 0 instructions: 340000000 cycles: 250362661 heartbeat IPC: 0.562387 cumulative IPC: 0.573556 (Simulation time: 0 hr 59 min 24 sec) 
Heartbeat CPU 3 instructions: 300000000 cycles: 253660664 heartbeat IPC: 0.303092 cumulative IPC: 0.440394 (Simulation time: 0 hr 59 min 46 sec) 
Heartbeat CPU 1 instructions: 270000000 cycles: 258606610 heartbeat IPC: 0.331559 cumulative IPC: 0.346566 (Simulation time: 1 hr 0 min 18 sec) 
Heartbeat CPU 0 instructions: 350000000 cycles: 268033584 heartbeat IPC: 0.565901 cumulative IPC: 0.572424 (Simulation time: 1 hr 1 min 20 sec) 
Heartbeat CPU 2 instructions: 230000001 cycles: 279884530 heartbeat IPC: 0.22595 cumulative IPC: 0.228449 (Simulation time: 1 hr 2 min 39 sec) 
Heartbeat CPU 3 instructions: 310000001 cycles: 283043136 heartbeat IPC: 0.340339 cumulative IPC: 0.418532 (Simulation time: 1 hr 3 min 1 sec) 
Heartbeat CPU 0 instructions: 360000000 cycles: 285642671 heartbeat IPC: 0.567889 cumulative IPC: 0.571841 (Simulation time: 1 hr 3 min 19 sec) 
Heartbeat CPU 1 instructions: 280000000 cycles: 288660774 heartbeat IPC: 0.332733 cumulative IPC: 0.343598 (Simulation time: 1 hr 3 min 40 sec) 
Heartbeat CPU 0 instructions: 370000000 cycles: 303176675 heartbeat IPC: 0.57032 cumulative IPC: 0.571669 (Simulation time: 1 hr 5 min 19 sec) 
Heartbeat CPU 3 instructions: 320000000 cycles: 312609209 heartbeat IPC: 0.338225 cumulative IPC: 0.404059 (Simulation time: 1 hr 6 min 26 sec) 
Heartbeat CPU 1 instructions: 290000001 cycles: 317709021 heartbeat IPC: 0.344255 cumulative IPC: 0.343711 (Simulation time: 1 hr 7 min 2 sec) 
Heartbeat CPU 0 instructions: 380000000 cycles: 320534141 heartbeat IPC: 0.576121 cumulative IPC: 0.572118 (Simulation time: 1 hr 7 min 22 sec) 
Heartbeat CPU 2 instructions: 240000000 cycles: 324011181 heartbeat IPC: 0.22662 cumulative IPC: 0.227989 (Simulation time: 1 hr 7 min 45 sec) 
Heartbeat CPU 0 instructions: 390000002 cycles: 337782931 heartbeat IPC: 0.579751 cumulative IPC: 0.572814 (Simulation time: 1 hr 9 min 26 sec) 
Heartbeat CPU 3 instructions: 330000000 cycles: 342748631 heartbeat IPC: 0.331791 cumulative IPC: 0.392842 (Simulation time: 1 hr 10 min 3 sec) 
Heartbeat CPU 1 instructions: 300000000 cycles: 345780137 heartbeat IPC: 0.356238 cumulative IPC: 0.345494 (Simulation time: 1 hr 10 min 25 sec) 
Heartbeat CPU 0 instructions: 400000000 cycles: 355091037 heartbeat IPC: 0.577764 cumulative IPC: 0.573229 (Simulation time: 1 hr 11 min 31 sec) 
Heartbeat CPU 2 instructions: 250000001 cycles: 366617371 heartbeat IPC: 0.234708 cumulative IPC: 0.229302 (Simulation time: 1 hr 12 min 54 sec) 
Heartbeat CPU 3 instructions: 340000000 cycles: 370386117 heartbeat IPC: 0.361827 cumulative IPC: 0.388978 (Simulation time: 1 hr 13 min 21 sec) 
Heartbeat CPU 1 instructions: 310000000 cycles: 371115156 heartbeat IPC: 0.394711 cumulative IPC: 0.351097 (Simulation time: 1 hr 13 min 27 sec) 
Heartbeat CPU 0 instructions: 410000003 cycles: 372341111 heartbeat IPC: 0.579708 cumulative IPC: 0.573728 (Simulation time: 1 hr 13 min 36 sec) 
Heartbeat CPU 0 instructions: 420000000 cycles: 389670300 heartbeat IPC: 0.577061 cumulative IPC: 0.573968 (Simulation time: 1 hr 15 min 41 sec) 
Heartbeat CPU 3 instructions: 350000000 cycles: 396381087 heartbeat IPC: 0.38469 cumulative IPC: 0.388528 (Simulation time: 1 hr 16 min 31 sec) 
Heartbeat CPU 1 instructions: 320000000 cycles: 400616557 heartbeat IPC: 0.338967 cumulative IPC: 0.349677 (Simulation time: 1 hr 17 min 0 sec) 
Heartbeat CPU 0 instructions: 430000001 cycles: 407055846 heartbeat IPC: 0.57519 cumulative IPC: 0.57405 (Simulation time: 1 hr 17 min 47 sec) 
Heartbeat CPU 2 instructions: 260000000 cycles: 409829305 heartbeat IPC: 0.231418 cumulative IPC: 0.229652 (Simulation time: 1 hr 18 min 8 sec) 
Heartbeat CPU 3 instructions: 360000000 cycles: 421087992 heartbeat IPC: 0.404745 cumulative IPC: 0.389998 (Simulation time: 1 hr 19 min 33 sec) 
Heartbeat CPU 0 instructions: 440000000 cycles: 424279444 heartbeat IPC: 0.580599 cumulative IPC: 0.574459 (Simulation time: 1 hr 19 min 56 sec) 
Heartbeat CPU 1 instructions: 330000002 cycles: 431080317 heartbeat IPC: 0.328259 cumulative IPC: 0.347367 (Simulation time: 1 hr 20 min 46 sec) 
Heartbeat CPU 0 instructions: 450000000 cycles: 441413760 heartbeat IPC: 0.583624 cumulative IPC: 0.574995 (Simulation time: 1 hr 22 min 4 sec) 
Heartbeat CPU 3 instructions: 370000000 cycles: 444823576 heartbeat IPC: 0.421308 cumulative IPC: 0.392507 (Simulation time: 1 hr 22 min 29 sec) 
Heartbeat CPU 2 instructions: 270000002 cycles: 453199825 heartbeat IPC: 0.230571 cumulative IPC: 0.229783 (Simulation time: 1 hr 23 min 36 sec) 
Heartbeat CPU 0 instructions: 460000000 cycles: 458370960 heartbeat IPC: 0.58972 cumulative IPC: 0.575801 (Simulation time: 1 hr 24 min 18 sec) 
Heartbeat CPU 3 instructions: 380000000 cycles: 461382365 heartbeat IPC: 0.603909 cumulative IPC: 0.403697 (Simulation time: 1 hr 24 min 43 sec) 
Heartbeat CPU 1 instructions: 340000000 cycles: 461721749 heartbeat IPC: 0.326355 cumulative IPC: 0.345312 (Simulation time: 1 hr 24 min 46 sec) 
Heartbeat CPU 0 instructions: 470000001 cycles: 475611234 heartbeat IPC: 0.580037 cumulative IPC: 0.576024 (Simulation time: 1 hr 26 min 35 sec) 
Heartbeat CPU 3 instructions: 390000000 cycles: 477732388 heartbeat IPC: 0.61162 cumulative IPC: 0.414025 (Simulation time: 1 hr 26 min 52 sec) 
Heartbeat CPU 1 instructions: 350000000 cycles: 490442007 heartbeat IPC: 0.348186 cumulative IPC: 0.345553 (Simulation time: 1 hr 28 min 31 sec) 
Heartbeat CPU 0 instructions: 480000000 cycles: 492718507 heartbeat IPC: 0.584547 cumulative IPC: 0.576448 (Simulation time: 1 hr 28 min 49 sec) 
Heartbeat CPU 3 instructions: 400000000 cycles: 495695338 heartbeat IPC: 0.556701 cumulative IPC: 0.421408 (Simulation time: 1 hr 29 min 11 sec) 
Heartbeat CPU 2 instructions: 280000000 cycles: 496723935 heartbeat IPC: 0.229758 cumulative IPC: 0.22978 (Simulation time: 1 hr 29 min 19 sec) 
Heartbeat CPU 0 instructions: 490000002 cycles: 509982251 heartbeat IPC: 0.579249 cumulative IPC: 0.576582 (Simulation time: 1 hr 30 min 56 sec) 
Heartbeat CPU 3 instructions: 410000001 cycles: 516346680 heartbeat IPC: 0.48423 cumulative IPC: 0.424935 (Simulation time: 1 hr 31 min 43 sec) 
Heartbeat CPU 1 instructions: 360000000 cycles: 521636502 heartbeat IPC: 0.320569 cumulative IPC: 0.343464 (Simulation time: 1 hr 32 min 20 sec) 
Heartbeat CPU 0 instructions: 500000000 cycles: 527355638 heartbeat IPC: 0.575593 cumulative IPC: 0.576537 (Simulation time: 1 hr 33 min 2 sec) 
Heartbeat CPU 2 instructions: 290000001 cycles: 539911662 heartbeat IPC: 0.231547 cumulative IPC: 0.229975 (Simulation time: 1 hr 34 min 27 sec) 
Heartbeat CPU 0 instructions: 510000002 cycles: 544468466 heartbeat IPC: 0.584357 cumulative IPC: 0.576875 (Simulation time: 1 hr 34 min 57 sec) 
Heartbeat CPU 3 instructions: 420000000 cycles: 544667311 heartbeat IPC: 0.353099 cumulative IPC: 0.419799 (Simulation time: 1 hr 34 min 58 sec) 
Heartbeat CPU 1 instructions: 370000000 cycles: 551359677 heartbeat IPC: 0.336438 cumulative IPC: 0.342946 (Simulation time: 1 hr 35 min 46 sec) 
Heartbeat CPU 0 instructions: 520000000 cycles: 561505532 heartbeat IPC: 0.586955 cumulative IPC: 0.57729 (Simulation time: 1 hr 37 min 1 sec) 
Heartbeat CPU 1 instructions: 380000000 cycles: 575536162 heartbeat IPC: 0.413625 cumulative IPC: 0.346948 (Simulation time: 1 hr 38 min 44 sec) 
Heartbeat CPU 3 instructions: 430000002 cycles: 576196479 heartbeat IPC: 0.317167 cumulative IPC: 0.412232 (Simulation time: 1 hr 38 min 49 sec) 
Heartbeat CPU 0 instructions: 530000000 cycles: 578604804 heartbeat IPC: 0.58482 cumulative IPC: 0.57759 (Simulation time: 1 hr 39 min 6 sec) 
Heartbeat CPU 2 instructions: 300000000 cycles: 582314421 heartbeat IPC: 0.235834 cumulative IPC: 0.230547 (Simulation time: 1 hr 39 min 34 sec) 
Heartbeat CPU 0 instructions: 540000000 cycles: 595605498 heartbeat IPC: 0.588211 cumulative IPC: 0.577994 (Simulation time: 1 hr 41 min 13 sec) 
Heartbeat CPU 1 instructions: 390000000 cycles: 599188133 heartbeat IPC: 0.422798 cumulative IPC: 0.350929 (Simulation time: 1 hr 41 min 40 sec) 
Heartbeat CPU 3 instructions: 440000000 cycles: 604504985 heartbeat IPC: 0.353251 cumulative IPC: 0.40857 (Simulation time: 1 hr 42 min 19 sec) 
Heartbeat CPU 0 instructions: 550000000 cycles: 612622785 heartbeat IPC: 0.587638 cumulative IPC: 0.578347 (Simulation time: 1 hr 43 min 20 sec) 
Heartbeat CPU 2 instructions: 310000000 cycles: 625555124 heartbeat IPC: 0.231264 cumulative IPC: 0.230612 (Simulation time: 1 hr 44 min 56 sec) 
Heartbeat CPU 1 instructions: 400000000 cycles: 629035412 heartbeat IPC: 0.335039 cumulative IPC: 0.349942 (Simulation time: 1 hr 45 min 21 sec) 
Heartbeat CPU 3 instructions: 450000000 cycles: 629367341 heartbeat IPC: 0.402214 cumulative IPC: 0.408242 (Simulation time: 1 hr 45 min 24 sec) 
Heartbeat CPU 0 instructions: 560000000 cycles: 629718210 heartbeat IPC: 0.584952 cumulative IPC: 0.578582 (Simulation time: 1 hr 45 min 26 sec) 
Heartbeat CPU 0 instructions: 570000003 cycles: 646861538 heartbeat IPC: 0.583317 cumulative IPC: 0.578745 (Simulation time: 1 hr 47 min 41 sec) 
Heartbeat CPU 3 instructions: 460000000 cycles: 648770729 heartbeat IPC: 0.515374 cumulative IPC: 0.412397 (Simulation time: 1 hr 47 min 55 sec) 
Heartbeat CPU 1 instructions: 410000000 cycles: 657909457 heartbeat IPC: 0.346332 cumulative IPC: 0.349737 (Simulation time: 1 hr 49 min 1 sec) 
Heartbeat CPU 0 instructions: 580000000 cycles: 664098417 heartbeat IPC: 0.580151 cumulative IPC: 0.578792 (Simulation time: 1 hr 49 min 47 sec) 
Heartbeat CPU 2 instructions: 320000000 cycles: 668548550 heartbeat IPC: 0.232594 cumulative IPC: 0.230776 (Simulation time: 1 hr 50 min 18 sec) 
Heartbeat CPU 3 instructions: 470000000 cycles: 677880093 heartbeat IPC: 0.343532 cumulative IPC: 0.40861 (Simulation time: 1 hr 51 min 25 sec) 
Heartbeat CPU 0 instructions: 590000002 cycles: 681207052 heartbeat IPC: 0.5845 cumulative IPC: 0.578975 (Simulation time: 1 hr 51 min 49 sec) 
Heartbeat CPU 1 instructions: 420000000 cycles: 685226395 heartbeat IPC: 0.366073 cumulative IPC: 0.350569 (Simulation time: 1 hr 52 min 17 sec) 
Heartbeat CPU 0 instructions: 600000000 cycles: 698273011 heartbeat IPC: 0.585962 cumulative IPC: 0.579192 (Simulation time: 1 hr 53 min 48 sec) 
Heartbeat CPU 3 instructions: 480000000 cycles: 708266443 heartbeat IPC: 0.329095 cumulative IPC: 0.404293 (Simulation time: 1 hr 55 min 1 sec) 
Heartbeat CPU 2 instructions: 330000000 cycles: 711666627 heartbeat IPC: 0.231921 cumulative IPC: 0.230864 (Simulation time: 1 hr 55 min 26 sec) 
Heartbeat CPU 1 instructions: 430000000 cycles: 715192520 heartbeat IPC: 0.33371 cumulative IPC: 0.349677 (Simulation time: 1 hr 55 min 52 sec) 
Heartbeat CPU 0 instructions: 610000000 cycles: 715303120 heartbeat IPC: 0.587195 cumulative IPC: 0.579433 (Simulation time: 1 hr 55 min 53 sec) 
Heartbeat CPU 0 instructions: 620000000 cycles: 732511467 heartbeat IPC: 0.581113 cumulative IPC: 0.579482 (Simulation time: 1 hr 58 min 1 sec) 
Heartbeat CPU 3 instructions: 490000001 cycles: 733625990 heartbeat IPC: 0.394329 cumulative IPC: 0.403861 (Simulation time: 1 hr 58 min 10 sec) 
Heartbeat CPU 1 instructions: 440000000 cycles: 742122605 heartbeat IPC: 0.371332 cumulative IPC: 0.35066 (Simulation time: 1 hr 59 min 13 sec) 
Heartbeat CPU 0 instructions: 630000000 cycles: 749848682 heartbeat IPC: 0.576794 cumulative IPC: 0.579405 (Simulation time: 2 hr 0 min 8 sec) 
Heartbeat CPU 2 instructions: 340000000 cycles: 753690318 heartbeat IPC: 0.237961 cumulative IPC: 0.231357 (Simulation time: 2 hr 0 min 34 sec) 
Heartbeat CPU 3 instructions: 500000000 cycles: 761231749 heartbeat IPC: 0.362243 cumulative IPC: 0.401986 (Simulation time: 2 hr 1 min 27 sec) 
Heartbeat CPU 0 instructions: 640000000 cycles: 767241883 heartbeat IPC: 0.574937 cumulative IPC: 0.579279 (Simulation time: 2 hr 2 min 9 sec) 
Heartbeat CPU 1 instructions: 450000000 cycles: 770376201 heartbeat IPC: 0.353937 cumulative IPC: 0.350808 (Simulation time: 2 hr 2 min 31 sec) 
Heartbeat CPU 0 instructions: 650000003 cycles: 784632999 heartbeat IPC: 0.575006 cumulative IPC: 0.579162 (Simulation time: 2 hr 4 min 13 sec) 
Heartbeat CPU 3 instructions: 510000001 cycles: 792679636 heartbeat IPC: 0.317986 cumulative IPC: 0.397885 (Simulation time: 2 hr 5 min 13 sec) 
Heartbeat CPU 1 instructions: 460000000 cycles: 796044961 heartbeat IPC: 0.389579 cumulative IPC: 0.352345 (Simulation time: 2 hr 5 min 37 sec) 
Heartbeat CPU 2 instructions: 350000000 cycles: 797192115 heartbeat IPC: 0.229876 cumulative IPC: 0.231257 (Simulation time: 2 hr 5 min 45 sec) 
Heartbeat CPU 0 instructions: 660000000 cycles: 802039397 heartbeat IPC: 0.574501 cumulative IPC: 0.579038 (Simulation time: 2 hr 6 min 20 sec) 
Heartbeat CPU 0 instructions: 670000000 cycles: 819334396 heartbeat IPC: 0.578202 cumulative IPC: 0.579017 (Simulation time: 2 hr 8 min 26 sec) 
Heartbeat CPU 3 instructions: 520000000 cycles: 821076158 heartbeat IPC: 0.352156 cumulative IPC: 0.395954 (Simulation time: 2 hr 8 min 39 sec) 
Heartbeat CPU 1 instructions: 470000000 cycles: 824614719 heartbeat IPC: 0.35002 cumulative IPC: 0.352247 (Simulation time: 2 hr 9 min 4 sec) 
Heartbeat CPU 0 instructions: 680000000 cycles: 836507792 heartbeat IPC: 0.582296 cumulative IPC: 0.579099 (Simulation time: 2 hr 10 min 33 sec) 
Heartbeat CPU 2 instructions: 360000000 cycles: 840210045 heartbeat IPC: 0.232461 cumulative IPC: 0.231332 (Simulation time: 2 hr 11 min 0 sec) 
Heartbeat CPU 3 instructions: 530000001 cycles: 847588990 heartbeat IPC: 0.377176 cumulative IPC: 0.395242 (Simulation time: 2 hr 11 min 54 sec) 
Heartbeat CPU 0 instructions: 690000000 cycles: 853787349 heartbeat IPC: 0.578719 cumulative IPC: 0.579089 (Simulation time: 2 hr 12 min 39 sec) 
Heartbeat CPU 1 instructions: 480000000 cycles: 854807219 heartbeat IPC: 0.331208 cumulative IPC: 0.351348 (Simulation time: 2 hr 12 min 47 sec) 
Heartbeat CPU 0 instructions: 700000000 cycles: 871194259 heartbeat IPC: 0.574485 cumulative IPC: 0.578978 (Simulation time: 2 hr 14 min 47 sec) 
Heartbeat CPU 3 instructions: 540000000 cycles: 872766377 heartbeat IPC: 0.397182 cumulative IPC: 0.395309 (Simulation time: 2 hr 14 min 59 sec) 
Heartbeat CPU 2 instructions: 370000000 cycles: 883734445 heartbeat IPC: 0.229756 cumulative IPC: 0.231239 (Simulation time: 2 hr 16 min 21 sec) 
Heartbeat CPU 1 instructions: 490000000 cycles: 884754748 heartbeat IPC: 0.333917 cumulative IPC: 0.350639 (Simulation time: 2 hr 16 min 29 sec) 
Heartbeat CPU 0 instructions: 710000001 cycles: 888358715 heartbeat IPC: 0.582599 cumulative IPC: 0.579062 (Simulation time: 2 hr 16 min 57 sec) 
Heartbeat CPU 3 instructions: 550000003 cycles: 896846381 heartbeat IPC: 0.415282 cumulative IPC: 0.395952 (Simulation time: 2 hr 18 min 0 sec) 
Heartbeat CPU 0 instructions: 720000000 cycles: 905848959 heartbeat IPC: 0.571747 cumulative IPC: 0.578893 (Simulation time: 2 hr 19 min 4 sec) 
Heartbeat CPU 1 instructions: 500000000 cycles: 914484013 heartbeat IPC: 0.336369 cumulative IPC: 0.350085 (Simulation time: 2 hr 20 min 9 sec) 
Heartbeat CPU 3 instructions: 560000000 cycles: 920092376 heartbeat IPC: 0.430182 cumulative IPC: 0.396983 (Simulation time: 2 hr 20 min 51 sec) 
Heartbeat CPU 0 instructions: 730000002 cycles: 923158327 heartbeat IPC: 0.577722 cumulative IPC: 0.578867 (Simulation time: 2 hr 21 min 13 sec) 
Heartbeat CPU 2 instructions: 380000000 cycles: 926980346 heartbeat IPC: 0.231236 cumulative IPC: 0.231239 (Simulation time: 2 hr 21 min 44 sec) 
Heartbeat CPU 3 instructions: 570000003 cycles: 935912587 heartbeat IPC: 0.632103 cumulative IPC: 0.401708 (Simulation time: 2 hr 22 min 57 sec) 
Heartbeat CPU 1 instructions: 510000000 cycles: 940083233 heartbeat IPC: 0.390637 cumulative IPC: 0.351396 (Simulation time: 2 hr 23 min 31 sec) 
Heartbeat CPU 0 instructions: 740000000 cycles: 940546637 heartbeat IPC: 0.575099 cumulative IPC: 0.578784 (Simulation time: 2 hr 23 min 34 sec) 
Heartbeat CPU 3 instructions: 580000000 cycles: 951830438 heartbeat IPC: 0.628225 cumulative IPC: 0.406196 (Simulation time: 2 hr 25 min 3 sec) 
Heartbeat CPU 0 instructions: 750000000 cycles: 958062697 heartbeat IPC: 0.570905 cumulative IPC: 0.578614 (Simulation time: 2 hr 25 min 52 sec) 
Heartbeat CPU 1 instructions: 520000000 cycles: 965234727 heartbeat IPC: 0.397591 cumulative IPC: 0.352819 (Simulation time: 2 hr 26 min 47 sec) 
Heartbeat CPU 3 instructions: 590000000 cycles: 969154744 heartbeat IPC: 0.577224 cumulative IPC: 0.409807 (Simulation time: 2 hr 27 min 17 sec) 
Heartbeat CPU 2 instructions: 390000000 cycles: 970198599 heartbeat IPC: 0.231384 cumulative IPC: 0.231246 (Simulation time: 2 hr 27 min 25 sec) 
Heartbeat CPU 0 instructions: 760000000 cycles: 975456280 heartbeat IPC: 0.574925 cumulative IPC: 0.578536 (Simulation time: 2 hr 28 min 6 sec) 
Heartbeat CPU 3 instructions: 600000000 cycles: 988223430 heartbeat IPC: 0.52442 cumulative IPC: 0.41241 (Simulation time: 2 hr 29 min 43 sec) 
Heartbeat CPU 0 instructions: 770000000 cycles: 992750632 heartbeat IPC: 0.578223 cumulative IPC: 0.57853 (Simulation time: 2 hr 30 min 16 sec) 
Heartbeat CPU 1 instructions: 530000001 cycles: 994412763 heartbeat IPC: 0.342724 cumulative IPC: 0.352471 (Simulation time: 2 hr 30 min 28 sec) 
Heartbeat CPU 0 instructions: 780000000 cycles: 1010106737 heartbeat IPC: 0.576166 cumulative IPC: 0.578482 (Simulation time: 2 hr 32 min 24 sec) 
Heartbeat CPU 3 instructions: 610000000 cycles: 1011028101 heartbeat IPC: 0.438507 cumulative IPC: 0.4131 (Simulation time: 2 hr 32 min 30 sec) 
Heartbeat CPU 2 instructions: 400000000 cycles: 1013169159 heartbeat IPC: 0.232717 cumulative IPC: 0.23132 (Simulation time: 2 hr 32 min 45 sec) 
Heartbeat CPU 1 instructions: 540000000 cycles: 1022133761 heartbeat IPC: 0.360737 cumulative IPC: 0.352733 (Simulation time: 2 hr 33 min 44 sec) 
Heartbeat CPU 0 instructions: 790000000 cycles: 1027792377 heartbeat IPC: 0.56543 cumulative IPC: 0.57822 (Simulation time: 2 hr 34 min 23 sec) 
Heartbeat CPU 3 instructions: 620000000 cycles: 1042218944 heartbeat IPC: 0.320607 cumulative IPC: 0.409872 (Simulation time: 2 hr 35 min 53 sec) 
Heartbeat CPU 0 instructions: 800000000 cycles: 1045955478 heartbeat IPC: 0.550567 cumulative IPC: 0.57766 (Simulation time: 2 hr 36 min 19 sec) 
Heartbeat CPU 1 instructions: 550000000 cycles: 1051583126 heartbeat IPC: 0.339566 cumulative IPC: 0.352304 (Simulation time: 2 hr 37 min 0 sec) 
Heartbeat CPU 2 instructions: 410000000 cycles: 1056744427 heartbeat IPC: 0.229488 cumulative IPC: 0.231232 (Simulation time: 2 hr 37 min 35 sec) 
Heartbeat CPU 0 instructions: 810000000 cycles: 1063577076 heartbeat IPC: 0.567485 cumulative IPC: 0.577464 (Simulation time: 2 hr 38 min 23 sec) 
Heartbeat CPU 1 instructions: 560000000 cycles: 1073557591 heartbeat IPC: 0.455074 cumulative IPC: 0.354745 (Simulation time: 2 hr 39 min 32 sec) 
Heartbeat CPU 3 instructions: 630000002 cycles: 1074482003 heartbeat IPC: 0.309952 cumulative IPC: 0.40639 (Simulation time: 2 hr 39 min 39 sec) 
Heartbeat CPU 0 instructions: 820000000 cycles: 1081196353 heartbeat IPC: 0.56756 cumulative IPC: 0.577277 (Simulation time: 2 hr 40 min 25 sec) 
Heartbeat CPU 0 instructions: 830000002 cycles: 1098702495 heartbeat IPC: 0.571228 cumulative IPC: 0.577166 (Simulation time: 2 hr 42 min 26 sec) 
Heartbeat CPU 1 instructions: 570000001 cycles: 1100345223 heartbeat IPC: 0.373307 cumulative IPC: 0.355268 (Simulation time: 2 hr 42 min 38 sec) 
Heartbeat CPU 2 instructions: 420000000 cycles: 1100662753 heartbeat IPC: 0.227695 cumulative IPC: 0.231069 (Simulation time: 2 hr 42 min 40 sec) 
Heartbeat CPU 3 instructions: 640000000 cycles: 1107140394 heartbeat IPC: 0.3062 cumulative IPC: 0.402977 (Simulation time: 2 hr 43 min 24 sec) 
Heartbeat CPU 0 instructions: 840000000 cycles: 1116392331 heartbeat IPC: 0.565296 cumulative IPC: 0.576949 (Simulation time: 2 hr 44 min 26 sec) 
Heartbeat CPU 1 instructions: 580000000 cycles: 1131575986 heartbeat IPC: 0.320197 cumulative IPC: 0.354153 (Simulation time: 2 hr 46 min 14 sec) 
Heartbeat CPU 0 instructions: 850000000 cycles: 1133788670 heartbeat IPC: 0.574834 cumulative IPC: 0.576911 (Simulation time: 2 hr 46 min 31 sec) 
Heartbeat CPU 3 instructions: 650000000 cycles: 1136598081 heartbeat IPC: 0.33947 cumulative IPC: 0.401083 (Simulation time: 2 hr 46 min 52 sec) 
Heartbeat CPU 2 instructions: 430000000 cycles: 1144686659 heartbeat IPC: 0.227149 cumulative IPC: 0.230895 (Simulation time: 2 hr 47 min 48 sec) 
Heartbeat CPU 0 instructions: 860000000 cycles: 1151307693 heartbeat IPC: 0.570808 cumulative IPC: 0.576805 (Simulation time: 2 hr 48 min 35 sec) 
Heartbeat CPU 1 instructions: 590000000 cycles: 1161851319 heartbeat IPC: 0.330302 cumulative IPC: 0.353441 (Simulation time: 2 hr 49 min 50 sec) 
Heartbeat CPU 3 instructions: 660000000 cycles: 1163865700 heartbeat IPC: 0.366735 cumulative IPC: 0.400161 (Simulation time: 2 hr 50 min 5 sec) 
Heartbeat CPU 0 instructions: 870000001 cycles: 1168629723 heartbeat IPC: 0.5773 cumulative IPC: 0.576813 (Simulation time: 2 hr 50 min 41 sec) 
Heartbeat CPU 0 instructions: 880000000 cycles: 1186416172 heartbeat IPC: 0.562226 cumulative IPC: 0.576563 (Simulation time: 2 hr 52 min 46 sec) 
Heartbeat CPU 2 instructions: 440000000 cycles: 1188738058 heartbeat IPC: 0.227008 cumulative IPC: 0.230731 (Simulation time: 2 hr 53 min 3 sec) 
Heartbeat CPU 3 instructions: 670000003 cycles: 1189500616 heartbeat IPC: 0.390093 cumulative IPC: 0.399913 (Simulation time: 2 hr 53 min 8 sec) 
Heartbeat CPU 1 instructions: 600000000 cycles: 1191516627 heartbeat IPC: 0.337094 cumulative IPC: 0.352976 (Simulation time: 2 hr 53 min 23 sec) 
Heartbeat CPU 0 instructions: 890000001 cycles: 1203619256 heartbeat IPC: 0.581291 cumulative IPC: 0.57664 (Simulation time: 2 hr 54 min 52 sec) 
Heartbeat CPU 3 instructions: 680000000 cycles: 1212659159 heartbeat IPC: 0.431806 cumulative IPC: 0.400607 (Simulation time: 2 hr 55 min 57 sec) 
Heartbeat CPU 0 instructions: 900000000 cycles: 1221493040 heartbeat IPC: 0.559479 cumulative IPC: 0.576354 (Simulation time: 2 hr 57 min 2 sec) 
Heartbeat CPU 1 instructions: 610000000 cycles: 1222612328 heartbeat IPC: 0.321588 cumulative IPC: 0.352067 (Simulation time: 2 hr 57 min 11 sec) 
Heartbeat CPU 3 instructions: 690000000 cycles: 1229067971 heartbeat IPC: 0.609429 cumulative IPC: 0.403778 (Simulation time: 2 hr 58 min 0 sec) 
Heartbeat CPU 2 instructions: 450000000 cycles: 1232681872 heartbeat IPC: 0.227563 cumulative IPC: 0.230602 (Simulation time: 2 hr 58 min 27 sec) 
Heartbeat CPU 0 instructions: 910000003 cycles: 1239251667 heartbeat IPC: 0.563107 cumulative IPC: 0.576139 (Simulation time: 2 hr 59 min 19 sec) 
Heartbeat CPU 3 instructions: 700000000 cycles: 1247323146 heartbeat IPC: 0.54779 cumulative IPC: 0.406171 (Simulation time: 3 hr 0 min 19 sec) 
Heartbeat CPU 1 instructions: 620000000 cycles: 1248230008 heartbeat IPC: 0.390355 cumulative IPC: 0.352959 (Simulation time: 3 hr 0 min 25 sec) 
Heartbeat CPU 0 instructions: 920000000 cycles: 1257138193 heartbeat IPC: 0.55908 cumulative IPC: 0.575863 (Simulation time: 3 hr 1 min 30 sec) 
Heartbeat CPU 3 instructions: 710000001 cycles: 1269642010 heartbeat IPC: 0.448052 cumulative IPC: 0.407005 (Simulation time: 3 hr 2 min 57 sec) 
Heartbeat CPU 1 instructions: 630000000 cycles: 1274086348 heartbeat IPC: 0.386752 cumulative IPC: 0.353735 (Simulation time: 3 hr 3 min 27 sec) 
Heartbeat CPU 0 instructions: 930000002 cycles: 1275094480 heartbeat IPC: 0.556908 cumulative IPC: 0.575561 (Simulation time: 3 hr 3 min 34 sec) 
Heartbeat CPU 2 instructions: 460000000 cycles: 1276700587 heartbeat IPC: 0.227176 cumulative IPC: 0.230469 (Simulation time: 3 hr 3 min 44 sec) 
Heartbeat CPU 0 instructions: 940000000 cycles: 1292643794 heartbeat IPC: 0.569823 cumulative IPC: 0.575473 (Simulation time: 3 hr 5 min 34 sec) 
Heartbeat CPU 3 instructions: 720000000 cycles: 1301386930 heartbeat IPC: 0.315011 cumulative IPC: 0.404471 (Simulation time: 3 hr 6 min 38 sec) 
Heartbeat CPU 1 instructions: 640000000 cycles: 1305028977 heartbeat IPC: 0.323179 cumulative IPC: 0.352918 (Simulation time: 3 hr 7 min 5 sec) 
Heartbeat CPU 0 instructions: 950000000 cycles: 1309876576 heartbeat IPC: 0.580289 cumulative IPC: 0.575545 (Simulation time: 3 hr 7 min 40 sec) 
Heartbeat CPU 2 instructions: 470000000 cycles: 1320052831 heartbeat IPC: 0.230669 cumulative IPC: 0.230476 (Simulation time: 3 hr 8 min 55 sec) 
Heartbeat CPU 0 instructions: 960000000 cycles: 1327433762 heartbeat IPC: 0.569567 cumulative IPC: 0.575456 (Simulation time: 3 hr 9 min 48 sec) 
Heartbeat CPU 3 instructions: 730000000 cycles: 1331480669 heartbeat IPC: 0.332295 cumulative IPC: 0.402635 (Simulation time: 3 hr 10 min 14 sec) 
Heartbeat CPU 1 instructions: 650000002 cycles: 1332539023 heartbeat IPC: 0.363504 cumulative IPC: 0.353164 (Simulation time: 3 hr 10 min 22 sec) 
Heartbeat CPU 0 instructions: 970000001 cycles: 1345075795 heartbeat IPC: 0.566828 cumulative IPC: 0.575328 (Simulation time: 3 hr 11 min 47 sec) 
Heartbeat CPU 0 instructions: 980000000 cycles: 1362510088 heartbeat IPC: 0.573582 cumulative IPC: 0.575303 (Simulation time: 3 hr 13 min 51 sec) 
Heartbeat CPU 1 instructions: 660000000 cycles: 1363375671 heartbeat IPC: 0.324289 cumulative IPC: 0.352431 (Simulation time: 3 hr 13 min 57 sec) 
Heartbeat CPU 2 instructions: 480000000 cycles: 1363675314 heartbeat IPC: 0.22924 cumulative IPC: 0.230432 (Simulation time: 3 hr 13 min 59 sec) 
Heartbeat CPU 3 instructions: 740000000 cycles: 1364139960 heartbeat IPC: 0.306192 cumulative IPC: 0.400044 (Simulation time: 3 hr 14 min 3 sec) 
Heartbeat CPU 0 instructions: 990000000 cycles: 1380184438 heartbeat IPC: 0.565792 cumulative IPC: 0.575167 (Simulation time: 3 hr 15 min 51 sec) 
Heartbeat CPU 1 instructions: 670000000 cycles: 1391635944 heartbeat IPC: 0.353854 cumulative IPC: 0.352463 (Simulation time: 3 hr 17 min 12 sec) 
Heartbeat CPU 0 instructions: 1000000000 cycles: 1397768813 heartbeat IPC: 0.568687 cumulative IPC: 0.575076 (Simulation time: 3 hr 17 min 54 sec) 
Heartbeat CPU 3 instructions: 750000002 cycles: 1397923675 heartbeat IPC: 0.296001 cumulative IPC: 0.397231 (Simulation time: 3 hr 17 min 55 sec) 
Heartbeat CPU 2 instructions: 490000000 cycles: 1408351784 heartbeat IPC: 0.223831 cumulative IPC: 0.230198 (Simulation time: 3 hr 19 min 7 sec) 
Heartbeat CPU 0 instructions: 1010000001 cycles: 1415296720 heartbeat IPC: 0.570519 cumulative IPC: 0.575013 (Simulation time: 3 hr 19 min 55 sec) 
Heartbeat CPU 1 instructions: 680000000 cycles: 1420199110 heartbeat IPC: 0.350101 cumulative IPC: 0.35241 (Simulation time: 3 hr 20 min 30 sec) 
Heartbeat CPU 3 instructions: 760000000 cycles: 1431960515 heartbeat IPC: 0.293799 cumulative IPC: 0.394488 (Simulation time: 3 hr 21 min 51 sec) 
Heartbeat CPU 0 instructions: 1020000000 cycles: 1432877750 heartbeat IPC: 0.568795 cumulative IPC: 0.574927 (Simulation time: 3 hr 21 min 57 sec) 
Heartbeat CPU 0 instructions: 1030000001 cycles: 1450672908 heartbeat IPC: 0.561951 cumulative IPC: 0.57475 (Simulation time: 3 hr 24 min 1 sec) 
Heartbeat CPU 2 instructions: 500000000 cycles: 1451673657 heartbeat IPC: 0.23083 cumulative IPC: 0.230219 (Simulation time: 3 hr 24 min 8 sec) 
Heartbeat CPU 1 instructions: 690000002 cycles: 1452139419 heartbeat IPC: 0.313084 cumulative IPC: 0.351446 (Simulation time: 3 hr 24 min 12 sec) 
Heartbeat CPU 3 instructions: 770000001 cycles: 1462628977 heartbeat IPC: 0.326068 cumulative IPC: 0.392891 (Simulation time: 3 hr 25 min 30 sec) 
Heartbeat CPU 0 instructions: 1040000000 cycles: 1467965213 heartbeat IPC: 0.578292 cumulative IPC: 0.574796 (Simulation time: 3 hr 26 min 9 sec) 
Heartbeat CPU 1 instructions: 700000000 cycles: 1482037728 heartbeat IPC: 0.334467 cumulative IPC: 0.351066 (Simulation time: 3 hr 27 min 49 sec) 
Heartbeat CPU 0 instructions: 1050000000 cycles: 1485553511 heartbeat IPC: 0.56856 cumulative IPC: 0.574714 (Simulation time: 3 hr 28 min 15 sec) 
Heartbeat CPU 3 instructions: 780000000 cycles: 1490592936 heartbeat IPC: 0.357603 cumulative IPC: 0.392155 (Simulation time: 3 hr 28 min 52 sec) 
Heartbeat CPU 2 instructions: 510000000 cycles: 1495502107 heartbeat IPC: 0.228162 cumulative IPC: 0.230152 (Simulation time: 3 hr 29 min 28 sec) 
Heartbeat CPU 0 instructions: 1060000000 cycles: 1502833468 heartbeat IPC: 0.578705 cumulative IPC: 0.574765 (Simulation time: 3 hr 30 min 22 sec) 
Heartbeat CPU 1 instructions: 710000000 cycles: 1512454860 heartbeat IPC: 0.328762 cumulative IPC: 0.350568 (Simulation time: 3 hr 31 min 32 sec) 
Heartbeat CPU 3 instructions: 790000000 cycles: 1516510896 heartbeat IPC: 0.385833 cumulative IPC: 0.392036 (Simulation time: 3 hr 32 min 2 sec) 
Heartbeat CPU 0 instructions: 1070000001 cycles: 1520245109 heartbeat IPC: 0.574328 cumulative IPC: 0.57476 (Simulation time: 3 hr 32 min 31 sec) 
Heartbeat CPU 3 instructions: 800000000 cycles: 1534697799 heartbeat IPC: 0.549846 cumulative IPC: 0.394106 (Simulation time: 3 hr 34 min 22 sec) 
Heartbeat CPU 0 instructions: 1080000000 cycles: 1537691796 heartbeat IPC: 0.573175 cumulative IPC: 0.57474 (Simulation time: 3 hr 34 min 44 sec) 
Heartbeat CPU 2 instructions: 520000000 cycles: 1538966207 heartbeat IPC: 0.230075 cumulative IPC: 0.230149 (Simulation time: 3 hr 34 min 54 sec) 
Heartbeat CPU 1 instructions: 720000000 cycles: 1543011704 heartbeat IPC: 0.327259 cumulative IPC: 0.350058 (Simulation time: 3 hr 35 min 24 sec) 
Heartbeat CPU 0 instructions: 1090000001 cycles: 1555282101 heartbeat IPC: 0.568495 cumulative IPC: 0.574662 (Simulation time: 3 hr 36 min 54 sec) 
Heartbeat CPU 3 instructions: 810000001 cycles: 1556771031 heartbeat IPC: 0.453037 cumulative IPC: 0.39503 (Simulation time: 3 hr 37 min 5 sec) 
Heartbeat CPU 0 instructions: 1100000000 cycles: 1572865394 heartbeat IPC: 0.568722 cumulative IPC: 0.574589 (Simulation time: 3 hr 38 min 55 sec) 
Heartbeat CPU 1 instructions: 730000000 cycles: 1573178699 heartbeat IPC: 0.331488 cumulative IPC: 0.349664 (Simulation time: 3 hr 38 min 58 sec) 
Heartbeat CPU 2 instructions: 530000001 cycles: 1581922220 heartbeat IPC: 0.232796 cumulative IPC: 0.230229 (Simulation time: 3 hr 40 min 0 sec) 
Heartbeat CPU 3 instructions: 820000000 cycles: 1589047704 heartbeat IPC: 0.309821 cumulative IPC: 0.393121 (Simulation time: 3 hr 40 min 51 sec) 
Heartbeat CPU 0 instructions: 1110000000 cycles: 1590341783 heartbeat IPC: 0.572201 cumulative IPC: 0.57456 (Simulation time: 3 hr 41 min 0 sec) 
Heartbeat CPU 1 instructions: 740000000 cycles: 1599431144 heartbeat IPC: 0.380917 cumulative IPC: 0.35023 (Simulation time: 3 hr 42 min 7 sec) 
Heartbeat CPU 0 instructions: 1120000000 cycles: 1607942321 heartbeat IPC: 0.568164 cumulative IPC: 0.574482 (Simulation time: 3 hr 43 min 10 sec) 
Heartbeat CPU 3 instructions: 830000000 cycles: 1617944025 heartbeat IPC: 0.346065 cumulative IPC: 0.392195 (Simulation time: 3 hr 44 min 19 sec) 
Heartbeat CPU 1 instructions: 750000002 cycles: 1623188717 heartbeat IPC: 0.420918 cumulative IPC: 0.351369 (Simulation time: 3 hr 44 min 57 sec) 
Heartbeat CPU 0 instructions: 1130000001 cycles: 1625980820 heartbeat IPC: 0.55437 cumulative IPC: 0.574237 (Simulation time: 3 hr 45 min 18 sec) 
Heartbeat CPU 2 instructions: 540000000 cycles: 1626136734 heartbeat IPC: 0.22617 cumulative IPC: 0.230107 (Simulation time: 3 hr 45 min 19 sec) 
Heartbeat CPU 0 instructions: 1140000000 cycles: 1643750050 heartbeat IPC: 0.562771 cumulative IPC: 0.574101 (Simulation time: 3 hr 47 min 25 sec) 
Heartbeat CPU 1 instructions: 760000000 cycles: 1647765394 heartbeat IPC: 0.40689 cumulative IPC: 0.352279 (Simulation time: 3 hr 47 min 54 sec) 
Heartbeat CPU 3 instructions: 840000000 cycles: 1651490690 heartbeat IPC: 0.298092 cumulative IPC: 0.390095 (Simulation time: 3 hr 48 min 21 sec) 
Heartbeat CPU 0 instructions: 1150000001 cycles: 1661330521 heartbeat IPC: 0.568813 cumulative IPC: 0.574039 (Simulation time: 3 hr 49 min 32 sec) 
Heartbeat CPU 2 instructions: 550000000 cycles: 1669943666 heartbeat IPC: 0.228274 cumulative IPC: 0.230054 (Simulation time: 3 hr 50 min 33 sec) 
Heartbeat CPU 1 instructions: 770000002 cycles: 1676940968 heartbeat IPC: 0.342753 cumulative IPC: 0.352097 (Simulation time: 3 hr 51 min 25 sec) 
Heartbeat CPU 0 instructions: 1160000000 cycles: 1679070071 heartbeat IPC: 0.563712 cumulative IPC: 0.573919 (Simulation time: 3 hr 51 min 41 sec) 
Heartbeat CPU 3 instructions: 850000000 cycles: 1681165269 heartbeat IPC: 0.336989 cumulative IPC: 0.389067 (Simulation time: 3 hr 51 min 55 sec) 
Heartbeat CPU 0 instructions: 1170000002 cycles: 1696862645 heartbeat IPC: 0.562032 cumulative IPC: 0.573783 (Simulation time: 3 hr 53 min 52 sec) 
Heartbeat CPU 1 instructions: 780000000 cycles: 1705745851 heartbeat IPC: 0.347163 cumulative IPC: 0.352006 (Simulation time: 3 hr 54 min 58 sec) 
Heartbeat CPU 3 instructions: 860000000 cycles: 1706377673 heartbeat IPC: 0.39663 cumulative IPC: 0.389189 (Simulation time: 3 hr 55 min 2 sec) 
Heartbeat CPU 2 instructions: 560000000 cycles: 1713416363 heartbeat IPC: 0.230029 cumulative IPC: 0.230054 (Simulation time: 3 hr 55 min 52 sec) 
Heartbeat CPU 0 instructions: 1180000000 cycles: 1714553843 heartbeat IPC: 0.565253 cumulative IPC: 0.573686 (Simulation time: 3 hr 56 min 0 sec) 
Heartbeat CPU 0 instructions: 1190000003 cycles: 1732163037 heartbeat IPC: 0.567885 cumulative IPC: 0.573622 (Simulation time: 3 hr 58 min 4 sec) 
Heartbeat CPU 1 instructions: 790000000 cycles: 1734278724 heartbeat IPC: 0.350473 cumulative IPC: 0.351978 (Simulation time: 3 hr 58 min 19 sec) 
Heartbeat CPU 3 instructions: 870000000 cycles: 1738074699 heartbeat IPC: 0.315487 cumulative IPC: 0.387719 (Simulation time: 3 hr 58 min 46 sec) 
Heartbeat CPU 0 instructions: 1200000000 cycles: 1749881341 heartbeat IPC: 0.564388 cumulative IPC: 0.57352 (Simulation time: 4 hr 0 min 11 sec) 
Heartbeat CPU 2 instructions: 570000001 cycles: 1757487370 heartbeat IPC: 0.226907 cumulative IPC: 0.229967 (Simulation time: 4 hr 1 min 5 sec) 
Heartbeat CPU 1 instructions: 800000000 cycles: 1763699613 heartbeat IPC: 0.339895 cumulative IPC: 0.351758 (Simulation time: 4 hr 1 min 50 sec) 
Heartbeat CPU 3 instructions: 880000000 cycles: 1766473932 heartbeat IPC: 0.352122 cumulative IPC: 0.387094 (Simulation time: 4 hr 2 min 11 sec) 
Heartbeat CPU 0 instructions: 1210000000 cycles: 1767623960 heartbeat IPC: 0.563615 cumulative IPC: 0.573411 (Simulation time: 4 hr 2 min 20 sec) 
Heartbeat CPU 0 instructions: 1220000000 cycles: 1785351702 heartbeat IPC: 0.564088 cumulative IPC: 0.57331 (Simulation time: 4 hr 4 min 32 sec) 
Heartbeat CPU 3 instructions: 890000000 cycles: 1788551432 heartbeat IPC: 0.45295 cumulative IPC: 0.387981 (Simulation time: 4 hr 4 min 55 sec) 
Heartbeat CPU 1 instructions: 810000001 cycles: 1793106436 heartbeat IPC: 0.340057 cumulative IPC: 0.351549 (Simulation time: 4 hr 5 min 27 sec) 
Heartbeat CPU 2 instructions: 580000000 cycles: 1800853597 heartbeat IPC: 0.230594 cumulative IPC: 0.229984 (Simulation time: 4 hr 6 min 23 sec) 
Heartbeat CPU 0 instructions: 1230000002 cycles: 1803244939 heartbeat IPC: 0.55887 cumulative IPC: 0.573154 (Simulation time: 4 hr 6 min 40 sec) 
Heartbeat CPU 1 instructions: 820000000 cycles: 1818779808 heartbeat IPC: 0.389509 cumulative IPC: 0.352132 (Simulation time: 4 hr 8 min 31 sec) 
Heartbeat CPU 0 instructions: 1240000000 cycles: 1821012331 heartbeat IPC: 0.562829 cumulative IPC: 0.573044 (Simulation time: 4 hr 8 min 46 sec) 
Heartbeat CPU 3 instructions: 900000000 cycles: 1821964924 heartbeat IPC: 0.29928 cumulative IPC: 0.38621 (Simulation time: 4 hr 8 min 53 sec) 
Heartbeat CPU 0 instructions: 1250000003 cycles: 1838710289 heartbeat IPC: 0.565037 cumulative IPC: 0.572961 (Simulation time: 4 hr 10 min 55 sec) 
Heartbeat CPU 2 instructions: 590000002 cycles: 1844739241 heartbeat IPC: 0.227865 cumulative IPC: 0.229929 (Simulation time: 4 hr 11 min 37 sec) 
Heartbeat CPU 1 instructions: 830000000 cycles: 1846460869 heartbeat IPC: 0.361258 cumulative IPC: 0.352281 (Simulation time: 4 hr 11 min 49 sec) 
Heartbeat CPU 3 instructions: 910000000 cycles: 1852952867 heartbeat IPC: 0.322706 cumulative IPC: 0.385055 (Simulation time: 4 hr 12 min 35 sec) 
Heartbeat CPU 0 instructions: 1260000000 cycles: 1856733060 heartbeat IPC: 0.554853 cumulative IPC: 0.57277 (Simulation time: 4 hr 13 min 3 sec) 
Heartbeat CPU 0 instructions: 1270000000 cycles: 1874482535 heartbeat IPC: 0.563397 cumulative IPC: 0.572673 (Simulation time: 4 hr 15 min 15 sec) 
Heartbeat CPU 1 instructions: 840000000 cycles: 1875305862 heartbeat IPC: 0.346681 cumulative IPC: 0.352188 (Simulation time: 4 hr 15 min 21 sec) 
Heartbeat CPU 3 instructions: 920000000 cycles: 1881035985 heartbeat IPC: 0.356086 cumulative IPC: 0.384586 (Simulation time: 4 hr 16 min 3 sec) 
Heartbeat CPU 2 instructions: 600000000 cycles: 1888034870 heartbeat IPC: 0.23097 cumulative IPC: 0.229955 (Simulation time: 4 hr 16 min 56 sec) 
Heartbeat CPU 0 instructions: 1280000000 cycles: 1892311555 heartbeat IPC: 0.560883 cumulative IPC: 0.572553 (Simulation time: 4 hr 17 min 29 sec) 
Finished CPU 0 instructions: 1000000001 cycles: 1746621589 cumulative IPC: 0.572534 (Simulation time: 4 hr 17 min 53 sec) 
Heartbeat CPU 1 instructions: 850000000 cycles: 1898971014 heartbeat IPC: 0.422562 cumulative IPC: 0.353139 (Simulation time: 4 hr 18 min 23 sec) 
Heartbeat CPU 3 instructions: 930000003 cycles: 1902910408 heartbeat IPC: 0.457155 cumulative IPC: 0.385491 (Simulation time: 4 hr 18 min 54 sec) 
Heartbeat CPU 0 instructions: 1290000002 cycles: 1910128286 heartbeat IPC: 0.56127 cumulative IPC: 0.572438 (Simulation time: 4 hr 19 min 49 sec) 
Heartbeat CPU 1 instructions: 860000000 cycles: 1925042164 heartbeat IPC: 0.383566 cumulative IPC: 0.353586 (Simulation time: 4 hr 21 min 41 sec) 
Heartbeat CPU 0 instructions: 1300000000 cycles: 1927997011 heartbeat IPC: 0.559637 cumulative IPC: 0.57231 (Simulation time: 4 hr 22 min 2 sec) 
Heartbeat CPU 3 instructions: 940000000 cycles: 1928429700 heartbeat IPC: 0.39186 cumulative IPC: 0.385582 (Simulation time: 4 hr 22 min 5 sec) 
Heartbeat CPU 2 instructions: 610000000 cycles: 1931259439 heartbeat IPC: 0.23135 cumulative IPC: 0.229989 (Simulation time: 4 hr 22 min 23 sec) 
Heartbeat CPU 0 instructions: 1310000000 cycles: 1945998733 heartbeat IPC: 0.555502 cumulative IPC: 0.572142 (Simulation time: 4 hr 24 min 8 sec) 
Heartbeat CPU 1 instructions: 870000000 cycles: 1952346721 heartbeat IPC: 0.366239 cumulative IPC: 0.353777 (Simulation time: 4 hr 24 min 54 sec) 
Heartbeat CPU 3 instructions: 950000002 cycles: 1960163688 heartbeat IPC: 0.31512 cumulative IPC: 0.384348 (Simulation time: 4 hr 25 min 53 sec) 
Heartbeat CPU 0 instructions: 1320000000 cycles: 1963732531 heartbeat IPC: 0.563895 cumulative IPC: 0.572061 (Simulation time: 4 hr 26 min 19 sec) 
Heartbeat CPU 2 instructions: 620000000 cycles: 1974935074 heartbeat IPC: 0.228961 cumulative IPC: 0.229964 (Simulation time: 4 hr 27 min 45 sec) 
Heartbeat CPU 1 instructions: 880000000 cycles: 1977818484 heartbeat IPC: 0.392592 cumulative IPC: 0.354318 (Simulation time: 4 hr 28 min 2 sec) 
Heartbeat CPU 0 instructions: 1330000002 cycles: 1981831112 heartbeat IPC: 0.55253 cumulative IPC: 0.571868 (Simulation time: 4 hr 28 min 30 sec) 
Heartbeat CPU 3 instructions: 960000000 cycles: 1990032798 heartbeat IPC: 0.334794 cumulative IPC: 0.383544 (Simulation time: 4 hr 29 min 29 sec) 
Heartbeat CPU 0 instructions: 1340000000 cycles: 1999826977 heartbeat IPC: 0.555683 cumulative IPC: 0.571711 (Simulation time: 4 hr 30 min 40 sec) 
Heartbeat CPU 1 instructions: 890000001 cycles: 2004292830 heartbeat IPC: 0.377724 cumulative IPC: 0.354651 (Simulation time: 4 hr 31 min 13 sec) 
Heartbeat CPU 0 instructions: 1350000002 cycles: 2017668695 heartbeat IPC: 0.560484 cumulative IPC: 0.571604 (Simulation time: 4 hr 32 min 53 sec) 
Heartbeat CPU 2 instructions: 630000001 cycles: 2018717998 heartbeat IPC: 0.2284 cumulative IPC: 0.229928 (Simulation time: 4 hr 33 min 1 sec) 
Heartbeat CPU 3 instructions: 970000000 cycles: 2020135440 heartbeat IPC: 0.332197 cumulative IPC: 0.382718 (Simulation time: 4 hr 33 min 12 sec) 
Heartbeat CPU 1 instructions: 900000000 cycles: 2031366111 heartbeat IPC: 0.369368 cumulative IPC: 0.354863 (Simulation time: 4 hr 34 min 31 sec) 
Heartbeat CPU 0 instructions: 1360000000 cycles: 2035812410 heartbeat IPC: 0.551155 cumulative IPC: 0.571407 (Simulation time: 4 hr 35 min 4 sec) 
Heartbeat CPU 3 instructions: 980000000 cycles: 2047779728 heartbeat IPC: 0.361738 cumulative IPC: 0.382413 (Simulation time: 4 hr 36 min 32 sec) 
Heartbeat CPU 0 instructions: 1370000001 cycles: 2053792862 heartbeat IPC: 0.55616 cumulative IPC: 0.571263 (Simulation time: 4 hr 37 min 18 sec) 
Heartbeat CPU 1 instructions: 910000001 cycles: 2056730633 heartbeat IPC: 0.394251 cumulative IPC: 0.355387 (Simulation time: 4 hr 37 min 40 sec) 
Heartbeat CPU 2 instructions: 640000000 cycles: 2062854589 heartbeat IPC: 0.226569 cumulative IPC: 0.22985 (Simulation time: 4 hr 38 min 27 sec) 
Heartbeat CPU 0 instructions: 1380000000 cycles: 2071784800 heartbeat IPC: 0.555804 cumulative IPC: 0.571119 (Simulation time: 4 hr 39 min 34 sec) 
Heartbeat CPU 3 instructions: 990000000 cycles: 2073721542 heartbeat IPC: 0.385478 cumulative IPC: 0.382454 (Simulation time: 4 hr 39 min 48 sec) 
Heartbeat CPU 1 instructions: 920000000 cycles: 2084226305 heartbeat IPC: 0.363694 cumulative IPC: 0.355505 (Simulation time: 4 hr 41 min 7 sec) 
Heartbeat CPU 0 instructions: 1390000003 cycles: 2089947746 heartbeat IPC: 0.550572 cumulative IPC: 0.570926 (Simulation time: 4 hr 41 min 51 sec) 
Heartbeat CPU 3 instructions: 1000000000 cycles: 2092766915 heartbeat IPC: 0.525062 cumulative IPC: 0.383851 (Simulation time: 4 hr 42 min 12 sec) 
Heartbeat CPU 2 instructions: 650000000 cycles: 2106737416 heartbeat IPC: 0.22788 cumulative IPC: 0.229806 (Simulation time: 4 hr 43 min 59 sec) 
Heartbeat CPU 0 instructions: 1400000000 cycles: 2108134855 heartbeat IPC: 0.54984 cumulative IPC: 0.570731 (Simulation time: 4 hr 44 min 9 sec) 
Heartbeat CPU 3 instructions: 1010000000 cycles: 2112054672 heartbeat IPC: 0.518464 cumulative IPC: 0.385173 (Simulation time: 4 hr 44 min 38 sec) 
Heartbeat CPU 1 instructions: 930000000 cycles: 2113944833 heartbeat IPC: 0.33649 cumulative IPC: 0.355217 (Simulation time: 4 hr 44 min 52 sec) 
Heartbeat CPU 0 instructions: 1410000002 cycles: 2126184579 heartbeat IPC: 0.554025 cumulative IPC: 0.570578 (Simulation time: 4 hr 46 min 20 sec) 
Heartbeat CPU 3 instructions: 1020000000 cycles: 2138987898 heartbeat IPC: 0.371289 cumulative IPC: 0.384985 (Simulation time: 4 hr 47 min 51 sec) 
Heartbeat CPU 1 instructions: 940000000 cycles: 2140154291 heartbeat IPC: 0.381542 cumulative IPC: 0.355564 (Simulation time: 4 hr 47 min 58 sec) 
Heartbeat CPU 0 instructions: 1420000000 cycles: 2144112954 heartbeat IPC: 0.557775 cumulative IPC: 0.570463 (Simulation time: 4 hr 48 min 27 sec) 
Heartbeat CPU 2 instructions: 660000000 cycles: 2150214759 heartbeat IPC: 0.230005 cumulative IPC: 0.22981 (Simulation time: 4 hr 49 min 11 sec) 
Heartbeat CPU 0 instructions: 1430000001 cycles: 2162030428 heartbeat IPC: 0.558114 cumulative IPC: 0.570353 (Simulation time: 4 hr 50 min 37 sec) 
Heartbeat CPU 1 instructions: 950000002 cycles: 2167434424 heartbeat IPC: 0.366567 cumulative IPC: 0.355712 (Simulation time: 4 hr 51 min 17 sec) 
Heartbeat CPU 3 instructions: 1030000003 cycles: 2170532719 heartbeat IPC: 0.317009 cumulative IPC: 0.383925 (Simulation time: 4 hr 51 min 40 sec) 
Heartbeat CPU 0 instructions: 1440000000 cycles: 2180164477 heartbeat IPC: 0.551449 cumulative IPC: 0.570185 (Simulation time: 4 hr 52 min 47 sec) 
Heartbeat CPU 2 instructions: 670000003 cycles: 2193678464 heartbeat IPC: 0.230077 cumulative IPC: 0.229816 (Simulation time: 4 hr 54 min 24 sec) 
Heartbeat CPU 1 instructions: 960000000 cycles: 2196208824 heartbeat IPC: 0.347531 cumulative IPC: 0.355597 (Simulation time: 4 hr 54 min 44 sec) 
Heartbeat CPU 3 instructions: 1040000000 cycles: 2198088183 heartbeat IPC: 0.362904 cumulative IPC: 0.383642 (Simulation time: 4 hr 54 min 57 sec) 
Heartbeat CPU 0 instructions: 1450000000 cycles: 2198462662 heartbeat IPC: 0.546502 cumulative IPC: 0.569973 (Simulation time: 4 hr 55 min 0 sec) 
Heartbeat CPU 0 instructions: 1460000000 cycles: 2216799306 heartbeat IPC: 0.545356 cumulative IPC: 0.569755 (Simulation time: 4 hr 57 min 17 sec) 
Heartbeat CPU 3 instructions: 1050000000 cycles: 2222268078 heartbeat IPC: 0.413567 cumulative IPC: 0.383991 (Simulation time: 4 hr 57 min 56 sec) 
Heartbeat CPU 1 instructions: 970000000 cycles: 2223140273 heartbeat IPC: 0.371313 cumulative IPC: 0.355801 (Simulation time: 4 hr 58 min 2 sec) 
Heartbeat CPU 0 instructions: 1470000003 cycles: 2234967951 heartbeat IPC: 0.550399 cumulative IPC: 0.569586 (Simulation time: 4 hr 59 min 28 sec) 
Heartbeat CPU 2 instructions: 680000000 cycles: 2237135533 heartbeat IPC: 0.230112 cumulative IPC: 0.229822 (Simulation time: 4 hr 59 min 44 sec) 
Heartbeat CPU 1 instructions: 980000000 cycles: 2247796582 heartbeat IPC: 0.405576 cumulative IPC: 0.356386 (Simulation time: 5 hr 1 min 2 sec) 
Heartbeat CPU 0 instructions: 1480000000 cycles: 2253174339 heartbeat IPC: 0.549258 cumulative IPC: 0.569411 (Simulation time: 5 hr 1 min 42 sec) 
Heartbeat CPU 3 instructions: 1060000000 cycles: 2254279514 heartbeat IPC: 0.312388 cumulative IPC: 0.382903 (Simulation time: 5 hr 1 min 51 sec) 
Heartbeat CPU 0 instructions: 1490000001 cycles: 2271415655 heartbeat IPC: 0.548206 cumulative IPC: 0.569228 (Simulation time: 5 hr 3 min 56 sec) 
Heartbeat CPU 1 instructions: 990000003 cycles: 2275396568 heartbeat IPC: 0.362319 cumulative IPC: 0.356463 (Simulation time: 5 hr 4 min 24 sec) 
Heartbeat CPU 2 instructions: 690000000 cycles: 2280507297 heartbeat IPC: 0.230565 cumulative IPC: 0.229837 (Simulation time: 5 hr 5 min 3 sec) 
Heartbeat CPU 3 instructions: 1070000002 cycles: 2282711477 heartbeat IPC: 0.351717 cumulative IPC: 0.382487 (Simulation time: 5 hr 5 min 19 sec) 
Heartbeat CPU 0 instructions: 1500000000 cycles: 2289735473 heartbeat IPC: 0.545857 cumulative IPC: 0.569028 (Simulation time: 5 hr 6 min 12 sec) 
Heartbeat CPU 1 instructions: 1000000000 cycles: 2299594039 heartbeat IPC: 0.413266 cumulative IPC: 0.357102 (Simulation time: 5 hr 7 min 28 sec) 
Heartbeat CPU 3 instructions: 1080000000 cycles: 2304491842 heartbeat IPC: 0.459129 cumulative IPC: 0.383261 (Simulation time: 5 hr 8 min 6 sec) 
Heartbeat CPU 0 instructions: 1510000000 cycles: 2308076310 heartbeat IPC: 0.545231 cumulative IPC: 0.568826 (Simulation time: 5 hr 8 min 34 sec) 
Heartbeat CPU 2 instructions: 700000000 cycles: 2323836424 heartbeat IPC: 0.230792 cumulative IPC: 0.229856 (Simulation time: 5 hr 10 min 29 sec) 
Heartbeat CPU 1 instructions: 1010000002 cycles: 2324369797 heartbeat IPC: 0.40362 cumulative IPC: 0.357632 (Simulation time: 5 hr 10 min 33 sec) 
Heartbeat CPU 0 instructions: 1520000000 cycles: 2326323669 heartbeat IPC: 0.548025 cumulative IPC: 0.568652 (Simulation time: 5 hr 10 min 48 sec) 
Heartbeat CPU 3 instructions: 1090000000 cycles: 2334815842 heartbeat IPC: 0.329772 cumulative IPC: 0.382519 (Simulation time: 5 hr 11 min 47 sec) 
Heartbeat CPU 0 instructions: 1530000000 cycles: 2344856420 heartbeat IPC: 0.539585 cumulative IPC: 0.568407 (Simulation time: 5 hr 12 min 59 sec) 
Heartbeat CPU 1 instructions: 1020000000 cycles: 2352173827 heartbeat IPC: 0.35966 cumulative IPC: 0.357657 (Simulation time: 5 hr 13 min 53 sec) 
Heartbeat CPU 0 instructions: 1540000000 cycles: 2363121000 heartbeat IPC: 0.547508 cumulative IPC: 0.568234 (Simulation time: 5 hr 15 min 15 sec) 
Heartbeat CPU 3 instructions: 1100000000 cycles: 2364629998 heartbeat IPC: 0.335411 cumulative IPC: 0.381886 (Simulation time: 5 hr 15 min 27 sec) 
Heartbeat CPU 2 instructions: 710000000 cycles: 2367530540 heartbeat IPC: 0.228864 cumulative IPC: 0.229837 (Simulation time: 5 hr 15 min 48 sec) 
Heartbeat CPU 1 instructions: 1030000000 cycles: 2375784477 heartbeat IPC: 0.423538 cumulative IPC: 0.358356 (Simulation time: 5 hr 16 min 50 sec) 
Heartbeat CPU 0 instructions: 1550000001 cycles: 2381339072 heartbeat IPC: 0.548906 cumulative IPC: 0.568077 (Simulation time: 5 hr 17 min 31 sec) 
Heartbeat CPU 3 instructions: 1110000002 cycles: 2390361511 heartbeat IPC: 0.388629 cumulative IPC: 0.381963 (Simulation time: 5 hr 18 min 42 sec) 
Heartbeat CPU 0 instructions: 1560000000 cycles: 2399955029 heartbeat IPC: 0.537174 cumulative IPC: 0.567821 (Simulation time: 5 hr 19 min 51 sec) 
Heartbeat CPU 1 instructions: 1040000000 cycles: 2402496633 heartbeat IPC: 0.374361 cumulative IPC: 0.358545 (Simulation time: 5 hr 20 min 10 sec) 
Heartbeat CPU 2 instructions: 720000000 cycles: 2411290707 heartbeat IPC: 0.228518 cumulative IPC: 0.229811 (Simulation time: 5 hr 21 min 15 sec) 
Heartbeat CPU 3 instructions: 1120000000 cycles: 2413046694 heartbeat IPC: 0.440816 cumulative IPC: 0.382553 (Simulation time: 5 hr 21 min 27 sec) 
Heartbeat CPU 0 instructions: 1570000000 cycles: 2418624753 heartbeat IPC: 0.535627 cumulative IPC: 0.567556 (Simulation time: 5 hr 22 min 6 sec) 
Heartbeat CPU 1 instructions: 1050000001 cycles: 2427879975 heartbeat IPC: 0.393959 cumulative IPC: 0.35894 (Simulation time: 5 hr 23 min 13 sec) 
Heartbeat CPU 0 instructions: 1580000000 cycles: 2437039073 heartbeat IPC: 0.543056 cumulative IPC: 0.567359 (Simulation time: 5 hr 24 min 21 sec) 
Heartbeat CPU 3 instructions: 1130000002 cycles: 2445354852 heartbeat IPC: 0.309519 cumulative IPC: 0.381525 (Simulation time: 5 hr 25 min 18 sec) 
Heartbeat CPU 2 instructions: 730000001 cycles: 2454784856 heartbeat IPC: 0.229916 cumulative IPC: 0.229813 (Simulation time: 5 hr 26 min 27 sec) 
Heartbeat CPU 1 instructions: 1060000000 cycles: 2455133808 heartbeat IPC: 0.366921 cumulative IPC: 0.359034 (Simulation time: 5 hr 26 min 29 sec) 
Heartbeat CPU 0 instructions: 1590000001 cycles: 2456031966 heartbeat IPC: 0.526513 cumulative IPC: 0.567023 (Simulation time: 5 hr 26 min 36 sec) 
Heartbeat CPU 3 instructions: 1140000000 cycles: 2474120996 heartbeat IPC: 0.347631 cumulative IPC: 0.381106 (Simulation time: 5 hr 28 min 50 sec) 
Heartbeat CPU 0 instructions: 1600000000 cycles: 2474693707 heartbeat IPC: 0.535856 cumulative IPC: 0.566773 (Simulation time: 5 hr 28 min 54 sec) 
Heartbeat CPU 1 instructions: 1070000003 cycles: 2479415404 heartbeat IPC: 0.411835 cumulative IPC: 0.359584 (Simulation time: 5 hr 29 min 29 sec) 
Heartbeat CPU 0 instructions: 1610000000 cycles: 2493273085 heartbeat IPC: 0.538231 cumulative IPC: 0.566547 (Simulation time: 5 hr 31 min 14 sec) 
Heartbeat CPU 2 instructions: 740000000 cycles: 2498406243 heartbeat IPC: 0.229245 cumulative IPC: 0.229803 (Simulation time: 5 hr 31 min 54 sec) 
Heartbeat CPU 3 instructions: 1150000000 cycles: 2500819558 heartbeat IPC: 0.374552 cumulative IPC: 0.381032 (Simulation time: 5 hr 32 min 11 sec) 
Heartbeat CPU 1 instructions: 1080000000 cycles: 2505515740 heartbeat IPC: 0.383137 cumulative IPC: 0.359845 (Simulation time: 5 hr 32 min 43 sec) 
Heartbeat CPU 0 instructions: 1620000000 cycles: 2512442185 heartbeat IPC: 0.521673 cumulative IPC: 0.566183 (Simulation time: 5 hr 33 min 34 sec) 
Heartbeat CPU 3 instructions: 1160000000 cycles: 2520588868 heartbeat IPC: 0.505835 cumulative IPC: 0.382072 (Simulation time: 5 hr 34 min 36 sec) 
Heartbeat CPU 0 instructions: 1630000000 cycles: 2531543249 heartbeat IPC: 0.523531 cumulative IPC: 0.565841 (Simulation time: 5 hr 35 min 56 sec) 
Heartbeat CPU 1 instructions: 1090000000 cycles: 2534087363 heartbeat IPC: 0.349998 cumulative IPC: 0.359727 (Simulation time: 5 hr 36 min 15 sec) 
Heartbeat CPU 2 instructions: 750000003 cycles: 2542088120 heartbeat IPC: 0.228928 cumulative IPC: 0.229787 (Simulation time: 5 hr 37 min 12 sec) 
Heartbeat CPU 3 instructions: 1170000000 cycles: 2542214083 heartbeat IPC: 0.462423 cumulative IPC: 0.382798 (Simulation time: 5 hr 37 min 13 sec) 
Heartbeat CPU 0 instructions: 1640000000 cycles: 2550494681 heartbeat IPC: 0.527665 cumulative IPC: 0.56554 (Simulation time: 5 hr 38 min 10 sec) 
Heartbeat CPU 1 instructions: 1100000000 cycles: 2562272534 heartbeat IPC: 0.354796 cumulative IPC: 0.359669 (Simulation time: 5 hr 39 min 29 sec) 
Heartbeat CPU 0 instructions: 1650000002 cycles: 2569403967 heartbeat IPC: 0.528841 cumulative IPC: 0.565253 (Simulation time: 5 hr 40 min 20 sec) 
Heartbeat CPU 3 instructions: 1180000000 cycles: 2574062814 heartbeat IPC: 0.313984 cumulative IPC: 0.381894 (Simulation time: 5 hr 40 min 53 sec) 
Heartbeat CPU 2 instructions: 760000000 cycles: 2585557872 heartbeat IPC: 0.230045 cumulative IPC: 0.229791 (Simulation time: 5 hr 42 min 13 sec) 
Heartbeat CPU 0 instructions: 1660000000 cycles: 2588360070 heartbeat IPC: 0.527534 cumulative IPC: 0.56496 (Simulation time: 5 hr 42 min 32 sec) 
Heartbeat CPU 1 instructions: 1110000001 cycles: 2590203598 heartbeat IPC: 0.358024 cumulative IPC: 0.359651 (Simulation time: 5 hr 42 min 45 sec) 
Heartbeat CPU 3 instructions: 1190000000 cycles: 2604395837 heartbeat IPC: 0.329674 cumulative IPC: 0.381249 (Simulation time: 5 hr 44 min 24 sec) 
Heartbeat CPU 0 instructions: 1670000003 cycles: 2607597153 heartbeat IPC: 0.51983 cumulative IPC: 0.564607 (Simulation time: 5 hr 44 min 45 sec) 
Heartbeat CPU 1 instructions: 1120000000 cycles: 2618185673 heartbeat IPC: 0.357372 cumulative IPC: 0.359625 (Simulation time: 5 hr 46 min 0 sec) 
Heartbeat CPU 0 instructions: 1680000000 cycles: 2626555490 heartbeat IPC: 0.527472 cumulative IPC: 0.564323 (Simulation time: 5 hr 46 min 59 sec) 
Heartbeat CPU 2 instructions: 770000001 cycles: 2628792467 heartbeat IPC: 0.231296 cumulative IPC: 0.229818 (Simulation time: 5 hr 47 min 16 sec) 
Heartbeat CPU 3 instructions: 1200000000 cycles: 2635413459 heartbeat IPC: 0.322397 cumulative IPC: 0.380515 (Simulation time: 5 hr 48 min 2 sec) 
Heartbeat CPU 0 instructions: 1690000002 cycles: 2645677175 heartbeat IPC: 0.522967 cumulative IPC: 0.564006 (Simulation time: 5 hr 49 min 13 sec) 
Heartbeat CPU 1 instructions: 1130000000 cycles: 2646411296 heartbeat IPC: 0.354288 cumulative IPC: 0.359564 (Simulation time: 5 hr 49 min 18 sec) 
Heartbeat CPU 3 instructions: 1210000001 cycles: 2663488147 heartbeat IPC: 0.356193 cumulative IPC: 0.380244 (Simulation time: 5 hr 51 min 21 sec) 
Heartbeat CPU 0 instructions: 1700000000 cycles: 2664744344 heartbeat IPC: 0.524462 cumulative IPC: 0.563707 (Simulation time: 5 hr 51 min 30 sec) 
Heartbeat CPU 2 instructions: 780000000 cycles: 2672254380 heartbeat IPC: 0.230086 cumulative IPC: 0.229822 (Simulation time: 5 hr 52 min 22 sec) 
Heartbeat CPU 1 instructions: 1140000000 cycles: 2674130853 heartbeat IPC: 0.360756 cumulative IPC: 0.359577 (Simulation time: 5 hr 52 min 35 sec) 
Heartbeat CPU 0 instructions: 1710000000 cycles: 2684018850 heartbeat IPC: 0.51882 cumulative IPC: 0.563365 (Simulation time: 5 hr 53 min 46 sec) 
Heartbeat CPU 3 instructions: 1220000000 cycles: 2687392030 heartbeat IPC: 0.418342 cumulative IPC: 0.380602 (Simulation time: 5 hr 54 min 11 sec) 
Heartbeat CPU 1 instructions: 1150000000 cycles: 2702708701 heartbeat IPC: 0.349921 cumulative IPC: 0.359469 (Simulation time: 5 hr 56 min 4 sec) 
Heartbeat CPU 0 instructions: 1720000000 cycles: 2703202943 heartbeat IPC: 0.521265 cumulative IPC: 0.563049 (Simulation time: 5 hr 56 min 8 sec) 
Heartbeat CPU 3 instructions: 1230000000 cycles: 2707397375 heartbeat IPC: 0.499866 cumulative IPC: 0.381535 (Simulation time: 5 hr 56 min 39 sec) 
Heartbeat CPU 2 instructions: 790000001 cycles: 2716151528 heartbeat IPC: 0.227805 cumulative IPC: 0.229788 (Simulation time: 5 hr 57 min 41 sec) 
Heartbeat CPU 0 instructions: 1730000001 cycles: 2722408279 heartbeat IPC: 0.520689 cumulative IPC: 0.562733 (Simulation time: 5 hr 58 min 23 sec) 
Heartbeat CPU 1 instructions: 1160000000 cycles: 2731010596 heartbeat IPC: 0.353333 cumulative IPC: 0.359402 (Simulation time: 5 hr 59 min 20 sec) 
Heartbeat CPU 3 instructions: 1240000000 cycles: 2737542356 heartbeat IPC: 0.33173 cumulative IPC: 0.380955 (Simulation time: 6 hr 0 min 6 sec) 
Heartbeat CPU 0 instructions: 1740000000 cycles: 2741638292 heartbeat IPC: 0.52002 cumulative IPC: 0.562416 (Simulation time: 6 hr 0 min 34 sec) 
Heartbeat CPU 2 instructions: 800000000 cycles: 2759622320 heartbeat IPC: 0.230039 cumulative IPC: 0.229792 (Simulation time: 6 hr 2 min 40 sec) 
Heartbeat CPU 1 instructions: 1170000000 cycles: 2759629048 heartbeat IPC: 0.349425 cumulative IPC: 0.359293 (Simulation time: 6 hr 2 min 40 sec) 
Heartbeat CPU 0 instructions: 1750000002 cycles: 2760738289 heartbeat IPC: 0.52356 cumulative IPC: 0.562132 (Simulation time: 6 hr 2 min 48 sec) 
Heartbeat CPU 3 instructions: 1250000000 cycles: 2767727068 heartbeat IPC: 0.331294 cumulative IPC: 0.380383 (Simulation time: 6 hr 3 min 39 sec) 
Finished CPU 3 instructions: 1000000000 cycles: 2629699229 cumulative IPC: 0.380272 (Simulation time: 6 hr 4 min 50 sec) 
Heartbeat CPU 0 instructions: 1760000000 cycles: 2780127221 heartbeat IPC: 0.515758 cumulative IPC: 0.561791 (Simulation time: 6 hr 5 min 3 sec) 
Heartbeat CPU 1 instructions: 1180000000 cycles: 2787602569 heartbeat IPC: 0.357481 cumulative IPC: 0.359274 (Simulation time: 6 hr 5 min 57 sec) 
Heartbeat CPU 3 instructions: 1260000000 cycles: 2795425293 heartbeat IPC: 0.361034 cumulative IPC: 0.38018 (Simulation time: 6 hr 6 min 51 sec) 
Heartbeat CPU 0 instructions: 1770000001 cycles: 2799582522 heartbeat IPC: 0.513999 cumulative IPC: 0.56144 (Simulation time: 6 hr 7 min 20 sec) 
Heartbeat CPU 2 instructions: 810000003 cycles: 2803828810 heartbeat IPC: 0.226211 cumulative IPC: 0.229732 (Simulation time: 6 hr 7 min 50 sec) 
Heartbeat CPU 1 instructions: 1190000001 cycles: 2816378227 heartbeat IPC: 0.347516 cumulative IPC: 0.359147 (Simulation time: 6 hr 9 min 20 sec) 
Heartbeat CPU 0 instructions: 1780000000 cycles: 2819105947 heartbeat IPC: 0.512205 cumulative IPC: 0.56108 (Simulation time: 6 hr 9 min 39 sec) 
Heartbeat CPU 3 instructions: 1270000001 cycles: 2821459783 heartbeat IPC: 0.384106 cumulative IPC: 0.380218 (Simulation time: 6 hr 9 min 56 sec) 
Heartbeat CPU 0 instructions: 1790000002 cycles: 2838576465 heartbeat IPC: 0.513597 cumulative IPC: 0.560736 (Simulation time: 6 hr 12 min 3 sec) 
Heartbeat CPU 3 instructions: 1280000000 cycles: 2839849178 heartbeat IPC: 0.543792 cumulative IPC: 0.381336 (Simulation time: 6 hr 12 min 12 sec) 
Heartbeat CPU 1 instructions: 1200000000 cycles: 2845844693 heartbeat IPC: 0.339369 cumulative IPC: 0.358931 (Simulation time: 6 hr 12 min 56 sec) 
Heartbeat CPU 2 instructions: 820000000 cycles: 2847758036 heartbeat IPC: 0.227639 cumulative IPC: 0.229698 (Simulation time: 6 hr 13 min 10 sec) 
Heartbeat CPU 0 instructions: 1800000000 cycles: 2857783671 heartbeat IPC: 0.520638 cumulative IPC: 0.560452 (Simulation time: 6 hr 14 min 23 sec) 
Heartbeat CPU 3 instructions: 1290000002 cycles: 2859890278 heartbeat IPC: 0.498975 cumulative IPC: 0.382206 (Simulation time: 6 hr 14 min 38 sec) 
Heartbeat CPU 1 instructions: 1210000002 cycles: 2874319252 heartbeat IPC: 0.351191 cumulative IPC: 0.35885 (Simulation time: 6 hr 16 min 18 sec) 
Heartbeat CPU 0 instructions: 1810000000 cycles: 2877266914 heartbeat IPC: 0.513262 cumulative IPC: 0.560115 (Simulation time: 6 hr 16 min 38 sec) 
Heartbeat CPU 3 instructions: 1300000000 cycles: 2889273449 heartbeat IPC: 0.340331 cumulative IPC: 0.381757 (Simulation time: 6 hr 17 min 59 sec) 
Heartbeat CPU 2 instructions: 830000000 cycles: 2891458806 heartbeat IPC: 0.228829 cumulative IPC: 0.229684 (Simulation time: 6 hr 18 min 14 sec) 
Heartbeat CPU 0 instructions: 1820000000 cycles: 2896765083 heartbeat IPC: 0.512869 cumulative IPC: 0.55978 (Simulation time: 6 hr 18 min 50 sec) 
Heartbeat CPU 1 instructions: 1220000000 cycles: 2902834337 heartbeat IPC: 0.350691 cumulative IPC: 0.358765 (Simulation time: 6 hr 19 min 33 sec) 
Heartbeat CPU 0 instructions: 1830000002 cycles: 2915789248 heartbeat IPC: 0.525647 cumulative IPC: 0.559545 (Simulation time: 6 hr 21 min 5 sec) 
Heartbeat CPU 3 instructions: 1310000000 cycles: 2919705219 heartbeat IPC: 0.328604 cumulative IPC: 0.381173 (Simulation time: 6 hr 21 min 31 sec) 
Heartbeat CPU 1 instructions: 1230000000 cycles: 2930885055 heartbeat IPC: 0.356497 cumulative IPC: 0.358743 (Simulation time: 6 hr 22 min 49 sec) 
Heartbeat CPU 2 instructions: 840000000 cycles: 2935353949 heartbeat IPC: 0.227816 cumulative IPC: 0.229655 (Simulation time: 6 hr 23 min 20 sec) 
Heartbeat CPU 0 instructions: 1840000000 cycles: 2935578508 heartbeat IPC: 0.505324 cumulative IPC: 0.55916 (Simulation time: 6 hr 23 min 22 sec) 
Finished CPU 1 instructions: 1000000000 cycles: 2787615225 cumulative IPC: 0.35873 (Simulation time: 6 hr 23 min 26 sec) 
Heartbeat CPU 3 instructions: 1320000000 cycles: 2945953785 heartbeat IPC: 0.380973 cumulative IPC: 0.381171 (Simulation time: 6 hr 24 min 34 sec) 
Heartbeat CPU 0 instructions: 1850000000 cycles: 2955443320 heartbeat IPC: 0.503403 cumulative IPC: 0.558765 (Simulation time: 6 hr 25 min 42 sec) 
Heartbeat CPU 1 instructions: 1240000000 cycles: 2959710398 heartbeat IPC: 0.346917 cumulative IPC: 0.358621 (Simulation time: 6 hr 26 min 13 sec) 
Heartbeat CPU 3 instructions: 1330000002 cycles: 2970698661 heartbeat IPC: 0.404124 cumulative IPC: 0.381372 (Simulation time: 6 hr 27 min 27 sec) 
Heartbeat CPU 0 instructions: 1860000000 cycles: 2975221297 heartbeat IPC: 0.505613 cumulative IPC: 0.558394 (Simulation time: 6 hr 27 min 58 sec) 
Heartbeat CPU 2 instructions: 850000002 cycles: 2979446839 heartbeat IPC: 0.226794 cumulative IPC: 0.22961 (Simulation time: 6 hr 28 min 26 sec) 
Heartbeat CPU 1 instructions: 1250000001 cycles: 2986285051 heartbeat IPC: 0.376298 cumulative IPC: 0.358787 (Simulation time: 6 hr 29 min 14 sec) 
Heartbeat CPU 0 instructions: 1870000002 cycles: 2994625887 heartbeat IPC: 0.515342 cumulative IPC: 0.5581 (Simulation time: 6 hr 30 min 13 sec) 
Heartbeat CPU 3 instructions: 1340000000 cycles: 3004732703 heartbeat IPC: 0.293823 cumulative IPC: 0.380329 (Simulation time: 6 hr 31 min 27 sec) 
Heartbeat CPU 1 instructions: 1260000000 cycles: 3013243030 heartbeat IPC: 0.370948 cumulative IPC: 0.358901 (Simulation time: 6 hr 32 min 22 sec) 
Heartbeat CPU 0 instructions: 1880000000 cycles: 3014367803 heartbeat IPC: 0.506536 cumulative IPC: 0.557745 (Simulation time: 6 hr 32 min 29 sec) 
Heartbeat CPU 2 instructions: 860000000 cycles: 3023301026 heartbeat IPC: 0.228028 cumulative IPC: 0.229586 (Simulation time: 6 hr 33 min 31 sec) 
Heartbeat CPU 0 instructions: 1890000003 cycles: 3033924536 heartbeat IPC: 0.511333 cumulative IPC: 0.55743 (Simulation time: 6 hr 34 min 47 sec) 
Heartbeat CPU 3 instructions: 1350000000 cycles: 3038330741 heartbeat IPC: 0.297636 cumulative IPC: 0.379368 (Simulation time: 6 hr 35 min 19 sec) 
[...]
Heartbeat CPU 0 instructions: 2590000002 cycles: 4285978331 heartbeat IPC: 0.582915 cumulative IPC: 0.55793 (Simulation time: 9 hr 3 min 4 sec) 
Heartbeat CPU 0 instructions: 2600000000 cycles: 4303120539 heartbeat IPC: 0.583355 cumulative IPC: 0.558035 (Simulation time: 9 hr 5 min 8 sec) 
Heartbeat CPU 3 instructions: 1810000000 cycles: 4305877982 heartbeat IPC: 0.370705 cumulative IPC: 0.374348 (Simulation time: 9 hr 5 min 27 sec) 
Heartbeat CPU 1 instructions: 1740000000 cycles: 4311365956 heartbeat IPC: 0.35531 cumulative IPC: 0.362289 (Simulation time: 9 hr 6 min 5 sec) 
Heartbeat CPU 2 instructions: 1160000000 cycles: 4317888887 heartbeat IPC: 0.235548 cumulative IPC: 0.230253 (Simulation time: 9 hr 6 min 52 sec) 
Heartbeat CPU 0 instructions: 2610000000 cycles: 4320229318 heartbeat IPC: 0.584495 cumulative IPC: 0.558143 (Simulation time: 9 hr 7 min 8 sec) 
Heartbeat CPU 0 instructions: 2620000000 cycles: 4337423656 heartbeat IPC: 0.581587 cumulative IPC: 0.55824 (Simulation time: 9 hr 9 min 9 sec) 
Heartbeat CPU 3 instructions: 1820000000 cycles: 4338410150 heartbeat IPC: 0.307388 cumulative IPC: 0.373829 (Simulation time: 9 hr 9 min 17 sec) 
Heartbeat CPU 1 instructions: 1750000000 cycles: 4339697209 heartbeat IPC: 0.352967 cumulative IPC: 0.362226 (Simulation time: 9 hr 9 min 25 sec) 
Heartbeat CPU 0 instructions: 2630000000 cycles: 4354809133 heartbeat IPC: 0.575193 cumulative IPC: 0.55831 (Simulation time: 9 hr 11 min 9 sec) 
Heartbeat CPU 2 instructions: 1170000000 cycles: 4361180843 heartbeat IPC: 0.23099 cumulative IPC: 0.230261 (Simulation time: 9 hr 11 min 55 sec) 
Heartbeat CPU 1 instructions: 1760000000 cycles: 4369002463 heartbeat IPC: 0.341236 cumulative IPC: 0.36208 (Simulation time: 9 hr 12 min 46 sec) 
Heartbeat CPU 3 instructions: 1830000000 cycles: 4371071241 heartbeat IPC: 0.306175 cumulative IPC: 0.373305 (Simulation time: 9 hr 13 min 1 sec) 
Heartbeat CPU 0 instructions: 2640000000 cycles: 4372095522 heartbeat IPC: 0.57849 cumulative IPC: 0.558392 (Simulation time: 9 hr 13 min 8 sec) 
Heartbeat CPU 0 instructions: 2650000001 cycles: 4389241517 heartbeat IPC: 0.583227 cumulative IPC: 0.558493 (Simulation time: 9 hr 15 min 14 sec) 
Heartbeat CPU 1 instructions: 1770000000 cycles: 4396798947 heartbeat IPC: 0.359758 cumulative IPC: 0.362065 (Simulation time: 9 hr 16 min 6 sec) 
Heartbeat CPU 3 instructions: 1840000000 cycles: 4401818175 heartbeat IPC: 0.325236 cumulative IPC: 0.372958 (Simulation time: 9 hr 16 min 42 sec) 
Heartbeat CPU 2 instructions: 1180000000 cycles: 4403642515 heartbeat IPC: 0.235507 cumulative IPC: 0.230313 (Simulation time: 9 hr 16 min 53 sec) 
Heartbeat CPU 0 instructions: 2660000000 cycles: 4406687895 heartbeat IPC: 0.573185 cumulative IPC: 0.558553 (Simulation time: 9 hr 17 min 14 sec) 
Heartbeat CPU 0 instructions: 2670000002 cycles: 4423815504 heartbeat IPC: 0.583853 cumulative IPC: 0.558654 (Simulation time: 9 hr 19 min 18 sec) 
Heartbeat CPU 1 instructions: 1780000000 cycles: 4424426814 heartbeat IPC: 0.361953 cumulative IPC: 0.362064 (Simulation time: 9 hr 19 min 22 sec) 
Heartbeat CPU 3 instructions: 1850000000 cycles: 4433923718 heartbeat IPC: 0.311473 cumulative IPC: 0.372497 (Simulation time: 9 hr 20 min 31 sec) 
Heartbeat CPU 0 instructions: 2680000000 cycles: 4440775352 heartbeat IPC: 0.589628 cumulative IPC: 0.558777 (Simulation time: 9 hr 21 min 21 sec) 
Heartbeat CPU 2 instructions: 1190000001 cycles: 4446580458 heartbeat IPC: 0.232894 cumulative IPC: 0.230339 (Simulation time: 9 hr 22 min 1 sec) 
Heartbeat CPU 1 instructions: 1790000002 cycles: 4453920882 heartbeat IPC: 0.339051 cumulative IPC: 0.361907 (Simulation time: 9 hr 22 min 52 sec) 
Heartbeat CPU 0 instructions: 2690000000 cycles: 4458098895 heartbeat IPC: 0.577249 cumulative IPC: 0.558851 (Simulation time: 9 hr 23 min 22 sec) 
Heartbeat CPU 3 instructions: 1860000000 cycles: 4461313211 heartbeat IPC: 0.365104 cumulative IPC: 0.37245 (Simulation time: 9 hr 23 min 45 sec) 
Heartbeat CPU 0 instructions: 2700000000 cycles: 4475655190 heartbeat IPC: 0.569596 cumulative IPC: 0.558894 (Simulation time: 9 hr 25 min 27 sec) 
Heartbeat CPU 1 instructions: 1800000000 cycles: 4482383108 heartbeat IPC: 0.351343 cumulative IPC: 0.361837 (Simulation time: 9 hr 26 min 16 sec) 
Heartbeat CPU 3 instructions: 1870000000 cycles: 4487041815 heartbeat IPC: 0.388672 cumulative IPC: 0.372546 (Simulation time: 9 hr 26 min 46 sec) 
Heartbeat CPU 2 instructions: 1200000000 cycles: 4489477641 heartbeat IPC: 0.233116 cumulative IPC: 0.230366 (Simulation time: 9 hr 27 min 3 sec) 
Finished CPU 2 instructions: 1000000000 cycles: 4340913376 cumulative IPC: 0.230366 (Simulation time: 9 hr 27 min 3 sec) 

CPU 0 Branch Prediction Accuracy: 98.9527% MPKI: 1.89107

CPU 1 Branch Prediction Accuracy: 90.97% MPKI: 16.029

CPU 2 Branch Prediction Accuracy: 96.1636% MPKI: 5.73015

CPU 3 Branch Prediction Accuracy: 99.2703% MPKI: 1.77917

ChampSim completed all CPUs

Total Simulation Statistics (not including warmup)

CPU 0 cumulative IPC: 0.55896 instructions: 2426395647 cycles: 4340913376
L1D TOTAL     ACCESS:  969227869  HIT:  579813212  MISS:  389414657
L1D LOAD      ACCESS:  837628062  HIT:  450316266  MISS:  387311796
L1D RFO       ACCESS:  131599807  HIT:  129496946  MISS:    2102861
L1D PREFETCH  ACCESS:          0  HIT:          0  MISS:          0
L1D WRITEBACK ACCESS:          0  HIT:          0  MISS:          0
L1I TOTAL     ACCESS:  918620159  HIT:  918620143  MISS:         16
L1I LOAD      ACCESS:  918620159  HIT:  918620143  MISS:         16
L1I RFO       ACCESS:          0  HIT:          0  MISS:          0
L1I PREFETCH  ACCESS:          0  HIT:          0  MISS:          0
L1I WRITEBACK ACCESS:          0  HIT:          0  MISS:          0
L2C TOTAL     ACCESS:  781420095  HIT:  330259955  MISS:  451160140
L2C LOAD      ACCESS:  387311774  HIT:  299859320  MISS:   87452454
L2C RFO       ACCESS:    2102861  HIT:     127009  MISS:    1975852
L2C PREFETCH  ACCESS:  388884775  HIT:   27168386  MISS:  361716389
L2C WRITEBACK ACCESS:    3120685  HIT:    3105240  MISS:      15445

Avg Lookahead Depth:	4.18355
TOTAL: 7.71502e+08	L2C: 6.00991e+08	LLC: 1.70511e+08	GOOD_L2C: 4.4216e+08
Printing all the perceptron weights to: perc_weights_0.csv
LLC TOTAL     ACCESS:  506714898  HIT:  488503306  MISS:   18211592
LLC LOAD      ACCESS:   39268594  HIT:   38640959  MISS:     627635
LLC RFO       ACCESS:    1973952  HIT:      37812  MISS:    1936140
LLC PREFETCH  ACCESS:  462371333  HIT:  446724236  MISS:   15647097
LLC WRITEBACK ACCESS:    3101019  HIT:    3100299  MISS:        720

CPU 1 cumulative IPC: 0.361778 instructions: 1570448476 cycles: 4340913376
L1D TOTAL     ACCESS:  548113134  HIT:  534013261  MISS:   14099873
L1D LOAD      ACCESS:  335051073  HIT:  322942290  MISS:   12108783
L1D RFO       ACCESS:  213062061  HIT:  211070971  MISS:    1991090
L1D PREFETCH  ACCESS:          0  HIT:          0  MISS:          0
L1D WRITEBACK ACCESS:          0  HIT:          0  MISS:          0
L1I TOTAL     ACCESS:  434180259  HIT:  426797447  MISS:    7382812
L1I LOAD      ACCESS:  434180259  HIT:  426797447  MISS:    7382812
L1I RFO       ACCESS:          0  HIT:          0  MISS:          0
L1I PREFETCH  ACCESS:          0  HIT:          0  MISS:          0
L1I WRITEBACK ACCESS:          0  HIT:          0  MISS:          0
L2C TOTAL     ACCESS:   49061070  HIT:   38913486  MISS:   10147584
L2C LOAD      ACCESS:   19491412  HIT:   14944045  MISS:    4547367
L2C RFO       ACCESS:    1991025  HIT:     801984  MISS:    1189041
L2C PREFETCH  ACCESS:   23650610  HIT:   19299894  MISS:    4350716
L2C WRITEBACK ACCESS:    3928023  HIT:    3867563  MISS:      60460

Avg Lookahead Depth:	4.18355
TOTAL: 7.71502e+08	L2C: 6.00991e+08	LLC: 1.70511e+08	GOOD_L2C: 4.4216e+08
Printing all the perceptron weights to: perc_weights_0.csv
LLC TOTAL     ACCESS:   16843410  HIT:    9809407  MISS:    7034003
LLC LOAD      ACCESS:    4418648  HIT:    2515989  MISS:    1902659
LLC RFO       ACCESS:    1187537  HIT:     452305  MISS:     735232
LLC PREFETCH  ACCESS:    9136445  HIT:    5121972  MISS:    4014473
LLC WRITEBACK ACCESS:    2100780  HIT:    1719141  MISS:     381639

CPU 2 cumulative IPC: 0.230366 instructions: 1000000000 cycles: 4340913376
L1D TOTAL     ACCESS:  448644549  HIT:  428046555  MISS:   20597994
L1D LOAD      ACCESS:  267343791  HIT:  249253645  MISS:   18090146
L1D RFO       ACCESS:  181300758  HIT:  178792910  MISS:    2507848
L1D PREFETCH  ACCESS:          0  HIT:          0  MISS:          0
L1D WRITEBACK ACCESS:          0  HIT:          0  MISS:          0
L1I TOTAL     ACCESS:  351056269  HIT:  350403054  MISS:     653215
L1I LOAD      ACCESS:  351056269  HIT:  350403054  MISS:     653215
L1I RFO       ACCESS:          0  HIT:          0  MISS:          0
L1I PREFETCH  ACCESS:          0  HIT:          0  MISS:          0
L1I WRITEBACK ACCESS:          0  HIT:          0  MISS:          0
L2C TOTAL     ACCESS:   40548232  HIT:   21096552  MISS:   19451680
L2C LOAD      ACCESS:   18742609  HIT:    7067604  MISS:   11675005
L2C RFO       ACCESS:    2507713  HIT:     512806  MISS:    1994907
L2C PREFETCH  ACCESS:    9530475  HIT:    3786865  MISS:    5743610
L2C WRITEBACK ACCESS:    9767435  HIT:    9729277  MISS:      38158

Avg Lookahead Depth:	4.18355
TOTAL: 7.71502e+08	L2C: 6.00991e+08	LLC: 1.70511e+08	GOOD_L2C: 4.4216e+08
Printing all the perceptron weights to: perc_weights_0.csv
LLC TOTAL     ACCESS:   34696071  HIT:   15029219  MISS:   19666852
LLC LOAD      ACCESS:   11562717  HIT:    3699747  MISS:    7862970
LLC RFO       ACCESS:    1985261  HIT:     780962  MISS:    1204299
LLC PREFETCH  ACCESS:   13514166  HIT:    3262927  MISS:   10251239
LLC WRITEBACK ACCESS:    7633927  HIT:    7285583  MISS:     348344

CPU 3 cumulative IPC: 0.372502 instructions: 1617000334 cycles: 4340913377
L1D TOTAL     ACCESS:  402990457  HIT:  317453107  MISS:   85537350
L1D LOAD      ACCESS:  290840801  HIT:  207802492  MISS:   83038309
L1D RFO       ACCESS:  112149656  HIT:  109650615  MISS:    2499041
L1D PREFETCH  ACCESS:          0  HIT:          0  MISS:          0
L1D WRITEBACK ACCESS:          0  HIT:          0  MISS:          0
L1I TOTAL     ACCESS:  704022623  HIT:  700030612  MISS:    3992011
L1I LOAD      ACCESS:  704022623  HIT:  700030612  MISS:    3992011
L1I RFO       ACCESS:          0  HIT:          0  MISS:          0
L1I PREFETCH  ACCESS:          0  HIT:          0  MISS:          0
L1I WRITEBACK ACCESS:          0  HIT:          0  MISS:          0
L2C TOTAL     ACCESS:  157582714  HIT:   93406817  MISS:   64175897
L2C LOAD      ACCESS:   87029831  HIT:   47001832  MISS:   40027999
L2C RFO       ACCESS:    2498989  HIT:     367291  MISS:    2131698
L2C PREFETCH  ACCESS:   63862379  HIT:   41847569  MISS:   22014810
L2C WRITEBACK ACCESS:    4191515  HIT:    4190125  MISS:       1390

Avg Lookahead Depth:	4.18355
TOTAL: 7.71502e+08	L2C: 6.00991e+08	LLC: 1.70511e+08	GOOD_L2C: 4.4216e+08
Printing all the perceptron weights to: perc_weights_0.csv
LLC TOTAL     ACCESS:   95971587  HIT:   89730455  MISS:    6241132
LLC LOAD      ACCESS:   38598297  HIT:   37799795  MISS:     798502
LLC RFO       ACCESS:    2128415  HIT:     363495  MISS:    1764920
LLC PREFETCH  ACCESS:   51975542  HIT:   48321753  MISS:    3653789
LLC WRITEBACK ACCESS:    3269333  HIT:    3245412  MISS:      23921

Region of Interest Statistics

CPU 0 cumulative IPC: 0.572534 instructions: 1000000001 cycles: 1746621589
L1D TOTAL     ACCESS:  399419623  HIT:  240330075  MISS:  159089548
L1D LOAD      ACCESS:  342833681  HIT:  184733578  MISS:  158100103
L1D RFO       ACCESS:   56585942  HIT:   55596497  MISS:     989445
L1D PREFETCH  ACCESS:          0  HIT:          0  MISS:          0
L1D WRITEBACK ACCESS:          0  HIT:          0  MISS:          0
L1D PREFETCH  REQUESTED:          0  ISSUED:          0  USEFUL:          0  USELESS:          0
L1I TOTAL     ACCESS:  377280460  HIT:  377280444  MISS:         16
L1I LOAD      ACCESS:  377280460  HIT:  377280444  MISS:         16
L1I RFO       ACCESS:          0  HIT:          0  MISS:          0
L1I PREFETCH  ACCESS:          0  HIT:          0  MISS:          0
L1I WRITEBACK ACCESS:          0  HIT:          0  MISS:          0
L1I PREFETCH  REQUESTED:          0  ISSUED:          0  USEFUL:          0  USELESS:          0
L2C TOTAL     ACCESS:  319471239  HIT:  135526910  MISS:  183944329
L2C LOAD      ACCESS:  158100100  HIT:  122693981  MISS:   35406119
L2C RFO       ACCESS:     989445  HIT:      65431  MISS:     924014
L2C PREFETCH  ACCESS:  158835202  HIT:   11227563  MISS:  147607639
L2C WRITEBACK ACCESS:    1546492  HIT:    1539935  MISS:       6557
L2C PREFETCH  REQUESTED:  592078334  ISSUED:  592004724  USEFUL:  340830138  USELESS:   66266666
LLC TOTAL     ACCESS:  206860416  HIT:  201250457  MISS:    5609959
LLC LOAD      ACCESS:   16047282  HIT:   15898029  MISS:     149253
LLC RFO       ACCESS:     922956  HIT:      15891  MISS:     907065
LLC PREFETCH  ACCESS:  188353768  HIT:  183800441  MISS:    4553327
LLC WRITEBACK ACCESS:    1536410  HIT:    1536096  MISS:        314
LLC PREFETCH  REQUESTED:          0  ISSUED:          0  USEFUL:    3194088  USELESS:   34333301
Major fault: 0 Minor fault: 47221

CPU 1 cumulative IPC: 0.35873 instructions: 1000000000 cycles: 2787615225
L1D TOTAL     ACCESS:  349319737  HIT:  339563808  MISS:    9755929
L1D LOAD      ACCESS:  214104784  HIT:  205557240  MISS:    8547544
L1D RFO       ACCESS:  135214953  HIT:  134006568  MISS:    1208385
L1D PREFETCH  ACCESS:          0  HIT:          0  MISS:          0
L1D WRITEBACK ACCESS:          0  HIT:          0  MISS:          0
L1D PREFETCH  REQUESTED:          0  ISSUED:          0  USEFUL:          0  USELESS:          0
L1I TOTAL     ACCESS:  272676129  HIT:  267929530  MISS:    4746599
L1I LOAD      ACCESS:  272676129  HIT:  267929530  MISS:    4746599
L1I RFO       ACCESS:          0  HIT:          0  MISS:          0
L1I PREFETCH  ACCESS:          0  HIT:          0  MISS:          0
L1I WRITEBACK ACCESS:          0  HIT:          0  MISS:          0
L1I PREFETCH  REQUESTED:          0  ISSUED:          0  USEFUL:          0  USELESS:          0
L2C TOTAL     ACCESS:   33313142  HIT:   26655432  MISS:    6657710
L2C LOAD      ACCESS:   13294015  HIT:   10272090  MISS:    3021925
L2C RFO       ACCESS:    1208337  HIT:     484312  MISS:     724025
L2C PREFETCH  ACCESS:   16261364  HIT:   13385649  MISS:    2875715
L2C WRITEBACK ACCESS:    2549426  HIT:    2513381  MISS:      36045
L2C PREFETCH  REQUESTED:   35544215  ISSUED:   35519830  USEFUL:    2253456  USELESS:    2901297
LLC TOTAL     ACCESS:   11076457  HIT:    6648689  MISS:    4427768
LLC LOAD      ACCESS:    2937454  HIT:    1762653  MISS:    1174801
LLC RFO       ACCESS:     722975  HIT:     250139  MISS:     472836
LLC PREFETCH  ACCESS:    6050444  HIT:    3526046  MISS:    2524398
LLC WRITEBACK ACCESS:    1365584  HIT:    1109851  MISS:     255733
LLC PREFETCH  REQUESTED:          0  ISSUED:          0  USEFUL:    3194088  USELESS:   34333301
Major fault: 0 Minor fault: 31655

CPU 2 cumulative IPC: 0.230366 instructions: 1000000000 cycles: 4340913376
L1D TOTAL     ACCESS:  448644549  HIT:  428046555  MISS:   20597994
L1D LOAD      ACCESS:  267343791  HIT:  249253645  MISS:   18090146
L1D RFO       ACCESS:  181300758  HIT:  178792910  MISS:    2507848
L1D PREFETCH  ACCESS:          0  HIT:          0  MISS:          0
L1D WRITEBACK ACCESS:          0  HIT:          0  MISS:          0
L1D PREFETCH  REQUESTED:          0  ISSUED:          0  USEFUL:          0  USELESS:          0
L1I TOTAL     ACCESS:  351056269  HIT:  350403054  MISS:     653215
L1I LOAD      ACCESS:  351056269  HIT:  350403054  MISS:     653215
L1I RFO       ACCESS:          0  HIT:          0  MISS:          0
L1I PREFETCH  ACCESS:          0  HIT:          0  MISS:          0
L1I WRITEBACK ACCESS:          0  HIT:          0  MISS:          0
L1I PREFETCH  REQUESTED:          0  ISSUED:          0  USEFUL:          0  USELESS:          0
L2C TOTAL     ACCESS:   40548232  HIT:   21096552  MISS:   19451680
L2C LOAD      ACCESS:   18742609  HIT:    7067604  MISS:   11675005
L2C RFO       ACCESS:    2507713  HIT:     512806  MISS:    1994907
L2C PREFETCH  ACCESS:    9530475  HIT:    3786865  MISS:    5743610
L2C WRITEBACK ACCESS:    9767435  HIT:    9729277  MISS:      38158
L2C PREFETCH  REQUESTED:   23225589  ISSUED:   23225589  USEFUL:    2384269  USELESS:    4613886
LLC TOTAL     ACCESS:   34696071  HIT:   15029219  MISS:   19666852
LLC LOAD      ACCESS:   11562717  HIT:    3699747  MISS:    7862970
LLC RFO       ACCESS:    1985261  HIT:     780962  MISS:    1204299
LLC PREFETCH  ACCESS:   13514166  HIT:    3262927  MISS:   10251239
LLC WRITEBACK ACCESS:    7633927  HIT:    7285583  MISS:     348344
LLC PREFETCH  REQUESTED:          0  ISSUED:          0  USEFUL:    3194088  USELESS:   34333301
Major fault: 0 Minor fault: 55545

CPU 3 cumulative IPC: 0.380272 instructions: 1000000000 cycles: 2629699229
L1D TOTAL     ACCESS:  242738499  HIT:  190103425  MISS:   52635074
L1D LOAD      ACCESS:  175965870  HIT:  124965760  MISS:   51000110
L1D RFO       ACCESS:   66772629  HIT:   65137665  MISS:    1634964
L1D PREFETCH  ACCESS:          0  HIT:          0  MISS:          0
L1D WRITEBACK ACCESS:          0  HIT:          0  MISS:          0
L1D PREFETCH  REQUESTED:          0  ISSUED:          0  USEFUL:          0  USELESS:          0
L1I TOTAL     ACCESS:  436924899  HIT:  434543618  MISS:    2381281
L1I LOAD      ACCESS:  436924899  HIT:  434543618  MISS:    2381281
L1I RFO       ACCESS:          0  HIT:          0  MISS:          0
L1I PREFETCH  ACCESS:          0  HIT:          0  MISS:          0
L1I WRITEBACK ACCESS:          0  HIT:          0  MISS:          0
L1I PREFETCH  REQUESTED:          0  ISSUED:          0  USEFUL:          0  USELESS:          0
L2C TOTAL     ACCESS:   97856814  HIT:   58852582  MISS:   39004232
L2C LOAD      ACCESS:   53380972  HIT:   29316002  MISS:   24064970
L2C RFO       ACCESS:    1634927  HIT:     251882  MISS:    1383045
L2C PREFETCH  ACCESS:   40137024  HIT:   26581719  MISS:   13555305
L2C WRITEBACK ACCESS:    2703891  HIT:    2702979  MISS:        912
L2C PREFETCH  REQUESTED:  120653766  ISSUED:  120653284  USEFUL:    9280797  USELESS:   16300088
LLC TOTAL     ACCESS:   58366534  HIT:   54460256  MISS:    3906278
LLC LOAD      ACCESS:   23197769  HIT:   22728817  MISS:     468952
LLC RFO       ACCESS:    1380957  HIT:     215554  MISS:    1165403
LLC PREFETCH  ACCESS:   31719800  HIT:   29462856  MISS:    2256944
LLC WRITEBACK ACCESS:    2068008  HIT:    2053029  MISS:      14979
LLC PREFETCH  REQUESTED:          0  ISSUED:          0  USEFUL:    3194088  USELESS:   34333301
Major fault: 0 Minor fault: 6298

Avg Lookahead Depth:	4.18355
TOTAL: 7.71502e+08	L2C: 6.00991e+08	LLC: 1.70511e+08	GOOD_L2C: 4.4216e+08
Printing all the perceptron weights to: perc_weights_0.csv

Avg Lookahead Depth:	4.18355
TOTAL: 7.71502e+08	L2C: 6.00991e+08	LLC: 1.70511e+08	GOOD_L2C: 4.4216e+08
Printing all the perceptron weights to: perc_weights_0.csv

Avg Lookahead Depth:	4.18355
TOTAL: 7.71502e+08	L2C: 6.00991e+08	LLC: 1.70511e+08	GOOD_L2C: 4.4216e+08
Printing all the perceptron weights to: perc_weights_0.csv

Avg Lookahead Depth:	4.18355
TOTAL: 7.71502e+08	L2C: 6.00991e+08	LLC: 1.70511e+08	GOOD_L2C: 4.4216e+08
Printing all the perceptron weights to: perc_weights_0.csv

DRAM Statistics
 CHANNEL 0
 RQ ROW_BUFFER_HIT:    4925817  ROW_BUFFER_MISS:   20195533
 DBUS_CONGESTED:   25223851
 WQ ROW_BUFFER_HIT:     461839  ROW_BUFFER_MISS:    5669267  FULL:          0

 CHANNEL 1
 RQ ROW_BUFFER_HIT:    4961900  ROW_BUFFER_MISS:   20300811
 DBUS_CONGESTED:   25223851
 WQ ROW_BUFFER_HIT:     457528  ROW_BUFFER_MISS:    5665606  FULL:          0

 AVG_CONGESTED_CYCLE: 13
