Initialize SIGNATURE TABLE
ST_SET: 1
ST_WAY: 256
ST_TAG_BIT: 16
ST_TAG_MASK: ffff

Initialize PATTERN TABLE
PT_SET: 512
PT_WAY: 4
SIG_DELTA_BIT: 7
C_SIG_BIT: 4
C_DELTA_BIT: 4

Initialize PREFETCH FILTER
FILTER_SET: 1024

Initialize PERCEPTRON
PERC_ENTRIES: 4096
PERC_FEATURES: 9

*** ChampSim Multicore Out-of-Order Simulator ***

Warmup Instructions: 200000000
Simulation Instructions: 1000000000
Number of CPUs: 4
LLC sets: 8192
LLC ways: 16
Off-chip DRAM Size: 8192 MB Channels: 2 Width: 64-bit Data Rate: 1600 MT/s

CPU 0 runs /scratch/user/djimenez/champsim-traces/speccpu2017/xz/644.nab_s/644.nab_s-12459B.champsimtrace.xz
CPU 1 runs /scratch/user/djimenez/champsim-traces/speccpu2017/xz/602.gcc_s/602.gcc_s-734B.champsimtrace.xz
CPU 2 runs /scratch/user/djimenez/champsim-traces/speccpu2017/xz/605.mcf_s/605.mcf_s-1644B.champsimtrace.xz
CPU 3 runs /scratch/user/djimenez/champsim-traces/speccpu2017/xz/620.omnetpp_s/620.omnetpp_s-141B.champsimtrace.xz
Heartbeat CPU 0 instructions: 10000000 cycles: 4635977 heartbeat IPC: 2.15704 cumulative IPC: 2.15704 (Simulation time: 0 hr 1 min 17 sec) 
Heartbeat CPU 1 instructions: 10000000 cycles: 5381381 heartbeat IPC: 1.85826 cumulative IPC: 1.85826 (Simulation time: 0 hr 1 min 30 sec) 
Heartbeat CPU 3 instructions: 10000000 cycles: 7409674 heartbeat IPC: 1.34959 cumulative IPC: 1.34959 (Simulation time: 0 hr 2 min 3 sec) 
Heartbeat CPU 0 instructions: 20000000 cycles: 9298071 heartbeat IPC: 2.14496 cumulative IPC: 2.15098 (Simulation time: 0 hr 2 min 34 sec) 
Heartbeat CPU 2 instructions: 10000002 cycles: 10560249 heartbeat IPC: 0.946948 cumulative IPC: 0.946948 (Simulation time: 0 hr 2 min 56 sec) 
Heartbeat CPU 1 instructions: 20000000 cycles: 10780264 heartbeat IPC: 1.85223 cumulative IPC: 1.85524 (Simulation time: 0 hr 3 min 0 sec) 
Heartbeat CPU 0 instructions: 30000001 cycles: 13992448 heartbeat IPC: 2.13021 cumulative IPC: 2.14401 (Simulation time: 0 hr 3 min 54 sec) 
Heartbeat CPU 3 instructions: 20000000 cycles: 14843519 heartbeat IPC: 1.3452 cumulative IPC: 1.34739 (Simulation time: 0 hr 4 min 8 sec) 
Heartbeat CPU 1 instructions: 30000003 cycles: 16151704 heartbeat IPC: 1.8617 cumulative IPC: 1.85739 (Simulation time: 0 hr 4 min 31 sec) 
Heartbeat CPU 0 instructions: 40000000 cycles: 18645471 heartbeat IPC: 2.14914 cumulative IPC: 2.14529 (Simulation time: 0 hr 5 min 13 sec) 
Heartbeat CPU 2 instructions: 20000000 cycles: 21057464 heartbeat IPC: 0.952633 cumulative IPC: 0.949782 (Simulation time: 0 hr 5 min 52 sec) 
Heartbeat CPU 1 instructions: 40000000 cycles: 21545752 heartbeat IPC: 1.85389 cumulative IPC: 1.85651 (Simulation time: 0 hr 6 min 0 sec) 
Heartbeat CPU 3 instructions: 30000003 cycles: 22300828 heartbeat IPC: 1.34097 cumulative IPC: 1.34524 (Simulation time: 0 hr 6 min 13 sec) 
Heartbeat CPU 0 instructions: 50000002 cycles: 23346964 heartbeat IPC: 2.12698 cumulative IPC: 2.14161 (Simulation time: 0 hr 6 min 31 sec) 
Heartbeat CPU 1 instructions: 50000000 cycles: 26917326 heartbeat IPC: 1.86165 cumulative IPC: 1.85754 (Simulation time: 0 hr 7 min 30 sec) 
Heartbeat CPU 0 instructions: 60000000 cycles: 28115286 heartbeat IPC: 2.09717 cumulative IPC: 2.13407 (Simulation time: 0 hr 7 min 50 sec) 
Heartbeat CPU 3 instructions: 40000000 cycles: 29715145 heartbeat IPC: 1.34874 cumulative IPC: 1.34611 (Simulation time: 0 hr 8 min 16 sec) 
Heartbeat CPU 2 instructions: 30000003 cycles: 31683409 heartbeat IPC: 0.941093 cumulative IPC: 0.946868 (Simulation time: 0 hr 8 min 49 sec) 
Heartbeat CPU 1 instructions: 60000000 cycles: 32301338 heartbeat IPC: 1.85735 cumulative IPC: 1.85751 (Simulation time: 0 hr 8 min 59 sec) 
Heartbeat CPU 0 instructions: 70000001 cycles: 32940266 heartbeat IPC: 2.07255 cumulative IPC: 2.12506 (Simulation time: 0 hr 9 min 10 sec) 
Heartbeat CPU 3 instructions: 50000001 cycles: 37177980 heartbeat IPC: 1.33997 cumulative IPC: 1.34488 (Simulation time: 0 hr 10 min 19 sec) 
Heartbeat CPU 1 instructions: 70000001 cycles: 37734095 heartbeat IPC: 1.84069 cumulative IPC: 1.85509 (Simulation time: 0 hr 10 min 28 sec) 
Heartbeat CPU 0 instructions: 80000000 cycles: 37745091 heartbeat IPC: 2.08124 cumulative IPC: 2.11948 (Simulation time: 0 hr 10 min 29 sec) 
Heartbeat CPU 2 instructions: 40000000 cycles: 42279446 heartbeat IPC: 0.943749 cumulative IPC: 0.946086 (Simulation time: 0 hr 11 min 45 sec) 
Heartbeat CPU 0 instructions: 90000000 cycles: 42508258 heartbeat IPC: 2.09944 cumulative IPC: 2.11724 (Simulation time: 0 hr 11 min 49 sec) 
Heartbeat CPU 1 instructions: 80000000 cycles: 43101381 heartbeat IPC: 1.86314 cumulative IPC: 1.85609 (Simulation time: 0 hr 11 min 59 sec) 
Heartbeat CPU 3 instructions: 60000000 cycles: 44569901 heartbeat IPC: 1.35283 cumulative IPC: 1.3462 (Simulation time: 0 hr 12 min 24 sec) 
Heartbeat CPU 0 instructions: 100000000 cycles: 47354195 heartbeat IPC: 2.06358 cumulative IPC: 2.11175 (Simulation time: 0 hr 13 min 10 sec) 
Heartbeat CPU 1 instructions: 90000003 cycles: 48479574 heartbeat IPC: 1.85936 cumulative IPC: 1.85645 (Simulation time: 0 hr 13 min 29 sec) 
Heartbeat CPU 3 instructions: 70000000 cycles: 52020229 heartbeat IPC: 1.34222 cumulative IPC: 1.34563 (Simulation time: 0 hr 14 min 25 sec) 
Heartbeat CPU 0 instructions: 110000001 cycles: 52293003 heartbeat IPC: 2.02478 cumulative IPC: 2.10353 (Simulation time: 0 hr 14 min 30 sec) 
Heartbeat CPU 2 instructions: 50000001 cycles: 52859393 heartbeat IPC: 0.945184 cumulative IPC: 0.945906 (Simulation time: 0 hr 14 min 39 sec) 
Heartbeat CPU 1 instructions: 100000000 cycles: 53904856 heartbeat IPC: 1.84322 cumulative IPC: 1.85512 (Simulation time: 0 hr 14 min 56 sec) 
Heartbeat CPU 0 instructions: 120000000 cycles: 57306932 heartbeat IPC: 1.99444 cumulative IPC: 2.09399 (Simulation time: 0 hr 15 min 53 sec) 
Heartbeat CPU 1 instructions: 110000002 cycles: 59277622 heartbeat IPC: 1.86124 cumulative IPC: 1.85567 (Simulation time: 0 hr 16 min 26 sec) 
Heartbeat CPU 3 instructions: 80000000 cycles: 59447298 heartbeat IPC: 1.34643 cumulative IPC: 1.34573 (Simulation time: 0 hr 16 min 29 sec) 
Heartbeat CPU 0 instructions: 130000001 cycles: 62232289 heartbeat IPC: 2.03031 cumulative IPC: 2.08895 (Simulation time: 0 hr 17 min 15 sec) 
Heartbeat CPU 2 instructions: 60000000 cycles: 63434178 heartbeat IPC: 0.945646 cumulative IPC: 0.945862 (Simulation time: 0 hr 17 min 36 sec) 
Heartbeat CPU 1 instructions: 120000000 cycles: 64654394 heartbeat IPC: 1.85985 cumulative IPC: 1.85602 (Simulation time: 0 hr 17 min 56 sec) 
Heartbeat CPU 3 instructions: 90000002 cycles: 66901918 heartbeat IPC: 1.34145 cumulative IPC: 1.34525 (Simulation time: 0 hr 18 min 33 sec) 
Heartbeat CPU 0 instructions: 140000000 cycles: 67070672 heartbeat IPC: 2.06681 cumulative IPC: 2.08735 (Simulation time: 0 hr 18 min 36 sec) 
Heartbeat CPU 1 instructions: 130000000 cycles: 70239766 heartbeat IPC: 1.79039 cumulative IPC: 1.8508 (Simulation time: 0 hr 19 min 28 sec) 
Heartbeat CPU 0 instructions: 150000000 cycles: 71906652 heartbeat IPC: 2.06783 cumulative IPC: 2.08604 (Simulation time: 0 hr 19 min 55 sec) 
Heartbeat CPU 2 instructions: 70000000 cycles: 74001983 heartbeat IPC: 0.94627 cumulative IPC: 0.945921 (Simulation time: 0 hr 20 min 30 sec) 
Heartbeat CPU 3 instructions: 100000000 cycles: 74337292 heartbeat IPC: 1.34492 cumulative IPC: 1.34522 (Simulation time: 0 hr 20 min 36 sec) 
Heartbeat CPU 1 instructions: 140000000 cycles: 75639066 heartbeat IPC: 1.85209 cumulative IPC: 1.8509 (Simulation time: 0 hr 20 min 58 sec) 
Heartbeat CPU 0 instructions: 160000000 cycles: 76737513 heartbeat IPC: 2.07002 cumulative IPC: 2.08503 (Simulation time: 0 hr 21 min 16 sec) 
Heartbeat CPU 1 instructions: 150000002 cycles: 81043364 heartbeat IPC: 1.85038 cumulative IPC: 1.85086 (Simulation time: 0 hr 22 min 29 sec) 
Heartbeat CPU 0 instructions: 170000003 cycles: 81581608 heartbeat IPC: 2.06437 cumulative IPC: 2.0838 (Simulation time: 0 hr 22 min 38 sec) 
Heartbeat CPU 3 instructions: 110000002 cycles: 81773846 heartbeat IPC: 1.34471 cumulative IPC: 1.34517 (Simulation time: 0 hr 22 min 41 sec) 
Heartbeat CPU 2 instructions: 80000000 cycles: 84571202 heartbeat IPC: 0.946144 cumulative IPC: 0.945948 (Simulation time: 0 hr 23 min 27 sec) 
Heartbeat CPU 0 instructions: 180000000 cycles: 86391934 heartbeat IPC: 2.07886 cumulative IPC: 2.08353 (Simulation time: 0 hr 23 min 58 sec) 
Heartbeat CPU 1 instructions: 160000000 cycles: 86468044 heartbeat IPC: 1.84343 cumulative IPC: 1.85039 (Simulation time: 0 hr 23 min 59 sec) 
Heartbeat CPU 3 instructions: 120000000 cycles: 89207937 heartbeat IPC: 1.34515 cumulative IPC: 1.34517 (Simulation time: 0 hr 24 min 45 sec) 
Heartbeat CPU 0 instructions: 190000000 cycles: 91158172 heartbeat IPC: 2.09809 cumulative IPC: 2.08429 (Simulation time: 0 hr 25 min 18 sec) 
Heartbeat CPU 1 instructions: 170000003 cycles: 91840294 heartbeat IPC: 1.86142 cumulative IPC: 1.85104 (Simulation time: 0 hr 25 min 30 sec) 
Heartbeat CPU 2 instructions: 90000003 cycles: 95113586 heartbeat IPC: 0.948552 cumulative IPC: 0.946237 (Simulation time: 0 hr 26 min 26 sec) 
Heartbeat CPU 0 instructions: 200000000 cycles: 95934995 heartbeat IPC: 2.09344 cumulative IPC: 2.08474 (Simulation time: 0 hr 26 min 40 sec) 
Heartbeat CPU 3 instructions: 130000000 cycles: 96609073 heartbeat IPC: 1.35114 cumulative IPC: 1.34563 (Simulation time: 0 hr 26 min 52 sec) 
Heartbeat CPU 1 instructions: 180000000 cycles: 97213284 heartbeat IPC: 1.86116 cumulative IPC: 1.8516 (Simulation time: 0 hr 27 min 2 sec) 
Heartbeat CPU 0 instructions: 210000000 cycles: 100730958 heartbeat IPC: 2.08509 cumulative IPC: 0.0992743 (Simulation time: 0 hr 27 min 55 sec) 
Heartbeat CPU 1 instructions: 190000001 cycles: 102794146 heartbeat IPC: 1.79184 cumulative IPC: 1.84835 (Simulation time: 0 hr 28 min 25 sec) 
Heartbeat CPU 3 instructions: 140000000 cycles: 104041674 heartbeat IPC: 1.34542 cumulative IPC: 1.34561 (Simulation time: 0 hr 28 min 43 sec) 
Heartbeat CPU 0 instructions: 220000000 cycles: 105549031 heartbeat IPC: 2.07552 cumulative IPC: 0.189485 (Simulation time: 0 hr 29 min 7 sec) 
Heartbeat CPU 2 instructions: 100000000 cycles: 105665457 heartbeat IPC: 0.947699 cumulative IPC: 0.946383 (Simulation time: 0 hr 29 min 9 sec) 
Heartbeat CPU 1 instructions: 200000000 cycles: 108258135 heartbeat IPC: 1.83016 cumulative IPC: 1.84744 (Simulation time: 0 hr 29 min 53 sec) 
Heartbeat CPU 0 instructions: 230000003 cycles: 110310680 heartbeat IPC: 2.10011 cumulative IPC: 0.271959 (Simulation time: 0 hr 30 min 28 sec) 
Heartbeat CPU 3 instructions: 150000001 cycles: 111488780 heartbeat IPC: 1.3428 cumulative IPC: 1.34543 (Simulation time: 0 hr 30 min 48 sec) 
Heartbeat CPU 1 instructions: 210000003 cycles: 113634219 heartbeat IPC: 1.86009 cumulative IPC: 0.0880017 (Simulation time: 0 hr 31 min 24 sec) 
Heartbeat CPU 0 instructions: 240000000 cycles: 115106108 heartbeat IPC: 2.08532 cumulative IPC: 0.347505 (Simulation time: 0 hr 31 min 49 sec) 
Heartbeat CPU 2 instructions: 110000002 cycles: 116226142 heartbeat IPC: 0.946908 cumulative IPC: 0.946431 (Simulation time: 0 hr 32 min 8 sec) 
Heartbeat CPU 3 instructions: 160000000 cycles: 118929431 heartbeat IPC: 1.34397 cumulative IPC: 1.34534 (Simulation time: 0 hr 32 min 53 sec) 
Heartbeat CPU 1 instructions: 220000000 cycles: 119026727 heartbeat IPC: 1.85442 cumulative IPC: 0.168029 (Simulation time: 0 hr 32 min 54 sec) 
Heartbeat CPU 0 instructions: 250000003 cycles: 119872682 heartbeat IPC: 2.09794 cumulative IPC: 0.417109 (Simulation time: 0 hr 33 min 9 sec) 
Heartbeat CPU 1 instructions: 230000000 cycles: 124398151 heartbeat IPC: 1.8617 cumulative IPC: 0.241161 (Simulation time: 0 hr 34 min 25 sec) 
Heartbeat CPU 0 instructions: 260000000 cycles: 124649362 heartbeat IPC: 2.0935 cumulative IPC: 0.48135 (Simulation time: 0 hr 34 min 29 sec) 
Heartbeat CPU 3 instructions: 170000003 cycles: 126342134 heartbeat IPC: 1.34904 cumulative IPC: 1.34555 (Simulation time: 0 hr 34 min 58 sec) 
Heartbeat CPU 2 instructions: 120000000 cycles: 126797640 heartbeat IPC: 0.94594 cumulative IPC: 0.94639 (Simulation time: 0 hr 35 min 6 sec) 
Heartbeat CPU 0 instructions: 270000002 cycles: 129466592 heartbeat IPC: 2.07588 cumulative IPC: 0.54068 (Simulation time: 0 hr 35 min 51 sec) 
Heartbeat CPU 1 instructions: 240000000 cycles: 129766481 heartbeat IPC: 1.86278 cumulative IPC: 0.308246 (Simulation time: 0 hr 35 min 56 sec) 
Heartbeat CPU 3 instructions: 180000000 cycles: 133774230 heartbeat IPC: 1.34552 cumulative IPC: 1.34555 (Simulation time: 0 hr 37 min 2 sec) 
Heartbeat CPU 0 instructions: 280000000 cycles: 134284434 heartbeat IPC: 2.07562 cumulative IPC: 0.59575 (Simulation time: 0 hr 37 min 11 sec) 
Heartbeat CPU 1 instructions: 250000001 cycles: 135205464 heartbeat IPC: 1.83858 cumulative IPC: 0.369808 (Simulation time: 0 hr 37 min 27 sec) 
Heartbeat CPU 2 instructions: 130000000 cycles: 137389211 heartbeat IPC: 0.944147 cumulative IPC: 0.946217 (Simulation time: 0 hr 38 min 3 sec) 
Heartbeat CPU 0 instructions: 290000003 cycles: 139121339 heartbeat IPC: 2.06744 cumulative IPC: 0.646917 (Simulation time: 0 hr 38 min 33 sec) 
Heartbeat CPU 1 instructions: 260000000 cycles: 140575234 heartbeat IPC: 1.86228 cumulative IPC: 0.426818 (Simulation time: 0 hr 38 min 57 sec) 
Heartbeat CPU 3 instructions: 190000003 cycles: 141202513 heartbeat IPC: 1.34621 cumulative IPC: 1.34559 (Simulation time: 0 hr 39 min 8 sec) 
Heartbeat CPU 0 instructions: 300000000 cycles: 144018644 heartbeat IPC: 2.04194 cumulative IPC: 0.694355 (Simulation time: 0 hr 39 min 55 sec) 
Heartbeat CPU 1 instructions: 270000000 cycles: 145975163 heartbeat IPC: 1.85188 cumulative IPC: 0.479534 (Simulation time: 0 hr 40 min 27 sec) 
Heartbeat CPU 2 instructions: 140000000 cycles: 147967778 heartbeat IPC: 0.945308 cumulative IPC: 0.946152 (Simulation time: 0 hr 41 min 0 sec) 
Heartbeat CPU 3 instructions: 200000000 cycles: 148647633 heartbeat IPC: 1.34316 cumulative IPC: 1.34546 (Simulation time: 0 hr 41 min 12 sec) 
Heartbeat CPU 0 instructions: 310000000 cycles: 148898755 heartbeat IPC: 2.04913 cumulative IPC: 0.738757 (Simulation time: 0 hr 41 min 16 sec) 
Heartbeat CPU 1 instructions: 280000000 cycles: 151345567 heartbeat IPC: 1.86206 cumulative IPC: 0.528592 (Simulation time: 0 hr 41 min 57 sec) 
Heartbeat CPU 0 instructions: 320000000 cycles: 153814872 heartbeat IPC: 2.03413 cumulative IPC: 0.780159 (Simulation time: 0 hr 42 min 39 sec) 
Heartbeat CPU 3 instructions: 210000003 cycles: 156067967 heartbeat IPC: 1.34765 cumulative IPC: 0.0640747 (Simulation time: 0 hr 43 min 17 sec) 
Heartbeat CPU 1 instructions: 290000001 cycles: 156716855 heartbeat IPC: 1.86175 cumulative IPC: 0.574284 (Simulation time: 0 hr 43 min 28 sec) 
Heartbeat CPU 2 instructions: 150000001 cycles: 158514440 heartbeat IPC: 0.948167 cumulative IPC: 0.946286 (Simulation time: 0 hr 43 min 59 sec) 
Heartbeat CPU 0 instructions: 330000003 cycles: 158679179 heartbeat IPC: 2.05579 cumulative IPC: 0.819263 (Simulation time: 0 hr 44 min 2 sec) 
Heartbeat CPU 1 instructions: 300000000 cycles: 162117011 heartbeat IPC: 1.8518 cumulative IPC: 0.616838 (Simulation time: 0 hr 45 min 0 sec) 
Heartbeat CPU 3 instructions: 220000000 cycles: 163503280 heartbeat IPC: 1.34493 cumulative IPC: 0.122322 (Simulation time: 0 hr 45 min 24 sec) 
Heartbeat CPU 0 instructions: 340000000 cycles: 163577648 heartbeat IPC: 2.04145 cumulative IPC: 0.855863 (Simulation time: 0 hr 45 min 25 sec) 
Heartbeat CPU 1 instructions: 310000002 cycles: 167488413 heartbeat IPC: 1.86171 cumulative IPC: 0.656762 (Simulation time: 0 hr 46 min 33 sec) 
Heartbeat CPU 0 instructions: 350000001 cycles: 168480063 heartbeat IPC: 2.03981 cumulative IPC: 0.890313 (Simulation time: 0 hr 46 min 49 sec) 
Heartbeat CPU 2 instructions: 160000000 cycles: 168970739 heartbeat IPC: 0.956361 cumulative IPC: 0.946909 (Simulation time: 0 hr 46 min 58 sec) 
Heartbeat CPU 3 instructions: 230000002 cycles: 170933295 heartbeat IPC: 1.34589 cumulative IPC: 0.175507 (Simulation time: 0 hr 47 min 30 sec) 
Heartbeat CPU 1 instructions: 320000000 cycles: 172867235 heartbeat IPC: 1.85914 cumulative IPC: 0.694174 (Simulation time: 0 hr 48 min 3 sec) 
Heartbeat CPU 0 instructions: 360000000 cycles: 173366464 heartbeat IPC: 2.0465 cumulative IPC: 0.9229 (Simulation time: 0 hr 48 min 11 sec) 
Heartbeat CPU 0 instructions: 370000000 cycles: 178258317 heartbeat IPC: 2.04422 cumulative IPC: 0.953672 (Simulation time: 0 hr 49 min 32 sec) 
Heartbeat CPU 1 instructions: 330000000 cycles: 178261233 heartbeat IPC: 1.85391 cumulative IPC: 0.729267 (Simulation time: 0 hr 49 min 32 sec) 
Heartbeat CPU 3 instructions: 240000000 cycles: 178357917 heartbeat IPC: 1.34687 cumulative IPC: 0.224268 (Simulation time: 0 hr 49 min 34 sec) 
Heartbeat CPU 2 instructions: 170000001 cycles: 179579868 heartbeat IPC: 0.942585 cumulative IPC: 0.946654 (Simulation time: 0 hr 49 min 54 sec) 
Heartbeat CPU 0 instructions: 380000000 cycles: 183200882 heartbeat IPC: 2.02324 cumulative IPC: 0.982528 (Simulation time: 0 hr 50 min 55 sec) 
Heartbeat CPU 1 instructions: 340000000 cycles: 183633571 heartbeat IPC: 1.86139 cumulative IPC: 0.762388 (Simulation time: 0 hr 51 min 2 sec) 
Heartbeat CPU 3 instructions: 250000003 cycles: 185779535 heartbeat IPC: 1.34742 cumulative IPC: 0.269136 (Simulation time: 0 hr 51 min 38 sec) 
Heartbeat CPU 0 instructions: 390000003 cycles: 188100842 heartbeat IPC: 2.04083 cumulative IPC: 1.0101 (Simulation time: 0 hr 52 min 16 sec) 
Heartbeat CPU 1 instructions: 350000003 cycles: 189020305 heartbeat IPC: 1.85641 cumulative IPC: 0.793566 (Simulation time: 0 hr 52 min 31 sec) 
Heartbeat CPU 2 instructions: 180000000 cycles: 190171451 heartbeat IPC: 0.944146 cumulative IPC: 0.946514 (Simulation time: 0 hr 52 min 51 sec) 
Heartbeat CPU 0 instructions: 400000000 cycles: 193055225 heartbeat IPC: 2.01841 cumulative IPC: 1.03597 (Simulation time: 0 hr 53 min 38 sec) 
Heartbeat CPU 3 instructions: 260000000 cycles: 193192701 heartbeat IPC: 1.34895 cumulative IPC: 0.310571 (Simulation time: 0 hr 53 min 40 sec) 
Heartbeat CPU 1 instructions: 360000000 cycles: 194411897 heartbeat IPC: 1.85474 cumulative IPC: 0.822995 (Simulation time: 0 hr 54 min 1 sec) 
Heartbeat CPU 0 instructions: 410000002 cycles: 198033408 heartbeat IPC: 2.00877 cumulative IPC: 1.06043 (Simulation time: 0 hr 55 min 0 sec) 
Heartbeat CPU 1 instructions: 370000003 cycles: 199781603 heartbeat IPC: 1.8623 cumulative IPC: 0.850929 (Simulation time: 0 hr 55 min 29 sec) 
Heartbeat CPU 3 instructions: 270000000 cycles: 200628253 heartbeat IPC: 1.34489 cumulative IPC: 0.348904 (Simulation time: 0 hr 55 min 43 sec) 
Heartbeat CPU 2 instructions: 190000000 cycles: 200748946 heartbeat IPC: 0.945403 cumulative IPC: 0.946456 (Simulation time: 0 hr 55 min 45 sec) 
Heartbeat CPU 0 instructions: 420000000 cycles: 202914747 heartbeat IPC: 2.04862 cumulative IPC: 1.0842 (Simulation time: 0 hr 56 min 21 sec) 
Heartbeat CPU 1 instructions: 380000000 cycles: 205167916 heartbeat IPC: 1.85656 cumulative IPC: 0.87733 (Simulation time: 0 hr 56 min 58 sec) 
Heartbeat CPU 0 instructions: 430000001 cycles: 207833147 heartbeat IPC: 2.03318 cumulative IPC: 1.10666 (Simulation time: 0 hr 57 min 42 sec) 
Heartbeat CPU 3 instructions: 280000000 cycles: 208084633 heartbeat IPC: 1.34113 cumulative IPC: 0.384459 (Simulation time: 0 hr 57 min 46 sec) 
Heartbeat CPU 1 instructions: 390000000 cycles: 210572829 heartbeat IPC: 1.85017 cumulative IPC: 0.902301 (Simulation time: 0 hr 58 min 26 sec) 
Heartbeat CPU 2 instructions: 200000000 cycles: 211343995 heartbeat IPC: 0.943837 cumulative IPC: 0.946325 (Simulation time: 0 hr 58 min 40 sec) 

Warmup complete CPU 0 instructions: 437149475 cycles: 211344000 (Simulation time: 0 hr 58 min 40 sec) 
Warmup complete CPU 1 instructions: 391434970 cycles: 211344000 (Simulation time: 0 hr 58 min 40 sec) 
Warmup complete CPU 2 instructions: 200000004 cycles: 211344000 (Simulation time: 0 hr 58 min 40 sec) 
Warmup complete CPU 3 instructions: 284395097 cycles: 211343999 (Simulation time: 0 hr 58 min 40 sec) 

Heartbeat CPU 0 instructions: 440000000 cycles: 215585855 heartbeat IPC: 1.28987 cumulative IPC: 0.672 (Simulation time: 0 hr 59 min 6 sec) 
Heartbeat CPU 0 instructions: 450000002 cycles: 230227756 heartbeat IPC: 0.682972 cumulative IPC: 0.680507 (Simulation time: 1 hr 0 min 39 sec) 
Heartbeat CPU 1 instructions: 400000000 cycles: 231361958 heartbeat IPC: 0.481021 cumulative IPC: 0.427867 (Simulation time: 1 hr 0 min 46 sec) 
Heartbeat CPU 3 instructions: 290000001 cycles: 237976598 heartbeat IPC: 0.334538 cumulative IPC: 0.210453 (Simulation time: 1 hr 1 min 27 sec) 
Heartbeat CPU 0 instructions: 460000000 cycles: 244810874 heartbeat IPC: 0.685724 cumulative IPC: 0.68278 (Simulation time: 1 hr 2 min 10 sec) 
Heartbeat CPU 1 instructions: 410000001 cycles: 254978529 heartbeat IPC: 0.423432 cumulative IPC: 0.425467 (Simulation time: 1 hr 3 min 14 sec) 
Heartbeat CPU 0 instructions: 470000002 cycles: 259505581 heartbeat IPC: 0.680517 cumulative IPC: 0.68209 (Simulation time: 1 hr 3 min 42 sec) 
Heartbeat CPU 2 instructions: 210000000 cycles: 267486696 heartbeat IPC: 0.178118 cumulative IPC: 0.178117 (Simulation time: 1 hr 4 min 31 sec) 
Heartbeat CPU 0 instructions: 480000000 cycles: 274203560 heartbeat IPC: 0.680366 cumulative IPC: 0.681687 (Simulation time: 1 hr 5 min 8 sec) 
Heartbeat CPU 1 instructions: 420000000 cycles: 280746028 heartbeat IPC: 0.388086 cumulative IPC: 0.411588 (Simulation time: 1 hr 5 min 49 sec) 
Heartbeat CPU 3 instructions: 300000000 cycles: 284223736 heartbeat IPC: 0.21623 cumulative IPC: 0.214119 (Simulation time: 1 hr 6 min 10 sec) 
Heartbeat CPU 0 instructions: 490000000 cycles: 288630610 heartbeat IPC: 0.693142 cumulative IPC: 0.683825 (Simulation time: 1 hr 6 min 38 sec) 
Heartbeat CPU 0 instructions: 500000000 cycles: 303253210 heartbeat IPC: 0.683873 cumulative IPC: 0.683833 (Simulation time: 1 hr 8 min 10 sec) 
Heartbeat CPU 1 instructions: 430000000 cycles: 304139194 heartbeat IPC: 0.427475 cumulative IPC: 0.415593 (Simulation time: 1 hr 8 min 16 sec) 
Heartbeat CPU 0 instructions: 510000002 cycles: 317804155 heartbeat IPC: 0.687241 cumulative IPC: 0.684299 (Simulation time: 1 hr 9 min 41 sec) 
Heartbeat CPU 2 instructions: 220000000 cycles: 323809225 heartbeat IPC: 0.177549 cumulative IPC: 0.177833 (Simulation time: 1 hr 10 min 18 sec) 
Heartbeat CPU 1 instructions: 440000000 cycles: 327804232 heartbeat IPC: 0.422564 cumulative IPC: 0.41701 (Simulation time: 1 hr 10 min 43 sec) 
Heartbeat CPU 3 instructions: 310000000 cycles: 331378677 heartbeat IPC: 0.212067 cumulative IPC: 0.213313 (Simulation time: 1 hr 11 min 5 sec) 
Heartbeat CPU 0 instructions: 520000000 cycles: 332153555 heartbeat IPC: 0.696893 cumulative IPC: 0.685794 (Simulation time: 1 hr 11 min 9 sec) 
Heartbeat CPU 0 instructions: 530000000 cycles: 346601221 heartbeat IPC: 0.692153 cumulative IPC: 0.686474 (Simulation time: 1 hr 12 min 41 sec) 
Heartbeat CPU 1 instructions: 450000001 cycles: 351640100 heartbeat IPC: 0.419536 cumulative IPC: 0.417439 (Simulation time: 1 hr 13 min 12 sec) 
Heartbeat CPU 0 instructions: 540000000 cycles: 361244912 heartbeat IPC: 0.682888 cumulative IPC: 0.686123 (Simulation time: 1 hr 14 min 12 sec) 
Heartbeat CPU 1 instructions: 460000000 cycles: 375026241 heartbeat IPC: 0.427604 cumulative IPC: 0.418891 (Simulation time: 1 hr 15 min 38 sec) 
Heartbeat CPU 0 instructions: 550000002 cycles: 375869200 heartbeat IPC: 0.683794 cumulative IPC: 0.685916 (Simulation time: 1 hr 15 min 44 sec) 
Heartbeat CPU 3 instructions: 320000000 cycles: 378215110 heartbeat IPC: 0.213509 cumulative IPC: 0.213368 (Simulation time: 1 hr 15 min 58 sec) 
Heartbeat CPU 2 instructions: 230000002 cycles: 379964726 heartbeat IPC: 0.178077 cumulative IPC: 0.177914 (Simulation time: 1 hr 16 min 9 sec) 
Heartbeat CPU 0 instructions: 560000000 cycles: 390550483 heartbeat IPC: 0.681139 cumulative IPC: 0.685525 (Simulation time: 1 hr 17 min 15 sec) 
Heartbeat CPU 1 instructions: 470000000 cycles: 398910773 heartbeat IPC: 0.418681 cumulative IPC: 0.418864 (Simulation time: 1 hr 18 min 7 sec) 
Heartbeat CPU 0 instructions: 570000001 cycles: 405468745 heartbeat IPC: 0.670319 cumulative IPC: 0.684356 (Simulation time: 1 hr 18 min 46 sec) 
Heartbeat CPU 0 instructions: 580000000 cycles: 420155205 heartbeat IPC: 0.680899 cumulative IPC: 0.684113 (Simulation time: 1 hr 20 min 18 sec) 
Heartbeat CPU 1 instructions: 480000000 cycles: 423688469 heartbeat IPC: 0.403589 cumulative IPC: 0.417082 (Simulation time: 1 hr 20 min 41 sec) 
Heartbeat CPU 3 instructions: 330000000 cycles: 424882535 heartbeat IPC: 0.214282 cumulative IPC: 0.213568 (Simulation time: 1 hr 20 min 48 sec) 
Heartbeat CPU 0 instructions: 590000000 cycles: 434833393 heartbeat IPC: 0.681283 cumulative IPC: 0.683927 (Simulation time: 1 hr 21 min 52 sec) 
Heartbeat CPU 2 instructions: 240000000 cycles: 436169200 heartbeat IPC: 0.177922 cumulative IPC: 0.177916 (Simulation time: 1 hr 22 min 0 sec) 
Heartbeat CPU 1 instructions: 490000000 cycles: 447139609 heartbeat IPC: 0.426419 cumulative IPC: 0.41801 (Simulation time: 1 hr 23 min 10 sec) 
Heartbeat CPU 0 instructions: 600000000 cycles: 449589605 heartbeat IPC: 0.677681 cumulative IPC: 0.683541 (Simulation time: 1 hr 23 min 25 sec) 
Heartbeat CPU 0 instructions: 610000000 cycles: 464137324 heartbeat IPC: 0.687393 cumulative IPC: 0.683762 (Simulation time: 1 hr 24 min 55 sec) 
Heartbeat CPU 3 instructions: 340000000 cycles: 470471019 heartbeat IPC: 0.219354 cumulative IPC: 0.214586 (Simulation time: 1 hr 25 min 35 sec) 
Heartbeat CPU 1 instructions: 500000000 cycles: 471051697 heartbeat IPC: 0.418199 cumulative IPC: 0.418028 (Simulation time: 1 hr 25 min 38 sec) 
Heartbeat CPU 0 instructions: 620000000 cycles: 478666161 heartbeat IPC: 0.688286 cumulative IPC: 0.684008 (Simulation time: 1 hr 26 min 26 sec) 
Heartbeat CPU 2 instructions: 250000002 cycles: 492573316 heartbeat IPC: 0.177292 cumulative IPC: 0.177791 (Simulation time: 1 hr 27 min 54 sec) 
Heartbeat CPU 0 instructions: 630000003 cycles: 493150926 heartbeat IPC: 0.690381 cumulative IPC: 0.684336 (Simulation time: 1 hr 27 min 57 sec) 
Heartbeat CPU 1 instructions: 510000000 cycles: 494409369 heartbeat IPC: 0.428125 cumulative IPC: 0.418861 (Simulation time: 1 hr 28 min 5 sec) 
Heartbeat CPU 0 instructions: 640000000 cycles: 508085898 heartbeat IPC: 0.669569 cumulative IPC: 0.683592 (Simulation time: 1 hr 29 min 31 sec) 
Heartbeat CPU 3 instructions: 350000000 cycles: 517282427 heartbeat IPC: 0.213623 cumulative IPC: 0.214438 (Simulation time: 1 hr 30 min 28 sec) 
Heartbeat CPU 1 instructions: 520000000 cycles: 518271112 heartbeat IPC: 0.419081 cumulative IPC: 0.418878 (Simulation time: 1 hr 30 min 34 sec) 
Heartbeat CPU 0 instructions: 650000002 cycles: 522754551 heartbeat IPC: 0.681726 cumulative IPC: 0.683505 (Simulation time: 1 hr 31 min 3 sec) 
Heartbeat CPU 0 instructions: 660000000 cycles: 537375498 heartbeat IPC: 0.68395 cumulative IPC: 0.683525 (Simulation time: 1 hr 32 min 34 sec) 
Heartbeat CPU 1 instructions: 530000000 cycles: 541792452 heartbeat IPC: 0.425146 cumulative IPC: 0.419324 (Simulation time: 1 hr 33 min 2 sec) 
Heartbeat CPU 2 instructions: 260000000 cycles: 548757422 heartbeat IPC: 0.177986 cumulative IPC: 0.177823 (Simulation time: 1 hr 33 min 46 sec) 
Heartbeat CPU 0 instructions: 670000003 cycles: 552144636 heartbeat IPC: 0.677088 cumulative IPC: 0.683246 (Simulation time: 1 hr 34 min 7 sec) 
Heartbeat CPU 3 instructions: 360000000 cycles: 563613091 heartbeat IPC: 0.21584 cumulative IPC: 0.214623 (Simulation time: 1 hr 35 min 20 sec) 
Heartbeat CPU 1 instructions: 540000000 cycles: 565173891 heartbeat IPC: 0.42769 cumulative IPC: 0.419877 (Simulation time: 1 hr 35 min 29 sec) 
Heartbeat CPU 0 instructions: 680000000 cycles: 566740361 heartbeat IPC: 0.685132 cumulative IPC: 0.683323 (Simulation time: 1 hr 35 min 40 sec) 
Heartbeat CPU 0 instructions: 690000000 cycles: 581803204 heartbeat IPC: 0.663885 cumulative IPC: 0.682533 (Simulation time: 1 hr 37 min 14 sec) 
Heartbeat CPU 1 instructions: 550000000 cycles: 588815116 heartbeat IPC: 0.42299 cumulative IPC: 0.420072 (Simulation time: 1 hr 37 min 57 sec) 
Heartbeat CPU 0 instructions: 700000000 cycles: 596819012 heartbeat IPC: 0.665965 cumulative IPC: 0.681887 (Simulation time: 1 hr 38 min 45 sec) 
Heartbeat CPU 2 instructions: 270000002 cycles: 605369288 heartbeat IPC: 0.176641 cumulative IPC: 0.177654 (Simulation time: 1 hr 39 min 35 sec) 
Heartbeat CPU 3 instructions: 370000000 cycles: 610113632 heartbeat IPC: 0.215051 cumulative IPC: 0.214673 (Simulation time: 1 hr 40 min 5 sec) 
Heartbeat CPU 0 instructions: 710000000 cycles: 611681509 heartbeat IPC: 0.672834 cumulative IPC: 0.681551 (Simulation time: 1 hr 40 min 15 sec) 
Heartbeat CPU 1 instructions: 560000000 cycles: 614494249 heartbeat IPC: 0.389421 cumulative IPC: 0.41812 (Simulation time: 1 hr 40 min 33 sec) 
Heartbeat CPU 0 instructions: 720000000 cycles: 626412214 heartbeat IPC: 0.678854 cumulative IPC: 0.681455 (Simulation time: 1 hr 41 min 48 sec) 
Heartbeat CPU 1 instructions: 570000000 cycles: 637972311 heartbeat IPC: 0.42593 cumulative IPC: 0.418549 (Simulation time: 1 hr 43 min 1 sec) 
Heartbeat CPU 0 instructions: 730000003 cycles: 641925653 heartbeat IPC: 0.644603 cumulative IPC: 0.680128 (Simulation time: 1 hr 43 min 25 sec) 
Heartbeat CPU 3 instructions: 380000000 cycles: 656363941 heartbeat IPC: 0.216215 cumulative IPC: 0.214833 (Simulation time: 1 hr 44 min 54 sec) 
Heartbeat CPU 0 instructions: 740000000 cycles: 657694756 heartbeat IPC: 0.634151 cumulative IPC: 0.678503 (Simulation time: 1 hr 45 min 2 sec) 
Heartbeat CPU 2 instructions: 280000000 cycles: 661653512 heartbeat IPC: 0.17767 cumulative IPC: 0.177656 (Simulation time: 1 hr 45 min 26 sec) 
Heartbeat CPU 1 instructions: 580000000 cycles: 661866187 heartbeat IPC: 0.418517 cumulative IPC: 0.418548 (Simulation time: 1 hr 45 min 28 sec) 
Heartbeat CPU 0 instructions: 750000003 cycles: 673212473 heartbeat IPC: 0.644425 cumulative IPC: 0.677359 (Simulation time: 1 hr 46 min 39 sec) 
Heartbeat CPU 1 instructions: 590000003 cycles: 685215380 heartbeat IPC: 0.42828 cumulative IPC: 0.419027 (Simulation time: 1 hr 47 min 54 sec) 
Heartbeat CPU 0 instructions: 760000000 cycles: 688339276 heartbeat IPC: 0.661078 cumulative IPC: 0.676842 (Simulation time: 1 hr 48 min 14 sec) 
Heartbeat CPU 3 instructions: 390000000 cycles: 702620222 heartbeat IPC: 0.216187 cumulative IPC: 0.21496 (Simulation time: 1 hr 49 min 43 sec) 
Heartbeat CPU 0 instructions: 770000000 cycles: 703635747 heartbeat IPC: 0.653746 cumulative IPC: 0.676125 (Simulation time: 1 hr 49 min 50 sec) 
Heartbeat CPU 1 instructions: 600000000 cycles: 708699283 heartbeat IPC: 0.425823 cumulative IPC: 0.419348 (Simulation time: 1 hr 50 min 21 sec) 
Heartbeat CPU 2 instructions: 290000000 cycles: 717776801 heartbeat IPC: 0.178179 cumulative IPC: 0.177714 (Simulation time: 1 hr 51 min 17 sec) 
Heartbeat CPU 0 instructions: 780000000 cycles: 719702313 heartbeat IPC: 0.622411 cumulative IPC: 0.674427 (Simulation time: 1 hr 51 min 29 sec) 
Heartbeat CPU 1 instructions: 610000000 cycles: 732631473 heartbeat IPC: 0.417847 cumulative IPC: 0.419279 (Simulation time: 1 hr 52 min 50 sec) 
Heartbeat CPU 0 instructions: 790000000 cycles: 735132044 heartbeat IPC: 0.648099 cumulative IPC: 0.673651 (Simulation time: 1 hr 53 min 5 sec) 
Heartbeat CPU 3 instructions: 400000000 cycles: 749064750 heartbeat IPC: 0.215311 cumulative IPC: 0.214991 (Simulation time: 1 hr 54 min 32 sec) 
Heartbeat CPU 0 instructions: 800000000 cycles: 750587459 heartbeat IPC: 0.647022 cumulative IPC: 0.672888 (Simulation time: 1 hr 54 min 42 sec) 
Heartbeat CPU 1 instructions: 620000000 cycles: 756020074 heartbeat IPC: 0.427559 cumulative IPC: 0.419635 (Simulation time: 1 hr 55 min 16 sec) 
Heartbeat CPU 0 instructions: 810000001 cycles: 765852072 heartbeat IPC: 0.65511 cumulative IPC: 0.672399 (Simulation time: 1 hr 56 min 18 sec) 
Heartbeat CPU 2 instructions: 300000000 cycles: 773926167 heartbeat IPC: 0.178096 cumulative IPC: 0.177752 (Simulation time: 1 hr 57 min 8 sec) 
Heartbeat CPU 1 instructions: 630000003 cycles: 779499269 heartbeat IPC: 0.425909 cumulative IPC: 0.419894 (Simulation time: 1 hr 57 min 43 sec) 
Heartbeat CPU 0 instructions: 820000000 cycles: 781530361 heartbeat IPC: 0.637825 cumulative IPC: 0.671448 (Simulation time: 1 hr 57 min 55 sec) 
Heartbeat CPU 3 instructions: 410000000 cycles: 795204109 heartbeat IPC: 0.216735 cumulative IPC: 0.215128 (Simulation time: 1 hr 59 min 20 sec) 
Heartbeat CPU 0 instructions: 830000001 cycles: 797313387 heartbeat IPC: 0.633592 cumulative IPC: 0.670428 (Simulation time: 1 hr 59 min 33 sec) 
Heartbeat CPU 1 instructions: 640000000 cycles: 803420682 heartbeat IPC: 0.418035 cumulative IPC: 0.419819 (Simulation time: 2 hr 0 min 11 sec) 
Heartbeat CPU 0 instructions: 840000000 cycles: 812943619 heartbeat IPC: 0.639786 cumulative IPC: 0.669632 (Simulation time: 2 hr 1 min 10 sec) 
Heartbeat CPU 1 instructions: 650000000 cycles: 826836165 heartbeat IPC: 0.427068 cumulative IPC: 0.420095 (Simulation time: 2 hr 2 min 37 sec) 
Heartbeat CPU 0 instructions: 850000000 cycles: 828733754 heartbeat IPC: 0.633307 cumulative IPC: 0.668703 (Simulation time: 2 hr 2 min 49 sec) 
Heartbeat CPU 2 instructions: 310000000 cycles: 830825481 heartbeat IPC: 0.175749 cumulative IPC: 0.177568 (Simulation time: 2 hr 3 min 2 sec) 
Heartbeat CPU 3 instructions: 420000000 cycles: 841954000 heartbeat IPC: 0.213904 cumulative IPC: 0.215038 (Simulation time: 2 hr 4 min 11 sec) 
Heartbeat CPU 0 instructions: 860000000 cycles: 844795115 heartbeat IPC: 0.622612 cumulative IPC: 0.667535 (Simulation time: 2 hr 4 min 28 sec) 
Heartbeat CPU 1 instructions: 660000000 cycles: 850456723 heartbeat IPC: 0.42336 cumulative IPC: 0.420215 (Simulation time: 2 hr 5 min 4 sec) 
Heartbeat CPU 0 instructions: 870000001 cycles: 860834234 heartbeat IPC: 0.623476 cumulative IPC: 0.666447 (Simulation time: 2 hr 6 min 8 sec) 
Heartbeat CPU 1 instructions: 670000000 cycles: 874305062 heartbeat IPC: 0.419316 cumulative IPC: 0.420183 (Simulation time: 2 hr 7 min 31 sec) 
Heartbeat CPU 0 instructions: 880000000 cycles: 877076969 heartbeat IPC: 0.61566 cumulative IPC: 0.665207 (Simulation time: 2 hr 7 min 48 sec) 
Heartbeat CPU 2 instructions: 320000000 cycles: 887003682 heartbeat IPC: 0.178005 cumulative IPC: 0.177604 (Simulation time: 2 hr 8 min 50 sec) 
Heartbeat CPU 3 instructions: 430000000 cycles: 888531301 heartbeat IPC: 0.214697 cumulative IPC: 0.215014 (Simulation time: 2 hr 9 min 0 sec) 
Heartbeat CPU 0 instructions: 890000003 cycles: 892710415 heartbeat IPC: 0.639654 cumulative IPC: 0.664621 (Simulation time: 2 hr 9 min 25 sec) 
Heartbeat CPU 1 instructions: 680000000 cycles: 897696037 heartbeat IPC: 0.427515 cumulative IPC: 0.420433 (Simulation time: 2 hr 9 min 57 sec) 
Heartbeat CPU 0 instructions: 900000000 cycles: 908637792 heartbeat IPC: 0.62785 cumulative IPC: 0.663781 (Simulation time: 2 hr 11 min 4 sec) 
Heartbeat CPU 1 instructions: 690000003 cycles: 921292941 heartbeat IPC: 0.423785 cumulative IPC: 0.420544 (Simulation time: 2 hr 12 min 23 sec) 
Heartbeat CPU 0 instructions: 910000001 cycles: 924480471 heartbeat IPC: 0.631206 cumulative IPC: 0.663058 (Simulation time: 2 hr 12 min 42 sec) 
Heartbeat CPU 3 instructions: 440000000 cycles: 935228479 heartbeat IPC: 0.214146 cumulative IPC: 0.214958 (Simulation time: 2 hr 13 min 49 sec) 
Heartbeat CPU 0 instructions: 920000000 cycles: 939894262 heartbeat IPC: 0.64877 cumulative IPC: 0.662755 (Simulation time: 2 hr 14 min 18 sec) 
Heartbeat CPU 2 instructions: 330000002 cycles: 943404597 heartbeat IPC: 0.177302 cumulative IPC: 0.177581 (Simulation time: 2 hr 14 min 40 sec) 
Heartbeat CPU 1 instructions: 700000000 cycles: 945175765 heartbeat IPC: 0.418711 cumulative IPC: 0.420485 (Simulation time: 2 hr 14 min 50 sec) 
Heartbeat CPU 0 instructions: 930000001 cycles: 955576029 heartbeat IPC: 0.637683 cumulative IPC: 0.662227 (Simulation time: 2 hr 15 min 55 sec) 
Heartbeat CPU 1 instructions: 710000000 cycles: 968595536 heartbeat IPC: 0.42699 cumulative IPC: 0.420686 (Simulation time: 2 hr 17 min 16 sec) 
Heartbeat CPU 0 instructions: 940000000 cycles: 971462304 heartbeat IPC: 0.629474 cumulative IPC: 0.661542 (Simulation time: 2 hr 17 min 34 sec) 
Heartbeat CPU 3 instructions: 450000000 cycles: 981922305 heartbeat IPC: 0.214161 cumulative IPC: 0.21491 (Simulation time: 2 hr 18 min 39 sec) 
Heartbeat CPU 0 instructions: 950000000 cycles: 986651240 heartbeat IPC: 0.658374 cumulative IPC: 0.66148 (Simulation time: 2 hr 19 min 9 sec) 
Heartbeat CPU 1 instructions: 720000000 cycles: 992339712 heartbeat IPC: 0.421156 cumulative IPC: 0.4207 (Simulation time: 2 hr 19 min 43 sec) 
Heartbeat CPU 2 instructions: 340000000 cycles: 1000059861 heartbeat IPC: 0.176506 cumulative IPC: 0.177504 (Simulation time: 2 hr 20 min 31 sec) 
Heartbeat CPU 0 instructions: 960000000 cycles: 1002038543 heartbeat IPC: 0.649886 cumulative IPC: 0.661255 (Simulation time: 2 hr 20 min 43 sec) 
Heartbeat CPU 1 instructions: 730000003 cycles: 1016020458 heartbeat IPC: 0.422284 cumulative IPC: 0.420747 (Simulation time: 2 hr 22 min 10 sec) 
Heartbeat CPU 0 instructions: 970000001 cycles: 1017575284 heartbeat IPC: 0.643636 cumulative IPC: 0.660915 (Simulation time: 2 hr 22 min 20 sec) 
Heartbeat CPU 3 instructions: 460000000 cycles: 1028273041 heartbeat IPC: 0.215746 cumulative IPC: 0.214957 (Simulation time: 2 hr 23 min 27 sec) 
Heartbeat CPU 0 instructions: 980000000 cycles: 1033207947 heartbeat IPC: 0.639686 cumulative IPC: 0.660511 (Simulation time: 2 hr 23 min 57 sec) 
Heartbeat CPU 1 instructions: 740000000 cycles: 1039541128 heartbeat IPC: 0.425158 cumulative IPC: 0.420872 (Simulation time: 2 hr 24 min 37 sec) 
Heartbeat CPU 0 instructions: 990000000 cycles: 1048733257 heartbeat IPC: 0.64411 cumulative IPC: 0.660207 (Simulation time: 2 hr 25 min 34 sec) 
Heartbeat CPU 2 instructions: 350000000 cycles: 1056596969 heartbeat IPC: 0.176875 cumulative IPC: 0.177462 (Simulation time: 2 hr 26 min 22 sec) 
Heartbeat CPU 1 instructions: 750000002 cycles: 1063425376 heartbeat IPC: 0.418686 cumulative IPC: 0.420811 (Simulation time: 2 hr 27 min 5 sec) 
Heartbeat CPU 0 instructions: 1000000000 cycles: 1063777213 heartbeat IPC: 0.664719 cumulative IPC: 0.660287 (Simulation time: 2 hr 27 min 7 sec) 
Heartbeat CPU 3 instructions: 470000000 cycles: 1074849664 heartbeat IPC: 0.2147 cumulative IPC: 0.214943 (Simulation time: 2 hr 28 min 9 sec) 
Heartbeat CPU 0 instructions: 1010000001 cycles: 1078928567 heartbeat IPC: 0.660007 cumulative IPC: 0.660282 (Simulation time: 2 hr 28 min 31 sec) 
Heartbeat CPU 1 instructions: 760000000 cycles: 1090184291 heartbeat IPC: 0.373707 cumulative IPC: 0.419377 (Simulation time: 2 hr 29 min 33 sec) 
Heartbeat CPU 0 instructions: 1020000000 cycles: 1094675810 heartbeat IPC: 0.635032 cumulative IPC: 0.659832 (Simulation time: 2 hr 29 min 57 sec) 
Heartbeat CPU 0 instructions: 1030000003 cycles: 1110272103 heartbeat IPC: 0.641178 cumulative IPC: 0.659508 (Simulation time: 2 hr 31 min 29 sec) 
Heartbeat CPU 2 instructions: 360000000 cycles: 1113431022 heartbeat IPC: 0.175951 cumulative IPC: 0.177366 (Simulation time: 2 hr 31 min 49 sec) 
Heartbeat CPU 1 instructions: 770000000 cycles: 1114889904 heartbeat IPC: 0.404766 cumulative IPC: 0.418977 (Simulation time: 2 hr 31 min 58 sec) 
Heartbeat CPU 3 instructions: 480000000 cycles: 1121603488 heartbeat IPC: 0.213886 cumulative IPC: 0.214889 (Simulation time: 2 hr 32 min 40 sec) 
Heartbeat CPU 0 instructions: 1040000000 cycles: 1125499839 heartbeat IPC: 0.656696 cumulative IPC: 0.659461 (Simulation time: 2 hr 33 min 5 sec) 
Heartbeat CPU 1 instructions: 780000000 cycles: 1138311234 heartbeat IPC: 0.426961 cumulative IPC: 0.419179 (Simulation time: 2 hr 34 min 24 sec) 
Heartbeat CPU 0 instructions: 1050000002 cycles: 1141291500 heartbeat IPC: 0.633246 cumulative IPC: 0.659016 (Simulation time: 2 hr 34 min 43 sec) 
Heartbeat CPU 0 instructions: 1060000000 cycles: 1156402346 heartbeat IPC: 0.661776 cumulative IPC: 0.65906 (Simulation time: 2 hr 36 min 16 sec) 
Heartbeat CPU 1 instructions: 790000002 cycles: 1162166211 heartbeat IPC: 0.4192 cumulative IPC: 0.419179 (Simulation time: 2 hr 36 min 51 sec) 
Heartbeat CPU 3 instructions: 490000000 cycles: 1169508252 heartbeat IPC: 0.208748 cumulative IPC: 0.214582 (Simulation time: 2 hr 37 min 36 sec) 
Heartbeat CPU 2 instructions: 370000000 cycles: 1170167994 heartbeat IPC: 0.176252 cumulative IPC: 0.177301 (Simulation time: 2 hr 37 min 40 sec) 
Heartbeat CPU 0 instructions: 1070000000 cycles: 1171479918 heartbeat IPC: 0.663237 cumulative IPC: 0.659126 (Simulation time: 2 hr 37 min 48 sec) 
Heartbeat CPU 1 instructions: 800000000 cycles: 1185785995 heartbeat IPC: 0.423374 cumulative IPC: 0.419281 (Simulation time: 2 hr 39 min 18 sec) 
Heartbeat CPU 0 instructions: 1080000000 cycles: 1186558025 heartbeat IPC: 0.663213 cumulative IPC: 0.659189 (Simulation time: 2 hr 39 min 22 sec) 
Heartbeat CPU 0 instructions: 1090000000 cycles: 1202428698 heartbeat IPC: 0.630093 cumulative IPC: 0.658723 (Simulation time: 2 hr 41 min 1 sec) 
Heartbeat CPU 1 instructions: 810000000 cycles: 1209190968 heartbeat IPC: 0.42726 cumulative IPC: 0.419468 (Simulation time: 2 hr 41 min 42 sec) 
Heartbeat CPU 3 instructions: 500000000 cycles: 1215720101 heartbeat IPC: 0.216395 cumulative IPC: 0.214666 (Simulation time: 2 hr 42 min 23 sec) 
Heartbeat CPU 0 instructions: 1100000000 cycles: 1217797298 heartbeat IPC: 0.650677 cumulative IPC: 0.6586 (Simulation time: 2 hr 42 min 35 sec) 
Heartbeat CPU 2 instructions: 380000000 cycles: 1227344195 heartbeat IPC: 0.174898 cumulative IPC: 0.177165 (Simulation time: 2 hr 43 min 34 sec) 
Heartbeat CPU 0 instructions: 1110000000 cycles: 1232846000 heartbeat IPC: 0.664509 cumulative IPC: 0.658687 (Simulation time: 2 hr 44 min 7 sec) 
Heartbeat CPU 1 instructions: 820000000 cycles: 1233197849 heartbeat IPC: 0.416547 cumulative IPC: 0.4194 (Simulation time: 2 hr 44 min 10 sec) 
Heartbeat CPU 0 instructions: 1120000000 cycles: 1247713235 heartbeat IPC: 0.67262 cumulative IPC: 0.658887 (Simulation time: 2 hr 45 min 39 sec) 
Heartbeat CPU 1 instructions: 830000000 cycles: 1256630577 heartbeat IPC: 0.426754 cumulative IPC: 0.419564 (Simulation time: 2 hr 46 min 34 sec) 
Heartbeat CPU 0 instructions: 1130000000 cycles: 1262735626 heartbeat IPC: 0.665673 cumulative IPC: 0.658984 (Simulation time: 2 hr 47 min 12 sec) 
Heartbeat CPU 3 instructions: 510000000 cycles: 1262854909 heartbeat IPC: 0.212157 cumulative IPC: 0.214553 (Simulation time: 2 hr 47 min 13 sec) 
Heartbeat CPU 0 instructions: 1140000000 cycles: 1278093140 heartbeat IPC: 0.651147 cumulative IPC: 0.658871 (Simulation time: 2 hr 48 min 47 sec) 
Heartbeat CPU 1 instructions: 840000000 cycles: 1280144703 heartbeat IPC: 0.425276 cumulative IPC: 0.41969 (Simulation time: 2 hr 49 min 0 sec) 
Heartbeat CPU 2 instructions: 390000002 cycles: 1284726024 heartbeat IPC: 0.174271 cumulative IPC: 0.177011 (Simulation time: 2 hr 49 min 28 sec) 
Heartbeat CPU 0 instructions: 1150000001 cycles: 1293062467 heartbeat IPC: 0.668033 cumulative IPC: 0.658998 (Simulation time: 2 hr 50 min 18 sec) 
Heartbeat CPU 1 instructions: 850000002 cycles: 1303868105 heartbeat IPC: 0.421525 cumulative IPC: 0.41973 (Simulation time: 2 hr 51 min 26 sec) 
Heartbeat CPU 0 instructions: 1160000000 cycles: 1307682362 heartbeat IPC: 0.683999 cumulative IPC: 0.659332 (Simulation time: 2 hr 51 min 50 sec) 
Heartbeat CPU 3 instructions: 520000000 cycles: 1309698858 heartbeat IPC: 0.213475 cumulative IPC: 0.214507 (Simulation time: 2 hr 52 min 2 sec) 
Heartbeat CPU 0 instructions: 1170000000 cycles: 1322648836 heartbeat IPC: 0.66816 cumulative IPC: 0.65945 (Simulation time: 2 hr 53 min 23 sec) 
Heartbeat CPU 1 instructions: 860000000 cycles: 1327253250 heartbeat IPC: 0.427622 cumulative IPC: 0.419895 (Simulation time: 2 hr 53 min 52 sec) 
Heartbeat CPU 0 instructions: 1180000000 cycles: 1337287351 heartbeat IPC: 0.683129 cumulative IPC: 0.659758 (Simulation time: 2 hr 54 min 55 sec) 
Heartbeat CPU 2 instructions: 400000000 cycles: 1341585813 heartbeat IPC: 0.175871 cumulative IPC: 0.176953 (Simulation time: 2 hr 55 min 22 sec) 
Heartbeat CPU 1 instructions: 870000002 cycles: 1350912263 heartbeat IPC: 0.422672 cumulative IPC: 0.419953 (Simulation time: 2 hr 56 min 20 sec) 
Heartbeat CPU 0 instructions: 1190000000 cycles: 1352363863 heartbeat IPC: 0.663283 cumulative IPC: 0.659805 (Simulation time: 2 hr 56 min 28 sec) 
Heartbeat CPU 3 instructions: 530000001 cycles: 1356489840 heartbeat IPC: 0.213716 cumulative IPC: 0.214475 (Simulation time: 2 hr 56 min 54 sec) 
Heartbeat CPU 0 instructions: 1200000000 cycles: 1367676730 heartbeat IPC: 0.653046 cumulative IPC: 0.659715 (Simulation time: 2 hr 58 min 3 sec) 
Heartbeat CPU 1 instructions: 880000000 cycles: 1374662276 heartbeat IPC: 0.421052 cumulative IPC: 0.419975 (Simulation time: 2 hr 58 min 46 sec) 
Heartbeat CPU 0 instructions: 1210000001 cycles: 1382951420 heartbeat IPC: 0.654678 cumulative IPC: 0.65965 (Simulation time: 2 hr 59 min 38 sec) 
Heartbeat CPU 0 instructions: 1220000000 cycles: 1397511679 heartbeat IPC: 0.686801 cumulative IPC: 0.659983 (Simulation time: 3 hr 1 min 9 sec) 
Heartbeat CPU 1 instructions: 890000000 cycles: 1398121171 heartbeat IPC: 0.426278 cumulative IPC: 0.4201 (Simulation time: 3 hr 1 min 13 sec) 
Heartbeat CPU 2 instructions: 410000000 cycles: 1398242517 heartbeat IPC: 0.176502 cumulative IPC: 0.176932 (Simulation time: 3 hr 1 min 13 sec) 
Heartbeat CPU 3 instructions: 540000000 cycles: 1403900299 heartbeat IPC: 0.210924 cumulative IPC: 0.214334 (Simulation time: 3 hr 1 min 49 sec) 
Heartbeat CPU 0 instructions: 1230000001 cycles: 1412600583 heartbeat IPC: 0.662739 cumulative IPC: 0.660018 (Simulation time: 3 hr 2 min 43 sec) 
Heartbeat CPU 1 instructions: 900000000 cycles: 1421987686 heartbeat IPC: 0.418997 cumulative IPC: 0.420078 (Simulation time: 3 hr 3 min 41 sec) 
Heartbeat CPU 0 instructions: 1240000000 cycles: 1427568221 heartbeat IPC: 0.668108 cumulative IPC: 0.660117 (Simulation time: 3 hr 4 min 17 sec) 
Heartbeat CPU 0 instructions: 1250000000 cycles: 1442531422 heartbeat IPC: 0.668306 cumulative IPC: 0.660217 (Simulation time: 3 hr 5 min 49 sec) 
Heartbeat CPU 1 instructions: 910000002 cycles: 1445584857 heartbeat IPC: 0.42378 cumulative IPC: 0.420149 (Simulation time: 3 hr 6 min 8 sec) 
Heartbeat CPU 3 instructions: 550000000 cycles: 1451081505 heartbeat IPC: 0.211949 cumulative IPC: 0.214243 (Simulation time: 3 hr 6 min 42 sec) 
Heartbeat CPU 2 instructions: 420000000 cycles: 1454615554 heartbeat IPC: 0.17739 cumulative IPC: 0.176952 (Simulation time: 3 hr 7 min 4 sec) 
Heartbeat CPU 0 instructions: 1260000000 cycles: 1458012628 heartbeat IPC: 0.645945 cumulative IPC: 0.660039 (Simulation time: 3 hr 7 min 26 sec) 
Heartbeat CPU 1 instructions: 920000000 cycles: 1468970437 heartbeat IPC: 0.427614 cumulative IPC: 0.420288 (Simulation time: 3 hr 8 min 34 sec) 
Heartbeat CPU 0 instructions: 1270000000 cycles: 1473576709 heartbeat IPC: 0.642505 cumulative IPC: 0.659823 (Simulation time: 3 hr 9 min 3 sec) 
Heartbeat CPU 0 instructions: 1280000000 cycles: 1488949797 heartbeat IPC: 0.650487 cumulative IPC: 0.659711 (Simulation time: 3 hr 10 min 38 sec) 
Heartbeat CPU 1 instructions: 930000000 cycles: 1492791823 heartbeat IPC: 0.419791 cumulative IPC: 0.420279 (Simulation time: 3 hr 11 min 2 sec) 
Heartbeat CPU 3 instructions: 560000000 cycles: 1497719394 heartbeat IPC: 0.214418 cumulative IPC: 0.214249 (Simulation time: 3 hr 11 min 32 sec) 
Heartbeat CPU 0 instructions: 1290000001 cycles: 1504398661 heartbeat IPC: 0.647297 cumulative IPC: 0.659563 (Simulation time: 3 hr 12 min 13 sec) 
Heartbeat CPU 2 instructions: 430000003 cycles: 1510954838 heartbeat IPC: 0.177496 cumulative IPC: 0.176976 (Simulation time: 3 hr 12 min 54 sec) 
Heartbeat CPU 1 instructions: 940000000 cycles: 1516327914 heartbeat IPC: 0.424879 cumulative IPC: 0.420362 (Simulation time: 3 hr 13 min 28 sec) 
Heartbeat CPU 0 instructions: 1300000000 cycles: 1519898626 heartbeat IPC: 0.645163 cumulative IPC: 0.659392 (Simulation time: 3 hr 13 min 50 sec) 
Heartbeat CPU 0 instructions: 1310000000 cycles: 1534936631 heartbeat IPC: 0.664982 cumulative IPC: 0.659456 (Simulation time: 3 hr 15 min 23 sec) 
Heartbeat CPU 1 instructions: 950000001 cycles: 1539776597 heartbeat IPC: 0.426463 cumulative IPC: 0.420469 (Simulation time: 3 hr 15 min 54 sec) 
Heartbeat CPU 3 instructions: 570000000 cycles: 1544791185 heartbeat IPC: 0.212441 cumulative IPC: 0.214185 (Simulation time: 3 hr 16 min 26 sec) 
Heartbeat CPU 0 instructions: 1320000000 cycles: 1549716342 heartbeat IPC: 0.676603 cumulative IPC: 0.659645 (Simulation time: 3 hr 16 min 57 sec) 
Heartbeat CPU 1 instructions: 960000000 cycles: 1563606454 heartbeat IPC: 0.419642 cumulative IPC: 0.420455 (Simulation time: 3 hr 18 min 24 sec) 
Heartbeat CPU 0 instructions: 1330000000 cycles: 1564771936 heartbeat IPC: 0.664205 cumulative IPC: 0.659696 (Simulation time: 3 hr 18 min 31 sec) 
Heartbeat CPU 2 instructions: 440000000 cycles: 1567105441 heartbeat IPC: 0.178092 cumulative IPC: 0.177022 (Simulation time: 3 hr 18 min 46 sec) 
Heartbeat CPU 0 instructions: 1340000000 cycles: 1579573630 heartbeat IPC: 0.675598 cumulative IPC: 0.659868 (Simulation time: 3 hr 20 min 4 sec) 
Heartbeat CPU 1 instructions: 970000000 cycles: 1587173347 heartbeat IPC: 0.424324 cumulative IPC: 0.420521 (Simulation time: 3 hr 20 min 51 sec) 
Heartbeat CPU 3 instructions: 580000000 cycles: 1591369232 heartbeat IPC: 0.214693 cumulative IPC: 0.214203 (Simulation time: 3 hr 21 min 16 sec) 
Heartbeat CPU 0 instructions: 1350000000 cycles: 1594423594 heartbeat IPC: 0.673402 cumulative IPC: 0.660013 (Simulation time: 3 hr 21 min 34 sec) 
Heartbeat CPU 0 instructions: 1360000000 cycles: 1609503018 heartbeat IPC: 0.663155 cumulative IPC: 0.660047 (Simulation time: 3 hr 23 min 7 sec) 
Heartbeat CPU 1 instructions: 980000000 cycles: 1610514843 heartbeat IPC: 0.428422 cumulative IPC: 0.420653 (Simulation time: 3 hr 23 min 13 sec) 
Heartbeat CPU 0 instructions: 1370000001 cycles: 1624336111 heartbeat IPC: 0.674168 cumulative IPC: 0.660195 (Simulation time: 3 hr 24 min 40 sec) 
Heartbeat CPU 2 instructions: 450000003 cycles: 1625964954 heartbeat IPC: 0.169896 cumulative IPC: 0.176726 (Simulation time: 3 hr 24 min 50 sec) 
Heartbeat CPU 1 instructions: 990000001 cycles: 1634085001 heartbeat IPC: 0.424265 cumulative IPC: 0.420713 (Simulation time: 3 hr 25 min 41 sec) 
Heartbeat CPU 3 instructions: 590000002 cycles: 1635590898 heartbeat IPC: 0.226134 cumulative IPC: 0.214573 (Simulation time: 3 hr 25 min 51 sec) 
Heartbeat CPU 0 instructions: 1380000000 cycles: 1639025597 heartbeat IPC: 0.680759 cumulative IPC: 0.660407 (Simulation time: 3 hr 26 min 12 sec) 
Heartbeat CPU 0 instructions: 1390000000 cycles: 1654010853 heartbeat IPC: 0.667323 cumulative IPC: 0.660479 (Simulation time: 3 hr 27 min 47 sec) 
Heartbeat CPU 1 instructions: 1000000000 cycles: 1657337296 heartbeat IPC: 0.430065 cumulative IPC: 0.420863 (Simulation time: 3 hr 28 min 8 sec) 
Heartbeat CPU 0 instructions: 1400000000 cycles: 1669028947 heartbeat IPC: 0.665863 cumulative IPC: 0.660534 (Simulation time: 3 hr 29 min 22 sec) 
Heartbeat CPU 3 instructions: 600000000 cycles: 1679168245 heartbeat IPC: 0.229477 cumulative IPC: 0.215015 (Simulation time: 3 hr 30 min 26 sec) 
Heartbeat CPU 1 instructions: 1010000000 cycles: 1680603347 heartbeat IPC: 0.429811 cumulative IPC: 0.421005 (Simulation time: 3 hr 30 min 35 sec) 
Heartbeat CPU 0 instructions: 1410000003 cycles: 1683851479 heartbeat IPC: 0.674649 cumulative IPC: 0.660676 (Simulation time: 3 hr 30 min 56 sec) 
Heartbeat CPU 2 instructions: 460000000 cycles: 1685982972 heartbeat IPC: 0.166617 cumulative IPC: 0.176314 (Simulation time: 3 hr 31 min 12 sec) 
Heartbeat CPU 0 instructions: 1420000000 cycles: 1698711038 heartbeat IPC: 0.672967 cumulative IPC: 0.660799 (Simulation time: 3 hr 32 min 49 sec) 
Heartbeat CPU 1 instructions: 1020000000 cycles: 1704238740 heartbeat IPC: 0.423094 cumulative IPC: 0.421038 (Simulation time: 3 hr 33 min 31 sec) 
Heartbeat CPU 2 instructions: 470000002 cycles: 1708963167 heartbeat IPC: 0.435157 cumulative IPC: 0.180286 (Simulation time: 3 hr 34 min 8 sec) 
Heartbeat CPU 0 instructions: 1430000001 cycles: 1713317779 heartbeat IPC: 0.684615 cumulative IPC: 0.661031 (Simulation time: 3 hr 34 min 41 sec) 
Heartbeat CPU 3 instructions: 610000000 cycles: 1721810593 heartbeat IPC: 0.234509 cumulative IPC: 0.215566 (Simulation time: 3 hr 35 min 47 sec) 
Finished CPU 0 instructions: 1000000000 cycles: 1512536617 cumulative IPC: 0.661141 (Simulation time: 3 hr 36 min 3 sec) 
Heartbeat CPU 1 instructions: 1030000001 cycles: 1727412708 heartbeat IPC: 0.431519 cumulative IPC: 0.421198 (Simulation time: 3 hr 36 min 30 sec) 
Heartbeat CPU 0 instructions: 1440000000 cycles: 1727857476 heartbeat IPC: 0.687772 cumulative IPC: 0.661287 (Simulation time: 3 hr 36 min 34 sec) 
Heartbeat CPU 2 instructions: 480000000 cycles: 1731179003 heartbeat IPC: 0.450129 cumulative IPC: 0.184231 (Simulation time: 3 hr 36 min 59 sec) 
Heartbeat CPU 0 instructions: 1450000001 cycles: 1742477291 heartbeat IPC: 0.684003 cumulative IPC: 0.661504 (Simulation time: 3 hr 38 min 25 sec) 
Heartbeat CPU 1 instructions: 1040000000 cycles: 1750638898 heartbeat IPC: 0.430548 cumulative IPC: 0.421339 (Simulation time: 3 hr 39 min 28 sec) 
Heartbeat CPU 2 instructions: 490000001 cycles: 1751089262 heartbeat IPC: 0.502254 cumulative IPC: 0.188343 (Simulation time: 3 hr 39 min 31 sec) 
Heartbeat CPU 0 instructions: 1460000000 cycles: 1756760423 heartbeat IPC: 0.700126 cumulative IPC: 0.661861 (Simulation time: 3 hr 40 min 14 sec) 
Heartbeat CPU 3 instructions: 620000000 cycles: 1764491019 heartbeat IPC: 0.234299 cumulative IPC: 0.216081 (Simulation time: 3 hr 41 min 12 sec) 
Heartbeat CPU 2 instructions: 500000000 cycles: 1770756716 heartbeat IPC: 0.508454 cumulative IPC: 0.19238 (Simulation time: 3 hr 42 min 1 sec) 
Heartbeat CPU 0 instructions: 1470000001 cycles: 1771003981 heartbeat IPC: 0.702072 cumulative IPC: 0.662228 (Simulation time: 3 hr 42 min 3 sec) 
Heartbeat CPU 1 instructions: 1050000000 cycles: 1774229435 heartbeat IPC: 0.423899 cumulative IPC: 0.421378 (Simulation time: 3 hr 42 min 27 sec) 
Heartbeat CPU 0 instructions: 1480000000 cycles: 1785402225 heartbeat IPC: 0.694529 cumulative IPC: 0.662523 (Simulation time: 3 hr 43 min 53 sec) 
Heartbeat CPU 2 instructions: 510000000 cycles: 1791559991 heartbeat IPC: 0.480694 cumulative IPC: 0.196176 (Simulation time: 3 hr 44 min 40 sec) 
Heartbeat CPU 1 instructions: 1060000000 cycles: 1797404039 heartbeat IPC: 0.431507 cumulative IPC: 0.421526 (Simulation time: 3 hr 45 min 25 sec) 
Heartbeat CPU 0 instructions: 1490000000 cycles: 1799771221 heartbeat IPC: 0.695943 cumulative IPC: 0.662826 (Simulation time: 3 hr 45 min 43 sec) 
Heartbeat CPU 3 instructions: 630000001 cycles: 1806860170 heartbeat IPC: 0.236021 cumulative IPC: 0.21661 (Simulation time: 3 hr 46 min 37 sec) 
Heartbeat CPU 2 instructions: 520000000 cycles: 1811944852 heartbeat IPC: 0.49056 cumulative IPC: 0.199925 (Simulation time: 3 hr 47 min 16 sec) 
Heartbeat CPU 0 instructions: 1500000000 cycles: 1813999135 heartbeat IPC: 0.702844 cumulative IPC: 0.663181 (Simulation time: 3 hr 47 min 32 sec) 
Heartbeat CPU 1 instructions: 1070000002 cycles: 1820614928 heartbeat IPC: 0.430832 cumulative IPC: 0.42166 (Simulation time: 3 hr 48 min 22 sec) 
Heartbeat CPU 0 instructions: 1510000000 cycles: 1828130040 heartbeat IPC: 0.707669 cumulative IPC: 0.66357 (Simulation time: 3 hr 49 min 19 sec) 
Heartbeat CPU 2 instructions: 530000000 cycles: 1831717741 heartbeat IPC: 0.505743 cumulative IPC: 0.203657 (Simulation time: 3 hr 49 min 46 sec) 
Heartbeat CPU 0 instructions: 1520000000 cycles: 1842625634 heartbeat IPC: 0.689865 cumulative IPC: 0.663804 (Simulation time: 3 hr 51 min 9 sec) 
Heartbeat CPU 1 instructions: 1080000000 cycles: 1844173540 heartbeat IPC: 0.424473 cumulative IPC: 0.421701 (Simulation time: 3 hr 51 min 21 sec) 
Heartbeat CPU 3 instructions: 640000000 cycles: 1849475547 heartbeat IPC: 0.234657 cumulative IPC: 0.21708 (Simulation time: 3 hr 52 min 2 sec) 
Heartbeat CPU 2 instructions: 540000000 cycles: 1850961722 heartbeat IPC: 0.519643 cumulative IPC: 0.207365 (Simulation time: 3 hr 52 min 13 sec) 
Heartbeat CPU 0 instructions: 1530000002 cycles: 1857055217 heartbeat IPC: 0.693021 cumulative IPC: 0.66406 (Simulation time: 3 hr 53 min 0 sec) 
Heartbeat CPU 1 instructions: 1090000003 cycles: 1867346869 heartbeat IPC: 0.431531 cumulative IPC: 0.421838 (Simulation time: 3 hr 54 min 18 sec) 
Heartbeat CPU 2 instructions: 550000000 cycles: 1871148168 heartbeat IPC: 0.495382 cumulative IPC: 0.210868 (Simulation time: 3 hr 54 min 47 sec) 
Heartbeat CPU 0 instructions: 1540000000 cycles: 1871445089 heartbeat IPC: 0.694933 cumulative IPC: 0.664327 (Simulation time: 3 hr 54 min 50 sec) 
Heartbeat CPU 0 instructions: 1550000001 cycles: 1885797436 heartbeat IPC: 0.69675 cumulative IPC: 0.664605 (Simulation time: 3 hr 56 min 39 sec) 
Heartbeat CPU 2 instructions: 560000000 cycles: 1890523413 heartbeat IPC: 0.516123 cumulative IPC: 0.21439 (Simulation time: 3 hr 57 min 15 sec) 
Heartbeat CPU 1 instructions: 1100000000 cycles: 1890557287 heartbeat IPC: 0.430841 cumulative IPC: 0.421962 (Simulation time: 3 hr 57 min 15 sec) 
Heartbeat CPU 3 instructions: 650000000 cycles: 1891940510 heartbeat IPC: 0.235488 cumulative IPC: 0.217545 (Simulation time: 3 hr 57 min 26 sec) 
Heartbeat CPU 0 instructions: 1560000000 cycles: 1900671357 heartbeat IPC: 0.672318 cumulative IPC: 0.664673 (Simulation time: 3 hr 58 min 30 sec) 
Heartbeat CPU 2 instructions: 570000000 cycles: 1910463068 heartbeat IPC: 0.501513 cumulative IPC: 0.21776 (Simulation time: 3 hr 59 min 44 sec) 
Heartbeat CPU 1 instructions: 1110000000 cycles: 1914006303 heartbeat IPC: 0.426457 cumulative IPC: 0.422024 (Simulation time: 4 hr 0 min 10 sec) 
Heartbeat CPU 0 instructions: 1570000001 cycles: 1915692367 heartbeat IPC: 0.665734 cumulative IPC: 0.664683 (Simulation time: 4 hr 0 min 23 sec) 
Heartbeat CPU 2 instructions: 580000000 cycles: 1929868055 heartbeat IPC: 0.515331 cumulative IPC: 0.22112 (Simulation time: 4 hr 2 min 9 sec) 
Heartbeat CPU 0 instructions: 1580000000 cycles: 1930753914 heartbeat IPC: 0.663942 cumulative IPC: 0.664676 (Simulation time: 4 hr 2 min 16 sec) 
Heartbeat CPU 3 instructions: 660000000 cycles: 1934192051 heartbeat IPC: 0.236678 cumulative IPC: 0.218014 (Simulation time: 4 hr 2 min 42 sec) 
Heartbeat CPU 1 instructions: 1120000000 cycles: 1937167943 heartbeat IPC: 0.431748 cumulative IPC: 0.422155 (Simulation time: 4 hr 3 min 4 sec) 
Heartbeat CPU 0 instructions: 1590000002 cycles: 1945614692 heartbeat IPC: 0.672912 cumulative IPC: 0.664747 (Simulation time: 4 hr 4 min 8 sec) 
Heartbeat CPU 2 instructions: 590000001 cycles: 1949674467 heartbeat IPC: 0.504887 cumulative IPC: 0.224353 (Simulation time: 4 hr 4 min 38 sec) 
Heartbeat CPU 0 instructions: 1600000000 cycles: 1960177166 heartbeat IPC: 0.686696 cumulative IPC: 0.664929 (Simulation time: 4 hr 5 min 57 sec) 
Heartbeat CPU 1 instructions: 1130000000 cycles: 1960459354 heartbeat IPC: 0.429343 cumulative IPC: 0.422251 (Simulation time: 4 hr 5 min 59 sec) 
Heartbeat CPU 2 instructions: 600000000 cycles: 1968852147 heartbeat IPC: 0.521439 cumulative IPC: 0.227595 (Simulation time: 4 hr 7 min 2 sec) 
Heartbeat CPU 0 instructions: 1610000000 cycles: 1974994107 heartbeat IPC: 0.674903 cumulative IPC: 0.665013 (Simulation time: 4 hr 7 min 48 sec) 
Heartbeat CPU 3 instructions: 670000003 cycles: 1976145557 heartbeat IPC: 0.238359 cumulative IPC: 0.218498 (Simulation time: 4 hr 7 min 57 sec) 
Heartbeat CPU 1 instructions: 1140000000 cycles: 1983902433 heartbeat IPC: 0.426565 cumulative IPC: 0.422308 (Simulation time: 4 hr 8 min 55 sec) 
Heartbeat CPU 2 instructions: 610000000 cycles: 1987867954 heartbeat IPC: 0.525878 cumulative IPC: 0.230788 (Simulation time: 4 hr 9 min 24 sec) 
Heartbeat CPU 0 instructions: 1620000000 cycles: 1989743906 heartbeat IPC: 0.677975 cumulative IPC: 0.665121 (Simulation time: 4 hr 9 min 39 sec) 
Heartbeat CPU 0 instructions: 1630000002 cycles: 2004147177 heartbeat IPC: 0.694287 cumulative IPC: 0.665355 (Simulation time: 4 hr 11 min 28 sec) 
Heartbeat CPU 2 instructions: 620000000 cycles: 2006999035 heartbeat IPC: 0.52271 cumulative IPC: 0.233898 (Simulation time: 4 hr 11 min 49 sec) 
Heartbeat CPU 1 instructions: 1150000000 cycles: 2007037231 heartbeat IPC: 0.432249 cumulative IPC: 0.422436 (Simulation time: 4 hr 11 min 50 sec) 
Heartbeat CPU 3 instructions: 680000000 cycles: 2017955953 heartbeat IPC: 0.239175 cumulative IPC: 0.218976 (Simulation time: 4 hr 13 min 12 sec) 
Heartbeat CPU 0 instructions: 1640000000 cycles: 2018606371 heartbeat IPC: 0.691601 cumulative IPC: 0.665565 (Simulation time: 4 hr 13 min 17 sec) 
Heartbeat CPU 2 instructions: 630000001 cycles: 2027029486 heartbeat IPC: 0.49924 cumulative IPC: 0.236825 (Simulation time: 4 hr 14 min 20 sec) 
Heartbeat CPU 1 instructions: 1160000000 cycles: 2030278655 heartbeat IPC: 0.430266 cumulative IPC: 0.422536 (Simulation time: 4 hr 14 min 46 sec) 
Heartbeat CPU 0 instructions: 1650000000 cycles: 2033138224 heartbeat IPC: 0.688143 cumulative IPC: 0.665745 (Simulation time: 4 hr 15 min 7 sec) 
Heartbeat CPU 2 instructions: 640000000 cycles: 2046436505 heartbeat IPC: 0.515277 cumulative IPC: 0.23977 (Simulation time: 4 hr 16 min 46 sec) 
Heartbeat CPU 0 instructions: 1660000000 cycles: 2047941709 heartbeat IPC: 0.675517 cumulative IPC: 0.665824 (Simulation time: 4 hr 16 min 57 sec) 
Heartbeat CPU 1 instructions: 1170000001 cycles: 2053797872 heartbeat IPC: 0.425184 cumulative IPC: 0.42257 (Simulation time: 4 hr 17 min 41 sec) 
Heartbeat CPU 3 instructions: 690000000 cycles: 2059767294 heartbeat IPC: 0.23917 cumulative IPC: 0.219433 (Simulation time: 4 hr 18 min 26 sec) 
Heartbeat CPU 0 instructions: 1670000001 cycles: 2062993987 heartbeat IPC: 0.664351 cumulative IPC: 0.665812 (Simulation time: 4 hr 18 min 49 sec) 
Heartbeat CPU 2 instructions: 650000000 cycles: 2065829216 heartbeat IPC: 0.515658 cumulative IPC: 0.242655 (Simulation time: 4 hr 19 min 11 sec) 
Heartbeat CPU 1 instructions: 1180000000 cycles: 2076962872 heartbeat IPC: 0.431686 cumulative IPC: 0.422683 (Simulation time: 4 hr 20 min 34 sec) 
Heartbeat CPU 0 instructions: 1680000000 cycles: 2077810862 heartbeat IPC: 0.674906 cumulative IPC: 0.665884 (Simulation time: 4 hr 20 min 41 sec) 
Heartbeat CPU 2 instructions: 660000000 cycles: 2086018875 heartbeat IPC: 0.495303 cumulative IPC: 0.245376 (Simulation time: 4 hr 21 min 42 sec) 
Heartbeat CPU 0 instructions: 1690000000 cycles: 2092659648 heartbeat IPC: 0.673456 cumulative IPC: 0.665944 (Simulation time: 4 hr 22 min 32 sec) 
Heartbeat CPU 1 instructions: 1190000000 cycles: 2100403428 heartbeat IPC: 0.426611 cumulative IPC: 0.422732 (Simulation time: 4 hr 23 min 30 sec) 
Heartbeat CPU 3 instructions: 700000000 cycles: 2101822641 heartbeat IPC: 0.237782 cumulative IPC: 0.219841 (Simulation time: 4 hr 23 min 40 sec) 
Heartbeat CPU 2 instructions: 670000001 cycles: 2105772743 heartbeat IPC: 0.50623 cumulative IPC: 0.248096 (Simulation time: 4 hr 24 min 9 sec) 
Heartbeat CPU 0 instructions: 1700000000 cycles: 2107535786 heartbeat IPC: 0.672217 cumulative IPC: 0.665993 (Simulation time: 4 hr 24 min 23 sec) 
Heartbeat CPU 0 instructions: 1710000000 cycles: 2122328301 heartbeat IPC: 0.676018 cumulative IPC: 0.666071 (Simulation time: 4 hr 26 min 13 sec) 
Heartbeat CPU 1 instructions: 1200000000 cycles: 2123824959 heartbeat IPC: 0.426958 cumulative IPC: 0.422783 (Simulation time: 4 hr 26 min 24 sec) 
Heartbeat CPU 2 instructions: 680000000 cycles: 2125429667 heartbeat IPC: 0.508727 cumulative IPC: 0.250772 (Simulation time: 4 hr 26 min 37 sec) 
Heartbeat CPU 0 instructions: 1720000000 cycles: 2137152234 heartbeat IPC: 0.674585 cumulative IPC: 0.666136 (Simulation time: 4 hr 28 min 4 sec) 
Heartbeat CPU 3 instructions: 710000000 cycles: 2144096462 heartbeat IPC: 0.236553 cumulative IPC: 0.220207 (Simulation time: 4 hr 28 min 56 sec) 
Heartbeat CPU 2 instructions: 690000002 cycles: 2144682913 heartbeat IPC: 0.519393 cumulative IPC: 0.253448 (Simulation time: 4 hr 29 min 0 sec) 
Heartbeat CPU 1 instructions: 1210000000 cycles: 2146981371 heartbeat IPC: 0.431846 cumulative IPC: 0.422892 (Simulation time: 4 hr 29 min 17 sec) 
Heartbeat CPU 0 instructions: 1730000001 cycles: 2152160124 heartbeat IPC: 0.666316 cumulative IPC: 0.666138 (Simulation time: 4 hr 29 min 56 sec) 
Heartbeat CPU 2 instructions: 700000000 cycles: 2164106452 heartbeat IPC: 0.514839 cumulative IPC: 0.256048 (Simulation time: 4 hr 31 min 24 sec) 
Heartbeat CPU 0 instructions: 1740000000 cycles: 2166830708 heartbeat IPC: 0.681636 cumulative IPC: 0.666254 (Simulation time: 4 hr 31 min 44 sec) 
Heartbeat CPU 1 instructions: 1220000000 cycles: 2170742528 heartbeat IPC: 0.420855 cumulative IPC: 0.422867 (Simulation time: 4 hr 32 min 12 sec) 
Heartbeat CPU 0 instructions: 1750000000 cycles: 2181512546 heartbeat IPC: 0.681114 cumulative IPC: 0.666365 (Simulation time: 4 hr 33 min 24 sec) 
Heartbeat CPU 2 instructions: 710000000 cycles: 2183398230 heartbeat IPC: 0.518356 cumulative IPC: 0.258614 (Simulation time: 4 hr 33 min 37 sec) 
Heartbeat CPU 3 instructions: 720000000 cycles: 2186557952 heartbeat IPC: 0.235508 cumulative IPC: 0.220536 (Simulation time: 4 hr 33 min 58 sec) 
Heartbeat CPU 1 instructions: 1230000001 cycles: 2195784088 heartbeat IPC: 0.399336 cumulative IPC: 0.42257 (Simulation time: 4 hr 35 min 0 sec) 
Heartbeat CPU 0 instructions: 1760000000 cycles: 2196671463 heartbeat IPC: 0.659678 cumulative IPC: 0.666314 (Simulation time: 4 hr 35 min 7 sec) 
Heartbeat CPU 2 instructions: 720000000 cycles: 2203341711 heartbeat IPC: 0.501417 cumulative IPC: 0.261044 (Simulation time: 4 hr 35 min 56 sec) 
Heartbeat CPU 0 instructions: 1770000003 cycles: 2211575134 heartbeat IPC: 0.670976 cumulative IPC: 0.666348 (Simulation time: 4 hr 36 min 58 sec) 
Heartbeat CPU 1 instructions: 1240000000 cycles: 2218948811 heartbeat IPC: 0.431691 cumulative IPC: 0.422675 (Simulation time: 4 hr 37 min 53 sec) 
Heartbeat CPU 2 instructions: 730000001 cycles: 2223302445 heartbeat IPC: 0.500984 cumulative IPC: 0.263425 (Simulation time: 4 hr 38 min 26 sec) 
Heartbeat CPU 0 instructions: 1780000000 cycles: 2226187501 heartbeat IPC: 0.684352 cumulative IPC: 0.666479 (Simulation time: 4 hr 38 min 48 sec) 
Heartbeat CPU 3 instructions: 730000001 cycles: 2228484913 heartbeat IPC: 0.23851 cumulative IPC: 0.220909 (Simulation time: 4 hr 39 min 5 sec) 
Heartbeat CPU 0 instructions: 1790000003 cycles: 2241275094 heartbeat IPC: 0.662796 cumulative IPC: 0.666451 (Simulation time: 4 hr 40 min 40 sec) 
Heartbeat CPU 1 instructions: 1250000000 cycles: 2242135238 heartbeat IPC: 0.431287 cumulative IPC: 0.422774 (Simulation time: 4 hr 40 min 47 sec) 
Heartbeat CPU 2 instructions: 740000000 cycles: 2242787268 heartbeat IPC: 0.51322 cumulative IPC: 0.265821 (Simulation time: 4 hr 40 min 51 sec) 
Heartbeat CPU 0 instructions: 1800000000 cycles: 2256461424 heartbeat IPC: 0.658487 cumulative IPC: 0.666392 (Simulation time: 4 hr 42 min 31 sec) 
Heartbeat CPU 2 instructions: 750000000 cycles: 2262649337 heartbeat IPC: 0.503472 cumulative IPC: 0.268122 (Simulation time: 4 hr 43 min 16 sec) 
Heartbeat CPU 1 instructions: 1260000000 cycles: 2266967266 heartbeat IPC: 0.402706 cumulative IPC: 0.422531 (Simulation time: 4 hr 43 min 41 sec) 
Heartbeat CPU 3 instructions: 740000000 cycles: 2270670397 heartbeat IPC: 0.237048 cumulative IPC: 0.22124 (Simulation time: 4 hr 44 min 3 sec) 
Heartbeat CPU 0 instructions: 1810000000 cycles: 2271838886 heartbeat IPC: 0.650302 cumulative IPC: 0.666272 (Simulation time: 4 hr 44 min 12 sec) 
Heartbeat CPU 2 instructions: 760000000 cycles: 2286178523 heartbeat IPC: 0.425004 cumulative IPC: 0.269901 (Simulation time: 4 hr 45 min 53 sec) 
Heartbeat CPU 0 instructions: 1820000000 cycles: 2287705524 heartbeat IPC: 0.630253 cumulative IPC: 0.665997 (Simulation time: 4 hr 46 min 4 sec) 
Heartbeat CPU 1 instructions: 1270000002 cycles: 2290098382 heartbeat IPC: 0.432318 cumulative IPC: 0.42264 (Simulation time: 4 hr 46 min 21 sec) 
Heartbeat CPU 0 instructions: 1830000001 cycles: 2304141788 heartbeat IPC: 0.608411 cumulative IPC: 0.665545 (Simulation time: 4 hr 48 min 0 sec) 
Heartbeat CPU 2 instructions: 770000001 cycles: 2306665933 heartbeat IPC: 0.488105 cumulative IPC: 0.272035 (Simulation time: 4 hr 48 min 17 sec) 
Heartbeat CPU 3 instructions: 750000003 cycles: 2312863934 heartbeat IPC: 0.237003 cumulative IPC: 0.221556 (Simulation time: 4 hr 49 min 1 sec) 
Heartbeat CPU 1 instructions: 1280000000 cycles: 2313302714 heartbeat IPC: 0.430954 cumulative IPC: 0.422732 (Simulation time: 4 hr 49 min 4 sec) 
Heartbeat CPU 0 instructions: 1840000000 cycles: 2319234891 heartbeat IPC: 0.662554 cumulative IPC: 0.665523 (Simulation time: 4 hr 49 min 46 sec) 
Heartbeat CPU 2 instructions: 780000000 cycles: 2327345017 heartbeat IPC: 0.48358 cumulative IPC: 0.274102 (Simulation time: 4 hr 50 min 43 sec) 
Heartbeat CPU 0 instructions: 1850000000 cycles: 2333892554 heartbeat IPC: 0.682237 cumulative IPC: 0.665639 (Simulation time: 4 hr 51 min 30 sec) 
Heartbeat CPU 1 instructions: 1290000001 cycles: 2336881131 heartbeat IPC: 0.424117 cumulative IPC: 0.422747 (Simulation time: 4 hr 51 min 51 sec) 
Heartbeat CPU 2 instructions: 790000000 cycles: 2347934421 heartbeat IPC: 0.485687 cumulative IPC: 0.276141 (Simulation time: 4 hr 53 min 10 sec) 
Heartbeat CPU 0 instructions: 1860000000 cycles: 2348282997 heartbeat IPC: 0.694906 cumulative IPC: 0.665836 (Simulation time: 4 hr 53 min 12 sec) 
Heartbeat CPU 3 instructions: 760000000 cycles: 2354797433 heartbeat IPC: 0.238473 cumulative IPC: 0.221887 (Simulation time: 4 hr 53 min 59 sec) 
Heartbeat CPU 1 instructions: 1300000000 cycles: 2360059485 heartbeat IPC: 0.431437 cumulative IPC: 0.422841 (Simulation time: 4 hr 54 min 37 sec) 
Heartbeat CPU 0 instructions: 1870000001 cycles: 2362619628 heartbeat IPC: 0.697514 cumulative IPC: 0.666047 (Simulation time: 4 hr 54 min 56 sec) 
Heartbeat CPU 2 instructions: 800000000 cycles: 2368464257 heartbeat IPC: 0.487096 cumulative IPC: 0.278149 (Simulation time: 4 hr 55 min 38 sec) 
Heartbeat CPU 0 instructions: 1880000000 cycles: 2376869316 heartbeat IPC: 0.70177 cumulative IPC: 0.666282 (Simulation time: 4 hr 56 min 38 sec) 
Heartbeat CPU 1 instructions: 1310000002 cycles: 2383239978 heartbeat IPC: 0.431397 cumulative IPC: 0.422932 (Simulation time: 4 hr 57 min 24 sec) 
Heartbeat CPU 2 instructions: 810000000 cycles: 2389135654 heartbeat IPC: 0.48376 cumulative IPC: 0.2801 (Simulation time: 4 hr 58 min 7 sec) 
Heartbeat CPU 0 instructions: 1890000000 cycles: 2391062021 heartbeat IPC: 0.704587 cumulative IPC: 0.666531 (Simulation time: 4 hr 58 min 21 sec) 
Heartbeat CPU 3 instructions: 770000001 cycles: 2395975330 heartbeat IPC: 0.242849 cumulative IPC: 0.222282 (Simulation time: 4 hr 58 min 55 sec) 
Heartbeat CPU 0 instructions: 1900000000 cycles: 2405127271 heartbeat IPC: 0.710972 cumulative IPC: 0.666816 (Simulation time: 5 hr 0 min 1 sec) 
Heartbeat CPU 1 instructions: 1320000000 cycles: 2406823317 heartbeat IPC: 0.424028 cumulative IPC: 0.422944 (Simulation time: 5 hr 0 min 13 sec) 
Heartbeat CPU 2 instructions: 820000000 cycles: 2409761396 heartbeat IPC: 0.484831 cumulative IPC: 0.282021 (Simulation time: 5 hr 0 min 34 sec) 
Heartbeat CPU 0 instructions: 1910000000 cycles: 2419460665 heartbeat IPC: 0.697671 cumulative IPC: 0.667017 (Simulation time: 5 hr 1 min 43 sec) 
Heartbeat CPU 1 instructions: 1330000003 cycles: 2429996977 heartbeat IPC: 0.431525 cumulative IPC: 0.423034 (Simulation time: 5 hr 2 min 59 sec) 
Heartbeat CPU 2 instructions: 830000001 cycles: 2430303795 heartbeat IPC: 0.486798 cumulative IPC: 0.283917 (Simulation time: 5 hr 3 min 1 sec) 
Heartbeat CPU 0 instructions: 1920000000 cycles: 2433677266 heartbeat IPC: 0.703403 cumulative IPC: 0.667249 (Simulation time: 5 hr 3 min 25 sec) 
Heartbeat CPU 3 instructions: 780000000 cycles: 2437875995 heartbeat IPC: 0.23866 cumulative IPC: 0.222591 (Simulation time: 5 hr 3 min 56 sec) 
Heartbeat CPU 0 instructions: 1930000003 cycles: 2447740613 heartbeat IPC: 0.711069 cumulative IPC: 0.667525 (Simulation time: 5 hr 5 min 6 sec) 
Heartbeat CPU 2 instructions: 840000000 cycles: 2450956930 heartbeat IPC: 0.484188 cumulative IPC: 0.285764 (Simulation time: 5 hr 5 min 30 sec) 
Heartbeat CPU 1 instructions: 1340000000 cycles: 2453235817 heartbeat IPC: 0.430314 cumulative IPC: 0.423109 (Simulation time: 5 hr 5 min 46 sec) 
Heartbeat CPU 0 instructions: 1940000000 cycles: 2461723576 heartbeat IPC: 0.715156 cumulative IPC: 0.667821 (Simulation time: 5 hr 6 min 47 sec) 
Heartbeat CPU 2 instructions: 850000000 cycles: 2471574932 heartbeat IPC: 0.485013 cumulative IPC: 0.287581 (Simulation time: 5 hr 7 min 57 sec) 
Heartbeat CPU 0 instructions: 1950000003 cycles: 2475843321 heartbeat IPC: 0.708228 cumulative IPC: 0.668073 (Simulation time: 5 hr 8 min 28 sec) 
Heartbeat CPU 1 instructions: 1350000003 cycles: 2476784665 heartbeat IPC: 0.424649 cumulative IPC: 0.423125 (Simulation time: 5 hr 8 min 35 sec) 
Heartbeat CPU 3 instructions: 790000001 cycles: 2480036622 heartbeat IPC: 0.237188 cumulative IPC: 0.222862 (Simulation time: 5 hr 8 min 58 sec) 
Heartbeat CPU 0 instructions: 1960000000 cycles: 2490172788 heartbeat IPC: 0.697862 cumulative IPC: 0.66826 (Simulation time: 5 hr 10 min 10 sec) 
Heartbeat CPU 2 instructions: 860000000 cycles: 2492156815 heartbeat IPC: 0.485864 cumulative IPC: 0.289371 (Simulation time: 5 hr 10 min 25 sec) 
Heartbeat CPU 1 instructions: 1360000000 cycles: 2499954260 heartbeat IPC: 0.4316 cumulative IPC: 0.423211 (Simulation time: 5 hr 11 min 21 sec) 
Heartbeat CPU 0 instructions: 1970000001 cycles: 2504051966 heartbeat IPC: 0.720504 cumulative IPC: 0.668576 (Simulation time: 5 hr 11 min 51 sec) 
Heartbeat CPU 2 instructions: 870000000 cycles: 2512688851 heartbeat IPC: 0.487044 cumulative IPC: 0.291134 (Simulation time: 5 hr 12 min 54 sec) 
Heartbeat CPU 0 instructions: 1980000000 cycles: 2517705198 heartbeat IPC: 0.732427 cumulative IPC: 0.668954 (Simulation time: 5 hr 13 min 30 sec) 
Heartbeat CPU 3 instructions: 800000000 cycles: 2521604928 heartbeat IPC: 0.240568 cumulative IPC: 0.22318 (Simulation time: 5 hr 13 min 58 sec) 
Heartbeat CPU 1 instructions: 1370000002 cycles: 2523200211 heartbeat IPC: 0.430183 cumulative IPC: 0.423281 (Simulation time: 5 hr 14 min 10 sec) 
Heartbeat CPU 0 instructions: 1990000002 cycles: 2531797840 heartbeat IPC: 0.70959 cumulative IPC: 0.669201 (Simulation time: 5 hr 15 min 11 sec) 
Heartbeat CPU 2 instructions: 880000000 cycles: 2533401588 heartbeat IPC: 0.482795 cumulative IPC: 0.292844 (Simulation time: 5 hr 15 min 22 sec) 
*** Reached end of trace for Core: 0 Repeating trace: /scratch/user/djimenez/champsim-traces/speccpu2017/xz/644.nab_s/644.nab_s-12459B.champsimtrace.xz
Heartbeat CPU 0 instructions: 2000000000 cycles: 2545943166 heartbeat IPC: 0.706947 cumulative IPC: 0.66943 (Simulation time: 5 hr 16 min 53 sec) 
Heartbeat CPU 1 instructions: 1380000000 cycles: 2546775227 heartbeat IPC: 0.424178 cumulative IPC: 0.42329 (Simulation time: 5 hr 16 min 58 sec) 
Heartbeat CPU 2 instructions: 890000003 cycles: 2554074322 heartbeat IPC: 0.483729 cumulative IPC: 0.294528 (Simulation time: 5 hr 17 min 50 sec) 
Heartbeat CPU 0 instructions: 2010000001 cycles: 2560251092 heartbeat IPC: 0.698913 cumulative IPC: 0.669609 (Simulation time: 5 hr 18 min 35 sec) 
Heartbeat CPU 3 instructions: 810000003 cycles: 2563788170 heartbeat IPC: 0.237061 cumulative IPC: 0.223429 (Simulation time: 5 hr 19 min 0 sec) 
Heartbeat CPU 1 instructions: 1390000000 cycles: 2569933728 heartbeat IPC: 0.431807 cumulative IPC: 0.423374 (Simulation time: 5 hr 19 min 44 sec) 
Finished CPU 1 instructions: 1000000002 cycles: 2361900819 cumulative IPC: 0.423388 (Simulation time: 5 hr 20 min 7 sec) 
Heartbeat CPU 0 instructions: 2020000000 cycles: 2574506359 heartbeat IPC: 0.701495 cumulative IPC: 0.669802 (Simulation time: 5 hr 20 min 16 sec) 
Heartbeat CPU 2 instructions: 900000000 cycles: 2574980421 heartbeat IPC: 0.478329 cumulative IPC: 0.296154 (Simulation time: 5 hr 20 min 20 sec) 
Heartbeat CPU 0 instructions: 2030000001 cycles: 2588842495 heartbeat IPC: 0.697538 cumulative IPC: 0.669969 (Simulation time: 5 hr 21 min 58 sec) 
Heartbeat CPU 1 instructions: 1400000000 cycles: 2593123816 heartbeat IPC: 0.431219 cumulative IPC: 0.42345 (Simulation time: 5 hr 22 min 29 sec) 
Heartbeat CPU 2 instructions: 910000003 cycles: 2595666423 heartbeat IPC: 0.483419 cumulative IPC: 0.297779 (Simulation time: 5 hr 22 min 46 sec) 
Heartbeat CPU 0 instructions: 2040000000 cycles: 2603085742 heartbeat IPC: 0.702087 cumulative IPC: 0.67016 (Simulation time: 5 hr 23 min 39 sec) 
Heartbeat CPU 3 instructions: 820000000 cycles: 2605873133 heartbeat IPC: 0.237614 cumulative IPC: 0.223679 (Simulation time: 5 hr 23 min 58 sec) 
Heartbeat CPU 2 instructions: 920000000 cycles: 2616432840 heartbeat IPC: 0.481547 cumulative IPC: 0.299365 (Simulation time: 5 hr 25 min 14 sec) 
Heartbeat CPU 1 instructions: 1410000000 cycles: 2616538039 heartbeat IPC: 0.427091 cumulative IPC: 0.423486 (Simulation time: 5 hr 25 min 15 sec) 
Heartbeat CPU 0 instructions: 2050000002 cycles: 2617436648 heartbeat IPC: 0.69682 cumulative IPC: 0.670319 (Simulation time: 5 hr 25 min 21 sec) 
Heartbeat CPU 0 instructions: 2060000000 cycles: 2631970407 heartbeat IPC: 0.688053 cumulative IPC: 0.670426 (Simulation time: 5 hr 27 min 5 sec) 
Heartbeat CPU 2 instructions: 930000000 cycles: 2637229074 heartbeat IPC: 0.480856 cumulative IPC: 0.300921 (Simulation time: 5 hr 27 min 42 sec) 
Heartbeat CPU 1 instructions: 1420000000 cycles: 2639680823 heartbeat IPC: 0.4321 cumulative IPC: 0.423568 (Simulation time: 5 hr 28 min 0 sec) 
Heartbeat CPU 0 instructions: 2070000002 cycles: 2646628947 heartbeat IPC: 0.682196 cumulative IPC: 0.670497 (Simulation time: 5 hr 28 min 50 sec) 
Heartbeat CPU 3 instructions: 830000000 cycles: 2647909855 heartbeat IPC: 0.237887 cumulative IPC: 0.223924 (Simulation time: 5 hr 28 min 59 sec) 
Heartbeat CPU 2 instructions: 940000000 cycles: 2657921543 heartbeat IPC: 0.483268 cumulative IPC: 0.302463 (Simulation time: 5 hr 30 min 10 sec) 
Heartbeat CPU 0 instructions: 2080000000 cycles: 2661246340 heartbeat IPC: 0.684116 cumulative IPC: 0.670578 (Simulation time: 5 hr 30 min 34 sec) 
Heartbeat CPU 1 instructions: 1430000000 cycles: 2663002651 heartbeat IPC: 0.428783 cumulative IPC: 0.423617 (Simulation time: 5 hr 30 min 47 sec) 
Heartbeat CPU 0 instructions: 2090000000 cycles: 2675724750 heartbeat IPC: 0.690684 cumulative IPC: 0.670696 (Simulation time: 5 hr 32 min 15 sec) 
Heartbeat CPU 2 instructions: 950000003 cycles: 2678569338 heartbeat IPC: 0.484313 cumulative IPC: 0.303985 (Simulation time: 5 hr 32 min 32 sec) 
Heartbeat CPU 3 instructions: 840000000 cycles: 2689641990 heartbeat IPC: 0.239623 cumulative IPC: 0.224188 (Simulation time: 5 hr 33 min 44 sec) 
Heartbeat CPU 0 instructions: 2100000000 cycles: 2690419059 heartbeat IPC: 0.680536 cumulative IPC: 0.670754 (Simulation time: 5 hr 33 min 49 sec) 
Heartbeat CPU 1 instructions: 1440000000 cycles: 2693251581 heartbeat IPC: 0.33059 cumulative IPC: 0.422484 (Simulation time: 5 hr 34 min 9 sec) 
Heartbeat CPU 2 instructions: 960000000 cycles: 2699388682 heartbeat IPC: 0.480322 cumulative IPC: 0.305461 (Simulation time: 5 hr 34 min 53 sec) 
Heartbeat CPU 0 instructions: 2110000001 cycles: 2705438698 heartbeat IPC: 0.665795 cumulative IPC: 0.670725 (Simulation time: 5 hr 35 min 35 sec) 
Heartbeat CPU 1 instructions: 1450000000 cycles: 2716413727 heartbeat IPC: 0.431739 cumulative IPC: 0.422569 (Simulation time: 5 hr 36 min 53 sec) 
[...]
Heartbeat CPU 1 instructions: 2160000000 cycles: 4380378743 heartbeat IPC: 0.423322 cumulative IPC: 0.424215 (Simulation time: 8 hr 51 min 16 sec) 
Heartbeat CPU 2 instructions: 1770000000 cycles: 4388795745 heartbeat IPC: 0.476718 cumulative IPC: 0.375827 (Simulation time: 8 hr 52 min 15 sec) 
Heartbeat CPU 0 instructions: 3230000001 cycles: 4391639141 heartbeat IPC: 0.661702 cumulative IPC: 0.668099 (Simulation time: 8 hr 52 min 35 sec) 
Heartbeat CPU 1 instructions: 2170000003 cycles: 4403499852 heartbeat IPC: 0.432505 cumulative IPC: 0.42426 (Simulation time: 8 hr 53 min 58 sec) 
Heartbeat CPU 0 instructions: 3240000000 cycles: 4406632218 heartbeat IPC: 0.666974 cumulative IPC: 0.668095 (Simulation time: 8 hr 54 min 20 sec) 
Heartbeat CPU 2 instructions: 1780000000 cycles: 4409689756 heartbeat IPC: 0.478606 cumulative IPC: 0.376339 (Simulation time: 8 hr 54 min 42 sec) 
Heartbeat CPU 3 instructions: 1250000003 cycles: 4410005272 heartbeat IPC: 0.238419 cumulative IPC: 0.229979 (Simulation time: 8 hr 54 min 44 sec) 
Heartbeat CPU 0 instructions: 3250000000 cycles: 4421614587 heartbeat IPC: 0.667451 cumulative IPC: 0.668093 (Simulation time: 8 hr 56 min 6 sec) 
Heartbeat CPU 1 instructions: 2180000000 cycles: 4426953608 heartbeat IPC: 0.426371 cumulative IPC: 0.424272 (Simulation time: 8 hr 56 min 43 sec) 
Heartbeat CPU 2 instructions: 1790000001 cycles: 4430881389 heartbeat IPC: 0.471884 cumulative IPC: 0.376819 (Simulation time: 8 hr 57 min 8 sec) 
Heartbeat CPU 0 instructions: 3260000000 cycles: 4437064882 heartbeat IPC: 0.647237 cumulative IPC: 0.668016 (Simulation time: 8 hr 57 min 47 sec) 
Heartbeat CPU 3 instructions: 1260000000 cycles: 4451754965 heartbeat IPC: 0.239523 cumulative IPC: 0.230073 (Simulation time: 8 hr 59 min 18 sec) 
Heartbeat CPU 2 instructions: 1800000000 cycles: 4452030118 heartbeat IPC: 0.472842 cumulative IPC: 0.377297 (Simulation time: 8 hr 59 min 19 sec) 
Heartbeat CPU 1 instructions: 2190000001 cycles: 4452120572 heartbeat IPC: 0.397346 cumulative IPC: 0.424112 (Simulation time: 8 hr 59 min 20 sec) 
Heartbeat CPU 0 instructions: 3270000000 cycles: 4452636849 heartbeat IPC: 0.64218 cumulative IPC: 0.667921 (Simulation time: 8 hr 59 min 23 sec) 
Heartbeat CPU 0 instructions: 3280000000 cycles: 4468013506 heartbeat IPC: 0.650336 cumulative IPC: 0.667858 (Simulation time: 9 hr 1 min 5 sec) 
Heartbeat CPU 2 instructions: 1810000003 cycles: 4473131110 heartbeat IPC: 0.473912 cumulative IPC: 0.377776 (Simulation time: 9 hr 1 min 40 sec) 
Heartbeat CPU 1 instructions: 2200000000 cycles: 4475880923 heartbeat IPC: 0.420869 cumulative IPC: 0.424094 (Simulation time: 9 hr 1 min 59 sec) 
Heartbeat CPU 0 instructions: 3290000001 cycles: 4483453179 heartbeat IPC: 0.647682 cumulative IPC: 0.667785 (Simulation time: 9 hr 2 min 52 sec) 
Heartbeat CPU 3 instructions: 1270000000 cycles: 4493520515 heartbeat IPC: 0.239432 cumulative IPC: 0.230164 (Simulation time: 9 hr 4 min 2 sec) 
Heartbeat CPU 2 instructions: 1820000000 cycles: 4493997932 heartbeat IPC: 0.47923 cumulative IPC: 0.37827 (Simulation time: 9 hr 4 min 6 sec) 
Heartbeat CPU 0 instructions: 3300000000 cycles: 4498943918 heartbeat IPC: 0.645547 cumulative IPC: 0.667705 (Simulation time: 9 hr 4 min 40 sec) 
Heartbeat CPU 1 instructions: 2210000003 cycles: 4499043534 heartbeat IPC: 0.43173 cumulative IPC: 0.424135 (Simulation time: 9 hr 4 min 41 sec) 
Heartbeat CPU 0 instructions: 3310000000 cycles: 4513965663 heartbeat IPC: 0.665702 cumulative IPC: 0.667698 (Simulation time: 9 hr 6 min 24 sec) 
Heartbeat CPU 2 instructions: 1830000000 cycles: 4514797053 heartbeat IPC: 0.48079 cumulative IPC: 0.378766 (Simulation time: 9 hr 6 min 30 sec) 
Heartbeat CPU 1 instructions: 2220000000 cycles: 4522580049 heartbeat IPC: 0.424872 cumulative IPC: 0.424139 (Simulation time: 9 hr 7 min 25 sec) 
Heartbeat CPU 0 instructions: 3320000000 cycles: 4528758493 heartbeat IPC: 0.676003 cumulative IPC: 0.667726 (Simulation time: 9 hr 8 min 8 sec) 
Heartbeat CPU 3 instructions: 1280000000 cycles: 4535354060 heartbeat IPC: 0.239043 cumulative IPC: 0.23025 (Simulation time: 9 hr 8 min 54 sec) 
Heartbeat CPU 2 instructions: 1840000000 cycles: 4535709860 heartbeat IPC: 0.478176 cumulative IPC: 0.379246 (Simulation time: 9 hr 8 min 56 sec) 
Heartbeat CPU 0 instructions: 3330000000 cycles: 4543789315 heartbeat IPC: 0.6653 cumulative IPC: 0.667718 (Simulation time: 9 hr 9 min 53 sec) 
Heartbeat CPU 1 instructions: 2230000000 cycles: 4545761152 heartbeat IPC: 0.431386 cumulative IPC: 0.424178 (Simulation time: 9 hr 10 min 7 sec) 
Finished CPU 3 instructions: 1000000002 cycles: 4342620240 cumulative IPC: 0.230276 (Simulation time: 9 hr 11 min 5 sec) 

CPU 0 Branch Prediction Accuracy: 96.5895% MPKI: 4.14747

CPU 1 Branch Prediction Accuracy: 99.8333% MPKI: 0.321453

CPU 2 Branch Prediction Accuracy: 95.8439% MPKI: 7.02665

CPU 3 Branch Prediction Accuracy: 96.15% MPKI: 5.30326

ChampSim completed all CPUs

Total Simulation Statistics (not including warmup)

CPU 0 cumulative IPC: 0.667747 instructions: 2899773449 cycles: 4342620239
L1D TOTAL     ACCESS:  762595913  HIT:  741508990  MISS:   21086923
L1D LOAD      ACCESS:  457839710  HIT:  437641442  MISS:   20198268
L1D RFO       ACCESS:  304756203  HIT:  303867548  MISS:     888655
L1D PREFETCH  ACCESS:          0  HIT:          0  MISS:          0
L1D WRITEBACK ACCESS:          0  HIT:          0  MISS:          0
L1I TOTAL     ACCESS:  644303545  HIT:  644303542  MISS:          3
L1I LOAD      ACCESS:  644303545  HIT:  644303542  MISS:          3
L1I RFO       ACCESS:          0  HIT:          0  MISS:          0
L1I PREFETCH  ACCESS:          0  HIT:          0  MISS:          0
L1I WRITEBACK ACCESS:          0  HIT:          0  MISS:          0
L2C TOTAL     ACCESS:   43284974  HIT:   24502772  MISS:   18782202
L2C LOAD      ACCESS:   20198271  HIT:   12432986  MISS:    7765285
L2C RFO       ACCESS:     888619  HIT:     381206  MISS:     507413
L2C PREFETCH  ACCESS:   20783690  HIT:   10304422  MISS:   10479268
L2C WRITEBACK ACCESS:    1414394  HIT:    1384158  MISS:      30236

Avg Lookahead Depth:	2.89509
TOTAL: 1.38385e+08	L2C: 1.09283e+08	LLC: 2.91023e+07	GOOD_L2C: 7.39184e+07
Printing all the perceptron weights to: perc_weights_0.csv
LLC TOTAL     ACCESS:   22845597  HIT:   21767867  MISS:    1077730
LLC LOAD      ACCESS:    7623327  HIT:    7517719  MISS:     105608
LLC RFO       ACCESS:     507393  HIT:     106007  MISS:     401386
LLC PREFETCH  ACCESS:   13965085  HIT:   13408901  MISS:     556184
LLC WRITEBACK ACCESS:     749792  HIT:     735240  MISS:      14552

CPU 1 cumulative IPC: 0.424191 instructions: 1842101884 cycles: 4342620239
L1D TOTAL     ACCESS:  586845352  HIT:  555894619  MISS:   30950733
L1D LOAD      ACCESS:  380660108  HIT:  349733545  MISS:   30926563
L1D RFO       ACCESS:  206185244  HIT:  206161074  MISS:      24170
L1D PREFETCH  ACCESS:          0  HIT:          0  MISS:          0
L1D WRITEBACK ACCESS:          0  HIT:          0  MISS:          0
L1I TOTAL     ACCESS:  710131289  HIT:  710131288  MISS:          1
L1I LOAD      ACCESS:  710131289  HIT:  710131288  MISS:          1
L1I RFO       ACCESS:          0  HIT:          0  MISS:          0
L1I PREFETCH  ACCESS:          0  HIT:          0  MISS:          0
L1I WRITEBACK ACCESS:          0  HIT:          0  MISS:          0
L2C TOTAL     ACCESS:   64679358  HIT:   48659450  MISS:   16019908
L2C LOAD      ACCESS:   30926564  HIT:   29934852  MISS:     991712
L2C RFO       ACCESS:      24170  HIT:       5244  MISS:      18926
L2C PREFETCH  ACCESS:   33430312  HIT:   18421183  MISS:   15009129
L2C WRITEBACK ACCESS:     298312  HIT:     298171  MISS:        141

Avg Lookahead Depth:	2.89509
TOTAL: 1.38385e+08	L2C: 1.09283e+08	LLC: 2.91023e+07	GOOD_L2C: 7.39184e+07
Printing all the perceptron weights to: perc_weights_0.csv
LLC TOTAL     ACCESS:   16772644  HIT:     714356  MISS:   16058288
LLC LOAD      ACCESS:     936805  HIT:      90728  MISS:     846077
LLC RFO       ACCESS:      18918  HIT:        667  MISS:      18251
LLC PREFETCH  ACCESS:   15670468  HIT:     509333  MISS:   15161135
LLC WRITEBACK ACCESS:     146453  HIT:     113628  MISS:      32825

CPU 2 cumulative IPC: 0.379675 instructions: 1648786177 cycles: 4342620239
L1D TOTAL     ACCESS:  701747148  HIT:  633595950  MISS:   68151198
L1D LOAD      ACCESS:  510746821  HIT:  459187529  MISS:   51559292
L1D RFO       ACCESS:  191000327  HIT:  174408421  MISS:   16591906
L1D PREFETCH  ACCESS:          0  HIT:          0  MISS:          0
L1D WRITEBACK ACCESS:          0  HIT:          0  MISS:          0
L1I TOTAL     ACCESS:  472688185  HIT:  472687959  MISS:        226
L1I LOAD      ACCESS:  472688185  HIT:  472687959  MISS:        226
L1I RFO       ACCESS:          0  HIT:          0  MISS:          0
L1I PREFETCH  ACCESS:          0  HIT:          0  MISS:          0
L1I WRITEBACK ACCESS:          0  HIT:          0  MISS:          0
L2C TOTAL     ACCESS:  134112147  HIT:   86445526  MISS:   47666621
L2C LOAD      ACCESS:   51559196  HIT:   36894396  MISS:   14664800
L2C RFO       ACCESS:   16591632  HIT:    2370264  MISS:   14221368
L2C PREFETCH  ACCESS:   36434205  HIT:   17664876  MISS:   18769329
L2C WRITEBACK ACCESS:   29527114  HIT:   29515990  MISS:      11124

Avg Lookahead Depth:	2.89509
TOTAL: 1.38385e+08	L2C: 1.09283e+08	LLC: 2.91023e+07	GOOD_L2C: 7.39184e+07
Printing all the perceptron weights to: perc_weights_0.csv
LLC TOTAL     ACCESS:   78270250  HIT:   53489880  MISS:   24780370
LLC LOAD      ACCESS:   14208609  HIT:   12611249  MISS:    1597360
LLC RFO       ACCESS:   14221018  HIT:    3306427  MISS:   10914591
LLC PREFETCH  ACCESS:   24000787  HIT:   11732954  MISS:   12267833
LLC WRITEBACK ACCESS:   25839836  HIT:   25839250  MISS:        586

CPU 3 cumulative IPC: 0.230276 instructions: 1000000002 cycles: 4342620240
L1D TOTAL     ACCESS:  448833762  HIT:  428258193  MISS:   20575569
L1D LOAD      ACCESS:  267394567  HIT:  249325901  MISS:   18068666
L1D RFO       ACCESS:  181439195  HIT:  178932292  MISS:    2506903
L1D PREFETCH  ACCESS:          0  HIT:          0  MISS:          0
L1D WRITEBACK ACCESS:          0  HIT:          0  MISS:          0
L1I TOTAL     ACCESS:  350928198  HIT:  350260358  MISS:     667840
L1I LOAD      ACCESS:  350928198  HIT:  350260358  MISS:     667840
L1I RFO       ACCESS:          0  HIT:          0  MISS:          0
L1I PREFETCH  ACCESS:          0  HIT:          0  MISS:          0
L1I WRITEBACK ACCESS:          0  HIT:          0  MISS:          0
L2C TOTAL     ACCESS:   37879478  HIT:   19986465  MISS:   17893013
L2C LOAD      ACCESS:   18735784  HIT:    7495169  MISS:   11240615
L2C RFO       ACCESS:    2506764  HIT:     513329  MISS:    1993435
L2C PREFETCH  ACCESS:    6892002  HIT:    2266598  MISS:    4625404
L2C WRITEBACK ACCESS:    9744928  HIT:    9711369  MISS:      33559

Avg Lookahead Depth:	2.89509
TOTAL: 1.38385e+08	L2C: 1.09283e+08	LLC: 2.91023e+07	GOOD_L2C: 7.39184e+07
Printing all the perceptron weights to: perc_weights_0.csv
LLC TOTAL     ACCESS:   29421820  HIT:   14749659  MISS:   14672161
LLC LOAD      ACCESS:   11121139  HIT:    3992364  MISS:    7128775
LLC RFO       ACCESS:    1985995  HIT:     995462  MISS:     990533
LLC PREFETCH  ACCESS:    8777833  HIT:    2242284  MISS:    6535549
LLC WRITEBACK ACCESS:    7536853  HIT:    7519549  MISS:      17304

Region of Interest Statistics

CPU 0 cumulative IPC: 0.661141 instructions: 1000000000 cycles: 1512536617
L1D TOTAL     ACCESS:  264835608  HIT:  257430845  MISS:    7404763
L1D LOAD      ACCESS:  158236009  HIT:  151129769  MISS:    7106240
L1D RFO       ACCESS:  106599599  HIT:  106301076  MISS:     298523
L1D PREFETCH  ACCESS:          0  HIT:          0  MISS:          0
L1D WRITEBACK ACCESS:          0  HIT:          0  MISS:          0
L1D PREFETCH  REQUESTED:          0  ISSUED:          0  USEFUL:          0  USELESS:          0
L1I TOTAL     ACCESS:  223027859  HIT:  223027856  MISS:          3
L1I LOAD      ACCESS:  223027859  HIT:  223027856  MISS:          3
L1I RFO       ACCESS:          0  HIT:          0  MISS:          0
L1I PREFETCH  ACCESS:          0  HIT:          0  MISS:          0
L1I WRITEBACK ACCESS:          0  HIT:          0  MISS:          0
L1I PREFETCH  REQUESTED:          0  ISSUED:          0  USEFUL:          0  USELESS:          0
L2C TOTAL     ACCESS:   16140759  HIT:    9039754  MISS:    7101005
L2C LOAD      ACCESS:    7106243  HIT:    4552672  MISS:    2553571
L2C RFO       ACCESS:     298508  HIT:     122161  MISS:     176347
L2C PREFETCH  ACCESS:    8257931  HIT:    3899048  MISS:    4358883
L2C WRITEBACK ACCESS:     478077  HIT:     465873  MISS:      12204
L2C PREFETCH  REQUESTED:   28790087  ISSUED:   28790087  USEFUL:    9072968  USELESS:    2870707
LLC TOTAL     ACCESS:    9043543  HIT:    8592710  MISS:     450833
LLC LOAD      ACCESS:    2501028  HIT:    2461379  MISS:      39649
LLC RFO       ACCESS:     176343  HIT:      40743  MISS:     135600
LLC PREFETCH  ACCESS:    6097084  HIT:    5827648  MISS:     269436
LLC WRITEBACK ACCESS:     269088  HIT:     262940  MISS:       6148
LLC PREFETCH  REQUESTED:          0  ISSUED:          0  USEFUL:    2804011  USELESS:   42555270
Major fault: 0 Minor fault: 4854

CPU 1 cumulative IPC: 0.423388 instructions: 1000000002 cycles: 2361900819
L1D TOTAL     ACCESS:  318838453  HIT:  302194027  MISS:   16644426
L1D LOAD      ACCESS:  206724538  HIT:  190090322  MISS:   16634216
L1D RFO       ACCESS:  112113915  HIT:  112103705  MISS:      10210
L1D PREFETCH  ACCESS:          0  HIT:          0  MISS:          0
L1D WRITEBACK ACCESS:          0  HIT:          0  MISS:          0
L1D PREFETCH  REQUESTED:          0  ISSUED:          0  USEFUL:          0  USELESS:          0
L1I TOTAL     ACCESS:  384755769  HIT:  384755768  MISS:          1
L1I LOAD      ACCESS:  384755769  HIT:  384755768  MISS:          1
L1I RFO       ACCESS:          0  HIT:          0  MISS:          0
L1I PREFETCH  ACCESS:          0  HIT:          0  MISS:          0
L1I WRITEBACK ACCESS:          0  HIT:          0  MISS:          0
L1I PREFETCH  REQUESTED:          0  ISSUED:          0  USEFUL:          0  USELESS:          0
L2C TOTAL     ACCESS:   35185813  HIT:   26533900  MISS:    8651913
L2C LOAD      ACCESS:   16634217  HIT:   16110075  MISS:     524142
L2C RFO       ACCESS:      10210  HIT:       1977  MISS:       8233
L2C PREFETCH  ACCESS:   18387831  HIT:   10268342  MISS:    8119489
L2C WRITEBACK ACCESS:     153555  HIT:     153506  MISS:         49
L2C PREFETCH  REQUESTED:   42181217  ISSUED:   42181217  USEFUL:   17734386  USELESS:     644804
LLC TOTAL     ACCESS:    9074838  HIT:     383724  MISS:    8691114
LLC LOAD      ACCESS:     489440  HIT:      42667  MISS:     446773
LLC RFO       ACCESS:       8229  HIT:        301  MISS:       7928
LLC PREFETCH  ACCESS:    8503712  HIT:     284832  MISS:    8218880
LLC WRITEBACK ACCESS:      73457  HIT:      55924  MISS:      17533
LLC PREFETCH  REQUESTED:          0  ISSUED:          0  USEFUL:    2804011  USELESS:   42555270
Major fault: 0 Minor fault: 13708

CPU 2 cumulative IPC: 0.334851 instructions: 1000000000 cycles: 2986403513
L1D TOTAL     ACCESS:  436736917  HIT:  389682440  MISS:   47054477
L1D LOAD      ACCESS:  313836228  HIT:  280687032  MISS:   33149196
L1D RFO       ACCESS:  122900689  HIT:  108995408  MISS:   13905281
L1D PREFETCH  ACCESS:          0  HIT:          0  MISS:          0
L1D WRITEBACK ACCESS:          0  HIT:          0  MISS:          0
L1D PREFETCH  REQUESTED:          0  ISSUED:          0  USEFUL:          0  USELESS:          0
L1I TOTAL     ACCESS:  288782225  HIT:  288781999  MISS:        226
L1I LOAD      ACCESS:  288782225  HIT:  288781999  MISS:        226
L1I RFO       ACCESS:          0  HIT:          0  MISS:          0
L1I PREFETCH  ACCESS:          0  HIT:          0  MISS:          0
L1I WRITEBACK ACCESS:          0  HIT:          0  MISS:          0
L1I PREFETCH  REQUESTED:          0  ISSUED:          0  USEFUL:          0  USELESS:          0
L2C TOTAL     ACCESS:   98400903  HIT:   60823544  MISS:   37577359
L2C LOAD      ACCESS:   33149171  HIT:   23424789  MISS:    9724382
L2C RFO       ACCESS:   13905157  HIT:    1079000  MISS:   12826157
L2C PREFETCH  ACCESS:   25306324  HIT:   10289297  MISS:   15017027
L2C WRITEBACK ACCESS:   26040251  HIT:   26030458  MISS:       9793
L2C PREFETCH  REQUESTED:   51001504  ISSUED:   51001046  USEFUL:   20762354  USELESS:    3745042
LLC TOTAL     ACCESS:   65311873  HIT:   43314198  MISS:   21997675
LLC LOAD      ACCESS:    9417535  HIT:    8365106  MISS:    1052429
LLC RFO       ACCESS:   12825998  HIT:    1913432  MISS:   10912566
LLC PREFETCH  ACCESS:   19133996  HIT:    9101685  MISS:   10032311
LLC WRITEBACK ACCESS:   23934344  HIT:   23933975  MISS:        369
LLC PREFETCH  REQUESTED:          0  ISSUED:          0  USEFUL:    2804011  USELESS:   42555270
Major fault: 0 Minor fault: 401754

CPU 3 cumulative IPC: 0.230276 instructions: 1000000002 cycles: 4342620240
L1D TOTAL     ACCESS:  448833762  HIT:  428258193  MISS:   20575569
L1D LOAD      ACCESS:  267394567  HIT:  249325901  MISS:   18068666
L1D RFO       ACCESS:  181439195  HIT:  178932292  MISS:    2506903
L1D PREFETCH  ACCESS:          0  HIT:          0  MISS:          0
L1D WRITEBACK ACCESS:          0  HIT:          0  MISS:          0
L1D PREFETCH  REQUESTED:          0  ISSUED:          0  USEFUL:          0  USELESS:          0
L1I TOTAL     ACCESS:  350928198  HIT:  350260358  MISS:     667840
L1I LOAD      ACCESS:  350928198  HIT:  350260358  MISS:     667840
L1I RFO       ACCESS:          0  HIT:          0  MISS:          0
L1I PREFETCH  ACCESS:          0  HIT:          0  MISS:          0
L1I WRITEBACK ACCESS:          0  HIT:          0  MISS:          0
L1I PREFETCH  REQUESTED:          0  ISSUED:          0  USEFUL:          0  USELESS:          0
L2C TOTAL     ACCESS:   37879478  HIT:   19986465  MISS:   17893013
L2C LOAD      ACCESS:   18735784  HIT:    7495169  MISS:   11240615
L2C RFO       ACCESS:    2506764  HIT:     513329  MISS:    1993435
L2C PREFETCH  ACCESS:    6892002  HIT:    2266598  MISS:    4625404
L2C WRITEBACK ACCESS:    9744928  HIT:    9711369  MISS:      33559
L2C PREFETCH  REQUESTED:   16412415  ISSUED:   16412415  USEFUL:    2833526  USELESS:    3135181
LLC TOTAL     ACCESS:   29421820  HIT:   14749659  MISS:   14672161
LLC LOAD      ACCESS:   11121139  HIT:    3992364  MISS:    7128775
LLC RFO       ACCESS:    1985995  HIT:     995462  MISS:     990533
LLC PREFETCH  ACCESS:    8777833  HIT:    2242284  MISS:    6535549
LLC WRITEBACK ACCESS:    7536853  HIT:    7519549  MISS:      17304
LLC PREFETCH  REQUESTED:          0  ISSUED:          0  USEFUL:    2804011  USELESS:   42555270
Major fault: 0 Minor fault: 55595

Avg Lookahead Depth:	2.89509
TOTAL: 1.38385e+08	L2C: 1.09283e+08	LLC: 2.91023e+07	GOOD_L2C: 7.39184e+07
Printing all the perceptron weights to: perc_weights_0.csv

Avg Lookahead Depth:	2.89509
TOTAL: 1.38385e+08	L2C: 1.09283e+08	LLC: 2.91023e+07	GOOD_L2C: 7.39184e+07
Printing all the perceptron weights to: perc_weights_0.csv

Avg Lookahead Depth:	2.89509
TOTAL: 1.38385e+08	L2C: 1.09283e+08	LLC: 2.91023e+07	GOOD_L2C: 7.39184e+07
Printing all the perceptron weights to: perc_weights_0.csv

Avg Lookahead Depth:	2.89509
TOTAL: 1.38385e+08	L2C: 1.09283e+08	LLC: 2.91023e+07	GOOD_L2C: 7.39184e+07
Printing all the perceptron weights to: perc_weights_0.csv

DRAM Statistics
 CHANNEL 0
 RQ ROW_BUFFER_HIT:    6297166  ROW_BUFFER_MISS:   21954445
 DBUS_CONGESTED:   37090890
 WQ ROW_BUFFER_HIT:     957904  ROW_BUFFER_MISS:   10417665  FULL:          0

 CHANNEL 1
 RQ ROW_BUFFER_HIT:    6288422  ROW_BUFFER_MISS:   21980532
 DBUS_CONGESTED:   37090890
 WQ ROW_BUFFER_HIT:     956172  ROW_BUFFER_MISS:   10411524  FULL:          0

 AVG_CONGESTED_CYCLE: 13
