
*** ChampSim Multicore Out-of-Order Simulator ***

Warmup Instructions: 200000000
Simulation Instructions: 1000000000
Number of CPUs: 4
LLC sets: 8192
LLC ways: 16
Off-chip DRAM Size: 8192 MB Channels: 2 Width: 64-bit Data Rate: 1600 MT/s

CPU 0 runs /scratch/user/djimenez/champsim-traces/speccpu2017/xz/605.mcf_s/605.mcf_s-484B.champsimtrace.xz
CPU 1 runs /scratch/user/djimenez/champsim-traces/speccpu2017/xz/654.roms_s/654.roms_s-523B.champsimtrace.xz
CPU 2 runs /scratch/user/djimenez/champsim-traces/speccpu2017/xz/654.roms_s/654.roms_s-1390B.champsimtrace.xz
CPU 3 runs /scratch/user/djimenez/champsim-traces/speccpu2017/xz/602.gcc_s/602.gcc_s-2375B.champsimtrace.xz
L2C Best-offset prefetcher
L2C Best-offset prefetcher
L2C Best-offset prefetcher
L2C Best-offset prefetcher
Heartbeat CPU 1 instructions: 10000000 cycles: 4698611 heartbeat IPC: 2.12829 cumulative IPC: 2.12829 (Simulation time: 0 hr 1 min 43 sec) 
Heartbeat CPU 2 instructions: 10000001 cycles: 6744673 heartbeat IPC: 1.48265 cumulative IPC: 1.48265 (Simulation time: 0 hr 2 min 23 sec) 
Heartbeat CPU 3 instructions: 10000002 cycles: 6789835 heartbeat IPC: 1.47279 cumulative IPC: 1.47279 (Simulation time: 0 hr 2 min 24 sec) 
Heartbeat CPU 0 instructions: 10000000 cycles: 6867039 heartbeat IPC: 1.45623 cumulative IPC: 1.45623 (Simulation time: 0 hr 2 min 27 sec) 
Heartbeat CPU 1 instructions: 20000000 cycles: 9188003 heartbeat IPC: 2.22747 cumulative IPC: 2.17675 (Simulation time: 0 hr 3 min 16 sec) 
Heartbeat CPU 2 instructions: 20000000 cycles: 11880908 heartbeat IPC: 1.94695 cumulative IPC: 1.68337 (Simulation time: 0 hr 4 min 14 sec) 
Heartbeat CPU 3 instructions: 20000000 cycles: 13341301 heartbeat IPC: 1.52638 cumulative IPC: 1.4991 (Simulation time: 0 hr 4 min 51 sec) 
Heartbeat CPU 0 instructions: 20000000 cycles: 13651211 heartbeat IPC: 1.47402 cumulative IPC: 1.46507 (Simulation time: 0 hr 4 min 58 sec) 
Heartbeat CPU 1 instructions: 30000002 cycles: 14889710 heartbeat IPC: 1.75386 cumulative IPC: 2.01481 (Simulation time: 0 hr 5 min 30 sec) 
Heartbeat CPU 2 instructions: 30000003 cycles: 16404003 heartbeat IPC: 2.21088 cumulative IPC: 1.82882 (Simulation time: 0 hr 6 min 3 sec) 
Heartbeat CPU 1 instructions: 40000000 cycles: 19633983 heartbeat IPC: 2.1078 cumulative IPC: 2.03728 (Simulation time: 0 hr 7 min 11 sec) 
Heartbeat CPU 3 instructions: 30000001 cycles: 20200517 heartbeat IPC: 1.45789 cumulative IPC: 1.48511 (Simulation time: 0 hr 7 min 23 sec) 
Heartbeat CPU 0 instructions: 30000000 cycles: 20381708 heartbeat IPC: 1.48577 cumulative IPC: 1.47191 (Simulation time: 0 hr 7 min 27 sec) 
Heartbeat CPU 2 instructions: 40000000 cycles: 22613662 heartbeat IPC: 1.61039 cumulative IPC: 1.76884 (Simulation time: 0 hr 8 min 13 sec) 
Heartbeat CPU 1 instructions: 50000001 cycles: 24951129 heartbeat IPC: 1.88071 cumulative IPC: 2.00392 (Simulation time: 0 hr 9 min 1 sec) 
Heartbeat CPU 3 instructions: 40000000 cycles: 26369879 heartbeat IPC: 1.62091 cumulative IPC: 1.51688 (Simulation time: 0 hr 9 min 31 sec) 
Heartbeat CPU 0 instructions: 40000000 cycles: 27250429 heartbeat IPC: 1.45588 cumulative IPC: 1.46787 (Simulation time: 0 hr 9 min 50 sec) 
Heartbeat CPU 2 instructions: 50000001 cycles: 29637861 heartbeat IPC: 1.42365 cumulative IPC: 1.68703 (Simulation time: 0 hr 10 min 40 sec) 
Heartbeat CPU 1 instructions: 60000000 cycles: 30164044 heartbeat IPC: 1.91831 cumulative IPC: 1.98912 (Simulation time: 0 hr 10 min 52 sec) 
Heartbeat CPU 3 instructions: 50000001 cycles: 32244453 heartbeat IPC: 1.70225 cumulative IPC: 1.55065 (Simulation time: 0 hr 11 min 39 sec) 
Heartbeat CPU 2 instructions: 60000000 cycles: 33064334 heartbeat IPC: 2.91845 cumulative IPC: 1.81464 (Simulation time: 0 hr 11 min 56 sec) 
Heartbeat CPU 0 instructions: 50000003 cycles: 34036116 heartbeat IPC: 1.47369 cumulative IPC: 1.46903 (Simulation time: 0 hr 12 min 19 sec) 
Heartbeat CPU 1 instructions: 70000002 cycles: 35213540 heartbeat IPC: 1.9804 cumulative IPC: 1.98787 (Simulation time: 0 hr 12 min 44 sec) 
Heartbeat CPU 2 instructions: 70000002 cycles: 36460805 heartbeat IPC: 2.94423 cumulative IPC: 1.91987 (Simulation time: 0 hr 13 min 12 sec) 
Heartbeat CPU 3 instructions: 60000000 cycles: 37921973 heartbeat IPC: 1.76133 cumulative IPC: 1.5822 (Simulation time: 0 hr 13 min 44 sec) 
Heartbeat CPU 2 instructions: 80000000 cycles: 39855767 heartbeat IPC: 2.94554 cumulative IPC: 2.00724 (Simulation time: 0 hr 14 min 26 sec) 
Heartbeat CPU 1 instructions: 80000000 cycles: 40335063 heartbeat IPC: 1.95254 cumulative IPC: 1.98339 (Simulation time: 0 hr 14 min 37 sec) 
Heartbeat CPU 0 instructions: 60000000 cycles: 40843305 heartbeat IPC: 1.46903 cumulative IPC: 1.46903 (Simulation time: 0 hr 14 min 48 sec) 
Heartbeat CPU 3 instructions: 70000001 cycles: 44544542 heartbeat IPC: 1.50999 cumulative IPC: 1.57146 (Simulation time: 0 hr 16 min 2 sec) 
Heartbeat CPU 1 instructions: 90000002 cycles: 45054012 heartbeat IPC: 2.11912 cumulative IPC: 1.9976 (Simulation time: 0 hr 16 min 12 sec) 
Heartbeat CPU 2 instructions: 90000003 cycles: 45359602 heartbeat IPC: 1.81692 cumulative IPC: 1.98414 (Simulation time: 0 hr 16 min 17 sec) 
Heartbeat CPU 0 instructions: 70000002 cycles: 47456691 heartbeat IPC: 1.51209 cumulative IPC: 1.47503 (Simulation time: 0 hr 16 min 59 sec) 
Heartbeat CPU 1 instructions: 100000000 cycles: 49468029 heartbeat IPC: 2.26551 cumulative IPC: 2.02151 (Simulation time: 0 hr 17 min 40 sec) 
Heartbeat CPU 2 instructions: 100000000 cycles: 50182391 heartbeat IPC: 2.07349 cumulative IPC: 1.99273 (Simulation time: 0 hr 17 min 55 sec) 
Heartbeat CPU 3 instructions: 80000000 cycles: 50331578 heartbeat IPC: 1.728 cumulative IPC: 1.58946 (Simulation time: 0 hr 17 min 59 sec) 
Heartbeat CPU 2 instructions: 110000001 cycles: 54211029 heartbeat IPC: 2.48223 cumulative IPC: 2.02911 (Simulation time: 0 hr 19 min 22 sec) 
Heartbeat CPU 0 instructions: 80000000 cycles: 54249664 heartbeat IPC: 1.47211 cumulative IPC: 1.47466 (Simulation time: 0 hr 19 min 23 sec) 
Heartbeat CPU 1 instructions: 110000002 cycles: 55143527 heartbeat IPC: 1.76196 cumulative IPC: 1.99479 (Simulation time: 0 hr 19 min 42 sec) 
Heartbeat CPU 3 instructions: 90000003 cycles: 55925721 heartbeat IPC: 1.78758 cumulative IPC: 1.60928 (Simulation time: 0 hr 20 min 0 sec) 
Heartbeat CPU 2 instructions: 120000000 cycles: 57532980 heartbeat IPC: 3.01028 cumulative IPC: 2.08576 (Simulation time: 0 hr 20 min 35 sec) 
Heartbeat CPU 1 instructions: 120000000 cycles: 59918621 heartbeat IPC: 2.0942 cumulative IPC: 2.00272 (Simulation time: 0 hr 21 min 28 sec) 
Heartbeat CPU 0 instructions: 90000000 cycles: 60946275 heartbeat IPC: 1.49329 cumulative IPC: 1.47671 (Simulation time: 0 hr 21 min 51 sec) 
Heartbeat CPU 2 instructions: 130000003 cycles: 61184313 heartbeat IPC: 2.73873 cumulative IPC: 2.12473 (Simulation time: 0 hr 21 min 56 sec) 
Heartbeat CPU 3 instructions: 100000000 cycles: 62342032 heartbeat IPC: 1.55853 cumulative IPC: 1.60405 (Simulation time: 0 hr 22 min 23 sec) 
Heartbeat CPU 1 instructions: 130000001 cycles: 65221305 heartbeat IPC: 1.88584 cumulative IPC: 1.99321 (Simulation time: 0 hr 23 min 25 sec) 
Heartbeat CPU 2 instructions: 140000000 cycles: 67037099 heartbeat IPC: 1.70859 cumulative IPC: 2.0884 (Simulation time: 0 hr 24 min 4 sec) 
Heartbeat CPU 0 instructions: 100000000 cycles: 67723226 heartbeat IPC: 1.47559 cumulative IPC: 1.4766 (Simulation time: 0 hr 24 min 18 sec) 
Heartbeat CPU 3 instructions: 110000003 cycles: 68833575 heartbeat IPC: 1.54047 cumulative IPC: 1.59806 (Simulation time: 0 hr 24 min 43 sec) 
Heartbeat CPU 1 instructions: 140000000 cycles: 70418329 heartbeat IPC: 1.92418 cumulative IPC: 1.98812 (Simulation time: 0 hr 25 min 17 sec) 
Heartbeat CPU 2 instructions: 150000000 cycles: 72331591 heartbeat IPC: 1.88876 cumulative IPC: 2.07378 (Simulation time: 0 hr 25 min 57 sec) 
Heartbeat CPU 0 instructions: 110000001 cycles: 74448731 heartbeat IPC: 1.48688 cumulative IPC: 1.47753 (Simulation time: 0 hr 26 min 40 sec) 
Heartbeat CPU 1 instructions: 150000003 cycles: 75504712 heartbeat IPC: 1.96603 cumulative IPC: 1.98663 (Simulation time: 0 hr 27 min 2 sec) 
Heartbeat CPU 3 instructions: 120000000 cycles: 75585103 heartbeat IPC: 1.48115 cumulative IPC: 1.58761 (Simulation time: 0 hr 27 min 3 sec) 
Heartbeat CPU 1 instructions: 160000000 cycles: 80611518 heartbeat IPC: 1.95817 cumulative IPC: 1.98483 (Simulation time: 0 hr 28 min 47 sec) 
Heartbeat CPU 2 instructions: 160000000 cycles: 80621567 heartbeat IPC: 1.20628 cumulative IPC: 1.98458 (Simulation time: 0 hr 28 min 47 sec) 
Heartbeat CPU 0 instructions: 120000000 cycles: 81306070 heartbeat IPC: 1.45829 cumulative IPC: 1.4759 (Simulation time: 0 hr 29 min 1 sec) 
Heartbeat CPU 3 instructions: 130000002 cycles: 81717020 heartbeat IPC: 1.63081 cumulative IPC: 1.59086 (Simulation time: 0 hr 29 min 9 sec) 
Heartbeat CPU 1 instructions: 170000003 cycles: 85325719 heartbeat IPC: 2.12125 cumulative IPC: 1.99237 (Simulation time: 0 hr 30 min 21 sec) 
Heartbeat CPU 0 instructions: 130000000 cycles: 88165114 heartbeat IPC: 1.45793 cumulative IPC: 1.47451 (Simulation time: 0 hr 31 min 13 sec) 
Heartbeat CPU 3 instructions: 140000000 cycles: 88267859 heartbeat IPC: 1.52652 cumulative IPC: 1.58608 (Simulation time: 0 hr 31 min 15 sec) 
Heartbeat CPU 2 instructions: 170000003 cycles: 89220199 heartbeat IPC: 1.16298 cumulative IPC: 1.9054 (Simulation time: 0 hr 31 min 34 sec) 
Heartbeat CPU 1 instructions: 180000000 cycles: 89640485 heartbeat IPC: 2.31762 cumulative IPC: 2.00802 (Simulation time: 0 hr 31 min 43 sec) 
Heartbeat CPU 3 instructions: 150000000 cycles: 94806088 heartbeat IPC: 1.52947 cumulative IPC: 1.58218 (Simulation time: 0 hr 33 min 26 sec) 
Heartbeat CPU 0 instructions: 140000000 cycles: 94885186 heartbeat IPC: 1.48808 cumulative IPC: 1.47547 (Simulation time: 0 hr 33 min 27 sec) 
Heartbeat CPU 1 instructions: 190000001 cycles: 95326428 heartbeat IPC: 1.75872 cumulative IPC: 1.99315 (Simulation time: 0 hr 33 min 36 sec) 
Heartbeat CPU 2 instructions: 180000000 cycles: 97862507 heartbeat IPC: 1.1571 cumulative IPC: 1.83932 (Simulation time: 0 hr 34 min 29 sec) 
Heartbeat CPU 1 instructions: 200000000 cycles: 100135638 heartbeat IPC: 2.07934 cumulative IPC: 1.99729 (Simulation time: 0 hr 35 min 18 sec) 
Heartbeat CPU 3 instructions: 160000000 cycles: 100546242 heartbeat IPC: 1.74211 cumulative IPC: 1.59131 (Simulation time: 0 hr 35 min 26 sec) 
Heartbeat CPU 0 instructions: 150000000 cycles: 101754212 heartbeat IPC: 1.45581 cumulative IPC: 1.47414 (Simulation time: 0 hr 35 min 50 sec) 
Heartbeat CPU 2 instructions: 190000001 cycles: 102922413 heartbeat IPC: 1.97632 cumulative IPC: 1.84605 (Simulation time: 0 hr 36 min 14 sec) 
Heartbeat CPU 1 instructions: 210000000 cycles: 105423256 heartbeat IPC: 1.89121 cumulative IPC: 0.0948557 (Simulation time: 0 hr 37 min 5 sec) 
Heartbeat CPU 2 instructions: 200000000 cycles: 106692843 heartbeat IPC: 2.65222 cumulative IPC: 1.87454 (Simulation time: 0 hr 37 min 31 sec) 
Heartbeat CPU 3 instructions: 170000000 cycles: 107434271 heartbeat IPC: 1.45179 cumulative IPC: 1.58236 (Simulation time: 0 hr 37 min 46 sec) 
Heartbeat CPU 0 instructions: 160000000 cycles: 108621177 heartbeat IPC: 1.45625 cumulative IPC: 1.47301 (Simulation time: 0 hr 38 min 9 sec) 
Heartbeat CPU 1 instructions: 220000000 cycles: 110602536 heartbeat IPC: 1.93077 cumulative IPC: 0.180828 (Simulation time: 0 hr 38 min 48 sec) 
Heartbeat CPU 2 instructions: 210000000 cycles: 113274292 heartbeat IPC: 1.51942 cumulative IPC: 0.0882813 (Simulation time: 0 hr 39 min 38 sec) 
Heartbeat CPU 3 instructions: 180000000 cycles: 113659941 heartbeat IPC: 1.60625 cumulative IPC: 1.58367 (Simulation time: 0 hr 39 min 45 sec) 
Heartbeat CPU 0 instructions: 170000000 cycles: 115352178 heartbeat IPC: 1.48566 cumulative IPC: 1.47375 (Simulation time: 0 hr 40 min 21 sec) 
Heartbeat CPU 1 instructions: 230000003 cycles: 115711815 heartbeat IPC: 1.95722 cumulative IPC: 0.259265 (Simulation time: 0 hr 40 min 29 sec) 
Heartbeat CPU 2 instructions: 220000000 cycles: 119274617 heartbeat IPC: 1.66658 cumulative IPC: 0.16768 (Simulation time: 0 hr 41 min 41 sec) 
Heartbeat CPU 3 instructions: 190000001 cycles: 120585795 heartbeat IPC: 1.44387 cumulative IPC: 1.57564 (Simulation time: 0 hr 42 min 10 sec) 
Heartbeat CPU 1 instructions: 240000000 cycles: 120797043 heartbeat IPC: 1.96648 cumulative IPC: 0.331134 (Simulation time: 0 hr 42 min 14 sec) 
Heartbeat CPU 0 instructions: 180000000 cycles: 122148578 heartbeat IPC: 1.47137 cumulative IPC: 1.47362 (Simulation time: 0 hr 42 min 43 sec) 
Heartbeat CPU 2 instructions: 230000001 cycles: 123822891 heartbeat IPC: 2.19864 cumulative IPC: 0.242282 (Simulation time: 0 hr 43 min 17 sec) 
Heartbeat CPU 1 instructions: 250000000 cycles: 125536651 heartbeat IPC: 2.10988 cumulative IPC: 0.39829 (Simulation time: 0 hr 43 min 52 sec) 
Heartbeat CPU 3 instructions: 200000000 cycles: 127351165 heartbeat IPC: 1.47812 cumulative IPC: 1.57046 (Simulation time: 0 hr 44 min 27 sec) 
Heartbeat CPU 0 instructions: 190000002 cycles: 128932500 heartbeat IPC: 1.47407 cumulative IPC: 1.47364 (Simulation time: 0 hr 44 min 54 sec) 
Heartbeat CPU 2 instructions: 240000000 cycles: 129790965 heartbeat IPC: 1.67558 cumulative IPC: 0.308188 (Simulation time: 0 hr 45 min 11 sec) 
Heartbeat CPU 1 instructions: 260000000 cycles: 129802500 heartbeat IPC: 2.3442 cumulative IPC: 0.462241 (Simulation time: 0 hr 45 min 11 sec) 
Heartbeat CPU 3 instructions: 210000000 cycles: 133961172 heartbeat IPC: 1.51286 cumulative IPC: 0.0746485 (Simulation time: 0 hr 46 min 33 sec) 
Heartbeat CPU 0 instructions: 200000000 cycles: 135456351 heartbeat IPC: 1.53284 cumulative IPC: 1.47649 (Simulation time: 0 hr 47 min 2 sec) 

Warmup complete CPU 0 instructions: 200000003 cycles: 135456352 (Simulation time: 0 hr 47 min 2 sec) 
Warmup complete CPU 1 instructions: 269999208 cycles: 135456351 (Simulation time: 0 hr 47 min 2 sec) 
Warmup complete CPU 2 instructions: 247950338 cycles: 135456351 (Simulation time: 0 hr 47 min 2 sec) 
Warmup complete CPU 3 instructions: 212302336 cycles: 135456351 (Simulation time: 0 hr 47 min 2 sec) 

Heartbeat CPU 1 instructions: 270000000 cycles: 135457191 heartbeat IPC: 1.76844 cumulative IPC: 0.942857 (Simulation time: 0 hr 47 min 2 sec) 
Heartbeat CPU 2 instructions: 250000003 cycles: 138130069 heartbeat IPC: 1.19917 cumulative IPC: 0.766597 (Simulation time: 0 hr 47 min 24 sec) 
Heartbeat CPU 2 instructions: 260000000 cycles: 150943883 heartbeat IPC: 0.780408 cumulative IPC: 0.778023 (Simulation time: 0 hr 49 min 6 sec) 
Heartbeat CPU 1 instructions: 280000000 cycles: 152650839 heartbeat IPC: 0.58161 cumulative IPC: 0.581628 (Simulation time: 0 hr 49 min 19 sec) 
Heartbeat CPU 3 instructions: 220000000 cycles: 159117687 heartbeat IPC: 0.397511 cumulative IPC: 0.325327 (Simulation time: 0 hr 50 min 15 sec) 
Heartbeat CPU 2 instructions: 270000000 cycles: 159993822 heartbeat IPC: 1.10498 cumulative IPC: 0.898612 (Simulation time: 0 hr 50 min 23 sec) 
Heartbeat CPU 1 instructions: 290000002 cycles: 165192244 heartbeat IPC: 0.797359 cumulative IPC: 0.672615 (Simulation time: 0 hr 51 min 8 sec) 
Heartbeat CPU 2 instructions: 280000000 cycles: 168693273 heartbeat IPC: 1.1495 cumulative IPC: 0.964279 (Simulation time: 0 hr 51 min 39 sec) 
Heartbeat CPU 1 instructions: 300000000 cycles: 178351499 heartbeat IPC: 0.759921 cumulative IPC: 0.699398 (Simulation time: 0 hr 52 min 54 sec) 
Heartbeat CPU 2 instructions: 290000000 cycles: 179388513 heartbeat IPC: 0.934995 cumulative IPC: 0.95715 (Simulation time: 0 hr 53 min 2 sec) 
Heartbeat CPU 0 instructions: 210000001 cycles: 182032281 heartbeat IPC: 0.214703 cumulative IPC: 0.214703 (Simulation time: 0 hr 53 min 24 sec) 
Heartbeat CPU 3 instructions: 230000003 cycles: 189743061 heartbeat IPC: 0.326527 cumulative IPC: 0.326004 (Simulation time: 0 hr 54 min 25 sec) 
Heartbeat CPU 1 instructions: 310000001 cycles: 191115966 heartbeat IPC: 0.783425 cumulative IPC: 0.718668 (Simulation time: 0 hr 54 min 36 sec) 
Heartbeat CPU 2 instructions: 300000000 cycles: 195373594 heartbeat IPC: 0.625583 cumulative IPC: 0.868693 (Simulation time: 0 hr 55 min 12 sec) 
Heartbeat CPU 1 instructions: 320000000 cycles: 203140356 heartbeat IPC: 0.831643 cumulative IPC: 0.738739 (Simulation time: 0 hr 56 min 12 sec) 
Heartbeat CPU 2 instructions: 310000002 cycles: 208260714 heartbeat IPC: 0.775969 cumulative IPC: 0.852279 (Simulation time: 0 hr 56 min 49 sec) 
Heartbeat CPU 1 instructions: 330000002 cycles: 215365182 heartbeat IPC: 0.818008 cumulative IPC: 0.750866 (Simulation time: 0 hr 57 min 45 sec) 
Heartbeat CPU 0 instructions: 220000000 cycles: 217727392 heartbeat IPC: 0.28015 cumulative IPC: 0.243099 (Simulation time: 0 hr 58 min 4 sec) 
Heartbeat CPU 2 instructions: 320000000 cycles: 220980047 heartbeat IPC: 0.786205 cumulative IPC: 0.842453 (Simulation time: 0 hr 58 min 31 sec) 
Heartbeat CPU 3 instructions: 240000000 cycles: 221661176 heartbeat IPC: 0.313302 cumulative IPC: 0.321301 (Simulation time: 0 hr 58 min 37 sec) 
Heartbeat CPU 1 instructions: 340000000 cycles: 225420120 heartbeat IPC: 0.994536 cumulative IPC: 0.7781 (Simulation time: 0 hr 59 min 8 sec) 
Heartbeat CPU 2 instructions: 330000003 cycles: 232983637 heartbeat IPC: 0.833084 cumulative IPC: 0.8413 (Simulation time: 1 hr 0 min 1 sec) 
Heartbeat CPU 1 instructions: 350000001 cycles: 242008551 heartbeat IPC: 0.60283 cumulative IPC: 0.750813 (Simulation time: 1 hr 1 min 11 sec) 
Heartbeat CPU 2 instructions: 340000000 cycles: 248351853 heartbeat IPC: 0.650693 cumulative IPC: 0.815353 (Simulation time: 1 hr 1 min 55 sec) 
Heartbeat CPU 0 instructions: 230000001 cycles: 251457574 heartbeat IPC: 0.29647 cumulative IPC: 0.258618 (Simulation time: 1 hr 2 min 17 sec) 
Heartbeat CPU 3 instructions: 250000001 cycles: 251814027 heartbeat IPC: 0.331644 cumulative IPC: 0.323981 (Simulation time: 1 hr 2 min 20 sec) 
Heartbeat CPU 1 instructions: 360000000 cycles: 258074056 heartbeat IPC: 0.622452 cumulative IPC: 0.733995 (Simulation time: 1 hr 3 min 5 sec) 
Heartbeat CPU 2 instructions: 350000003 cycles: 266709804 heartbeat IPC: 0.544723 cumulative IPC: 0.777501 (Simulation time: 1 hr 4 min 16 sec) 
Heartbeat CPU 1 instructions: 370000000 cycles: 270525149 heartbeat IPC: 0.803142 cumulative IPC: 0.740369 (Simulation time: 1 hr 4 min 45 sec) 
Heartbeat CPU 3 instructions: 260000000 cycles: 280654278 heartbeat IPC: 0.346738 cumulative IPC: 0.328501 (Simulation time: 1 hr 6 min 7 sec) 
Heartbeat CPU 2 instructions: 360000000 cycles: 281647843 heartbeat IPC: 0.669432 cumulative IPC: 0.766458 (Simulation time: 1 hr 6 min 15 sec) 
Heartbeat CPU 1 instructions: 380000000 cycles: 283767336 heartbeat IPC: 0.755162 cumulative IPC: 0.74169 (Simulation time: 1 hr 6 min 33 sec) 
Heartbeat CPU 0 instructions: 240000000 cycles: 288183506 heartbeat IPC: 0.272287 cumulative IPC: 0.261905 (Simulation time: 1 hr 7 min 16 sec) 
Heartbeat CPU 2 instructions: 370000000 cycles: 295939861 heartbeat IPC: 0.699691 cumulative IPC: 0.760512 (Simulation time: 1 hr 8 min 21 sec) 
Heartbeat CPU 1 instructions: 390000001 cycles: 296045048 heartbeat IPC: 0.814484 cumulative IPC: 0.747256 (Simulation time: 1 hr 8 min 22 sec) 
Heartbeat CPU 1 instructions: 400000000 cycles: 307480755 heartbeat IPC: 0.874454 cumulative IPC: 0.755711 (Simulation time: 1 hr 9 min 59 sec) 
Heartbeat CPU 2 instructions: 380000000 cycles: 310210163 heartbeat IPC: 0.700756 cumulative IPC: 0.755633 (Simulation time: 1 hr 10 min 21 sec) 
Heartbeat CPU 3 instructions: 270000000 cycles: 312365243 heartbeat IPC: 0.315348 cumulative IPC: 0.326143 (Simulation time: 1 hr 10 min 38 sec) 
Heartbeat CPU 1 instructions: 410000002 cycles: 318757497 heartbeat IPC: 0.886781 cumulative IPC: 0.763775 (Simulation time: 1 hr 11 min 28 sec) 
Heartbeat CPU 2 instructions: 390000000 cycles: 325395846 heartbeat IPC: 0.658515 cumulative IPC: 0.747868 (Simulation time: 1 hr 12 min 21 sec) 
Heartbeat CPU 1 instructions: 420000000 cycles: 328741305 heartbeat IPC: 1.00162 cumulative IPC: 0.77606 (Simulation time: 1 hr 12 min 48 sec) 
Heartbeat CPU 0 instructions: 250000000 cycles: 329084945 heartbeat IPC: 0.24449 cumulative IPC: 0.258226 (Simulation time: 1 hr 12 min 50 sec) 
Heartbeat CPU 2 instructions: 400000000 cycles: 337522003 heartbeat IPC: 0.824664 cumulative IPC: 0.752477 (Simulation time: 1 hr 13 min 55 sec) 
Heartbeat CPU 3 instructions: 280000000 cycles: 343995309 heartbeat IPC: 0.316155 cumulative IPC: 0.324628 (Simulation time: 1 hr 14 min 39 sec) 
Heartbeat CPU 1 instructions: 430000001 cycles: 344907437 heartbeat IPC: 0.618577 cumulative IPC: 0.763905 (Simulation time: 1 hr 14 min 45 sec) 
Heartbeat CPU 0 instructions: 260000000 cycles: 359403106 heartbeat IPC: 0.329835 cumulative IPC: 0.267921 (Simulation time: 1 hr 16 min 28 sec) 
Heartbeat CPU 2 instructions: 410000000 cycles: 359748112 heartbeat IPC: 0.449921 cumulative IPC: 0.722495 (Simulation time: 1 hr 16 min 31 sec) 
Heartbeat CPU 1 instructions: 440000000 cycles: 360757219 heartbeat IPC: 0.630923 cumulative IPC: 0.75455 (Simulation time: 1 hr 16 min 40 sec) 
Heartbeat CPU 2 instructions: 420000000 cycles: 372504874 heartbeat IPC: 0.783898 cumulative IPC: 0.725799 (Simulation time: 1 hr 18 min 24 sec) 
Heartbeat CPU 1 instructions: 450000001 cycles: 373021255 heartbeat IPC: 0.815392 cumulative IPC: 0.757691 (Simulation time: 1 hr 18 min 29 sec) 
Heartbeat CPU 3 instructions: 290000001 cycles: 375139747 heartbeat IPC: 0.321085 cumulative IPC: 0.324168 (Simulation time: 1 hr 18 min 49 sec) 
Heartbeat CPU 1 instructions: 460000000 cycles: 385934588 heartbeat IPC: 0.774393 cumulative IPC: 0.758552 (Simulation time: 1 hr 20 min 22 sec) 
Heartbeat CPU 2 instructions: 430000003 cycles: 386819240 heartbeat IPC: 0.698599 cumulative IPC: 0.72425 (Simulation time: 1 hr 20 min 29 sec) 
Heartbeat CPU 0 instructions: 270000000 cycles: 398131372 heartbeat IPC: 0.258209 cumulative IPC: 0.266489 (Simulation time: 1 hr 21 min 53 sec) 
Heartbeat CPU 1 instructions: 470000000 cycles: 399969924 heartbeat IPC: 0.712487 cumulative IPC: 0.756108 (Simulation time: 1 hr 22 min 7 sec) 
Heartbeat CPU 2 instructions: 440000000 cycles: 405309923 heartbeat IPC: 0.540813 cumulative IPC: 0.711681 (Simulation time: 1 hr 22 min 48 sec) 
Heartbeat CPU 3 instructions: 300000000 cycles: 405384343 heartbeat IPC: 0.330638 cumulative IPC: 0.324893 (Simulation time: 1 hr 22 min 48 sec) 
Heartbeat CPU 1 instructions: 480000000 cycles: 413744664 heartbeat IPC: 0.725967 cumulative IPC: 0.754616 (Simulation time: 1 hr 24 min 0 sec) 
Heartbeat CPU 2 instructions: 450000000 cycles: 420024124 heartbeat IPC: 0.679616 cumulative IPC: 0.710023 (Simulation time: 1 hr 24 min 53 sec) 
Heartbeat CPU 1 instructions: 490000003 cycles: 426481234 heartbeat IPC: 0.785141 cumulative IPC: 0.755952 (Simulation time: 1 hr 25 min 47 sec) 
Heartbeat CPU 3 instructions: 310000000 cycles: 433610732 heartbeat IPC: 0.354278 cumulative IPC: 0.327675 (Simulation time: 1 hr 26 min 53 sec) 
Heartbeat CPU 2 instructions: 460000000 cycles: 434016595 heartbeat IPC: 0.71467 cumulative IPC: 0.710241 (Simulation time: 1 hr 26 min 57 sec) 
Heartbeat CPU 0 instructions: 280000000 cycles: 435863929 heartbeat IPC: 0.265023 cumulative IPC: 0.266305 (Simulation time: 1 hr 27 min 13 sec) 
Heartbeat CPU 1 instructions: 500000000 cycles: 437457324 heartbeat IPC: 0.911071 cumulative IPC: 0.76159 (Simulation time: 1 hr 27 min 27 sec) 
Heartbeat CPU 2 instructions: 470000002 cycles: 446637451 heartbeat IPC: 0.792339 cumulative IPC: 0.713571 (Simulation time: 1 hr 28 min 40 sec) 
Heartbeat CPU 1 instructions: 510000002 cycles: 454323472 heartbeat IPC: 0.592904 cumulative IPC: 0.752667 (Simulation time: 1 hr 29 min 45 sec) 
Heartbeat CPU 2 instructions: 480000000 cycles: 454928766 heartbeat IPC: 1.20608 cumulative IPC: 0.726353 (Simulation time: 1 hr 29 min 50 sec) 
Heartbeat CPU 2 instructions: 490000003 cycles: 463171512 heartbeat IPC: 1.21319 cumulative IPC: 0.738598 (Simulation time: 1 hr 31 min 1 sec) 
Heartbeat CPU 3 instructions: 320000000 cycles: 465492029 heartbeat IPC: 0.313664 cumulative IPC: 0.326321 (Simulation time: 1 hr 31 min 20 sec) 
Heartbeat CPU 1 instructions: 520000000 cycles: 470079880 heartbeat IPC: 0.634662 cumulative IPC: 0.747111 (Simulation time: 1 hr 32 min 0 sec) 
Heartbeat CPU 2 instructions: 500000000 cycles: 474623662 heartbeat IPC: 0.873198 cumulative IPC: 0.743143 (Simulation time: 1 hr 32 min 34 sec) 
Heartbeat CPU 0 instructions: 290000000 cycles: 478758280 heartbeat IPC: 0.233131 cumulative IPC: 0.26216 (Simulation time: 1 hr 33 min 8 sec) 
Heartbeat CPU 1 instructions: 530000000 cycles: 484233236 heartbeat IPC: 0.706546 cumulative IPC: 0.745465 (Simulation time: 1 hr 33 min 58 sec) 
Heartbeat CPU 2 instructions: 510000001 cycles: 490653887 heartbeat IPC: 0.623822 cumulative IPC: 0.737758 (Simulation time: 1 hr 34 min 46 sec) 
Heartbeat CPU 3 instructions: 330000002 cycles: 497518809 heartbeat IPC: 0.312239 cumulative IPC: 0.325076 (Simulation time: 1 hr 35 min 38 sec) 
Heartbeat CPU 1 instructions: 540000000 cycles: 498504624 heartbeat IPC: 0.700703 cumulative IPC: 0.743705 (Simulation time: 1 hr 35 min 47 sec) 
Heartbeat CPU 2 instructions: 520000000 cycles: 503454103 heartbeat IPC: 0.781237 cumulative IPC: 0.73927 (Simulation time: 1 hr 36 min 32 sec) 
Heartbeat CPU 1 instructions: 550000003 cycles: 511579352 heartbeat IPC: 0.764835 cumulative IPC: 0.744439 (Simulation time: 1 hr 37 min 37 sec) 
Heartbeat CPU 2 instructions: 530000001 cycles: 515896634 heartbeat IPC: 0.803695 cumulative IPC: 0.741377 (Simulation time: 1 hr 38 min 15 sec) 
Heartbeat CPU 0 instructions: 300000000 cycles: 517379082 heartbeat IPC: 0.258928 cumulative IPC: 0.261833 (Simulation time: 1 hr 38 min 27 sec) 
Heartbeat CPU 1 instructions: 560000000 cycles: 523270025 heartbeat IPC: 0.855383 cumulative IPC: 0.747784 (Simulation time: 1 hr 39 min 18 sec) 
Heartbeat CPU 2 instructions: 540000000 cycles: 526613203 heartbeat IPC: 0.933134 cumulative IPC: 0.746631 (Simulation time: 1 hr 39 min 45 sec) 
Heartbeat CPU 3 instructions: 340000000 cycles: 530620002 heartbeat IPC: 0.302104 cumulative IPC: 0.323151 (Simulation time: 1 hr 40 min 19 sec) 
Heartbeat CPU 1 instructions: 570000000 cycles: 536180782 heartbeat IPC: 0.774548 cumulative IPC: 0.748646 (Simulation time: 1 hr 41 min 11 sec) 
Heartbeat CPU 2 instructions: 550000002 cycles: 541566665 heartbeat IPC: 0.668742 cumulative IPC: 0.743763 (Simulation time: 1 hr 41 min 56 sec) 
Heartbeat CPU 1 instructions: 580000000 cycles: 545705310 heartbeat IPC: 1.04992 cumulative IPC: 0.755641 (Simulation time: 1 hr 42 min 39 sec) 
Heartbeat CPU 0 instructions: 310000003 cycles: 556090210 heartbeat IPC: 0.258324 cumulative IPC: 0.26151 (Simulation time: 1 hr 44 min 10 sec) 
Heartbeat CPU 2 instructions: 560000000 cycles: 559067980 heartbeat IPC: 0.571386 cumulative IPC: 0.736641 (Simulation time: 1 hr 44 min 31 sec) 
Heartbeat CPU 3 instructions: 350000000 cycles: 562053001 heartbeat IPC: 0.318137 cumulative IPC: 0.322782 (Simulation time: 1 hr 44 min 57 sec) 
Heartbeat CPU 1 instructions: 590000003 cycles: 562911990 heartbeat IPC: 0.58117 cumulative IPC: 0.748618 (Simulation time: 1 hr 45 min 4 sec) 
Heartbeat CPU 2 instructions: 570000000 cycles: 572629155 heartbeat IPC: 0.737399 cumulative IPC: 0.736664 (Simulation time: 1 hr 46 min 26 sec) 
Heartbeat CPU 1 instructions: 600000000 cycles: 579361318 heartbeat IPC: 0.607927 cumulative IPC: 0.743404 (Simulation time: 1 hr 47 min 18 sec) 
Heartbeat CPU 2 instructions: 580000000 cycles: 587457843 heartbeat IPC: 0.674369 cumulative IPC: 0.734621 (Simulation time: 1 hr 48 min 22 sec) 
Heartbeat CPU 1 instructions: 610000003 cycles: 592996260 heartbeat IPC: 0.73341 cumulative IPC: 0.743106 (Simulation time: 1 hr 49 min 12 sec) 
Heartbeat CPU 3 instructions: 360000000 cycles: 595472854 heartbeat IPC: 0.299223 cumulative IPC: 0.32107 (Simulation time: 1 hr 49 min 36 sec) 
Heartbeat CPU 0 instructions: 320000000 cycles: 599962065 heartbeat IPC: 0.227936 cumulative IPC: 0.258339 (Simulation time: 1 hr 50 min 14 sec) 
Heartbeat CPU 2 instructions: 590000001 cycles: 601402884 heartbeat IPC: 0.717101 cumulative IPC: 0.734096 (Simulation time: 1 hr 50 min 26 sec) 
Heartbeat CPU 1 instructions: 620000000 cycles: 608471896 heartbeat IPC: 0.646177 cumulative IPC: 0.739935 (Simulation time: 1 hr 51 min 27 sec) 
Heartbeat CPU 2 instructions: 600000000 cycles: 617083100 heartbeat IPC: 0.637746 cumulative IPC: 0.73096 (Simulation time: 1 hr 52 min 41 sec) 
Heartbeat CPU 1 instructions: 630000001 cycles: 620883321 heartbeat IPC: 0.805709 cumulative IPC: 0.741617 (Simulation time: 1 hr 53 min 12 sec) 
Heartbeat CPU 3 instructions: 370000000 cycles: 626204823 heartbeat IPC: 0.325394 cumulative IPC: 0.321341 (Simulation time: 1 hr 53 min 58 sec) 
Heartbeat CPU 2 instructions: 610000000 cycles: 628752238 heartbeat IPC: 0.856961 cumulative IPC: 0.73394 (Simulation time: 1 hr 54 min 21 sec) 
Heartbeat CPU 0 instructions: 330000000 cycles: 631434009 heartbeat IPC: 0.317743 cumulative IPC: 0.262109 (Simulation time: 1 hr 54 min 46 sec) 
Heartbeat CPU 1 instructions: 640000000 cycles: 632314772 heartbeat IPC: 0.87478 cumulative IPC: 0.744681 (Simulation time: 1 hr 54 min 55 sec) 
Heartbeat CPU 1 instructions: 650000001 cycles: 643990426 heartbeat IPC: 0.856483 cumulative IPC: 0.747247 (Simulation time: 1 hr 56 min 30 sec) 
Heartbeat CPU 2 instructions: 620000000 cycles: 646167343 heartbeat IPC: 0.574214 cumulative IPC: 0.728494 (Simulation time: 1 hr 56 min 50 sec) 
Heartbeat CPU 3 instructions: 380000000 cycles: 652936967 heartbeat IPC: 0.374081 cumulative IPC: 0.324066 (Simulation time: 1 hr 57 min 52 sec) 
Heartbeat CPU 1 instructions: 660000000 cycles: 653140662 heartbeat IPC: 1.09287 cumulative IPC: 0.753356 (Simulation time: 1 hr 57 min 54 sec) 
Heartbeat CPU 2 instructions: 630000000 cycles: 658335130 heartbeat IPC: 0.821842 cumulative IPC: 0.730666 (Simulation time: 1 hr 58 min 40 sec) 
Heartbeat CPU 1 instructions: 670000001 cycles: 669441072 heartbeat IPC: 0.613482 cumulative IPC: 0.749087 (Simulation time: 2 hr 0 min 18 sec) 
Heartbeat CPU 2 instructions: 640000000 cycles: 673128578 heartbeat IPC: 0.675975 cumulative IPC: 0.729161 (Simulation time: 2 hr 0 min 45 sec) 
Heartbeat CPU 0 instructions: 340000000 cycles: 677590889 heartbeat IPC: 0.216652 cumulative IPC: 0.258238 (Simulation time: 2 hr 1 min 15 sec) 
Heartbeat CPU 3 instructions: 390000000 cycles: 678568313 heartbeat IPC: 0.390147 cumulative IPC: 0.327184 (Simulation time: 2 hr 1 min 22 sec) 
Heartbeat CPU 1 instructions: 680000000 cycles: 685883174 heartbeat IPC: 0.608195 cumulative IPC: 0.744878 (Simulation time: 2 hr 2 min 9 sec) 
Heartbeat CPU 2 instructions: 650000002 cycles: 694605621 heartbeat IPC: 0.465614 cumulative IPC: 0.719038 (Simulation time: 2 hr 3 min 13 sec) 
Heartbeat CPU 1 instructions: 690000003 cycles: 698979156 heartbeat IPC: 0.763593 cumulative IPC: 0.745313 (Simulation time: 2 hr 3 min 52 sec) 
Heartbeat CPU 2 instructions: 660000000 cycles: 708400019 heartbeat IPC: 0.724932 cumulative IPC: 0.71918 (Simulation time: 2 hr 5 min 17 sec) 
Heartbeat CPU 3 instructions: 400000000 cycles: 710439048 heartbeat IPC: 0.313767 cumulative IPC: 0.326441 (Simulation time: 2 hr 5 min 35 sec) 
Heartbeat CPU 1 instructions: 700000000 cycles: 713898718 heartbeat IPC: 0.670261 cumulative IPC: 0.743377 (Simulation time: 2 hr 6 min 4 sec) 
Heartbeat CPU 0 instructions: 350000002 cycles: 719839608 heartbeat IPC: 0.236694 cumulative IPC: 0.256681 (Simulation time: 2 hr 7 min 3 sec) 
Heartbeat CPU 2 instructions: 670000002 cycles: 721641976 heartbeat IPC: 0.755176 cumulative IPC: 0.719993 (Simulation time: 2 hr 7 min 21 sec) 
Heartbeat CPU 1 instructions: 710000002 cycles: 726682548 heartbeat IPC: 0.782238 cumulative IPC: 0.744217 (Simulation time: 2 hr 8 min 6 sec) 
Heartbeat CPU 2 instructions: 680000000 cycles: 734334572 heartbeat IPC: 0.787861 cumulative IPC: 0.721432 (Simulation time: 2 hr 9 min 10 sec) 
Heartbeat CPU 1 instructions: 720000000 cycles: 738468124 heartbeat IPC: 0.848495 cumulative IPC: 0.746255 (Simulation time: 2 hr 9 min 46 sec) 
Heartbeat CPU 3 instructions: 410000000 cycles: 742484777 heartbeat IPC: 0.312054 cumulative IPC: 0.325681 (Simulation time: 2 hr 10 min 21 sec) 
Heartbeat CPU 2 instructions: 690000001 cycles: 744020597 heartbeat IPC: 1.03242 cumulative IPC: 0.726381 (Simulation time: 2 hr 10 min 34 sec) 
Heartbeat CPU 1 instructions: 730000003 cycles: 750763866 heartbeat IPC: 0.81329 cumulative IPC: 0.747595 (Simulation time: 2 hr 11 min 35 sec) 
Heartbeat CPU 2 instructions: 700000000 cycles: 752620069 heartbeat IPC: 1.16286 cumulative IPC: 0.732463 (Simulation time: 2 hr 11 min 53 sec) 
Heartbeat CPU 0 instructions: 360000000 cycles: 760440111 heartbeat IPC: 0.246302 cumulative IPC: 0.256007 (Simulation time: 2 hr 13 min 8 sec) 
Heartbeat CPU 1 instructions: 740000000 cycles: 760455206 heartbeat IPC: 1.03185 cumulative IPC: 0.752003 (Simulation time: 2 hr 13 min 8 sec) 
Heartbeat CPU 2 instructions: 710000000 cycles: 764182112 heartbeat IPC: 0.864899 cumulative IPC: 0.734899 (Simulation time: 2 hr 13 min 40 sec) 
Heartbeat CPU 3 instructions: 420000000 cycles: 770994901 heartbeat IPC: 0.350753 cumulative IPC: 0.326806 (Simulation time: 2 hr 14 min 29 sec) 
Heartbeat CPU 1 instructions: 750000000 cycles: 776902801 heartbeat IPC: 0.607992 cumulative IPC: 0.74831 (Simulation time: 2 hr 15 min 15 sec) 
Heartbeat CPU 2 instructions: 720000000 cycles: 782741568 heartbeat IPC: 0.538809 cumulative IPC: 0.729276 (Simulation time: 2 hr 15 min 58 sec) 
Heartbeat CPU 1 instructions: 760000000 cycles: 793652705 heartbeat IPC: 0.597018 cumulative IPC: 0.74446 (Simulation time: 2 hr 17 min 20 sec) 
Heartbeat CPU 0 instructions: 370000000 cycles: 795119998 heartbeat IPC: 0.288352 cumulative IPC: 0.257707 (Simulation time: 2 hr 17 min 30 sec) 
Heartbeat CPU 2 instructions: 730000003 cycles: 797368658 heartbeat IPC: 0.683663 cumulative IPC: 0.728268 (Simulation time: 2 hr 17 min 45 sec) 
Heartbeat CPU 3 instructions: 430000000 cycles: 803065438 heartbeat IPC: 0.311813 cumulative IPC: 0.326086 (Simulation time: 2 hr 18 min 22 sec) 
Heartbeat CPU 2 instructions: 740000000 cycles: 808804794 heartbeat IPC: 0.874421 cumulative IPC: 0.73075 (Simulation time: 2 hr 19 min 12 sec) 
Heartbeat CPU 1 instructions: 770000002 cycles: 811746928 heartbeat IPC: 0.552663 cumulative IPC: 0.739328 (Simulation time: 2 hr 19 min 37 sec) 
Heartbeat CPU 2 instructions: 750000002 cycles: 819875866 heartbeat IPC: 0.903255 cumulative IPC: 0.733541 (Simulation time: 2 hr 20 min 48 sec) 
Heartbeat CPU 1 instructions: 780000000 cycles: 826654646 heartbeat IPC: 0.670793 cumulative IPC: 0.73785 (Simulation time: 2 hr 21 min 39 sec) 
Heartbeat CPU 3 instructions: 440000000 cycles: 831378446 heartbeat IPC: 0.353195 cumulative IPC: 0.327188 (Simulation time: 2 hr 22 min 14 sec) 
Heartbeat CPU 2 instructions: 760000000 cycles: 835845405 heartbeat IPC: 0.626192 cumulative IPC: 0.731093 (Simulation time: 2 hr 22 min 53 sec) 
Heartbeat CPU 0 instructions: 380000000 cycles: 836330765 heartbeat IPC: 0.242655 cumulative IPC: 0.256822 (Simulation time: 2 hr 22 min 58 sec) 
Heartbeat CPU 1 instructions: 790000002 cycles: 839678396 heartbeat IPC: 0.767828 cumulative IPC: 0.738405 (Simulation time: 2 hr 23 min 27 sec) 
Heartbeat CPU 1 instructions: 800000000 cycles: 852251912 heartbeat IPC: 0.795322 cumulative IPC: 0.739403 (Simulation time: 2 hr 25 min 12 sec) 
Heartbeat CPU 2 instructions: 770000001 cycles: 852555198 heartbeat IPC: 0.598451 cumulative IPC: 0.728002 (Simulation time: 2 hr 25 min 14 sec) 
Heartbeat CPU 3 instructions: 450000000 cycles: 861594490 heartbeat IPC: 0.33095 cumulative IPC: 0.327345 (Simulation time: 2 hr 26 min 29 sec) 
Heartbeat CPU 1 instructions: 810000000 cycles: 865237274 heartbeat IPC: 0.770098 cumulative IPC: 0.739949 (Simulation time: 2 hr 27 min 3 sec) 
Heartbeat CPU 2 instructions: 780000000 cycles: 866526070 heartbeat IPC: 0.715775 cumulative IPC: 0.727769 (Simulation time: 2 hr 27 min 16 sec) 
Heartbeat CPU 0 instructions: 390000002 cycles: 871422042 heartbeat IPC: 0.284971 cumulative IPC: 0.258164 (Simulation time: 2 hr 28 min 6 sec) 
Heartbeat CPU 1 instructions: 820000000 cycles: 874313966 heartbeat IPC: 1.10172 cumulative IPC: 0.744393 (Simulation time: 2 hr 28 min 37 sec) 
Heartbeat CPU 2 instructions: 790000003 cycles: 880839855 heartbeat IPC: 0.698627 cumulative IPC: 0.727209 (Simulation time: 2 hr 29 min 37 sec) 
Heartbeat CPU 3 instructions: 460000000 cycles: 888651902 heartbeat IPC: 0.369585 cumulative IPC: 0.328862 (Simulation time: 2 hr 30 min 59 sec) 
Heartbeat CPU 1 instructions: 830000000 cycles: 889859038 heartbeat IPC: 0.643291 cumulative IPC: 0.74231 (Simulation time: 2 hr 31 min 12 sec) 
Heartbeat CPU 2 instructions: 800000000 cycles: 895056810 heartbeat IPC: 0.703385 cumulative IPC: 0.726763 (Simulation time: 2 hr 32 min 4 sec) 
Heartbeat CPU 1 instructions: 840000000 cycles: 906498471 heartbeat IPC: 0.600982 cumulative IPC: 0.73926 (Simulation time: 2 hr 33 min 39 sec) 
Heartbeat CPU 0 instructions: 400000000 cycles: 909119992 heartbeat IPC: 0.265266 cumulative IPC: 0.25851 (Simulation time: 2 hr 34 min 0 sec) 
Heartbeat CPU 2 instructions: 810000000 cycles: 911373010 heartbeat IPC: 0.612888 cumulative IPC: 0.724369 (Simulation time: 2 hr 34 min 17 sec) 
Heartbeat CPU 3 instructions: 470000000 cycles: 919146700 heartbeat IPC: 0.327925 cumulative IPC: 0.328826 (Simulation time: 2 hr 35 min 24 sec) 
Heartbeat CPU 1 instructions: 850000001 cycles: 920356347 heartbeat IPC: 0.721611 cumulative IPC: 0.738949 (Simulation time: 2 hr 35 min 35 sec) 
Heartbeat CPU 2 instructions: 820000000 cycles: 923583133 heartbeat IPC: 0.818993 cumulative IPC: 0.725835 (Simulation time: 2 hr 36 min 2 sec) 
Heartbeat CPU 1 instructions: 860000000 cycles: 934993567 heartbeat IPC: 0.68319 cumulative IPC: 0.737928 (Simulation time: 2 hr 37 min 44 sec) 
Heartbeat CPU 2 instructions: 830000002 cycles: 939818242 heartbeat IPC: 0.615949 cumulative IPC: 0.723617 (Simulation time: 2 hr 38 min 36 sec) 
Heartbeat CPU 0 instructions: 410000000 cycles: 943036357 heartbeat IPC: 0.294843 cumulative IPC: 0.260036 (Simulation time: 2 hr 39 min 10 sec) 
Heartbeat CPU 1 instructions: 870000003 cycles: 948253251 heartbeat IPC: 0.754166 cumulative IPC: 0.738193 (Simulation time: 2 hr 40 min 4 sec) 
Heartbeat CPU 3 instructions: 480000000 cycles: 950873874 heartbeat IPC: 0.315187 cumulative IPC: 0.328295 (Simulation time: 2 hr 40 min 30 sec) 
Heartbeat CPU 2 instructions: 840000000 cycles: 952150507 heartbeat IPC: 0.810881 cumulative IPC: 0.724934 (Simulation time: 2 hr 40 min 42 sec) 
Heartbeat CPU 1 instructions: 880000000 cycles: 961460990 heartbeat IPC: 0.757132 cumulative IPC: 0.738496 (Simulation time: 2 hr 42 min 16 sec) 
Heartbeat CPU 2 instructions: 850000000 cycles: 967051932 heartbeat IPC: 0.671077 cumulative IPC: 0.723969 (Simulation time: 2 hr 43 min 5 sec) 
Heartbeat CPU 1 instructions: 890000002 cycles: 975059094 heartbeat IPC: 0.735397 cumulative IPC: 0.738445 (Simulation time: 2 hr 44 min 4 sec) 
Heartbeat CPU 0 instructions: 420000000 cycles: 976389115 heartbeat IPC: 0.299825 cumulative IPC: 0.261614 (Simulation time: 2 hr 44 min 14 sec) 
Heartbeat CPU 3 instructions: 490000000 cycles: 981875985 heartbeat IPC: 0.322559 cumulative IPC: 0.328085 (Simulation time: 2 hr 44 min 55 sec) 
Heartbeat CPU 2 instructions: 860000000 cycles: 985312273 heartbeat IPC: 0.547635 cumulative IPC: 0.720181 (Simulation time: 2 hr 45 min 21 sec) 
Heartbeat CPU 1 instructions: 900000000 cycles: 986355808 heartbeat IPC: 0.885213 cumulative IPC: 0.740394 (Simulation time: 2 hr 45 min 31 sec) 
Heartbeat CPU 2 instructions: 870000002 cycles: 998309467 heartbeat IPC: 0.769397 cumulative IPC: 0.720922 (Simulation time: 2 hr 47 min 19 sec) 
Heartbeat CPU 1 instructions: 910000001 cycles: 1002769741 heartbeat IPC: 0.609239 cumulative IPC: 0.737912 (Simulation time: 2 hr 47 min 57 sec) 
Heartbeat CPU 0 instructions: 430000001 cycles: 1010716547 heartbeat IPC: 0.291312 cumulative IPC: 0.262779 (Simulation time: 2 hr 49 min 12 sec) 
Heartbeat CPU 2 instructions: 880000000 cycles: 1011427541 heartbeat IPC: 0.762307 cumulative IPC: 0.721542 (Simulation time: 2 hr 49 min 19 sec) 
Heartbeat CPU 3 instructions: 500000000 cycles: 1013313033 heartbeat IPC: 0.318096 cumulative IPC: 0.327727 (Simulation time: 2 hr 49 min 35 sec) 
Heartbeat CPU 1 instructions: 920000000 cycles: 1019238912 heartbeat IPC: 0.607195 cumulative IPC: 0.735476 (Simulation time: 2 hr 50 min 20 sec) 
Heartbeat CPU 2 instructions: 890000000 cycles: 1023123960 heartbeat IPC: 0.854963 cumulative IPC: 0.7233 (Simulation time: 2 hr 50 min 51 sec) 
Heartbeat CPU 1 instructions: 930000000 cycles: 1032662293 heartbeat IPC: 0.744969 cumulative IPC: 0.735618 (Simulation time: 2 hr 52 min 17 sec) 
Heartbeat CPU 2 instructions: 900000000 cycles: 1032741107 heartbeat IPC: 1.03981 cumulative IPC: 0.726692 (Simulation time: 2 hr 52 min 18 sec) 
Heartbeat CPU 3 instructions: 510000000 cycles: 1040276226 heartbeat IPC: 0.370876 cumulative IPC: 0.329013 (Simulation time: 2 hr 53 min 31 sec) 
Heartbeat CPU 2 instructions: 910000003 cycles: 1041861739 heartbeat IPC: 1.09642 cumulative IPC: 0.730412 (Simulation time: 2 hr 53 min 44 sec) 
Heartbeat CPU 1 instructions: 940000000 cycles: 1045132229 heartbeat IPC: 0.801929 cumulative IPC: 0.736527 (Simulation time: 2 hr 54 min 13 sec) 
Heartbeat CPU 0 instructions: 440000000 cycles: 1048001269 heartbeat IPC: 0.268206 cumulative IPC: 0.263001 (Simulation time: 2 hr 54 min 38 sec) 
Heartbeat CPU 2 instructions: 920000000 cycles: 1055341183 heartbeat IPC: 0.74187 cumulative IPC: 0.73058 (Simulation time: 2 hr 55 min 37 sec) 
Heartbeat CPU 1 instructions: 950000000 cycles: 1057684927 heartbeat IPC: 0.796641 cumulative IPC: 0.737345 (Simulation time: 2 hr 55 min 55 sec) 
Heartbeat CPU 3 instructions: 520000000 cycles: 1067071818 heartbeat IPC: 0.373196 cumulative IPC: 0.330284 (Simulation time: 2 hr 57 min 13 sec) 
Heartbeat CPU 1 instructions: 960000000 cycles: 1069860621 heartbeat IPC: 0.821308 cumulative IPC: 0.738439 (Simulation time: 2 hr 57 min 38 sec) 
Heartbeat CPU 2 instructions: 930000000 cycles: 1069874114 heartbeat IPC: 0.688092 cumulative IPC: 0.729919 (Simulation time: 2 hr 57 min 38 sec) 
Heartbeat CPU 1 instructions: 970000002 cycles: 1082017808 heartbeat IPC: 0.822559 cumulative IPC: 0.73952 (Simulation time: 2 hr 59 min 21 sec) 
Heartbeat CPU 2 instructions: 940000000 cycles: 1084171155 heartbeat IPC: 0.699445 cumulative IPC: 0.72946 (Simulation time: 2 hr 59 min 37 sec) 
Heartbeat CPU 0 instructions: 450000001 cycles: 1090964680 heartbeat IPC: 0.232756 cumulative IPC: 0.261641 (Simulation time: 3 hr 0 min 34 sec) 
Heartbeat CPU 1 instructions: 980000000 cycles: 1091966421 heartbeat IPC: 1.00517 cumulative IPC: 0.742283 (Simulation time: 3 hr 0 min 43 sec) 
Heartbeat CPU 2 instructions: 950000003 cycles: 1095799387 heartbeat IPC: 0.859976 cumulative IPC: 0.731041 (Simulation time: 3 hr 1 min 15 sec) 
Heartbeat CPU 3 instructions: 530000001 cycles: 1098234946 heartbeat IPC: 0.320892 cumulative IPC: 0.32998 (Simulation time: 3 hr 1 min 34 sec) 
Heartbeat CPU 1 instructions: 990000000 cycles: 1107927064 heartbeat IPC: 0.626541 cumulative IPC: 0.740383 (Simulation time: 3 hr 2 min 50 sec) 
Heartbeat CPU 2 instructions: 960000000 cycles: 1109052429 heartbeat IPC: 0.754544 cumulative IPC: 0.73136 (Simulation time: 3 hr 2 min 58 sec) 
Heartbeat CPU 1 instructions: 1000000000 cycles: 1124551972 heartbeat IPC: 0.601507 cumulative IPC: 0.738049 (Simulation time: 3 hr 4 min 53 sec) 
Heartbeat CPU 2 instructions: 970000002 cycles: 1127159429 heartbeat IPC: 0.552273 cumulative IPC: 0.728091 (Simulation time: 3 hr 5 min 14 sec) 
Heartbeat CPU 3 instructions: 540000000 cycles: 1127501184 heartbeat IPC: 0.341691 cumulative IPC: 0.330325 (Simulation time: 3 hr 5 min 16 sec) 
Heartbeat CPU 0 instructions: 460000000 cycles: 1131147450 heartbeat IPC: 0.248863 cumulative IPC: 0.261125 (Simulation time: 3 hr 5 min 47 sec) 
Heartbeat CPU 1 instructions: 1010000003 cycles: 1137876434 heartbeat IPC: 0.7505 cumulative IPC: 0.738214 (Simulation time: 3 hr 6 min 45 sec) 
Heartbeat CPU 2 instructions: 980000000 cycles: 1143901736 heartbeat IPC: 0.597289 cumulative IPC: 0.725919 (Simulation time: 3 hr 7 min 31 sec) 
Heartbeat CPU 1 instructions: 1020000000 cycles: 1150927463 heartbeat IPC: 0.766223 cumulative IPC: 0.738574 (Simulation time: 3 hr 8 min 32 sec) 
Heartbeat CPU 2 instructions: 990000000 cycles: 1158085677 heartbeat IPC: 0.705023 cumulative IPC: 0.725629 (Simulation time: 3 hr 9 min 40 sec) 
Heartbeat CPU 3 instructions: 550000000 cycles: 1158885626 heartbeat IPC: 0.318629 cumulative IPC: 0.329967 (Simulation time: 3 hr 9 min 48 sec) 
Heartbeat CPU 1 instructions: 1030000003 cycles: 1163322578 heartbeat IPC: 0.80677 cumulative IPC: 0.739397 (Simulation time: 3 hr 10 min 28 sec) 
Heartbeat CPU 0 instructions: 470000001 cycles: 1168233233 heartbeat IPC: 0.269645 cumulative IPC: 0.261431 (Simulation time: 3 hr 11 min 8 sec) 
Heartbeat CPU 2 instructions: 1000000000 cycles: 1172600349 heartbeat IPC: 0.688958 cumulative IPC: 0.725116 (Simulation time: 3 hr 11 min 51 sec) 
Heartbeat CPU 1 instructions: 1040000000 cycles: 1175253150 heartbeat IPC: 0.838183 cumulative IPC: 0.74053 (Simulation time: 3 hr 12 min 17 sec) 
Heartbeat CPU 3 instructions: 560000000 cycles: 1182030519 heartbeat IPC: 0.432061 cumulative IPC: 0.332225 (Simulation time: 3 hr 13 min 21 sec) 
Heartbeat CPU 2 instructions: 1010000003 cycles: 1186810429 heartbeat IPC: 0.703726 cumulative IPC: 0.724827 (Simulation time: 3 hr 14 min 3 sec) 
Heartbeat CPU 1 instructions: 1050000000 cycles: 1188566621 heartbeat IPC: 0.751119 cumulative IPC: 0.740664 (Simulation time: 3 hr 14 min 18 sec) 
Heartbeat CPU 1 instructions: 1060000000 cycles: 1199589765 heartbeat IPC: 0.907182 cumulative IPC: 0.742389 (Simulation time: 3 hr 15 min 47 sec) 
Heartbeat CPU 2 instructions: 1020000000 cycles: 1201530901 heartbeat IPC: 0.679326 cumulative IPC: 0.724199 (Simulation time: 3 hr 16 min 4 sec) 
Heartbeat CPU 0 instructions: 480000000 cycles: 1202341350 heartbeat IPC: 0.293185 cumulative IPC: 0.262446 (Simulation time: 3 hr 16 min 11 sec) 
Heartbeat CPU 3 instructions: 570000001 cycles: 1210542578 heartbeat IPC: 0.350729 cumulative IPC: 0.332715 (Simulation time: 3 hr 17 min 16 sec) 
Heartbeat CPU 1 instructions: 1070000002 cycles: 1214873752 heartbeat IPC: 0.65428 cumulative IPC: 0.741141 (Simulation time: 3 hr 17 min 47 sec) 
Heartbeat CPU 2 instructions: 1030000000 cycles: 1218588811 heartbeat IPC: 0.586238 cumulative IPC: 0.722026 (Simulation time: 3 hr 18 min 12 sec) 
Heartbeat CPU 1 instructions: 1080000000 cycles: 1231148626 heartbeat IPC: 0.614444 cumulative IPC: 0.739259 (Simulation time: 3 hr 19 min 43 sec) 
Heartbeat CPU 0 instructions: 490000001 cycles: 1235577055 heartbeat IPC: 0.300881 cumulative IPC: 0.263607 (Simulation time: 3 hr 20 min 22 sec) 
Heartbeat CPU 2 instructions: 1040000000 cycles: 1236378659 heartbeat IPC: 0.562118 cumulative IPC: 0.719442 (Simulation time: 3 hr 20 min 29 sec) 
Heartbeat CPU 3 instructions: 580000000 cycles: 1243713516 heartbeat IPC: 0.301469 cumulative IPC: 0.33178 (Simulation time: 3 hr 21 min 37 sec) 
Heartbeat CPU 1 instructions: 1090000000 cycles: 1243974003 heartbeat IPC: 0.779704 cumulative IPC: 0.739727 (Simulation time: 3 hr 21 min 39 sec) 
Heartbeat CPU 2 instructions: 1050000001 cycles: 1249076673 heartbeat IPC: 0.787525 cumulative IPC: 0.720218 (Simulation time: 3 hr 22 min 37 sec) 
Heartbeat CPU 1 instructions: 1100000000 cycles: 1258509584 heartbeat IPC: 0.687967 cumulative IPC: 0.739057 (Simulation time: 3 hr 24 min 0 sec) 
Heartbeat CPU 2 instructions: 1060000000 cycles: 1266260882 heartbeat IPC: 0.58193 cumulative IPC: 0.718117 (Simulation time: 3 hr 25 min 7 sec) 
Heartbeat CPU 0 instructions: 500000000 cycles: 1271355849 heartbeat IPC: 0.279495 cumulative IPC: 0.264108 (Simulation time: 3 hr 25 min 51 sec) 
Heartbeat CPU 1 instructions: 1110000000 cycles: 1272873897 heartbeat IPC: 0.69617 cumulative IPC: 0.738516 (Simulation time: 3 hr 26 min 4 sec) 
Heartbeat CPU 3 instructions: 590000000 cycles: 1275404450 heartbeat IPC: 0.315548 cumulative IPC: 0.331329 (Simulation time: 3 hr 26 min 24 sec) 
Heartbeat CPU 2 instructions: 1070000002 cycles: 1285317132 heartbeat IPC: 0.524762 cumulative IPC: 0.714912 (Simulation time: 3 hr 27 min 39 sec) 
Heartbeat CPU 1 instructions: 1120000000 cycles: 1287312401 heartbeat IPC: 0.692593 cumulative IPC: 0.73794 (Simulation time: 3 hr 27 min 54 sec) 
Heartbeat CPU 1 instructions: 1130000003 cycles: 1300305617 heartbeat IPC: 0.769633 cumulative IPC: 0.738294 (Simulation time: 3 hr 29 min 42 sec) 
Heartbeat CPU 2 instructions: 1080000000 cycles: 1302808503 heartbeat IPC: 0.57171 cumulative IPC: 0.712767 (Simulation time: 3 hr 30 min 4 sec) 
Heartbeat CPU 0 instructions: 510000001 cycles: 1304997449 heartbeat IPC: 0.297251 cumulative IPC: 0.265061 (Simulation time: 3 hr 30 min 26 sec) 
Heartbeat CPU 3 instructions: 600000000 cycles: 1306978803 heartbeat IPC: 0.316713 cumulative IPC: 0.330935 (Simulation time: 3 hr 30 min 44 sec) 
Heartbeat CPU 1 instructions: 1140000000 cycles: 1311065880 heartbeat IPC: 0.929345 cumulative IPC: 0.740042 (Simulation time: 3 hr 31 min 21 sec) 
Heartbeat CPU 2 instructions: 1090000000 cycles: 1318680252 heartbeat IPC: 0.63005 cumulative IPC: 0.711657 (Simulation time: 3 hr 32 min 12 sec) 
Heartbeat CPU 1 instructions: 1150000000 cycles: 1327306135 heartbeat IPC: 0.615754 cumulative IPC: 0.738349 (Simulation time: 3 hr 33 min 27 sec) 
Heartbeat CPU 2 instructions: 1100000000 cycles: 1327907712 heartbeat IPC: 1.08372 cumulative IPC: 0.714536 (Simulation time: 3 hr 33 min 33 sec) 
Heartbeat CPU 2 instructions: 1110000001 cycles: 1336850948 heartbeat IPC: 1.11816 cumulative IPC: 0.717541 (Simulation time: 3 hr 35 min 3 sec) 
Heartbeat CPU 3 instructions: 610000000 cycles: 1339891151 heartbeat IPC: 0.303837 cumulative IPC: 0.330194 (Simulation time: 3 hr 35 min 29 sec) 
Heartbeat CPU 1 instructions: 1160000000 cycles: 1342097858 heartbeat IPC: 0.676054 cumulative IPC: 0.737585 (Simulation time: 3 hr 35 min 47 sec) 
Heartbeat CPU 2 instructions: 1120000000 cycles: 1345873063 heartbeat IPC: 1.10839 cumulative IPC: 0.720454 (Simulation time: 3 hr 36 min 18 sec) 
Heartbeat CPU 0 instructions: 520000000 cycles: 1348662964 heartbeat IPC: 0.229014 cumulative IPC: 0.263764 (Simulation time: 3 hr 36 min 39 sec) 
Heartbeat CPU 1 instructions: 1170000000 cycles: 1357195907 heartbeat IPC: 0.662337 cumulative IPC: 0.736655 (Simulation time: 3 hr 37 min 47 sec) 
Heartbeat CPU 2 instructions: 1130000002 cycles: 1363348210 heartbeat IPC: 0.572241 cumulative IPC: 0.718345 (Simulation time: 3 hr 38 min 42 sec) 
Heartbeat CPU 3 instructions: 620000000 cycles: 1367124597 heartbeat IPC: 0.367196 cumulative IPC: 0.331013 (Simulation time: 3 hr 39 min 10 sec) 
Heartbeat CPU 1 instructions: 1180000000 cycles: 1371220260 heartbeat IPC: 0.713045 cumulative IPC: 0.736387 (Simulation time: 3 hr 39 min 40 sec) 
Heartbeat CPU 2 instructions: 1140000000 cycles: 1376906550 heartbeat IPC: 0.737553 cumulative IPC: 0.718555 (Simulation time: 3 hr 40 min 24 sec) 
Heartbeat CPU 0 instructions: 530000001 cycles: 1383040044 heartbeat IPC: 0.290892 cumulative IPC: 0.264511 (Simulation time: 3 hr 41 min 16 sec) 
Heartbeat CPU 1 instructions: 1190000001 cycles: 1384739734 heartbeat IPC: 0.739674 cumulative IPC: 0.736423 (Simulation time: 3 hr 41 min 28 sec) 
Heartbeat CPU 2 instructions: 1150000002 cycles: 1390338574 heartbeat IPC: 0.74449 cumulative IPC: 0.718832 (Simulation time: 3 hr 42 min 8 sec) 
Heartbeat CPU 3 instructions: 630000000 cycles: 1393852001 heartbeat IPC: 0.374148 cumulative IPC: 0.331929 (Simulation time: 3 hr 42 min 38 sec) 
Heartbeat CPU 1 instructions: 1200000000 cycles: 1398155815 heartbeat IPC: 0.745374 cumulative IPC: 0.736518 (Simulation time: 3 hr 43 min 14 sec) 
Heartbeat CPU 2 instructions: 1160000000 cycles: 1402042331 heartbeat IPC: 0.854426 cumulative IPC: 0.720085 (Simulation time: 3 hr 43 min 44 sec) 
Heartbeat CPU 1 instructions: 1210000002 cycles: 1411930920 heartbeat IPC: 0.725947 cumulative IPC: 0.736404 (Simulation time: 3 hr 44 min 53 sec) 
Heartbeat CPU 2 instructions: 1170000002 cycles: 1415485394 heartbeat IPC: 0.743878 cumulative IPC: 0.720335 (Simulation time: 3 hr 45 min 20 sec) 
Heartbeat CPU 1 instructions: 1220000000 cycles: 1421409190 heartbeat IPC: 1.05504 cumulative IPC: 0.738752 (Simulation time: 3 hr 46 min 8 sec) 
Heartbeat CPU 0 instructions: 540000000 cycles: 1426053103 heartbeat IPC: 0.232488 cumulative IPC: 0.263444 (Simulation time: 3 hr 46 min 48 sec) 
Heartbeat CPU 3 instructions: 640000000 cycles: 1427846487 heartbeat IPC: 0.294165 cumulative IPC: 0.330935 (Simulation time: 3 hr 47 min 2 sec) 
Heartbeat CPU 2 instructions: 1180000000 cycles: 1432473175 heartbeat IPC: 0.588658 cumulative IPC: 0.71861 (Simulation time: 3 hr 47 min 38 sec) 
Heartbeat CPU 1 instructions: 1230000003 cycles: 1436659499 heartbeat IPC: 0.655725 cumulative IPC: 0.737779 (Simulation time: 3 hr 48 min 8 sec) 
Heartbeat CPU 2 instructions: 1190000002 cycles: 1448605806 heartbeat IPC: 0.619862 cumulative IPC: 0.717397 (Simulation time: 3 hr 49 min 49 sec) 
Heartbeat CPU 1 instructions: 1240000000 cycles: 1452228275 heartbeat IPC: 0.642311 cumulative IPC: 0.736651 (Simulation time: 3 hr 50 min 19 sec) 
Heartbeat CPU 3 instructions: 650000002 cycles: 1456374004 heartbeat IPC: 0.350539 cumulative IPC: 0.331359 (Simulation time: 3 hr 50 min 51 sec) 
Heartbeat CPU 0 instructions: 550000000 cycles: 1458021630 heartbeat IPC: 0.312808 cumulative IPC: 0.264637 (Simulation time: 3 hr 51 min 5 sec) 
Heartbeat CPU 2 instructions: 1200000000 cycles: 1465853192 heartbeat IPC: 0.579798 cumulative IPC: 0.715613 (Simulation time: 3 hr 52 min 6 sec) 
Heartbeat CPU 1 instructions: 1250000001 cycles: 1467940833 heartbeat IPC: 0.636434 cumulative IPC: 0.735469 (Simulation time: 3 hr 52 min 24 sec) 
Heartbeat CPU 2 instructions: 1210000002 cycles: 1481265281 heartbeat IPC: 0.648841 cumulative IPC: 0.714849 (Simulation time: 3 hr 54 min 16 sec) 
Heartbeat CPU 1 instructions: 1260000000 cycles: 1481429711 heartbeat IPC: 0.741351 cumulative IPC: 0.735528 (Simulation time: 3 hr 54 min 17 sec) 
Heartbeat CPU 3 instructions: 660000000 cycles: 1489376658 heartbeat IPC: 0.303006 cumulative IPC: 0.330668 (Simulation time: 3 hr 55 min 31 sec) 
Finished CPU 1 instructions: 1000000003 cycles: 1357585935 cumulative IPC: 0.736602 (Simulation time: 3 hr 56 min 5 sec) 
Heartbeat CPU 1 instructions: 1270000003 cycles: 1493043684 heartbeat IPC: 0.861032 cumulative IPC: 0.736601 (Simulation time: 3 hr 56 min 5 sec) 
Heartbeat CPU 2 instructions: 1220000000 cycles: 1497228483 heartbeat IPC: 0.626441 cumulative IPC: 0.713812 (Simulation time: 3 hr 56 min 39 sec) 
Heartbeat CPU 0 instructions: 560000000 cycles: 1501966288 heartbeat IPC: 0.227559 cumulative IPC: 0.263445 (Simulation time: 3 hr 57 min 16 sec) 
Heartbeat CPU 1 instructions: 1280000000 cycles: 1505578879 heartbeat IPC: 0.797754 cumulative IPC: 0.737161 (Simulation time: 3 hr 57 min 49 sec) 
Heartbeat CPU 2 instructions: 1230000001 cycles: 1510348062 heartbeat IPC: 0.76222 cumulative IPC: 0.714274 (Simulation time: 3 hr 58 min 32 sec) 
Heartbeat CPU 1 instructions: 1290000001 cycles: 1517924002 heartbeat IPC: 0.810037 cumulative IPC: 0.737812 (Simulation time: 3 hr 59 min 34 sec) 
Heartbeat CPU 3 instructions: 670000000 cycles: 1519517445 heartbeat IPC: 0.331776 cumulative IPC: 0.330692 (Simulation time: 3 hr 59 min 47 sec) 
Heartbeat CPU 1 instructions: 1300000000 cycles: 1527460447 heartbeat IPC: 1.04861 cumulative IPC: 0.739941 (Simulation time: 4 hr 0 min 47 sec) 
Heartbeat CPU 2 instructions: 1240000000 cycles: 1528206022 heartbeat IPC: 0.559974 cumulative IPC: 0.712296 (Simulation time: 4 hr 0 min 54 sec) 
Heartbeat CPU 0 instructions: 570000000 cycles: 1534236178 heartbeat IPC: 0.309886 cumulative IPC: 0.264516 (Simulation time: 4 hr 1 min 46 sec) 
Finished CPU 2 instructions: 1000000003 cycles: 1405404842 cumulative IPC: 0.711539 (Simulation time: 4 hr 2 min 38 sec) 
Heartbeat CPU 1 instructions: 1310000002 cycles: 1542025761 heartbeat IPC: 0.686563 cumulative IPC: 0.739388 (Simulation time: 4 hr 2 min 48 sec) 
Heartbeat CPU 2 instructions: 1250000003 cycles: 1544565162 heartbeat IPC: 0.611279 cumulative IPC: 0.711123 (Simulation time: 4 hr 3 min 8 sec) 
Heartbeat CPU 3 instructions: 680000000 cycles: 1550217054 heartbeat IPC: 0.325737 cumulative IPC: 0.330584 (Simulation time: 4 hr 3 min 54 sec) 
Heartbeat CPU 1 instructions: 1320000000 cycles: 1560112985 heartbeat IPC: 0.552876 cumulative IPC: 0.73702 (Simulation time: 4 hr 4 min 55 sec) 
Heartbeat CPU 2 instructions: 1260000000 cycles: 1562467827 heartbeat IPC: 0.558576 cumulative IPC: 0.709209 (Simulation time: 4 hr 5 min 10 sec) 
Heartbeat CPU 1 instructions: 1330000000 cycles: 1575708938 heartbeat IPC: 0.641192 cumulative IPC: 0.735983 (Simulation time: 4 hr 6 min 42 sec) 
Heartbeat CPU 0 instructions: 580000000 cycles: 1577649600 heartbeat IPC: 0.230344 cumulative IPC: 0.263488 (Simulation time: 4 hr 6 min 58 sec) 
Heartbeat CPU 2 instructions: 1270000000 cycles: 1583763293 heartbeat IPC: 0.469584 cumulative IPC: 0.705686 (Simulation time: 4 hr 7 min 45 sec) 
Heartbeat CPU 3 instructions: 690000002 cycles: 1584591907 heartbeat IPC: 0.29091 cumulative IPC: 0.329643 (Simulation time: 4 hr 7 min 50 sec) 
Heartbeat CPU 1 instructions: 1340000000 cycles: 1589346678 heartbeat IPC: 0.733259 cumulative IPC: 0.735957 (Simulation time: 4 hr 8 min 25 sec) 
Heartbeat CPU 2 instructions: 1280000000 cycles: 1602848063 heartbeat IPC: 0.523978 cumulative IPC: 0.703323 (Simulation time: 4 hr 10 min 18 sec) 
Heartbeat CPU 1 instructions: 1350000003 cycles: 1602856361 heartbeat IPC: 0.74021 cumulative IPC: 0.735996 (Simulation time: 4 hr 10 min 18 sec) 
Heartbeat CPU 0 instructions: 590000003 cycles: 1615625326 heartbeat IPC: 0.263326 cumulative IPC: 0.263483 (Simulation time: 4 hr 11 min 55 sec) 
Heartbeat CPU 3 instructions: 700000000 cycles: 1616915459 heartbeat IPC: 0.309372 cumulative IPC: 0.329201 (Simulation time: 4 hr 12 min 5 sec) 
Heartbeat CPU 2 instructions: 1290000003 cycles: 1619291433 heartbeat IPC: 0.608148 cumulative IPC: 0.702268 (Simulation time: 4 hr 12 min 23 sec) 
Heartbeat CPU 1 instructions: 1360000000 cycles: 1620590807 heartbeat IPC: 0.563874 cumulative IPC: 0.733941 (Simulation time: 4 hr 12 min 33 sec) 
Heartbeat CPU 2 instructions: 1300000000 cycles: 1630007185 heartbeat IPC: 0.933205 cumulative IPC: 0.703924 (Simulation time: 4 hr 13 min 54 sec) 
Heartbeat CPU 1 instructions: 1370000002 cycles: 1633872001 heartbeat IPC: 0.752945 cumulative IPC: 0.734109 (Simulation time: 4 hr 14 min 31 sec) 
Heartbeat CPU 2 instructions: 1310000002 cycles: 1638764584 heartbeat IPC: 1.14189 cumulative IPC: 0.706475 (Simulation time: 4 hr 15 min 18 sec) 
Heartbeat CPU 1 instructions: 1380000000 cycles: 1642942729 heartbeat IPC: 1.10245 cumulative IPC: 0.736326 (Simulation time: 4 hr 15 min 59 sec) 
Heartbeat CPU 2 instructions: 1320000000 cycles: 1647242754 heartbeat IPC: 1.1795 cumulative IPC: 0.709128 (Simulation time: 4 hr 16 min 38 sec) 
Heartbeat CPU 3 instructions: 710000000 cycles: 1649337934 heartbeat IPC: 0.308428 cumulative IPC: 0.328756 (Simulation time: 4 hr 16 min 54 sec) 
Heartbeat CPU 0 instructions: 600000000 cycles: 1654582404 heartbeat IPC: 0.256693 cumulative IPC: 0.263309 (Simulation time: 4 hr 17 min 33 sec) 
Heartbeat CPU 1 instructions: 1390000001 cycles: 1657375454 heartbeat IPC: 0.69287 cumulative IPC: 0.735914 (Simulation time: 4 hr 17 min 53 sec) 
Heartbeat CPU 2 instructions: 1330000002 cycles: 1662865847 heartbeat IPC: 0.640078 cumulative IPC: 0.708421 (Simulation time: 4 hr 18 min 36 sec) 
Heartbeat CPU 1 instructions: 1400000000 cycles: 1672903972 heartbeat IPC: 0.643976 cumulative IPC: 0.734985 (Simulation time: 4 hr 19 min 51 sec) 
Heartbeat CPU 2 instructions: 1340000000 cycles: 1678647438 heartbeat IPC: 0.63365 cumulative IPC: 0.707657 (Simulation time: 4 hr 20 min 33 sec) 
Heartbeat CPU 3 instructions: 720000000 cycles: 1682154518 heartbeat IPC: 0.304724 cumulative IPC: 0.328246 (Simulation time: 4 hr 21 min 5 sec) 
Heartbeat CPU 0 instructions: 610000000 cycles: 1687443541 heartbeat IPC: 0.304311 cumulative IPC: 0.264177 (Simulation time: 4 hr 21 min 51 sec) 
Heartbeat CPU 1 instructions: 1410000002 cycles: 1687553617 heartbeat IPC: 0.682611 cumulative IPC: 0.734491 (Simulation time: 4 hr 21 min 52 sec) 
Heartbeat CPU 2 instructions: 1350000003 cycles: 1693463893 heartbeat IPC: 0.674926 cumulative IPC: 0.707346 (Simulation time: 4 hr 22 min 50 sec) 
Heartbeat CPU 1 instructions: 1420000000 cycles: 1701247237 heartbeat IPC: 0.730267 cumulative IPC: 0.734454 (Simulation time: 4 hr 23 min 56 sec) 
Heartbeat CPU 2 instructions: 1360000000 cycles: 1706170796 heartbeat IPC: 0.786974 cumulative IPC: 0.70799 (Simulation time: 4 hr 24 min 38 sec) 
Heartbeat CPU 1 instructions: 1430000003 cycles: 1713764294 heartbeat IPC: 0.79891 cumulative IPC: 0.734965 (Simulation time: 4 hr 25 min 51 sec) 
Heartbeat CPU 3 instructions: 730000000 cycles: 1714010162 heartbeat IPC: 0.313916 cumulative IPC: 0.327957 (Simulation time: 4 hr 25 min 53 sec) 
Heartbeat CPU 2 instructions: 1370000003 cycles: 1718619597 heartbeat IPC: 0.80329 cumulative IPC: 0.708739 (Simulation time: 4 hr 26 min 35 sec) 
Heartbeat CPU 0 instructions: 620000000 cycles: 1724290330 heartbeat IPC: 0.271394 cumulative IPC: 0.264345 (Simulation time: 4 hr 27 min 26 sec) 
Heartbeat CPU 1 instructions: 1440000000 cycles: 1726857517 heartbeat IPC: 0.763754 cumulative IPC: 0.735202 (Simulation time: 4 hr 27 min 49 sec) 
Heartbeat CPU 2 instructions: 1380000000 cycles: 1735683184 heartbeat IPC: 0.586043 cumulative IPC: 0.707431 (Simulation time: 4 hr 29 min 14 sec) 
Heartbeat CPU 1 instructions: 1450000001 cycles: 1740647670 heartbeat IPC: 0.725155 cumulative IPC: 0.735115 (Simulation time: 4 hr 30 min 6 sec) 
Heartbeat CPU 3 instructions: 740000000 cycles: 1742334781 heartbeat IPC: 0.35305 cumulative IPC: 0.328399 (Simulation time: 4 hr 30 min 26 sec) 
Heartbeat CPU 1 instructions: 1460000000 cycles: 1750332592 heartbeat IPC: 1.03253 cumulative IPC: 0.736899 (Simulation time: 4 hr 31 min 43 sec) 
Heartbeat CPU 2 instructions: 1390000002 cycles: 1751001665 heartbeat IPC: 0.652806 cumulative IPC: 0.706913 (Simulation time: 4 hr 31 min 49 sec) 
Heartbeat CPU 0 instructions: 630000003 cycles: 1761267262 heartbeat IPC: 0.270439 cumulative IPC: 0.264483 (Simulation time: 4 hr 33 min 10 sec) 
Heartbeat CPU 1 instructions: 1470000001 cycles: 1764377582 heartbeat IPC: 0.711998 cumulative IPC: 0.736684 (Simulation time: 4 hr 33 min 38 sec) 
Heartbeat CPU 2 instructions: 1400000000 cycles: 1766878266 heartbeat IPC: 0.629858 cumulative IPC: 0.706163 (Simulation time: 4 hr 34 min 1 sec) 
Heartbeat CPU 3 instructions: 750000002 cycles: 1768361862 heartbeat IPC: 0.384215 cumulative IPC: 0.329289 (Simulation time: 4 hr 34 min 15 sec) 
Heartbeat CPU 1 instructions: 1480000000 cycles: 1779831612 heartbeat IPC: 0.64708 cumulative IPC: 0.735842 (Simulation time: 4 hr 35 min 58 sec) 
Heartbeat CPU 2 instructions: 1410000000 cycles: 1782141453 heartbeat IPC: 0.655171 cumulative IPC: 0.70569 (Simulation time: 4 hr 36 min 18 sec) 
Heartbeat CPU 0 instructions: 640000000 cycles: 1793465421 heartbeat IPC: 0.310577 cumulative IPC: 0.265379 (Simulation time: 4 hr 37 min 56 sec) 
Heartbeat CPU 3 instructions: 760000000 cycles: 1794356211 heartbeat IPC: 0.384699 cumulative IPC: 0.330157 (Simulation time: 4 hr 38 min 5 sec) 
Heartbeat CPU 1 instructions: 1490000001 cycles: 1794565498 heartbeat IPC: 0.678708 cumulative IPC: 0.735335 (Simulation time: 4 hr 38 min 7 sec) 
Heartbeat CPU 2 instructions: 1420000000 cycles: 1797661035 heartbeat IPC: 0.644347 cumulative IPC: 0.705118 (Simulation time: 4 hr 38 min 36 sec) 
Heartbeat CPU 1 instructions: 1500000000 cycles: 1808215472 heartbeat IPC: 0.732602 cumulative IPC: 0.735313 (Simulation time: 4 hr 40 min 3 sec) 
Heartbeat CPU 2 instructions: 1430000003 cycles: 1812788382 heartbeat IPC: 0.661055 cumulative IPC: 0.70472 (Simulation time: 4 hr 40 min 41 sec) 
Heartbeat CPU 1 instructions: 1510000002 cycles: 1820971208 heartbeat IPC: 0.783961 cumulative IPC: 0.735681 (Simulation time: 4 hr 41 min 56 sec) 
Heartbeat CPU 0 instructions: 650000001 cycles: 1824633093 heartbeat IPC: 0.320845 cumulative IPC: 0.266402 (Simulation time: 4 hr 42 min 22 sec) 
Heartbeat CPU 3 instructions: 770000002 cycles: 1825382053 heartbeat IPC: 0.322312 cumulative IPC: 0.330013 (Simulation time: 4 hr 42 min 28 sec) 
Heartbeat CPU 2 instructions: 1440000000 cycles: 1827643789 heartbeat IPC: 0.673155 cumulative IPC: 0.704443 (Simulation time: 4 hr 42 min 43 sec) 
Heartbeat CPU 1 instructions: 1520000000 cycles: 1835367103 heartbeat IPC: 0.694642 cumulative IPC: 0.735333 (Simulation time: 4 hr 43 min 41 sec) 
Heartbeat CPU 2 instructions: 1450000000 cycles: 1842470195 heartbeat IPC: 0.674472 cumulative IPC: 0.704183 (Simulation time: 4 hr 44 min 50 sec) 
Heartbeat CPU 1 instructions: 1530000001 cycles: 1847205978 heartbeat IPC: 0.844675 cumulative IPC: 0.736089 (Simulation time: 4 hr 45 min 32 sec) 
Heartbeat CPU 3 instructions: 780000000 cycles: 1855595961 heartbeat IPC: 0.330973 cumulative IPC: 0.33003 (Simulation time: 4 hr 46 min 43 sec) 
Heartbeat CPU 1 instructions: 1540000000 cycles: 1856985285 heartbeat IPC: 1.02257 cumulative IPC: 0.737717 (Simulation time: 4 hr 46 min 53 sec) 
Heartbeat CPU 0 instructions: 660000000 cycles: 1857129686 heartbeat IPC: 0.307725 cumulative IPC: 0.267182 (Simulation time: 4 hr 46 min 54 sec) 
Heartbeat CPU 2 instructions: 1460000000 cycles: 1857346294 heartbeat IPC: 0.672219 cumulative IPC: 0.703907 (Simulation time: 4 hr 46 min 55 sec) 
Heartbeat CPU 1 instructions: 1550000000 cycles: 1871856068 heartbeat IPC: 0.67246 cumulative IPC: 0.737158 (Simulation time: 4 hr 48 min 30 sec) 
Heartbeat CPU 2 instructions: 1470000001 cycles: 1879283951 heartbeat IPC: 0.455837 cumulative IPC: 0.700786 (Simulation time: 4 hr 49 min 23 sec) 
Heartbeat CPU 3 instructions: 790000000 cycles: 1885963482 heartbeat IPC: 0.329299 cumulative IPC: 0.330017 (Simulation time: 4 hr 50 min 8 sec) 
Heartbeat CPU 1 instructions: 1560000000 cycles: 1887326945 heartbeat IPC: 0.646376 cumulative IPC: 0.736356 (Simulation time: 4 hr 50 min 15 sec) 
Heartbeat CPU 0 instructions: 670000000 cycles: 1896140904 heartbeat IPC: 0.256337 cumulative IPC: 0.266942 (Simulation time: 4 hr 51 min 12 sec) 
Heartbeat CPU 2 instructions: 1480000000 cycles: 1903323642 heartbeat IPC: 0.415979 cumulative IPC: 0.696913 (Simulation time: 4 hr 52 min 2 sec) 
Heartbeat CPU 1 instructions: 1570000003 cycles: 1903783577 heartbeat IPC: 0.607658 cumulative IPC: 0.735159 (Simulation time: 4 hr 52 min 6 sec) 
Heartbeat CPU 3 instructions: 800000000 cycles: 1917744107 heartbeat IPC: 0.314657 cumulative IPC: 0.329743 (Simulation time: 4 hr 53 min 57 sec) 
Heartbeat CPU 2 instructions: 1490000000 cycles: 1918883051 heartbeat IPC: 0.642698 cumulative IPC: 0.69644 (Simulation time: 4 hr 54 min 7 sec) 
Heartbeat CPU 1 instructions: 1580000000 cycles: 1920162537 heartbeat IPC: 0.610539 cumulative IPC: 0.734015 (Simulation time: 4 hr 54 min 19 sec) 
Heartbeat CPU 1 instructions: 1590000003 cycles: 1932773648 heartbeat IPC: 0.792952 cumulative IPC: 0.734428 (Simulation time: 4 hr 56 min 1 sec) 
Heartbeat CPU 2 instructions: 1500000000 cycles: 1933678678 heartbeat IPC: 0.675875 cumulative IPC: 0.696271 (Simulation time: 4 hr 56 min 8 sec) 
Heartbeat CPU 0 instructions: 680000000 cycles: 1939518432 heartbeat IPC: 0.230534 cumulative IPC: 0.266066 (Simulation time: 4 hr 56 min 57 sec) 
Heartbeat CPU 1 instructions: 1600000000 cycles: 1944739077 heartbeat IPC: 0.835741 cumulative IPC: 0.735098 (Simulation time: 4 hr 57 min 43 sec) 
Heartbeat CPU 2 instructions: 1510000003 cycles: 1945978110 heartbeat IPC: 0.813046 cumulative IPC: 0.697064 (Simulation time: 4 hr 57 min 54 sec) 
Heartbeat CPU 3 instructions: 810000001 cycles: 1948648648 heartbeat IPC: 0.323577 cumulative IPC: 0.329638 (Simulation time: 4 hr 58 min 17 sec) 
Heartbeat CPU 1 instructions: 1610000003 cycles: 1956315270 heartbeat IPC: 0.863842 cumulative IPC: 0.735917 (Simulation time: 4 hr 59 min 21 sec) 
Heartbeat CPU 2 instructions: 1520000000 cycles: 1958498586 heartbeat IPC: 0.798691 cumulative IPC: 0.697762 (Simulation time: 4 hr 59 min 40 sec) 
Heartbeat CPU 1 instructions: 1620000000 cycles: 1965209012 heartbeat IPC: 1.12439 cumulative IPC: 0.737805 (Simulation time: 5 hr 0 min 41 sec) 
Heartbeat CPU 2 instructions: 1530000000 cycles: 1973846492 heartbeat IPC: 0.651555 cumulative IPC: 0.697376 (Simulation time: 5 hr 1 min 49 sec) 
Heartbeat CPU 3 instructions: 820000000 cycles: 1975173893 heartbeat IPC: 0.376999 cumulative IPC: 0.330321 (Simulation time: 5 hr 1 min 59 sec) 
Heartbeat CPU 0 instructions: 690000002 cycles: 1975452741 heartbeat IPC: 0.278286 cumulative IPC: 0.266305 (Simulation time: 5 hr 2 min 1 sec) 
Heartbeat CPU 1 instructions: 1630000003 cycles: 1979210838 heartbeat IPC: 0.714193 cumulative IPC: 0.737626 (Simulation time: 5 hr 2 min 26 sec) 
Heartbeat CPU 2 instructions: 1540000000 cycles: 1994988184 heartbeat IPC: 0.472999 cumulative IPC: 0.694825 (Simulation time: 5 hr 4 min 22 sec) 
Heartbeat CPU 1 instructions: 1640000000 cycles: 1995080718 heartbeat IPC: 0.630124 cumulative IPC: 0.736708 (Simulation time: 5 hr 4 min 23 sec) 
Heartbeat CPU 3 instructions: 830000000 cycles: 2004363045 heartbeat IPC: 0.342593 cumulative IPC: 0.330513 (Simulation time: 5 hr 5 min 27 sec) 
Heartbeat CPU 2 instructions: 1550000000 cycles: 2010412174 heartbeat IPC: 0.648341 cumulative IPC: 0.694443 (Simulation time: 5 hr 6 min 16 sec) 
Heartbeat CPU 1 instructions: 1650000002 cycles: 2010935868 heartbeat IPC: 0.63071 cumulative IPC: 0.735812 (Simulation time: 5 hr 6 min 20 sec) 
Heartbeat CPU 1 instructions: 1660000000 cycles: 2023700297 heartbeat IPC: 0.783427 cumulative IPC: 0.736134 (Simulation time: 5 hr 8 min 5 sec) 
Heartbeat CPU 2 instructions: 1560000000 cycles: 2024915818 heartbeat IPC: 0.689482 cumulative IPC: 0.694405 (Simulation time: 5 hr 8 min 14 sec) 
Heartbeat CPU 0 instructions: 700000000 cycles: 2025703679 heartbeat IPC: 0.199001 cumulative IPC: 0.264516 (Simulation time: 5 hr 8 min 20 sec) 
Heartbeat CPU 3 instructions: 840000000 cycles: 2034938756 heartbeat IPC: 0.327057 cumulative IPC: 0.330457 (Simulation time: 5 hr 9 min 36 sec) 
Heartbeat CPU 1 instructions: 1670000002 cycles: 2036109946 heartbeat IPC: 0.805825 cumulative IPC: 0.736589 (Simulation time: 5 hr 9 min 46 sec) 
Heartbeat CPU 2 instructions: 1570000003 cycles: 2037393410 heartbeat IPC: 0.801437 cumulative IPC: 0.695107 (Simulation time: 5 hr 9 min 58 sec) 
Heartbeat CPU 1 instructions: 1680000000 cycles: 2052308488 heartbeat IPC: 0.617339 cumulative IPC: 0.735581 (Simulation time: 5 hr 11 min 58 sec) 
Heartbeat CPU 2 instructions: 1580000000 cycles: 2053072375 heartbeat IPC: 0.637797 cumulative IPC: 0.694638 (Simulation time: 5 hr 12 min 6 sec) 
Heartbeat CPU 3 instructions: 850000000 cycles: 2059651054 heartbeat IPC: 0.404657 cumulative IPC: 0.33141 (Simulation time: 5 hr 13 min 5 sec) 
Heartbeat CPU 0 instructions: 710000002 cycles: 2064342401 heartbeat IPC: 0.258808 cumulative IPC: 0.264401 (Simulation time: 5 hr 13 min 48 sec) 
Heartbeat CPU 1 instructions: 1690000000 cycles: 2064763963 heartbeat IPC: 0.80286 cumulative IPC: 0.736016 (Simulation time: 5 hr 13 min 51 sec) 
Heartbeat CPU 2 instructions: 1590000002 cycles: 2070124646 heartbeat IPC: 0.586432 cumulative IPC: 0.693685 (Simulation time: 5 hr 14 min 33 sec) 
Heartbeat CPU 1 instructions: 1700000000 cycles: 2074852859 heartbeat IPC: 0.991189 cumulative IPC: 0.737343 (Simulation time: 5 hr 15 min 14 sec) 
Heartbeat CPU 2 instructions: 1600000000 cycles: 2084263022 heartbeat IPC: 0.707295 cumulative IPC: 0.693783 (Simulation time: 5 hr 16 min 35 sec) 
Heartbeat CPU 3 instructions: 860000000 cycles: 2086851449 heartbeat IPC: 0.367642 cumulative IPC: 0.331915 (Simulation time: 5 hr 16 min 56 sec) 
Heartbeat CPU 1 instructions: 1710000000 cycles: 2087856050 heartbeat IPC: 0.769042 cumulative IPC: 0.737554 (Simulation time: 5 hr 17 min 4 sec) 
Heartbeat CPU 0 instructions: 720000000 cycles: 2097573137 heartbeat IPC: 0.300926 cumulative IPC: 0.26502 (Simulation time: 5 hr 18 min 32 sec) 
Heartbeat CPU 1 instructions: 1720000000 cycles: 2098663052 heartbeat IPC: 0.925326 cumulative IPC: 0.738588 (Simulation time: 5 hr 18 min 41 sec) 
Heartbeat CPU 2 instructions: 1610000001 cycles: 2099437828 heartbeat IPC: 0.658987 cumulative IPC: 0.693515 (Simulation time: 5 hr 18 min 48 sec) 
Heartbeat CPU 1 instructions: 1730000001 cycles: 2109444607 heartbeat IPC: 0.92751 cumulative IPC: 0.73962 (Simulation time: 5 hr 20 min 19 sec) 
Heartbeat CPU 2 instructions: 1620000000 cycles: 2114463742 heartbeat IPC: 0.665517 cumulative IPC: 0.693302 (Simulation time: 5 hr 21 min 1 sec) 
Heartbeat CPU 3 instructions: 870000000 cycles: 2115043006 heartbeat IPC: 0.354716 cumulative IPC: 0.33224 (Simulation time: 5 hr 21 min 7 sec) 
Heartbeat CPU 1 instructions: 1740000000 cycles: 2119791619 heartbeat IPC: 0.966462 cumulative IPC: 0.740803 (Simulation time: 5 hr 21 min 53 sec) 
Heartbeat CPU 1 instructions: 1750000002 cycles: 2130257643 heartbeat IPC: 0.955473 cumulative IPC: 0.741929 (Simulation time: 5 hr 23 min 31 sec) 
Heartbeat CPU 2 instructions: 1630000001 cycles: 2130287273 heartbeat IPC: 0.63197 cumulative IPC: 0.692815 (Simulation time: 5 hr 23 min 31 sec) 
Heartbeat CPU 0 instructions: 730000000 cycles: 2130805462 heartbeat IPC: 0.300912 cumulative IPC: 0.265618 (Simulation time: 5 hr 23 min 36 sec) 
Heartbeat CPU 1 instructions: 1760000000 cycles: 2140863345 heartbeat IPC: 0.942889 cumulative IPC: 0.742992 (Simulation time: 5 hr 25 min 9 sec) 
Heartbeat CPU 3 instructions: 880000000 cycles: 2141049306 heartbeat IPC: 0.384522 cumulative IPC: 0.332918 (Simulation time: 5 hr 25 min 11 sec) 
Heartbeat CPU 2 instructions: 1640000000 cycles: 2141666031 heartbeat IPC: 0.87883 cumulative IPC: 0.69387 (Simulation time: 5 hr 25 min 16 sec) 
Heartbeat CPU 1 instructions: 1770000002 cycles: 2152111991 heartbeat IPC: 0.888996 cumulative IPC: 0.743806 (Simulation time: 5 hr 26 min 40 sec) 
Heartbeat CPU 2 instructions: 1650000001 cycles: 2158173884 heartbeat IPC: 0.605772 cumulative IPC: 0.693151 (Simulation time: 5 hr 27 min 37 sec) 
Heartbeat CPU 1 instructions: 1780000000 cycles: 2163112940 heartbeat IPC: 0.909012 cumulative IPC: 0.744702 (Simulation time: 5 hr 28 min 22 sec) 
Heartbeat CPU 3 instructions: 890000001 cycles: 2168467399 heartbeat IPC: 0.364723 cumulative IPC: 0.333347 (Simulation time: 5 hr 29 min 11 sec) 
Heartbeat CPU 0 instructions: 740000000 cycles: 2169159540 heartbeat IPC: 0.260728 cumulative IPC: 0.265525 (Simulation time: 5 hr 29 min 18 sec) 
Heartbeat CPU 2 instructions: 1660000000 cycles: 2171857074 heartbeat IPC: 0.730824 cumulative IPC: 0.693405 (Simulation time: 5 hr 29 min 45 sec) 
Heartbeat CPU 1 instructions: 1790000003 cycles: 2173870077 heartbeat IPC: 0.929616 cumulative IPC: 0.745678 (Simulation time: 5 hr 30 min 4 sec) 
Heartbeat CPU 1 instructions: 1800000000 cycles: 2185437161 heartbeat IPC: 0.864522 cumulative IPC: 0.746349 (Simulation time: 5 hr 31 min 40 sec) 
Heartbeat CPU 2 instructions: 1670000003 cycles: 2190737198 heartbeat IPC: 0.529658 cumulative IPC: 0.6919 (Simulation time: 5 hr 32 min 17 sec) 
Heartbeat CPU 3 instructions: 900000000 cycles: 2196567294 heartbeat IPC: 0.355873 cumulative IPC: 0.333654 (Simulation time: 5 hr 33 min 7 sec) 
Heartbeat CPU 1 instructions: 1810000001 cycles: 2196677728 heartbeat IPC: 0.889635 cumulative IPC: 0.74713 (Simulation time: 5 hr 33 min 8 sec) 
Heartbeat CPU 0 instructions: 750000003 cycles: 2200355068 heartbeat IPC: 0.320559 cumulative IPC: 0.266357 (Simulation time: 5 hr 33 min 40 sec) 
Heartbeat CPU 1 instructions: 1820000000 cycles: 2207721656 heartbeat IPC: 0.905475 cumulative IPC: 0.747974 (Simulation time: 5 hr 34 min 42 sec) 
Heartbeat CPU 2 instructions: 1680000000 cycles: 2209544371 heartbeat IPC: 0.531712 cumulative IPC: 0.690448 (Simulation time: 5 hr 34 min 56 sec) 
Heartbeat CPU 1 instructions: 1830000001 cycles: 2219387697 heartbeat IPC: 0.857189 cumulative IPC: 0.748586 (Simulation time: 5 hr 36 min 18 sec) 
Heartbeat CPU 3 instructions: 910000001 cycles: 2222872961 heartbeat IPC: 0.380146 cumulative IPC: 0.33424 (Simulation time: 5 hr 36 min 51 sec) 
Heartbeat CPU 2 instructions: 1690000001 cycles: 2226912092 heartbeat IPC: 0.575781 cumulative IPC: 0.689496 (Simulation time: 5 hr 37 min 29 sec) 
Heartbeat CPU 0 instructions: 760000000 cycles: 2230681547 heartbeat IPC: 0.329745 cumulative IPC: 0.267274 (Simulation time: 5 hr 38 min 5 sec) 
Heartbeat CPU 1 instructions: 1840000000 cycles: 2231357326 heartbeat IPC: 0.835448 cumulative IPC: 0.749082 (Simulation time: 5 hr 38 min 11 sec) 
Heartbeat CPU 1 instructions: 1850000002 cycles: 2243210656 heartbeat IPC: 0.843645 cumulative IPC: 0.749613 (Simulation time: 5 hr 39 min 38 sec) 
Heartbeat CPU 2 instructions: 1700000000 cycles: 2245248538 heartbeat IPC: 0.545362 cumulative IPC: 0.688243 (Simulation time: 5 hr 39 min 52 sec) 
Heartbeat CPU 3 instructions: 920000000 cycles: 2251519959 heartbeat IPC: 0.349077 cumulative IPC: 0.334441 (Simulation time: 5 hr 40 min 53 sec) 
Heartbeat CPU 2 instructions: 1710000001 cycles: 2253342302 heartbeat IPC: 1.23552 cumulative IPC: 0.690334 (Simulation time: 5 hr 41 min 10 sec) 
Heartbeat CPU 1 instructions: 1860000000 cycles: 2253688624 heartbeat IPC: 0.954383 cumulative IPC: 0.750626 (Simulation time: 5 hr 41 min 13 sec) 
Heartbeat CPU 2 instructions: 1720000000 cycles: 2262407197 heartbeat IPC: 1.10316 cumulative IPC: 0.692094 (Simulation time: 5 hr 42 min 32 sec) 
Heartbeat CPU 1 instructions: 1870000000 cycles: 2264032901 heartbeat IPC: 0.966718 cumulative IPC: 0.751676 (Simulation time: 5 hr 42 min 46 sec) 
Heartbeat CPU 0 instructions: 770000001 cycles: 2267035746 heartbeat IPC: 0.275071 cumulative IPC: 0.267407 (Simulation time: 5 hr 43 min 10 sec) 
Heartbeat CPU 2 instructions: 1730000001 cycles: 2271356117 heartbeat IPC: 1.11745 cumulative IPC: 0.693876 (Simulation time: 5 hr 43 min 53 sec) 
Heartbeat CPU 1 instructions: 1880000000 cycles: 2274441171 heartbeat IPC: 0.960774 cumulative IPC: 0.752694 (Simulation time: 5 hr 44 min 19 sec) 
Heartbeat CPU 3 instructions: 930000000 cycles: 2282195476 heartbeat IPC: 0.325993 cumulative IPC: 0.33432 (Simulation time: 5 hr 45 min 21 sec) 
Heartbeat CPU 1 instructions: 1890000001 cycles: 2285706183 heartbeat IPC: 0.887704 cumulative IPC: 0.753401 (Simulation time: 5 hr 45 min 51 sec) 
Heartbeat CPU 2 instructions: 1740000000 cycles: 2287353860 heartbeat IPC: 0.625088 cumulative IPC: 0.693365 (Simulation time: 5 hr 46 min 4 sec) 
Heartbeat CPU 1 instructions: 1900000000 cycles: 2296288505 heartbeat IPC: 0.944972 cumulative IPC: 0.754339 (Simulation time: 5 hr 47 min 12 sec) 
Heartbeat CPU 0 instructions: 780000000 cycles: 2298021417 heartbeat IPC: 0.32273 cumulative IPC: 0.2682 (Simulation time: 5 hr 47 min 26 sec) 
Heartbeat CPU 2 instructions: 1750000000 cycles: 2302674580 heartbeat IPC: 0.652711 cumulative IPC: 0.693077 (Simulation time: 5 hr 48 min 6 sec) 
Heartbeat CPU 1 instructions: 1910000001 cycles: 2307069610 heartbeat IPC: 0.927549 cumulative IPC: 0.755199 (Simulation time: 5 hr 48 min 45 sec) 
Heartbeat CPU 3 instructions: 940000000 cycles: 2309357354 heartbeat IPC: 0.368163 cumulative IPC: 0.334743 (Simulation time: 5 hr 49 min 4 sec) 
Heartbeat CPU 1 instructions: 1920000000 cycles: 2318343417 heartbeat IPC: 0.887012 cumulative IPC: 0.75588 (Simulation time: 5 hr 50 min 10 sec) 
[...]
Heartbeat CPU 3 instructions: 1470000003 cycles: 3809286297 heartbeat IPC: 0.324243 cumulative IPC: 0.34234 (Simulation time: 9 hr 2 min 24 sec) 
Heartbeat CPU 2 instructions: 2810000000 cycles: 3811022799 heartbeat IPC: 0.613267 cumulative IPC: 0.697049 (Simulation time: 9 hr 2 min 34 sec) 
Heartbeat CPU 0 instructions: 1180000000 cycles: 3817046545 heartbeat IPC: 0.113775 cumulative IPC: 0.266189 (Simulation time: 9 hr 3 min 13 sec) 
Heartbeat CPU 1 instructions: 3000000000 cycles: 3817242922 heartbeat IPC: 0.513509 cumulative IPC: 0.741488 (Simulation time: 9 hr 3 min 14 sec) 
Heartbeat CPU 2 instructions: 2820000000 cycles: 3823802285 heartbeat IPC: 0.782504 cumulative IPC: 0.697345 (Simulation time: 9 hr 3 min 56 sec) 
Heartbeat CPU 1 instructions: 3010000003 cycles: 3833461984 heartbeat IPC: 0.616559 cumulative IPC: 0.74094 (Simulation time: 9 hr 4 min 55 sec) 
Heartbeat CPU 3 instructions: 1480000000 cycles: 3838104332 heartbeat IPC: 0.347005 cumulative IPC: 0.342376 (Simulation time: 9 hr 5 min 34 sec) 
Heartbeat CPU 2 instructions: 2830000002 cycles: 3840153198 heartbeat IPC: 0.611587 cumulative IPC: 0.696967 (Simulation time: 9 hr 5 min 49 sec) 
Heartbeat CPU 1 instructions: 3020000000 cycles: 3849602804 heartbeat IPC: 0.619547 cumulative IPC: 0.740413 (Simulation time: 9 hr 6 min 58 sec) 
Heartbeat CPU 2 instructions: 2840000000 cycles: 3852793945 heartbeat IPC: 0.791092 cumulative IPC: 0.697287 (Simulation time: 9 hr 7 min 25 sec) 
Heartbeat CPU 1 instructions: 3030000003 cycles: 3863253311 heartbeat IPC: 0.732574 cumulative IPC: 0.740384 (Simulation time: 9 hr 8 min 43 sec) 
Heartbeat CPU 3 instructions: 1490000003 cycles: 3866401060 heartbeat IPC: 0.353398 cumulative IPC: 0.34246 (Simulation time: 9 hr 9 min 0 sec) 
Heartbeat CPU 2 instructions: 2850000000 cycles: 3868194900 heartbeat IPC: 0.64931 cumulative IPC: 0.697089 (Simulation time: 9 hr 9 min 10 sec) 
Heartbeat CPU 1 instructions: 3040000000 cycles: 3878655738 heartbeat IPC: 0.649248 cumulative IPC: 0.740009 (Simulation time: 9 hr 10 min 19 sec) 
Heartbeat CPU 2 instructions: 2860000000 cycles: 3887264624 heartbeat IPC: 0.524391 cumulative IPC: 0.696211 (Simulation time: 9 hr 11 min 12 sec) 
Heartbeat CPU 1 instructions: 3050000000 cycles: 3893790298 heartbeat IPC: 0.660739 cumulative IPC: 0.73969 (Simulation time: 9 hr 12 min 2 sec) 
Heartbeat CPU 3 instructions: 1500000000 cycles: 3896790735 heartbeat IPC: 0.329059 cumulative IPC: 0.342351 (Simulation time: 9 hr 12 min 24 sec) 
Heartbeat CPU 2 instructions: 2870000002 cycles: 3900425738 heartbeat IPC: 0.759814 cumulative IPC: 0.696433 (Simulation time: 9 hr 12 min 53 sec) 
Heartbeat CPU 0 instructions: 1190000000 cycles: 3903985432 heartbeat IPC: 0.115023 cumulative IPC: 0.262702 (Simulation time: 9 hr 13 min 21 sec) 
Heartbeat CPU 1 instructions: 3060000000 cycles: 3906058052 heartbeat IPC: 0.815145 cumulative IPC: 0.739935 (Simulation time: 9 hr 13 min 38 sec) 
Heartbeat CPU 2 instructions: 2880000000 cycles: 3913470972 heartbeat IPC: 0.766563 cumulative IPC: 0.696675 (Simulation time: 9 hr 14 min 32 sec) 
Heartbeat CPU 1 instructions: 3070000002 cycles: 3922927899 heartbeat IPC: 0.592774 cumulative IPC: 0.73928 (Simulation time: 9 hr 15 min 36 sec) 
Heartbeat CPU 2 instructions: 2890000000 cycles: 3925985315 heartbeat IPC: 0.799083 cumulative IPC: 0.697013 (Simulation time: 9 hr 16 min 0 sec) 
Heartbeat CPU 3 instructions: 1510000002 cycles: 3927207593 heartbeat IPC: 0.328765 cumulative IPC: 0.342242 (Simulation time: 9 hr 16 min 9 sec) 
Heartbeat CPU 2 instructions: 2900000000 cycles: 3934756225 heartbeat IPC: 1.14013 cumulative IPC: 0.698036 (Simulation time: 9 hr 17 min 6 sec) 
Heartbeat CPU 1 instructions: 3080000000 cycles: 3938637008 heartbeat IPC: 0.636573 cumulative IPC: 0.738855 (Simulation time: 9 hr 17 min 34 sec) 
Heartbeat CPU 2 instructions: 2910000003 cycles: 3943624613 heartbeat IPC: 1.1276 cumulative IPC: 0.699037 (Simulation time: 9 hr 18 min 10 sec) 
Heartbeat CPU 1 instructions: 3090000000 cycles: 3952927557 heartbeat IPC: 0.699763 cumulative IPC: 0.738709 (Simulation time: 9 hr 19 min 21 sec) 
Heartbeat CPU 2 instructions: 2920000000 cycles: 3956391792 heartbeat IPC: 0.783258 cumulative IPC: 0.699318 (Simulation time: 9 hr 19 min 47 sec) 
Heartbeat CPU 3 instructions: 1520000000 cycles: 3957737428 heartbeat IPC: 0.327548 cumulative IPC: 0.342125 (Simulation time: 9 hr 19 min 57 sec) 
Heartbeat CPU 1 instructions: 3100000000 cycles: 3968875940 heartbeat IPC: 0.627023 cumulative IPC: 0.738244 (Simulation time: 9 hr 21 min 8 sec) 
Heartbeat CPU 2 instructions: 2930000000 cycles: 3971202819 heartbeat IPC: 0.675173 cumulative IPC: 0.699225 (Simulation time: 9 hr 21 min 25 sec) 
Heartbeat CPU 1 instructions: 3110000000 cycles: 3982354841 heartbeat IPC: 0.7419 cumulative IPC: 0.738257 (Simulation time: 9 hr 22 min 47 sec) 
Heartbeat CPU 2 instructions: 2940000000 cycles: 3984784096 heartbeat IPC: 0.736308 cumulative IPC: 0.699356 (Simulation time: 9 hr 23 min 2 sec) 
Heartbeat CPU 3 instructions: 1530000002 cycles: 3987307951 heartbeat IPC: 0.338175 cumulative IPC: 0.342095 (Simulation time: 9 hr 23 min 19 sec) 
Heartbeat CPU 2 instructions: 2950000003 cycles: 3995284028 heartbeat IPC: 0.952387 cumulative IPC: 0.700044 (Simulation time: 9 hr 24 min 23 sec) 
Heartbeat CPU 1 instructions: 3120000000 cycles: 3995350101 heartbeat IPC: 0.769511 cumulative IPC: 0.738362 (Simulation time: 9 hr 24 min 24 sec) 
Heartbeat CPU 0 instructions: 1200000000 cycles: 3996738202 heartbeat IPC: 0.107813 cumulative IPC: 0.258981 (Simulation time: 9 hr 24 min 36 sec) 
Finished CPU 0 instructions: 1000000000 cycles: 3861281867 cumulative IPC: 0.258981 (Simulation time: 9 hr 24 min 36 sec) 

CPU 0 Branch Prediction Accuracy: 98.5984% MPKI: 1.4041

CPU 1 Branch Prediction Accuracy: 99.8438% MPKI: 0.0999559

CPU 2 Branch Prediction Accuracy: 99.7535% MPKI: 0.0880617

CPU 3 Branch Prediction Accuracy: 91.1439% MPKI: 15.8582

ChampSim completed all CPUs

Total Simulation Statistics (not including warmup)

CPU 0 cumulative IPC: 0.258981 instructions: 1000000000 cycles: 3861281867
L1D TOTAL     ACCESS:  493755501  HIT:  464884949  MISS:   28870552
L1D LOAD      ACCESS:  218059577  HIT:  191701661  MISS:   26357916
L1D RFO       ACCESS:  275695924  HIT:  273183288  MISS:    2512636
L1D PREFETCH  ACCESS:          0  HIT:          0  MISS:          0
L1D WRITEBACK ACCESS:          0  HIT:          0  MISS:          0
L1I TOTAL     ACCESS:  325004025  HIT:  325004025  MISS:          0
L1I LOAD      ACCESS:  325004025  HIT:  325004025  MISS:          0
L1I RFO       ACCESS:          0  HIT:          0  MISS:          0
L1I PREFETCH  ACCESS:          0  HIT:          0  MISS:          0
L1I WRITEBACK ACCESS:          0  HIT:          0  MISS:          0
L2C TOTAL     ACCESS:   56322009  HIT:   18570607  MISS:   37751402
L2C LOAD      ACCESS:   26357731  HIT:    6144832  MISS:   20212899
L2C RFO       ACCESS:    2512549  HIT:     251063  MISS:    2261486
L2C PREFETCH  ACCESS:   20967949  HIT:    5721025  MISS:   15246924
L2C WRITEBACK ACCESS:    6483780  HIT:    6453687  MISS:      30093

L2C Best-offset prefetcher final stats
LLC TOTAL     ACCESS:   43556118  HIT:    5952498  MISS:   37603620
LLC LOAD      ACCESS:   18311014  HIT:      77693  MISS:   18233321
LLC RFO       ACCESS:    2179090  HIT:       1868  MISS:    2177222
LLC PREFETCH  ACCESS:   17231200  HIT:      55065  MISS:   17176135
LLC WRITEBACK ACCESS:    5834814  HIT:    5817872  MISS:      16942

CPU 1 cumulative IPC: 0.73843 instructions: 2851287924 cycles: 3861281868
L1D TOTAL     ACCESS:  706147829  HIT:  630765485  MISS:   75382344
L1D LOAD      ACCESS:  622520364  HIT:  562931313  MISS:   59589051
L1D RFO       ACCESS:   83627465  HIT:   67834172  MISS:   15793293
L1D PREFETCH  ACCESS:          0  HIT:          0  MISS:          0
L1D WRITEBACK ACCESS:          0  HIT:          0  MISS:          0
L1I TOTAL     ACCESS:  730431710  HIT:  730431593  MISS:        117
L1I LOAD      ACCESS:  730431710  HIT:  730431593  MISS:        117
L1I RFO       ACCESS:          0  HIT:          0  MISS:          0
L1I PREFETCH  ACCESS:          0  HIT:          0  MISS:          0
L1I WRITEBACK ACCESS:          0  HIT:          0  MISS:          0
L2C TOTAL     ACCESS:  134699498  HIT:   68502098  MISS:   66197400
L2C LOAD      ACCESS:   59589131  HIT:   47295381  MISS:   12293750
L2C RFO       ACCESS:   15793293  HIT:       6644  MISS:   15786649
L2C PREFETCH  ACCESS:   38166450  HIT:      59495  MISS:   38106955
L2C WRITEBACK ACCESS:   21150624  HIT:   21140578  MISS:      10046

L2C Best-offset prefetcher final stats
LLC TOTAL     ACCESS:   87641629  HIT:   26264056  MISS:   61377573
LLC LOAD      ACCESS:    5391483  HIT:     740192  MISS:    4651291
LLC RFO       ACCESS:   15786634  HIT:     966148  MISS:   14820486
LLC PREFETCH  ACCESS:   45458222  HIT:    3552958  MISS:   41905264
LLC WRITEBACK ACCESS:   21005290  HIT:   21004758  MISS:        532

CPU 2 cumulative IPC: 0.70019 instructions: 2703632648 cycles: 3861281868
L1D TOTAL     ACCESS:  770249509  HIT:  677861883  MISS:   92387626
L1D LOAD      ACCESS:  669876154  HIT:  593240204  MISS:   76635950
L1D RFO       ACCESS:  100373355  HIT:   84621679  MISS:   15751676
L1D PREFETCH  ACCESS:          0  HIT:          0  MISS:          0
L1D WRITEBACK ACCESS:          0  HIT:          0  MISS:          0
L1I TOTAL     ACCESS:  644973311  HIT:  644963397  MISS:       9914
L1I LOAD      ACCESS:  644973311  HIT:  644963397  MISS:       9914
L1I RFO       ACCESS:          0  HIT:          0  MISS:          0
L1I PREFETCH  ACCESS:          0  HIT:          0  MISS:          0
L1I WRITEBACK ACCESS:          0  HIT:          0  MISS:          0
L2C TOTAL     ACCESS:  154916836  HIT:   84082446  MISS:   70834390
L2C LOAD      ACCESS:   76640901  HIT:   63309999  MISS:   13330902
L2C RFO       ACCESS:   15749430  HIT:      47014  MISS:   15702416
L2C PREFETCH  ACCESS:   41905254  HIT:     107911  MISS:   41797343
L2C WRITEBACK ACCESS:   20621251  HIT:   20617522  MISS:       3729

L2C Best-offset prefetcher final stats
LLC TOTAL     ACCESS:   92854194  HIT:   22093757  MISS:   70760437
LLC LOAD      ACCESS:    6216310  HIT:    1590185  MISS:    4626125
LLC RFO       ACCESS:   15702235  HIT:      14238  MISS:   15687997
LLC PREFETCH  ACCESS:   50542897  HIT:      97917  MISS:   50444980
LLC WRITEBACK ACCESS:   20392752  HIT:   20391417  MISS:       1335

CPU 3 cumulative IPC: 0.34219 instructions: 1321290925 cycles: 3861281868
L1D TOTAL     ACCESS:  460755097  HIT:  448507963  MISS:   12247134
L1D LOAD      ACCESS:  281944989  HIT:  271332997  MISS:   10611992
L1D RFO       ACCESS:  178810108  HIT:  177174966  MISS:    1635142
L1D PREFETCH  ACCESS:          0  HIT:          0  MISS:          0
L1D WRITEBACK ACCESS:          0  HIT:          0  MISS:          0
L1I TOTAL     ACCESS:  363917626  HIT:  357746078  MISS:    6171548
L1I LOAD      ACCESS:  363917626  HIT:  357746078  MISS:    6171548
L1I RFO       ACCESS:          0  HIT:          0  MISS:          0
L1I PREFETCH  ACCESS:          0  HIT:          0  MISS:          0
L1I WRITEBACK ACCESS:          0  HIT:          0  MISS:          0
L2C TOTAL     ACCESS:   26617549  HIT:   18090936  MISS:    8526613
L2C LOAD      ACCESS:   16783394  HIT:   13078526  MISS:    3704868
L2C RFO       ACCESS:    1635084  HIT:     669333  MISS:     965751
L2C PREFETCH  ACCESS:    4884482  HIT:    1076618  MISS:    3807864
L2C WRITEBACK ACCESS:    3314589  HIT:    3266459  MISS:      48130

L2C Best-offset prefetcher final stats
LLC TOTAL     ACCESS:   10235384  HIT:    4341528  MISS:    5893856
LLC LOAD      ACCESS:    3565640  HIT:    1482022  MISS:    2083618
LLC RFO       ACCESS:     965381  HIT:     267927  MISS:     697454
LLC PREFETCH  ACCESS:    3950896  HIT:    1323139  MISS:    2627757
LLC WRITEBACK ACCESS:    1753467  HIT:    1268440  MISS:     485027

Region of Interest Statistics

CPU 0 cumulative IPC: 0.258981 instructions: 1000000000 cycles: 3861281867
L1D TOTAL     ACCESS:  493755501  HIT:  464884949  MISS:   28870552
L1D LOAD      ACCESS:  218059577  HIT:  191701661  MISS:   26357916
L1D RFO       ACCESS:  275695924  HIT:  273183288  MISS:    2512636
L1D PREFETCH  ACCESS:          0  HIT:          0  MISS:          0
L1D WRITEBACK ACCESS:          0  HIT:          0  MISS:          0
L1D PREFETCH  REQUESTED:          0  ISSUED:          0  USEFUL:          0  USELESS:          0
L1I TOTAL     ACCESS:  325004025  HIT:  325004025  MISS:          0
L1I LOAD      ACCESS:  325004025  HIT:  325004025  MISS:          0
L1I RFO       ACCESS:          0  HIT:          0  MISS:          0
L1I PREFETCH  ACCESS:          0  HIT:          0  MISS:          0
L1I WRITEBACK ACCESS:          0  HIT:          0  MISS:          0
L1I PREFETCH  REQUESTED:          0  ISSUED:          0  USEFUL:          0  USELESS:          0
L2C TOTAL     ACCESS:   56322009  HIT:   18570607  MISS:   37751402
L2C LOAD      ACCESS:   26357731  HIT:    6144832  MISS:   20212899
L2C RFO       ACCESS:    2512549  HIT:     251063  MISS:    2261486
L2C PREFETCH  ACCESS:   20967949  HIT:    5721025  MISS:   15246924
L2C WRITEBACK ACCESS:    6483780  HIT:    6453687  MISS:      30093
L2C PREFETCH  REQUESTED:   28018716  ISSUED:   28018716  USEFUL:    6561545  USELESS:   11130306
LLC TOTAL     ACCESS:   43556118  HIT:    5952498  MISS:   37603620
LLC LOAD      ACCESS:   18311014  HIT:      77693  MISS:   18233321
LLC RFO       ACCESS:    2179090  HIT:       1868  MISS:    2177222
LLC PREFETCH  ACCESS:   17231200  HIT:      55065  MISS:   17176135
LLC WRITEBACK ACCESS:    5834814  HIT:    5817872  MISS:      16942
LLC PREFETCH  REQUESTED:          0  ISSUED:          0  USEFUL:    2360543  USELESS:  121767636
Major fault: 0 Minor fault: 273262

CPU 1 cumulative IPC: 0.736602 instructions: 1000000003 cycles: 1357585935
L1D TOTAL     ACCESS:  247594488  HIT:  221580713  MISS:   26013775
L1D LOAD      ACCESS:  223322508  HIT:  203119667  MISS:   20202841
L1D RFO       ACCESS:   24271980  HIT:   18461046  MISS:    5810934
L1D PREFETCH  ACCESS:          0  HIT:          0  MISS:          0
L1D WRITEBACK ACCESS:          0  HIT:          0  MISS:          0
L1D PREFETCH  REQUESTED:          0  ISSUED:          0  USEFUL:          0  USELESS:          0
L1I TOTAL     ACCESS:  255364869  HIT:  255364869  MISS:          0
L1I LOAD      ACCESS:  255364869  HIT:  255364869  MISS:          0
L1I RFO       ACCESS:          0  HIT:          0  MISS:          0
L1I PREFETCH  ACCESS:          0  HIT:          0  MISS:          0
L1I WRITEBACK ACCESS:          0  HIT:          0  MISS:          0
L1I PREFETCH  REQUESTED:          0  ISSUED:          0  USEFUL:          0  USELESS:          0
L2C TOTAL     ACCESS:   46629151  HIT:   23659993  MISS:   22969158
L2C LOAD      ACCESS:   20202836  HIT:   16120668  MISS:    4082168
L2C RFO       ACCESS:    5810934  HIT:         42  MISS:    5810892
L2C PREFETCH  ACCESS:   13091615  HIT:      15796  MISS:   13075819
L2C WRITEBACK ACCESS:    7523766  HIT:    7523487  MISS:        279
L2C PREFETCH  REQUESTED:   49893845  ISSUED:   49893845  USEFUL:   40478629  USELESS:    1870064
LLC TOTAL     ACCESS:   30636878  HIT:    7677059  MISS:   22959819
LLC LOAD      ACCESS:    1810230  HIT:     186347  MISS:    1623883
LLC RFO       ACCESS:    5810886  HIT:         22  MISS:    5810864
LLC PREFETCH  ACCESS:   15543161  HIT:      18294  MISS:   15524867
LLC WRITEBACK ACCESS:    7472601  HIT:    7472396  MISS:        205
LLC PREFETCH  REQUESTED:          0  ISSUED:          0  USEFUL:    2360543  USELESS:  121767636
Major fault: 0 Minor fault: 209522

CPU 2 cumulative IPC: 0.711539 instructions: 1000000003 cycles: 1405404842
L1D TOTAL     ACCESS:  293336548  HIT:  260028208  MISS:   33308340
L1D LOAD      ACCESS:  256327454  HIT:  228489760  MISS:   27837694
L1D RFO       ACCESS:   37009094  HIT:   31538448  MISS:    5470646
L1D PREFETCH  ACCESS:          0  HIT:          0  MISS:          0
L1D WRITEBACK ACCESS:          0  HIT:          0  MISS:          0
L1D PREFETCH  REQUESTED:          0  ISSUED:          0  USEFUL:          0  USELESS:          0
L1I TOTAL     ACCESS:  239175220  HIT:  239171685  MISS:       3535
L1I LOAD      ACCESS:  239175220  HIT:  239171685  MISS:       3535
L1I RFO       ACCESS:          0  HIT:          0  MISS:          0
L1I PREFETCH  ACCESS:          0  HIT:          0  MISS:          0
L1I WRITEBACK ACCESS:          0  HIT:          0  MISS:          0
L1I PREFETCH  REQUESTED:          0  ISSUED:          0  USEFUL:          0  USELESS:          0
L2C TOTAL     ACCESS:   56221584  HIT:   30370643  MISS:   25850941
L2C LOAD      ACCESS:   27839531  HIT:   23083117  MISS:    4756414
L2C RFO       ACCESS:    5469749  HIT:      13222  MISS:    5456527
L2C PREFETCH  ACCESS:   15679068  HIT:      42732  MISS:   15636336
L2C WRITEBACK ACCESS:    7233236  HIT:    7231572  MISS:       1664
L2C PREFETCH  REQUESTED:   55962897  ISSUED:   55962897  USEFUL:   45510565  USELESS:    1277310
LLC TOTAL     ACCESS:   33610973  HIT:    7781128  MISS:   25829845
LLC LOAD      ACCESS:    2234031  HIT:     591251  MISS:    1642780
LLC RFO       ACCESS:    5456524  HIT:       3925  MISS:    5452599
LLC PREFETCH  ACCESS:   18767068  HIT:      33119  MISS:   18733949
LLC WRITEBACK ACCESS:    7153350  HIT:    7152833  MISS:        517
LLC PREFETCH  REQUESTED:          0  ISSUED:          0  USEFUL:    2360543  USELESS:  121767636
Major fault: 0 Minor fault: 96901

CPU 3 cumulative IPC: 0.339115 instructions: 1000000000 cycles: 2948848707
L1D TOTAL     ACCESS:  349205503  HIT:  339361003  MISS:    9844500
L1D LOAD      ACCESS:  214077153  HIT:  205441974  MISS:    8635179
L1D RFO       ACCESS:  135128350  HIT:  133919029  MISS:    1209321
L1D PREFETCH  ACCESS:          0  HIT:          0  MISS:          0
L1D WRITEBACK ACCESS:          0  HIT:          0  MISS:          0
L1D PREFETCH  REQUESTED:          0  ISSUED:          0  USEFUL:          0  USELESS:          0
L1I TOTAL     ACCESS:  272398401  HIT:  267659055  MISS:    4739346
L1I LOAD      ACCESS:  272398401  HIT:  267659055  MISS:    4739346
L1I RFO       ACCESS:          0  HIT:          0  MISS:          0
L1I PREFETCH  ACCESS:          0  HIT:          0  MISS:          0
L1I WRITEBACK ACCESS:          0  HIT:          0  MISS:          0
L1I PREFETCH  REQUESTED:          0  ISSUED:          0  USEFUL:          0  USELESS:          0
L2C TOTAL     ACCESS:   21046483  HIT:   14371465  MISS:    6675018
L2C LOAD      ACCESS:   13374412  HIT:   10441468  MISS:    2932944
L2C RFO       ACCESS:    1209273  HIT:     493877  MISS:     715396
L2C PREFETCH  ACCESS:    3899227  HIT:     906815  MISS:    2992412
L2C WRITEBACK ACCESS:    2563571  HIT:    2529305  MISS:      34266
L2C PREFETCH  REQUESTED:    6172575  ISSUED:    6172575  USEFUL:    2084152  USELESS:    2520284
LLC TOTAL     ACCESS:    8003402  HIT:    3554457  MISS:    4448945
LLC LOAD      ACCESS:    2824253  HIT:    1245500  MISS:    1578753
LLC RFO       ACCESS:     715110  HIT:     186747  MISS:     528363
LLC PREFETCH  ACCESS:    3103962  HIT:    1119559  MISS:    1984403
LLC WRITEBACK ACCESS:    1360077  HIT:    1002651  MISS:     357426
LLC PREFETCH  REQUESTED:          0  ISSUED:          0  USEFUL:    2360543  USELESS:  121767636
Major fault: 0 Minor fault: 30493

L2C Best-offset prefetcher final stats

L2C Best-offset prefetcher final stats

L2C Best-offset prefetcher final stats

L2C Best-offset prefetcher final stats

DRAM Statistics
 CHANNEL 0
 RQ ROW_BUFFER_HIT:   28763283  ROW_BUFFER_MISS:   58675021
 DBUS_CONGESTED:  133476478
 WQ ROW_BUFFER_HIT:    1817455  ROW_BUFFER_MISS:   21945645  FULL:          0

 CHANNEL 1
 RQ ROW_BUFFER_HIT:   28870171  ROW_BUFFER_MISS:   58821000
 DBUS_CONGESTED:  133476478
 WQ ROW_BUFFER_HIT:    1824653  ROW_BUFFER_MISS:   21927426  FULL:          0

 AVG_CONGESTED_CYCLE: 13
