
*** ChampSim Multicore Out-of-Order Simulator ***

Warmup Instructions: 200000000
Simulation Instructions: 1000000000
Number of CPUs: 4
LLC sets: 8192
LLC ways: 16
Off-chip DRAM Size: 8192 MB Channels: 2 Width: 64-bit Data Rate: 1600 MT/s

CPU 0 runs /scratch/user/djimenez/champsim-traces/speccpu2017/xz/602.gcc_s/602.gcc_s-2226B.champsimtrace.xz
CPU 1 runs /scratch/user/djimenez/champsim-traces/speccpu2017/xz/620.omnetpp_s/620.omnetpp_s-141B.champsimtrace.xz
CPU 2 runs /scratch/user/djimenez/champsim-traces/speccpu2017/xz/649.fotonik3d_s/649.fotonik3d_s-7084B.champsimtrace.xz
CPU 3 runs /scratch/user/djimenez/champsim-traces/speccpu2017/xz/605.mcf_s/605.mcf_s-782B.champsimtrace.xz
L2C Best-offset prefetcher
L2C Best-offset prefetcher
L2C Best-offset prefetcher
L2C Best-offset prefetcher
Heartbeat CPU 2 instructions: 10000000 cycles: 4192239 heartbeat IPC: 2.38536 cumulative IPC: 2.38536 (Simulation time: 0 hr 1 min 35 sec) 
Heartbeat CPU 0 instructions: 10000000 cycles: 4871188 heartbeat IPC: 2.05289 cumulative IPC: 2.05289 (Simulation time: 0 hr 1 min 50 sec) 
Heartbeat CPU 3 instructions: 10000001 cycles: 6211517 heartbeat IPC: 1.60991 cumulative IPC: 1.60991 (Simulation time: 0 hr 2 min 21 sec) 
Heartbeat CPU 1 instructions: 10000000 cycles: 7414559 heartbeat IPC: 1.3487 cumulative IPC: 1.3487 (Simulation time: 0 hr 2 min 48 sec) 
Heartbeat CPU 2 instructions: 20000000 cycles: 8382716 heartbeat IPC: 2.38636 cumulative IPC: 2.38586 (Simulation time: 0 hr 3 min 10 sec) 
Heartbeat CPU 0 instructions: 20000000 cycles: 9736667 heartbeat IPC: 2.0553 cumulative IPC: 2.05409 (Simulation time: 0 hr 3 min 41 sec) 
Heartbeat CPU 3 instructions: 20000000 cycles: 12339304 heartbeat IPC: 1.63191 cumulative IPC: 1.62084 (Simulation time: 0 hr 4 min 40 sec) 
Heartbeat CPU 2 instructions: 30000000 cycles: 12562439 heartbeat IPC: 2.3925 cumulative IPC: 2.38807 (Simulation time: 0 hr 4 min 45 sec) 
Heartbeat CPU 0 instructions: 30000000 cycles: 14598175 heartbeat IPC: 2.05697 cumulative IPC: 2.05505 (Simulation time: 0 hr 5 min 31 sec) 
Heartbeat CPU 1 instructions: 20000000 cycles: 14853442 heartbeat IPC: 1.34429 cumulative IPC: 1.34649 (Simulation time: 0 hr 5 min 37 sec) 
Heartbeat CPU 2 instructions: 40000000 cycles: 16736427 heartbeat IPC: 2.39579 cumulative IPC: 2.39 (Simulation time: 0 hr 6 min 19 sec) 
Heartbeat CPU 3 instructions: 30000000 cycles: 18611419 heartbeat IPC: 1.59436 cumulative IPC: 1.61191 (Simulation time: 0 hr 7 min 2 sec) 
Heartbeat CPU 0 instructions: 40000000 cycles: 19462437 heartbeat IPC: 2.05581 cumulative IPC: 2.05524 (Simulation time: 0 hr 7 min 21 sec) 
Heartbeat CPU 2 instructions: 50000001 cycles: 20906978 heartbeat IPC: 2.39776 cumulative IPC: 2.39155 (Simulation time: 0 hr 7 min 54 sec) 
Heartbeat CPU 1 instructions: 30000003 cycles: 22316297 heartbeat IPC: 1.33997 cumulative IPC: 1.34431 (Simulation time: 0 hr 8 min 25 sec) 
Heartbeat CPU 0 instructions: 50000003 cycles: 24331889 heartbeat IPC: 2.05362 cumulative IPC: 2.05492 (Simulation time: 0 hr 9 min 11 sec) 
Heartbeat CPU 3 instructions: 40000000 cycles: 24838465 heartbeat IPC: 1.6059 cumulative IPC: 1.61041 (Simulation time: 0 hr 9 min 23 sec) 
Heartbeat CPU 2 instructions: 60000000 cycles: 25095290 heartbeat IPC: 2.3876 cumulative IPC: 2.39089 (Simulation time: 0 hr 9 min 29 sec) 
Heartbeat CPU 0 instructions: 60000000 cycles: 29197701 heartbeat IPC: 2.05515 cumulative IPC: 2.05496 (Simulation time: 0 hr 11 min 1 sec) 
Heartbeat CPU 2 instructions: 70000003 cycles: 29284146 heartbeat IPC: 2.38729 cumulative IPC: 2.39037 (Simulation time: 0 hr 11 min 3 sec) 
Heartbeat CPU 1 instructions: 40000000 cycles: 29736861 heartbeat IPC: 1.34761 cumulative IPC: 1.34513 (Simulation time: 0 hr 11 min 13 sec) 
Heartbeat CPU 3 instructions: 50000000 cycles: 31045429 heartbeat IPC: 1.61109 cumulative IPC: 1.61054 (Simulation time: 0 hr 11 min 47 sec) 
Heartbeat CPU 2 instructions: 80000000 cycles: 33474066 heartbeat IPC: 2.38668 cumulative IPC: 2.38991 (Simulation time: 0 hr 12 min 41 sec) 
Heartbeat CPU 0 instructions: 70000000 cycles: 34058224 heartbeat IPC: 2.05739 cumulative IPC: 2.0553 (Simulation time: 0 hr 12 min 54 sec) 
Heartbeat CPU 1 instructions: 50000001 cycles: 37204833 heartbeat IPC: 1.33905 cumulative IPC: 1.34391 (Simulation time: 0 hr 14 min 4 sec) 
Heartbeat CPU 3 instructions: 60000000 cycles: 37228122 heartbeat IPC: 1.61742 cumulative IPC: 1.61168 (Simulation time: 0 hr 14 min 4 sec) 
Heartbeat CPU 2 instructions: 90000000 cycles: 37658605 heartbeat IPC: 2.38975 cumulative IPC: 2.38989 (Simulation time: 0 hr 14 min 13 sec) 
Heartbeat CPU 0 instructions: 80000000 cycles: 38926591 heartbeat IPC: 2.05408 cumulative IPC: 2.05515 (Simulation time: 0 hr 14 min 40 sec) 
Heartbeat CPU 2 instructions: 100000000 cycles: 41839142 heartbeat IPC: 2.39204 cumulative IPC: 2.39011 (Simulation time: 0 hr 15 min 41 sec) 
Heartbeat CPU 3 instructions: 70000001 cycles: 43415976 heartbeat IPC: 1.61607 cumulative IPC: 1.61231 (Simulation time: 0 hr 16 min 14 sec) 
Heartbeat CPU 0 instructions: 90000000 cycles: 43795075 heartbeat IPC: 2.05403 cumulative IPC: 2.05503 (Simulation time: 0 hr 16 min 22 sec) 
Heartbeat CPU 1 instructions: 60000000 cycles: 44602152 heartbeat IPC: 1.35184 cumulative IPC: 1.34523 (Simulation time: 0 hr 16 min 39 sec) 
Heartbeat CPU 2 instructions: 110000001 cycles: 46011244 heartbeat IPC: 2.39687 cumulative IPC: 2.39072 (Simulation time: 0 hr 17 min 9 sec) 
Heartbeat CPU 0 instructions: 100000000 cycles: 48660405 heartbeat IPC: 2.05536 cumulative IPC: 2.05506 (Simulation time: 0 hr 18 min 4 sec) 
Heartbeat CPU 3 instructions: 80000000 cycles: 49608860 heartbeat IPC: 1.61476 cumulative IPC: 1.61262 (Simulation time: 0 hr 18 min 24 sec) 
Heartbeat CPU 2 instructions: 120000000 cycles: 50183869 heartbeat IPC: 2.39657 cumulative IPC: 2.39121 (Simulation time: 0 hr 18 min 36 sec) 
Heartbeat CPU 1 instructions: 70000000 cycles: 52057442 heartbeat IPC: 1.34133 cumulative IPC: 1.34467 (Simulation time: 0 hr 19 min 15 sec) 
Heartbeat CPU 0 instructions: 110000001 cycles: 53521994 heartbeat IPC: 2.05694 cumulative IPC: 2.05523 (Simulation time: 0 hr 19 min 45 sec) 
Heartbeat CPU 2 instructions: 130000001 cycles: 54370480 heartbeat IPC: 2.38857 cumulative IPC: 2.391 (Simulation time: 0 hr 20 min 3 sec) 
Heartbeat CPU 3 instructions: 90000003 cycles: 55896887 heartbeat IPC: 1.59032 cumulative IPC: 1.61011 (Simulation time: 0 hr 20 min 36 sec) 
Heartbeat CPU 0 instructions: 120000000 cycles: 58409734 heartbeat IPC: 2.04594 cumulative IPC: 2.05445 (Simulation time: 0 hr 21 min 32 sec) 
Heartbeat CPU 2 instructions: 140000000 cycles: 58559122 heartbeat IPC: 2.38741 cumulative IPC: 2.39075 (Simulation time: 0 hr 21 min 35 sec) 
Heartbeat CPU 1 instructions: 80000000 cycles: 59490305 heartbeat IPC: 1.34538 cumulative IPC: 1.34476 (Simulation time: 0 hr 21 min 56 sec) 
Heartbeat CPU 3 instructions: 100000000 cycles: 62186661 heartbeat IPC: 1.58988 cumulative IPC: 1.60806 (Simulation time: 0 hr 22 min 56 sec) 
Heartbeat CPU 2 instructions: 150000002 cycles: 62750724 heartbeat IPC: 2.38572 cumulative IPC: 2.39041 (Simulation time: 0 hr 23 min 9 sec) 
Heartbeat CPU 0 instructions: 130000000 cycles: 63275705 heartbeat IPC: 2.05509 cumulative IPC: 2.0545 (Simulation time: 0 hr 23 min 21 sec) 
Heartbeat CPU 2 instructions: 160000000 cycles: 66931391 heartbeat IPC: 2.39196 cumulative IPC: 2.39051 (Simulation time: 0 hr 24 min 42 sec) 
Heartbeat CPU 1 instructions: 90000002 cycles: 66950525 heartbeat IPC: 1.34044 cumulative IPC: 1.34428 (Simulation time: 0 hr 24 min 42 sec) 
Heartbeat CPU 0 instructions: 140000000 cycles: 68137770 heartbeat IPC: 2.05674 cumulative IPC: 2.05466 (Simulation time: 0 hr 25 min 8 sec) 
Heartbeat CPU 3 instructions: 110000002 cycles: 68509181 heartbeat IPC: 1.58165 cumulative IPC: 1.60562 (Simulation time: 0 hr 25 min 17 sec) 
Heartbeat CPU 2 instructions: 170000001 cycles: 71108281 heartbeat IPC: 2.39413 cumulative IPC: 2.39072 (Simulation time: 0 hr 26 min 15 sec) 
Heartbeat CPU 0 instructions: 150000000 cycles: 73000979 heartbeat IPC: 2.05626 cumulative IPC: 2.05477 (Simulation time: 0 hr 26 min 57 sec) 
Heartbeat CPU 1 instructions: 100000000 cycles: 74391303 heartbeat IPC: 1.34395 cumulative IPC: 1.34424 (Simulation time: 0 hr 27 min 28 sec) 
Heartbeat CPU 3 instructions: 120000000 cycles: 74807653 heartbeat IPC: 1.58769 cumulative IPC: 1.60411 (Simulation time: 0 hr 27 min 38 sec) 
Heartbeat CPU 2 instructions: 180000000 cycles: 75276548 heartbeat IPC: 2.39908 cumulative IPC: 2.39118 (Simulation time: 0 hr 27 min 48 sec) 
Heartbeat CPU 0 instructions: 160000000 cycles: 77874962 heartbeat IPC: 2.05171 cumulative IPC: 2.05458 (Simulation time: 0 hr 28 min 47 sec) 
Heartbeat CPU 2 instructions: 190000003 cycles: 79453295 heartbeat IPC: 2.39421 cumulative IPC: 2.39134 (Simulation time: 0 hr 29 min 22 sec) 
Heartbeat CPU 3 instructions: 130000000 cycles: 80998813 heartbeat IPC: 1.61521 cumulative IPC: 1.60496 (Simulation time: 0 hr 29 min 57 sec) 
Heartbeat CPU 1 instructions: 110000002 cycles: 81834141 heartbeat IPC: 1.34357 cumulative IPC: 1.34418 (Simulation time: 0 hr 30 min 16 sec) 
Heartbeat CPU 0 instructions: 170000000 cycles: 82740132 heartbeat IPC: 2.05543 cumulative IPC: 2.05463 (Simulation time: 0 hr 30 min 36 sec) 
Heartbeat CPU 2 instructions: 200000000 cycles: 83641268 heartbeat IPC: 2.38779 cumulative IPC: 2.39116 (Simulation time: 0 hr 30 min 56 sec) 
Heartbeat CPU 3 instructions: 140000000 cycles: 87175808 heartbeat IPC: 1.61891 cumulative IPC: 1.60595 (Simulation time: 0 hr 32 min 14 sec) 
Heartbeat CPU 0 instructions: 180000000 cycles: 87599795 heartbeat IPC: 2.05776 cumulative IPC: 2.0548 (Simulation time: 0 hr 32 min 23 sec) 
Heartbeat CPU 2 instructions: 210000001 cycles: 87829758 heartbeat IPC: 2.3875 cumulative IPC: 0.113857 (Simulation time: 0 hr 32 min 28 sec) 
Heartbeat CPU 1 instructions: 120000000 cycles: 89274344 heartbeat IPC: 1.34405 cumulative IPC: 1.34417 (Simulation time: 0 hr 32 min 59 sec) 
Heartbeat CPU 2 instructions: 220000000 cycles: 92017807 heartbeat IPC: 2.38775 cumulative IPC: 0.217349 (Simulation time: 0 hr 33 min 56 sec) 
Heartbeat CPU 0 instructions: 190000001 cycles: 92482105 heartbeat IPC: 2.04821 cumulative IPC: 2.05445 (Simulation time: 0 hr 34 min 6 sec) 
Heartbeat CPU 3 instructions: 150000003 cycles: 93360305 heartbeat IPC: 1.61695 cumulative IPC: 1.60668 (Simulation time: 0 hr 34 min 25 sec) 
Heartbeat CPU 2 instructions: 230000003 cycles: 96197574 heartbeat IPC: 2.39248 cumulative IPC: 0.311858 (Simulation time: 0 hr 35 min 28 sec) 
Heartbeat CPU 1 instructions: 130000000 cycles: 96680888 heartbeat IPC: 1.35016 cumulative IPC: 1.34463 (Simulation time: 0 hr 35 min 39 sec) 
Heartbeat CPU 0 instructions: 200000000 cycles: 97348515 heartbeat IPC: 2.0549 cumulative IPC: 2.05447 (Simulation time: 0 hr 35 min 55 sec) 
Heartbeat CPU 3 instructions: 160000000 cycles: 99592956 heartbeat IPC: 1.60445 cumulative IPC: 1.60654 (Simulation time: 0 hr 36 min 45 sec) 
Heartbeat CPU 2 instructions: 240000000 cycles: 100373094 heartbeat IPC: 2.39491 cumulative IPC: 0.398513 (Simulation time: 0 hr 37 min 3 sec) 
Heartbeat CPU 0 instructions: 210000002 cycles: 102210534 heartbeat IPC: 2.05676 cumulative IPC: 0.0978373 (Simulation time: 0 hr 37 min 44 sec) 
Heartbeat CPU 1 instructions: 140000000 cycles: 104117765 heartbeat IPC: 1.34465 cumulative IPC: 1.34463 (Simulation time: 0 hr 38 min 27 sec) 
Heartbeat CPU 2 instructions: 250000000 cycles: 104544611 heartbeat IPC: 2.39721 cumulative IPC: 0.478265 (Simulation time: 0 hr 38 min 37 sec) 
Heartbeat CPU 3 instructions: 170000000 cycles: 105811213 heartbeat IPC: 1.60817 cumulative IPC: 1.60663 (Simulation time: 0 hr 39 min 5 sec) 
Heartbeat CPU 0 instructions: 220000000 cycles: 107069732 heartbeat IPC: 2.05795 cumulative IPC: 0.186794 (Simulation time: 0 hr 39 min 34 sec) 
Heartbeat CPU 2 instructions: 260000000 cycles: 108727018 heartbeat IPC: 2.39097 cumulative IPC: 0.551841 (Simulation time: 0 hr 40 min 11 sec) 
Heartbeat CPU 1 instructions: 150000001 cycles: 111570506 heartbeat IPC: 1.34179 cumulative IPC: 1.34444 (Simulation time: 0 hr 41 min 16 sec) 
Heartbeat CPU 0 instructions: 230000000 cycles: 111938278 heartbeat IPC: 2.054 cumulative IPC: 0.268005 (Simulation time: 0 hr 41 min 24 sec) 
Heartbeat CPU 3 instructions: 180000000 cycles: 112016905 heartbeat IPC: 1.61142 cumulative IPC: 1.6069 (Simulation time: 0 hr 41 min 26 sec) 
Heartbeat CPU 2 instructions: 270000000 cycles: 112913610 heartbeat IPC: 2.38858 cumulative IPC: 0.619943 (Simulation time: 0 hr 41 min 46 sec) 
Heartbeat CPU 0 instructions: 240000000 cycles: 116804214 heartbeat IPC: 2.0551 cumulative IPC: 0.342453 (Simulation time: 0 hr 43 min 13 sec) 
Heartbeat CPU 2 instructions: 280000000 cycles: 117105548 heartbeat IPC: 2.38553 cumulative IPC: 0.683144 (Simulation time: 0 hr 43 min 20 sec) 
Heartbeat CPU 3 instructions: 190000002 cycles: 118303837 heartbeat IPC: 1.5906 cumulative IPC: 1.60603 (Simulation time: 0 hr 43 min 46 sec) 
Heartbeat CPU 1 instructions: 160000000 cycles: 119017507 heartbeat IPC: 1.34282 cumulative IPC: 1.34434 (Simulation time: 0 hr 44 min 2 sec) 
Heartbeat CPU 2 instructions: 290000001 cycles: 121291267 heartbeat IPC: 2.38908 cumulative IPC: 0.742015 (Simulation time: 0 hr 44 min 52 sec) 
Heartbeat CPU 0 instructions: 250000003 cycles: 121667532 heartbeat IPC: 2.05621 cumulative IPC: 0.410956 (Simulation time: 0 hr 45 min 1 sec) 
Heartbeat CPU 3 instructions: 200000000 cycles: 124609290 heartbeat IPC: 1.58593 cumulative IPC: 1.60502 (Simulation time: 0 hr 46 min 6 sec) 
Heartbeat CPU 2 instructions: 300000000 cycles: 125469942 heartbeat IPC: 2.3931 cumulative IPC: 0.797004 (Simulation time: 0 hr 46 min 25 sec) 
Heartbeat CPU 1 instructions: 170000003 cycles: 126436055 heartbeat IPC: 1.34797 cumulative IPC: 1.34455 (Simulation time: 0 hr 46 min 47 sec) 
Heartbeat CPU 0 instructions: 260000000 cycles: 126529322 heartbeat IPC: 2.05685 cumulative IPC: 0.474198 (Simulation time: 0 hr 46 min 49 sec) 
Heartbeat CPU 2 instructions: 310000001 cycles: 129641384 heartbeat IPC: 2.39725 cumulative IPC: 0.848494 (Simulation time: 0 hr 47 min 58 sec) 
Heartbeat CPU 3 instructions: 210000002 cycles: 130904862 heartbeat IPC: 1.58842 cumulative IPC: 0.0763914 (Simulation time: 0 hr 48 min 26 sec) 
Heartbeat CPU 0 instructions: 270000002 cycles: 131397896 heartbeat IPC: 2.05399 cumulative IPC: 0.532733 (Simulation time: 0 hr 48 min 37 sec) 
Heartbeat CPU 2 instructions: 320000000 cycles: 133811951 heartbeat IPC: 2.39776 cumulative IPC: 0.896781 (Simulation time: 0 hr 49 min 30 sec) 
Heartbeat CPU 1 instructions: 180000000 cycles: 133873821 heartbeat IPC: 1.34449 cumulative IPC: 1.34455 (Simulation time: 0 hr 49 min 31 sec) 
Heartbeat CPU 0 instructions: 280000000 cycles: 136266861 heartbeat IPC: 2.05382 cumulative IPC: 0.587083 (Simulation time: 0 hr 50 min 24 sec) 
Heartbeat CPU 3 instructions: 220000000 cycles: 137189902 heartbeat IPC: 1.59108 cumulative IPC: 0.145783 (Simulation time: 0 hr 50 min 44 sec) 
Heartbeat CPU 2 instructions: 330000002 cycles: 137999738 heartbeat IPC: 2.3879 cumulative IPC: 0.942031 (Simulation time: 0 hr 51 min 2 sec) 
Heartbeat CPU 0 instructions: 290000002 cycles: 141126653 heartbeat IPC: 2.0577 cumulative IPC: 0.637725 (Simulation time: 0 hr 52 min 11 sec) 
Heartbeat CPU 1 instructions: 190000003 cycles: 141307238 heartbeat IPC: 1.34528 cumulative IPC: 1.34459 (Simulation time: 0 hr 52 min 15 sec) 
Heartbeat CPU 2 instructions: 340000000 cycles: 142188183 heartbeat IPC: 2.38752 cumulative IPC: 0.984611 (Simulation time: 0 hr 52 min 35 sec) 
Heartbeat CPU 3 instructions: 230000000 cycles: 143493694 heartbeat IPC: 1.58635 cumulative IPC: 0.209068 (Simulation time: 0 hr 53 min 4 sec) 
Heartbeat CPU 0 instructions: 300000000 cycles: 145995164 heartbeat IPC: 2.05402 cumulative IPC: 0.684954 (Simulation time: 0 hr 54 min 3 sec) 
Heartbeat CPU 2 instructions: 350000000 cycles: 146379308 heartbeat IPC: 2.38599 cumulative IPC: 1.02473 (Simulation time: 0 hr 54 min 11 sec) 
Heartbeat CPU 1 instructions: 200000000 cycles: 148759145 heartbeat IPC: 1.34194 cumulative IPC: 1.34446 (Simulation time: 0 hr 55 min 4 sec) 

Warmup complete CPU 0 instructions: 305677346 cycles: 148759146 (Simulation time: 0 hr 55 min 4 sec) 
Warmup complete CPU 1 instructions: 200000003 cycles: 148759146 (Simulation time: 0 hr 55 min 4 sec) 
Warmup complete CPU 2 instructions: 355687424 cycles: 148759145 (Simulation time: 0 hr 55 min 4 sec) 
Warmup complete CPU 3 instructions: 238353487 cycles: 148759145 (Simulation time: 0 hr 55 min 4 sec) 

Heartbeat CPU 2 instructions: 360000000 cycles: 152266594 heartbeat IPC: 1.69858 cumulative IPC: 1.22955 (Simulation time: 0 hr 55 min 31 sec) 
Heartbeat CPU 3 instructions: 240000000 cycles: 157991630 heartbeat IPC: 0.689753 cumulative IPC: 0.178339 (Simulation time: 0 hr 56 min 13 sec) 
Heartbeat CPU 2 instructions: 370000002 cycles: 160596524 heartbeat IPC: 1.20049 cumulative IPC: 1.2091 (Simulation time: 0 hr 56 min 35 sec) 
Heartbeat CPU 2 instructions: 380000000 cycles: 168970848 heartbeat IPC: 1.19413 cumulative IPC: 1.2029 (Simulation time: 0 hr 57 min 43 sec) 
Heartbeat CPU 0 instructions: 310000003 cycles: 170636774 heartbeat IPC: 0.405818 cumulative IPC: 0.197583 (Simulation time: 0 hr 57 min 55 sec) 
Heartbeat CPU 2 instructions: 390000003 cycles: 177384524 heartbeat IPC: 1.18854 cumulative IPC: 1.19868 (Simulation time: 0 hr 58 min 45 sec) 
Heartbeat CPU 2 instructions: 400000000 cycles: 185712182 heartbeat IPC: 1.20082 cumulative IPC: 1.19916 (Simulation time: 0 hr 59 min 48 sec) 
Heartbeat CPU 2 instructions: 410000001 cycles: 194073967 heartbeat IPC: 1.19592 cumulative IPC: 1.19856 (Simulation time: 1 hr 0 min 49 sec) 
Heartbeat CPU 1 instructions: 210000003 cycles: 197516073 heartbeat IPC: 0.205099 cumulative IPC: 0.205099 (Simulation time: 1 hr 1 min 14 sec) 
Heartbeat CPU 2 instructions: 420000000 cycles: 202442945 heartbeat IPC: 1.19489 cumulative IPC: 1.19799 (Simulation time: 1 hr 1 min 51 sec) 
Heartbeat CPU 2 instructions: 430000003 cycles: 210815037 heartbeat IPC: 1.19444 cumulative IPC: 1.19751 (Simulation time: 1 hr 2 min 53 sec) 
Heartbeat CPU 3 instructions: 250000002 cycles: 215596775 heartbeat IPC: 0.173596 cumulative IPC: 0.174251 (Simulation time: 1 hr 3 min 28 sec) 
Heartbeat CPU 2 instructions: 440000000 cycles: 219219485 heartbeat IPC: 1.18985 cumulative IPC: 1.1966 (Simulation time: 1 hr 3 min 54 sec) 
Heartbeat CPU 0 instructions: 320000000 cycles: 224311032 heartbeat IPC: 0.186309 cumulative IPC: 0.189574 (Simulation time: 1 hr 4 min 31 sec) 
Heartbeat CPU 2 instructions: 450000002 cycles: 227666100 heartbeat IPC: 1.18391 cumulative IPC: 1.19524 (Simulation time: 1 hr 4 min 56 sec) 
Heartbeat CPU 2 instructions: 460000000 cycles: 235933051 heartbeat IPC: 1.20964 cumulative IPC: 1.1966 (Simulation time: 1 hr 5 min 58 sec) 
Heartbeat CPU 2 instructions: 470000002 cycles: 244265322 heartbeat IPC: 1.20015 cumulative IPC: 1.19691 (Simulation time: 1 hr 7 min 0 sec) 
Heartbeat CPU 1 instructions: 220000000 cycles: 246020814 heartbeat IPC: 0.206165 cumulative IPC: 0.205631 (Simulation time: 1 hr 7 min 13 sec) 
Heartbeat CPU 2 instructions: 480000000 cycles: 252640193 heartbeat IPC: 1.19405 cumulative IPC: 1.19668 (Simulation time: 1 hr 8 min 1 sec) 
Heartbeat CPU 2 instructions: 490000001 cycles: 260983017 heartbeat IPC: 1.19863 cumulative IPC: 1.19683 (Simulation time: 1 hr 9 min 3 sec) 
Heartbeat CPU 2 instructions: 500000000 cycles: 269313516 heartbeat IPC: 1.20041 cumulative IPC: 1.19707 (Simulation time: 1 hr 10 min 4 sec) 
Heartbeat CPU 3 instructions: 260000000 cycles: 275232676 heartbeat IPC: 0.167684 cumulative IPC: 0.171154 (Simulation time: 1 hr 10 min 48 sec) 
Heartbeat CPU 0 instructions: 330000003 cycles: 276506445 heartbeat IPC: 0.191588 cumulative IPC: 0.190397 (Simulation time: 1 hr 10 min 57 sec) 
Heartbeat CPU 2 instructions: 510000002 cycles: 277535187 heartbeat IPC: 1.2163 cumulative IPC: 1.1983 (Simulation time: 1 hr 11 min 5 sec) 
Heartbeat CPU 2 instructions: 520000000 cycles: 285818861 heartbeat IPC: 1.20719 cumulative IPC: 1.19884 (Simulation time: 1 hr 12 min 6 sec) 
Heartbeat CPU 2 instructions: 530000001 cycles: 294068511 heartbeat IPC: 1.21217 cumulative IPC: 1.1996 (Simulation time: 1 hr 13 min 7 sec) 
Heartbeat CPU 1 instructions: 230000001 cycles: 294533609 heartbeat IPC: 0.206131 cumulative IPC: 0.205797 (Simulation time: 1 hr 13 min 10 sec) 
Heartbeat CPU 2 instructions: 540000000 cycles: 302270572 heartbeat IPC: 1.21921 cumulative IPC: 1.20064 (Simulation time: 1 hr 14 min 7 sec) 
Heartbeat CPU 2 instructions: 550000003 cycles: 310597199 heartbeat IPC: 1.20097 cumulative IPC: 1.20066 (Simulation time: 1 hr 15 min 6 sec) 
Heartbeat CPU 2 instructions: 560000000 cycles: 318916944 heartbeat IPC: 1.20196 cumulative IPC: 1.20072 (Simulation time: 1 hr 16 min 4 sec) 
Heartbeat CPU 2 instructions: 570000001 cycles: 327272063 heartbeat IPC: 1.19687 cumulative IPC: 1.20054 (Simulation time: 1 hr 17 min 3 sec) 
Heartbeat CPU 3 instructions: 270000001 cycles: 329902066 heartbeat IPC: 0.182918 cumulative IPC: 0.174705 (Simulation time: 1 hr 17 min 22 sec) 
Heartbeat CPU 0 instructions: 340000000 cycles: 332518554 heartbeat IPC: 0.178533 cumulative IPC: 0.18678 (Simulation time: 1 hr 17 min 40 sec) 
Heartbeat CPU 2 instructions: 580000000 cycles: 335657563 heartbeat IPC: 1.19253 cumulative IPC: 1.20018 (Simulation time: 1 hr 18 min 3 sec) 
Heartbeat CPU 1 instructions: 240000000 cycles: 343019232 heartbeat IPC: 0.206247 cumulative IPC: 0.20591 (Simulation time: 1 hr 18 min 54 sec) 
Heartbeat CPU 2 instructions: 590000002 cycles: 344126227 heartbeat IPC: 1.18082 cumulative IPC: 1.19935 (Simulation time: 1 hr 19 min 1 sec) 
Heartbeat CPU 2 instructions: 600000000 cycles: 352439452 heartbeat IPC: 1.2029 cumulative IPC: 1.19949 (Simulation time: 1 hr 20 min 0 sec) 
Heartbeat CPU 2 instructions: 610000003 cycles: 360708434 heartbeat IPC: 1.20934 cumulative IPC: 1.19987 (Simulation time: 1 hr 20 min 59 sec) 
Heartbeat CPU 2 instructions: 620000000 cycles: 368979267 heartbeat IPC: 1.20907 cumulative IPC: 1.20022 (Simulation time: 1 hr 21 min 55 sec) 
Heartbeat CPU 2 instructions: 630000001 cycles: 377567469 heartbeat IPC: 1.16439 cumulative IPC: 1.19887 (Simulation time: 1 hr 22 min 53 sec) 
Heartbeat CPU 2 instructions: 640000000 cycles: 385884615 heartbeat IPC: 1.20234 cumulative IPC: 1.199 (Simulation time: 1 hr 23 min 52 sec) 
Heartbeat CPU 3 instructions: 280000000 cycles: 387907355 heartbeat IPC: 0.172398 cumulative IPC: 0.174145 (Simulation time: 1 hr 24 min 6 sec) 
Heartbeat CPU 0 instructions: 350000003 cycles: 390073600 heartbeat IPC: 0.173747 cumulative IPC: 0.183672 (Simulation time: 1 hr 24 min 22 sec) 
Heartbeat CPU 1 instructions: 250000001 cycles: 390372592 heartbeat IPC: 0.211178 cumulative IPC: 0.206942 (Simulation time: 1 hr 24 min 24 sec) 
Heartbeat CPU 2 instructions: 650000000 cycles: 394295741 heartbeat IPC: 1.1889 cumulative IPC: 1.19865 (Simulation time: 1 hr 24 min 53 sec) 
Heartbeat CPU 2 instructions: 660000000 cycles: 402728814 heartbeat IPC: 1.18581 cumulative IPC: 1.19822 (Simulation time: 1 hr 25 min 54 sec) 
Heartbeat CPU 2 instructions: 670000001 cycles: 411064761 heartbeat IPC: 1.19962 cumulative IPC: 1.19827 (Simulation time: 1 hr 26 min 56 sec) 
Heartbeat CPU 2 instructions: 680000000 cycles: 419395253 heartbeat IPC: 1.20041 cumulative IPC: 1.19833 (Simulation time: 1 hr 27 min 55 sec) 
Heartbeat CPU 2 instructions: 690000002 cycles: 427634324 heartbeat IPC: 1.21373 cumulative IPC: 1.19879 (Simulation time: 1 hr 28 min 54 sec) 
Heartbeat CPU 2 instructions: 700000000 cycles: 435911209 heartbeat IPC: 1.20818 cumulative IPC: 1.19906 (Simulation time: 1 hr 29 min 51 sec) 
Heartbeat CPU 1 instructions: 260000000 cycles: 438103693 heartbeat IPC: 0.209507 cumulative IPC: 0.207365 (Simulation time: 1 hr 30 min 7 sec) 
Heartbeat CPU 3 instructions: 290000001 cycles: 443301915 heartbeat IPC: 0.180523 cumulative IPC: 0.175345 (Simulation time: 1 hr 30 min 44 sec) 
Heartbeat CPU 2 instructions: 710000002 cycles: 444239934 heartbeat IPC: 1.20066 cumulative IPC: 1.19911 (Simulation time: 1 hr 30 min 50 sec) 
Heartbeat CPU 0 instructions: 360000000 cycles: 444528457 heartbeat IPC: 0.183638 cumulative IPC: 0.183666 (Simulation time: 1 hr 30 min 52 sec) 
Heartbeat CPU 2 instructions: 720000000 cycles: 452615389 heartbeat IPC: 1.19396 cumulative IPC: 1.19896 (Simulation time: 1 hr 31 min 49 sec) 
Heartbeat CPU 2 instructions: 730000003 cycles: 461113987 heartbeat IPC: 1.17667 cumulative IPC: 1.19836 (Simulation time: 1 hr 32 min 48 sec) 
Heartbeat CPU 2 instructions: 740000000 cycles: 469584822 heartbeat IPC: 1.18052 cumulative IPC: 1.19789 (Simulation time: 1 hr 33 min 48 sec) 
Heartbeat CPU 2 instructions: 750000000 cycles: 477984770 heartbeat IPC: 1.19048 cumulative IPC: 1.1977 (Simulation time: 1 hr 34 min 47 sec) 
Heartbeat CPU 1 instructions: 270000002 cycles: 486329886 heartbeat IPC: 0.207356 cumulative IPC: 0.207364 (Simulation time: 1 hr 35 min 46 sec) 
Heartbeat CPU 2 instructions: 760000000 cycles: 486351230 heartbeat IPC: 1.19525 cumulative IPC: 1.19764 (Simulation time: 1 hr 35 min 46 sec) 
Heartbeat CPU 2 instructions: 770000002 cycles: 494698416 heartbeat IPC: 1.19801 cumulative IPC: 1.19765 (Simulation time: 1 hr 36 min 44 sec) 
Heartbeat CPU 0 instructions: 370000003 cycles: 495990620 heartbeat IPC: 0.194318 cumulative IPC: 0.185244 (Simulation time: 1 hr 36 min 54 sec) 
Heartbeat CPU 2 instructions: 780000000 cycles: 503043979 heartbeat IPC: 1.19824 cumulative IPC: 1.19766 (Simulation time: 1 hr 37 min 42 sec) 
Heartbeat CPU 3 instructions: 300000000 cycles: 503101391 heartbeat IPC: 0.167226 cumulative IPC: 0.173974 (Simulation time: 1 hr 37 min 42 sec) 
Heartbeat CPU 2 instructions: 790000001 cycles: 511585413 heartbeat IPC: 1.17076 cumulative IPC: 1.19703 (Simulation time: 1 hr 38 min 40 sec) 
Heartbeat CPU 2 instructions: 800000000 cycles: 519996750 heartbeat IPC: 1.18887 cumulative IPC: 1.19684 (Simulation time: 1 hr 39 min 43 sec) 
Heartbeat CPU 2 instructions: 810000002 cycles: 528537540 heartbeat IPC: 1.17085 cumulative IPC: 1.19626 (Simulation time: 1 hr 40 min 48 sec) 
Heartbeat CPU 1 instructions: 280000000 cycles: 535374666 heartbeat IPC: 0.203895 cumulative IPC: 0.206924 (Simulation time: 1 hr 41 min 47 sec) 
Heartbeat CPU 2 instructions: 820000000 cycles: 536837530 heartbeat IPC: 1.20482 cumulative IPC: 1.19644 (Simulation time: 1 hr 41 min 58 sec) 
Heartbeat CPU 2 instructions: 830000003 cycles: 545096748 heartbeat IPC: 1.21077 cumulative IPC: 1.19674 (Simulation time: 1 hr 43 min 0 sec) 
Heartbeat CPU 0 instructions: 380000000 cycles: 548216001 heartbeat IPC: 0.191478 cumulative IPC: 0.186059 (Simulation time: 1 hr 43 min 24 sec) 
Heartbeat CPU 2 instructions: 840000000 cycles: 553444655 heartbeat IPC: 1.1979 cumulative IPC: 1.19676 (Simulation time: 1 hr 44 min 3 sec) 
Heartbeat CPU 2 instructions: 850000000 cycles: 561720676 heartbeat IPC: 1.20831 cumulative IPC: 1.19699 (Simulation time: 1 hr 45 min 1 sec) 
Heartbeat CPU 3 instructions: 310000001 cycles: 563222995 heartbeat IPC: 0.16633 cumulative IPC: 0.172866 (Simulation time: 1 hr 45 min 12 sec) 
Heartbeat CPU 2 instructions: 860000000 cycles: 570023252 heartbeat IPC: 1.20445 cumulative IPC: 1.19714 (Simulation time: 1 hr 46 min 0 sec) 
Heartbeat CPU 2 instructions: 870000001 cycles: 578277216 heartbeat IPC: 1.21154 cumulative IPC: 1.19742 (Simulation time: 1 hr 46 min 59 sec) 
Heartbeat CPU 1 instructions: 290000001 cycles: 583797957 heartbeat IPC: 0.206512 cumulative IPC: 0.206878 (Simulation time: 1 hr 47 min 38 sec) 
Heartbeat CPU 2 instructions: 880000000 cycles: 586622576 heartbeat IPC: 1.19827 cumulative IPC: 1.19743 (Simulation time: 1 hr 47 min 58 sec) 
Heartbeat CPU 2 instructions: 890000000 cycles: 594923934 heartbeat IPC: 1.20462 cumulative IPC: 1.19757 (Simulation time: 1 hr 48 min 58 sec) 
Heartbeat CPU 0 instructions: 390000001 cycles: 600166540 heartbeat IPC: 0.192491 cumulative IPC: 0.186799 (Simulation time: 1 hr 49 min 35 sec) 
Heartbeat CPU 2 instructions: 900000000 cycles: 603207415 heartbeat IPC: 1.20722 cumulative IPC: 1.19774 (Simulation time: 1 hr 49 min 57 sec) 
Heartbeat CPU 2 instructions: 910000002 cycles: 611600032 heartbeat IPC: 1.19152 cumulative IPC: 1.19763 (Simulation time: 1 hr 50 min 57 sec) 
Heartbeat CPU 2 instructions: 920000000 cycles: 620008787 heartbeat IPC: 1.18924 cumulative IPC: 1.19748 (Simulation time: 1 hr 51 min 56 sec) 
Heartbeat CPU 3 instructions: 320000000 cycles: 621208994 heartbeat IPC: 0.172455 cumulative IPC: 0.172815 (Simulation time: 1 hr 52 min 4 sec) 
Heartbeat CPU 2 instructions: 930000001 cycles: 628303859 heartbeat IPC: 1.20554 cumulative IPC: 1.19762 (Simulation time: 1 hr 52 min 55 sec) 
Heartbeat CPU 1 instructions: 300000000 cycles: 631245923 heartbeat IPC: 0.210757 cumulative IPC: 0.20726 (Simulation time: 1 hr 53 min 16 sec) 
Heartbeat CPU 2 instructions: 940000000 cycles: 636528914 heartbeat IPC: 1.2158 cumulative IPC: 1.19793 (Simulation time: 1 hr 53 min 53 sec) 
Heartbeat CPU 2 instructions: 950000000 cycles: 644905214 heartbeat IPC: 1.19384 cumulative IPC: 1.19786 (Simulation time: 1 hr 54 min 52 sec) 
Heartbeat CPU 2 instructions: 960000000 cycles: 653234424 heartbeat IPC: 1.20059 cumulative IPC: 1.1979 (Simulation time: 1 hr 55 min 51 sec) 
Heartbeat CPU 0 instructions: 400000000 cycles: 653674042 heartbeat IPC: 0.18689 cumulative IPC: 0.186809 (Simulation time: 1 hr 55 min 54 sec) 
Heartbeat CPU 2 instructions: 970000001 cycles: 661541543 heartbeat IPC: 1.20379 cumulative IPC: 1.198 (Simulation time: 1 hr 56 min 50 sec) 
Heartbeat CPU 2 instructions: 980000000 cycles: 669821620 heartbeat IPC: 1.20772 cumulative IPC: 1.19815 (Simulation time: 1 hr 57 min 49 sec) 
Heartbeat CPU 3 instructions: 330000001 cycles: 676680059 heartbeat IPC: 0.180274 cumulative IPC: 0.173599 (Simulation time: 1 hr 58 min 37 sec) 
Heartbeat CPU 2 instructions: 990000002 cycles: 678324380 heartbeat IPC: 1.17609 cumulative IPC: 1.1978 (Simulation time: 1 hr 58 min 48 sec) 
Heartbeat CPU 1 instructions: 310000000 cycles: 679942360 heartbeat IPC: 0.205354 cumulative IPC: 0.207085 (Simulation time: 1 hr 59 min 0 sec) 
Heartbeat CPU 2 instructions: 1000000000 cycles: 686560720 heartbeat IPC: 1.21413 cumulative IPC: 1.19805 (Simulation time: 1 hr 59 min 46 sec) 
Heartbeat CPU 2 instructions: 1010000002 cycles: 694828614 heartbeat IPC: 1.2095 cumulative IPC: 1.19822 (Simulation time: 2 hr 0 min 45 sec) 
Heartbeat CPU 2 instructions: 1020000000 cycles: 703277885 heartbeat IPC: 1.18353 cumulative IPC: 1.198 (Simulation time: 2 hr 1 min 41 sec) 
Heartbeat CPU 0 instructions: 410000001 cycles: 705788394 heartbeat IPC: 0.191886 cumulative IPC: 0.187284 (Simulation time: 2 hr 1 min 57 sec) 
Heartbeat CPU 2 instructions: 1030000003 cycles: 712066289 heartbeat IPC: 1.13786 cumulative IPC: 1.19706 (Simulation time: 2 hr 2 min 41 sec) 
Heartbeat CPU 2 instructions: 1040000000 cycles: 720290880 heartbeat IPC: 1.21587 cumulative IPC: 1.19733 (Simulation time: 2 hr 3 min 41 sec) 
Heartbeat CPU 1 instructions: 320000000 cycles: 728216249 heartbeat IPC: 0.207151 cumulative IPC: 0.20709 (Simulation time: 2 hr 4 min 39 sec) 
Heartbeat CPU 2 instructions: 1050000001 cycles: 728660568 heartbeat IPC: 1.19479 cumulative IPC: 1.19729 (Simulation time: 2 hr 4 min 43 sec) 
Heartbeat CPU 2 instructions: 1060000000 cycles: 736974267 heartbeat IPC: 1.20283 cumulative IPC: 1.19737 (Simulation time: 2 hr 5 min 44 sec) 
Heartbeat CPU 3 instructions: 340000000 cycles: 739036098 heartbeat IPC: 0.160369 cumulative IPC: 0.172201 (Simulation time: 2 hr 5 min 59 sec) 
Heartbeat CPU 2 instructions: 1070000002 cycles: 745288662 heartbeat IPC: 1.20273 cumulative IPC: 1.19745 (Simulation time: 2 hr 6 min 45 sec) 
Heartbeat CPU 2 instructions: 1080000000 cycles: 753742093 heartbeat IPC: 1.18295 cumulative IPC: 1.19724 (Simulation time: 2 hr 7 min 47 sec) 
Heartbeat CPU 0 instructions: 420000000 cycles: 759676240 heartbeat IPC: 0.185571 cumulative IPC: 0.187133 (Simulation time: 2 hr 8 min 30 sec) 
Heartbeat CPU 2 instructions: 1090000000 cycles: 762048192 heartbeat IPC: 1.20393 cumulative IPC: 1.19734 (Simulation time: 2 hr 8 min 48 sec) 
Heartbeat CPU 2 instructions: 1100000000 cycles: 770341173 heartbeat IPC: 1.20584 cumulative IPC: 1.19745 (Simulation time: 2 hr 9 min 49 sec) 
Heartbeat CPU 1 instructions: 330000000 cycles: 776169379 heartbeat IPC: 0.208537 cumulative IPC: 0.207201 (Simulation time: 2 hr 10 min 32 sec) 
Heartbeat CPU 2 instructions: 1110000000 cycles: 778779824 heartbeat IPC: 1.18502 cumulative IPC: 1.19728 (Simulation time: 2 hr 10 min 51 sec) 
Heartbeat CPU 2 instructions: 1120000000 cycles: 786969457 heartbeat IPC: 1.22106 cumulative IPC: 1.19759 (Simulation time: 2 hr 11 min 53 sec) 
Heartbeat CPU 2 instructions: 1130000001 cycles: 795301900 heartbeat IPC: 1.20013 cumulative IPC: 1.19762 (Simulation time: 2 hr 13 min 5 sec) 
Heartbeat CPU 3 instructions: 350000000 cycles: 795320846 heartbeat IPC: 0.177668 cumulative IPC: 0.172677 (Simulation time: 2 hr 13 min 5 sec) 
Heartbeat CPU 2 instructions: 1140000000 cycles: 803649737 heartbeat IPC: 1.19791 cumulative IPC: 1.19762 (Simulation time: 2 hr 14 min 18 sec) 
Heartbeat CPU 2 instructions: 1150000001 cycles: 811911202 heartbeat IPC: 1.21044 cumulative IPC: 1.19778 (Simulation time: 2 hr 15 min 27 sec) 
Heartbeat CPU 0 instructions: 430000000 cycles: 816166154 heartbeat IPC: 0.177023 cumulative IPC: 0.186277 (Simulation time: 2 hr 16 min 3 sec) 
Heartbeat CPU 2 instructions: 1160000000 cycles: 820159982 heartbeat IPC: 1.2123 cumulative IPC: 1.19796 (Simulation time: 2 hr 16 min 35 sec) 
Heartbeat CPU 1 instructions: 340000000 cycles: 822791177 heartbeat IPC: 0.214492 cumulative IPC: 0.207705 (Simulation time: 2 hr 16 min 58 sec) 
Heartbeat CPU 2 instructions: 1170000000 cycles: 828486768 heartbeat IPC: 1.20094 cumulative IPC: 1.198 (Simulation time: 2 hr 17 min 44 sec) 
Heartbeat CPU 2 instructions: 1180000000 cycles: 836870867 heartbeat IPC: 1.19273 cumulative IPC: 1.19793 (Simulation time: 2 hr 18 min 55 sec) 
Heartbeat CPU 2 instructions: 1190000001 cycles: 845258575 heartbeat IPC: 1.19222 cumulative IPC: 1.19787 (Simulation time: 2 hr 19 min 59 sec) 
Heartbeat CPU 3 instructions: 360000000 cycles: 850145665 heartbeat IPC: 0.182399 cumulative IPC: 0.173437 (Simulation time: 2 hr 20 min 35 sec) 
Heartbeat CPU 2 instructions: 1200000000 cycles: 853625685 heartbeat IPC: 1.19516 cumulative IPC: 1.19783 (Simulation time: 2 hr 21 min 1 sec) 
Heartbeat CPU 2 instructions: 1210000002 cycles: 861989229 heartbeat IPC: 1.19567 cumulative IPC: 1.19781 (Simulation time: 2 hr 22 min 3 sec) 
Heartbeat CPU 2 instructions: 1220000000 cycles: 870374635 heartbeat IPC: 1.19255 cumulative IPC: 1.19775 (Simulation time: 2 hr 23 min 5 sec) 
Heartbeat CPU 0 instructions: 440000000 cycles: 870628780 heartbeat IPC: 0.183612 cumulative IPC: 0.186076 (Simulation time: 2 hr 23 min 7 sec) 
Heartbeat CPU 1 instructions: 350000000 cycles: 871187817 heartbeat IPC: 0.206626 cumulative IPC: 0.207633 (Simulation time: 2 hr 23 min 11 sec) 
Heartbeat CPU 2 instructions: 1230000001 cycles: 878802295 heartbeat IPC: 1.18657 cumulative IPC: 1.19762 (Simulation time: 2 hr 24 min 10 sec) 
Heartbeat CPU 2 instructions: 1240000000 cycles: 887090586 heartbeat IPC: 1.20652 cumulative IPC: 1.19772 (Simulation time: 2 hr 25 min 12 sec) 
Heartbeat CPU 2 instructions: 1250000003 cycles: 895424204 heartbeat IPC: 1.19996 cumulative IPC: 1.19774 (Simulation time: 2 hr 26 min 14 sec) 
Heartbeat CPU 2 instructions: 1260000000 cycles: 903848806 heartbeat IPC: 1.187 cumulative IPC: 1.19762 (Simulation time: 2 hr 27 min 16 sec) 
Heartbeat CPU 3 instructions: 370000001 cycles: 906044195 heartbeat IPC: 0.178896 cumulative IPC: 0.17384 (Simulation time: 2 hr 27 min 32 sec) 
Heartbeat CPU 2 instructions: 1270000003 cycles: 912232737 heartbeat IPC: 1.19276 cumulative IPC: 1.19757 (Simulation time: 2 hr 28 min 18 sec) 
Heartbeat CPU 1 instructions: 360000000 cycles: 919008682 heartbeat IPC: 0.209114 cumulative IPC: 0.207725 (Simulation time: 2 hr 29 min 7 sec) 
Heartbeat CPU 2 instructions: 1280000000 cycles: 920518738 heartbeat IPC: 1.20685 cumulative IPC: 1.19767 (Simulation time: 2 hr 29 min 18 sec) 
Heartbeat CPU 0 instructions: 450000003 cycles: 923495765 heartbeat IPC: 0.189154 cumulative IPC: 0.186286 (Simulation time: 2 hr 29 min 39 sec) 
Heartbeat CPU 2 instructions: 1290000001 cycles: 928891586 heartbeat IPC: 1.19434 cumulative IPC: 1.19763 (Simulation time: 2 hr 30 min 20 sec) 
Heartbeat CPU 2 instructions: 1300000000 cycles: 937179495 heartbeat IPC: 1.20658 cumulative IPC: 1.19773 (Simulation time: 2 hr 31 min 22 sec) 
Heartbeat CPU 2 instructions: 1310000000 cycles: 945477400 heartbeat IPC: 1.20512 cumulative IPC: 1.1978 (Simulation time: 2 hr 32 min 25 sec) 
Heartbeat CPU 2 instructions: 1320000000 cycles: 954033274 heartbeat IPC: 1.16879 cumulative IPC: 1.1975 (Simulation time: 2 hr 33 min 26 sec) 
Heartbeat CPU 2 instructions: 1330000001 cycles: 962273559 heartbeat IPC: 1.21355 cumulative IPC: 1.19766 (Simulation time: 2 hr 34 min 30 sec) 
Heartbeat CPU 3 instructions: 380000000 cycles: 966799457 heartbeat IPC: 0.164595 cumulative IPC: 0.173153 (Simulation time: 2 hr 35 min 4 sec) 
Heartbeat CPU 1 instructions: 370000000 cycles: 967277997 heartbeat IPC: 0.207171 cumulative IPC: 0.207692 (Simulation time: 2 hr 35 min 7 sec) 
Heartbeat CPU 2 instructions: 1340000000 cycles: 970656397 heartbeat IPC: 1.19291 cumulative IPC: 1.19761 (Simulation time: 2 hr 35 min 32 sec) 
Heartbeat CPU 0 instructions: 460000000 cycles: 974163856 heartbeat IPC: 0.197363 cumulative IPC: 0.186966 (Simulation time: 2 hr 35 min 59 sec) 
Heartbeat CPU 2 instructions: 1350000002 cycles: 978988928 heartbeat IPC: 1.20012 cumulative IPC: 1.19764 (Simulation time: 2 hr 36 min 35 sec) 
Finished CPU 2 instructions: 1000000000 cycles: 835071046 cumulative IPC: 1.1975 (Simulation time: 2 hr 37 min 10 sec) 
Heartbeat CPU 2 instructions: 1360000000 cycles: 987375660 heartbeat IPC: 1.19236 cumulative IPC: 1.19758 (Simulation time: 2 hr 37 min 36 sec) 
Heartbeat CPU 2 instructions: 1370000003 cycles: 995795349 heartbeat IPC: 1.18769 cumulative IPC: 1.19748 (Simulation time: 2 hr 38 min 38 sec) 
Heartbeat CPU 1 instructions: 380000000 cycles: 1014521654 heartbeat IPC: 0.211669 cumulative IPC: 0.207909 (Simulation time: 2 hr 40 min 27 sec) 
Heartbeat CPU 2 instructions: 1380000000 cycles: 1014864083 heartbeat IPC: 0.524419 cumulative IPC: 1.18267 (Simulation time: 2 hr 40 min 29 sec) 
Heartbeat CPU 3 instructions: 390000001 cycles: 1023103557 heartbeat IPC: 0.177607 cumulative IPC: 0.17344 (Simulation time: 2 hr 41 min 16 sec) 
Heartbeat CPU 0 instructions: 470000000 cycles: 1023190136 heartbeat IPC: 0.203972 cumulative IPC: 0.18792 (Simulation time: 2 hr 41 min 16 sec) 
Heartbeat CPU 2 instructions: 1390000001 cycles: 1038944240 heartbeat IPC: 0.41528 cumulative IPC: 1.16191 (Simulation time: 2 hr 42 min 46 sec) 
Heartbeat CPU 1 instructions: 390000000 cycles: 1060339486 heartbeat IPC: 0.218256 cumulative IPC: 0.208429 (Simulation time: 2 hr 44 min 48 sec) 
Heartbeat CPU 2 instructions: 1400000000 cycles: 1062943536 heartbeat IPC: 0.416679 cumulative IPC: 1.14234 (Simulation time: 2 hr 45 min 3 sec) 
Heartbeat CPU 0 instructions: 480000000 cycles: 1069318825 heartbeat IPC: 0.216785 cumulative IPC: 0.189366 (Simulation time: 2 hr 45 min 39 sec) 
Heartbeat CPU 3 instructions: 400000000 cycles: 1072165153 heartbeat IPC: 0.203825 cumulative IPC: 0.175055 (Simulation time: 2 hr 45 min 55 sec) 
Heartbeat CPU 2 instructions: 1410000000 cycles: 1086913364 heartbeat IPC: 0.417191 cumulative IPC: 1.12382 (Simulation time: 2 hr 47 min 19 sec) 
Heartbeat CPU 1 instructions: 400000000 cycles: 1105976531 heartbeat IPC: 0.21912 cumulative IPC: 0.208939 (Simulation time: 2 hr 49 min 7 sec) 
Heartbeat CPU 2 instructions: 1420000000 cycles: 1110917481 heartbeat IPC: 0.416595 cumulative IPC: 1.10617 (Simulation time: 2 hr 49 min 36 sec) 
Heartbeat CPU 0 instructions: 490000000 cycles: 1115353238 heartbeat IPC: 0.217229 cumulative IPC: 0.190693 (Simulation time: 2 hr 50 min 0 sec) 
Heartbeat CPU 3 instructions: 410000002 cycles: 1124748070 heartbeat IPC: 0.190176 cumulative IPC: 0.175869 (Simulation time: 2 hr 50 min 53 sec) 
Heartbeat CPU 2 instructions: 1430000001 cycles: 1134927448 heartbeat IPC: 0.416494 cumulative IPC: 1.08938 (Simulation time: 2 hr 51 min 51 sec) 
Heartbeat CPU 1 instructions: 410000000 cycles: 1151572871 heartbeat IPC: 0.219316 cumulative IPC: 0.209411 (Simulation time: 2 hr 53 min 27 sec) 
Heartbeat CPU 2 instructions: 1440000000 cycles: 1158988066 heartbeat IPC: 0.415617 cumulative IPC: 1.07333 (Simulation time: 2 hr 54 min 9 sec) 
Heartbeat CPU 0 instructions: 500000000 cycles: 1161833596 heartbeat IPC: 0.215145 cumulative IPC: 0.191815 (Simulation time: 2 hr 54 min 25 sec) 
Heartbeat CPU 3 instructions: 420000000 cycles: 1177157399 heartbeat IPC: 0.190806 cumulative IPC: 0.176631 (Simulation time: 2 hr 55 min 53 sec) 
Heartbeat CPU 2 instructions: 1450000000 cycles: 1183043077 heartbeat IPC: 0.415714 cumulative IPC: 1.05804 (Simulation time: 2 hr 56 min 26 sec) 
Heartbeat CPU 1 instructions: 420000000 cycles: 1197705288 heartbeat IPC: 0.216767 cumulative IPC: 0.209734 (Simulation time: 2 hr 57 min 50 sec) 
Heartbeat CPU 2 instructions: 1460000000 cycles: 1207153269 heartbeat IPC: 0.414762 cumulative IPC: 1.04339 (Simulation time: 2 hr 58 min 44 sec) 
Heartbeat CPU 0 instructions: 510000000 cycles: 1207802599 heartbeat IPC: 0.217538 cumulative IPC: 0.192931 (Simulation time: 2 hr 58 min 47 sec) 
Heartbeat CPU 3 instructions: 430000000 cycles: 1228268377 heartbeat IPC: 0.195653 cumulative IPC: 0.177531 (Simulation time: 3 hr 0 min 44 sec) 
Heartbeat CPU 2 instructions: 1470000000 cycles: 1231238801 heartbeat IPC: 0.415187 cumulative IPC: 1.02941 (Simulation time: 3 hr 1 min 1 sec) 
Heartbeat CPU 1 instructions: 430000000 cycles: 1243843551 heartbeat IPC: 0.21674 cumulative IPC: 0.210029 (Simulation time: 3 hr 2 min 12 sec) 
Heartbeat CPU 0 instructions: 520000000 cycles: 1253696152 heartbeat IPC: 0.217896 cumulative IPC: 0.193968 (Simulation time: 3 hr 3 min 8 sec) 
Heartbeat CPU 2 instructions: 1480000000 cycles: 1255381735 heartbeat IPC: 0.4142 cumulative IPC: 1.01599 (Simulation time: 3 hr 3 min 18 sec) 
Heartbeat CPU 2 instructions: 1490000003 cycles: 1279782021 heartbeat IPC: 0.409831 cumulative IPC: 1.00291 (Simulation time: 3 hr 5 min 34 sec) 
Heartbeat CPU 3 instructions: 440000000 cycles: 1281688723 heartbeat IPC: 0.187195 cumulative IPC: 0.177987 (Simulation time: 3 hr 5 min 45 sec) 
Heartbeat CPU 1 instructions: 440000000 cycles: 1290109608 heartbeat IPC: 0.216141 cumulative IPC: 0.210277 (Simulation time: 3 hr 6 min 32 sec) 
Heartbeat CPU 0 instructions: 530000000 cycles: 1300968304 heartbeat IPC: 0.211541 cumulative IPC: 0.194689 (Simulation time: 3 hr 7 min 34 sec) 
Heartbeat CPU 2 instructions: 1500000000 cycles: 1303857674 heartbeat IPC: 0.415357 cumulative IPC: 0.990662 (Simulation time: 3 hr 7 min 50 sec) 
Heartbeat CPU 2 instructions: 1510000003 cycles: 1328157583 heartbeat IPC: 0.411524 cumulative IPC: 0.97873 (Simulation time: 3 hr 10 min 5 sec) 
Heartbeat CPU 3 instructions: 450000003 cycles: 1336168266 heartbeat IPC: 0.183555 cumulative IPC: 0.178242 (Simulation time: 3 hr 10 min 50 sec) 
Heartbeat CPU 1 instructions: 450000000 cycles: 1336345471 heartbeat IPC: 0.216282 cumulative IPC: 0.210511 (Simulation time: 3 hr 10 min 51 sec) 
Heartbeat CPU 0 instructions: 540000000 cycles: 1348248065 heartbeat IPC: 0.211507 cumulative IPC: 0.195352 (Simulation time: 3 hr 11 min 59 sec) 
Heartbeat CPU 2 instructions: 1520000000 cycles: 1352401377 heartbeat IPC: 0.412477 cumulative IPC: 0.967324 (Simulation time: 3 hr 12 min 22 sec) 
Heartbeat CPU 2 instructions: 1530000000 cycles: 1376660358 heartbeat IPC: 0.412218 cumulative IPC: 0.956358 (Simulation time: 3 hr 14 min 40 sec) 
Heartbeat CPU 1 instructions: 460000000 cycles: 1382436531 heartbeat IPC: 0.216962 cumulative IPC: 0.210752 (Simulation time: 3 hr 15 min 13 sec) 
Heartbeat CPU 3 instructions: 460000000 cycles: 1388514597 heartbeat IPC: 0.191035 cumulative IPC: 0.178782 (Simulation time: 3 hr 15 min 47 sec) 
Heartbeat CPU 0 instructions: 550000000 cycles: 1394283022 heartbeat IPC: 0.217226 cumulative IPC: 0.196161 (Simulation time: 3 hr 16 min 20 sec) 
Heartbeat CPU 2 instructions: 1540000000 cycles: 1400845913 heartbeat IPC: 0.41347 cumulative IPC: 0.945871 (Simulation time: 3 hr 16 min 57 sec) 
Heartbeat CPU 2 instructions: 1550000003 cycles: 1425145339 heartbeat IPC: 0.411532 cumulative IPC: 0.935698 (Simulation time: 3 hr 19 min 13 sec) 
Heartbeat CPU 1 instructions: 470000000 cycles: 1428568195 heartbeat IPC: 0.216771 cumulative IPC: 0.210969 (Simulation time: 3 hr 19 min 32 sec) 
Heartbeat CPU 0 instructions: 560000000 cycles: 1439201167 heartbeat IPC: 0.222627 cumulative IPC: 0.197082 (Simulation time: 3 hr 20 min 31 sec) 
Heartbeat CPU 3 instructions: 470000000 cycles: 1443360156 heartbeat IPC: 0.18233 cumulative IPC: 0.178933 (Simulation time: 3 hr 20 min 55 sec) 
Heartbeat CPU 2 instructions: 1560000000 cycles: 1448963549 heartbeat IPC: 0.419847 cumulative IPC: 0.926249 (Simulation time: 3 hr 21 min 26 sec) 
Heartbeat CPU 2 instructions: 1570000003 cycles: 1473134850 heartbeat IPC: 0.413714 cumulative IPC: 0.916894 (Simulation time: 3 hr 23 min 44 sec) 
Heartbeat CPU 1 instructions: 480000000 cycles: 1474720662 heartbeat IPC: 0.216673 cumulative IPC: 0.211168 (Simulation time: 3 hr 23 min 53 sec) 
Heartbeat CPU 0 instructions: 570000000 cycles: 1485833782 heartbeat IPC: 0.214442 cumulative IPC: 0.197687 (Simulation time: 3 hr 24 min 55 sec) 
Heartbeat CPU 3 instructions: 480000000 cycles: 1495456565 heartbeat IPC: 0.191952 cumulative IPC: 0.179436 (Simulation time: 3 hr 25 min 50 sec) 
Heartbeat CPU 2 instructions: 1580000000 cycles: 1497148652 heartbeat IPC: 0.416427 cumulative IPC: 0.907981 (Simulation time: 3 hr 25 min 59 sec) 
Heartbeat CPU 2 instructions: 1590000000 cycles: 1521186789 heartbeat IPC: 0.416006 cumulative IPC: 0.899364 (Simulation time: 3 hr 28 min 14 sec) 
Heartbeat CPU 1 instructions: 490000000 cycles: 1522086814 heartbeat IPC: 0.211121 cumulative IPC: 0.211166 (Simulation time: 3 hr 28 min 19 sec) 
Heartbeat CPU 0 instructions: 580000000 cycles: 1532503636 heartbeat IPC: 0.214271 cumulative IPC: 0.198247 (Simulation time: 3 hr 29 min 18 sec) 
Heartbeat CPU 2 instructions: 1600000000 cycles: 1545233646 heartbeat IPC: 0.415855 cumulative IPC: 0.891039 (Simulation time: 3 hr 30 min 30 sec) 
Heartbeat CPU 3 instructions: 490000003 cycles: 1550346271 heartbeat IPC: 0.182184 cumulative IPC: 0.179544 (Simulation time: 3 hr 30 min 59 sec) 
Heartbeat CPU 1 instructions: 500000000 cycles: 1567852249 heartbeat IPC: 0.218506 cumulative IPC: 0.211403 (Simulation time: 3 hr 32 min 36 sec) 
Heartbeat CPU 2 instructions: 1610000000 cycles: 1569265691 heartbeat IPC: 0.416111 cumulative IPC: 0.883004 (Simulation time: 3 hr 32 min 43 sec) 
Heartbeat CPU 0 instructions: 590000001 cycles: 1578367541 heartbeat IPC: 0.218036 cumulative IPC: 0.198881 (Simulation time: 3 hr 33 min 32 sec) 
Heartbeat CPU 2 instructions: 1620000000 cycles: 1593522926 heartbeat IPC: 0.412248 cumulative IPC: 0.8751 (Simulation time: 3 hr 34 min 56 sec) 
Heartbeat CPU 3 instructions: 500000000 cycles: 1606044399 heartbeat IPC: 0.179539 cumulative IPC: 0.179544 (Simulation time: 3 hr 36 min 6 sec) 
Heartbeat CPU 1 instructions: 510000000 cycles: 1614665719 heartbeat IPC: 0.213614 cumulative IPC: 0.211473 (Simulation time: 3 hr 36 min 51 sec) 
Heartbeat CPU 2 instructions: 1630000002 cycles: 1619574504 heartbeat IPC: 0.383854 cumulative IPC: 0.866399 (Simulation time: 3 hr 37 min 17 sec) 
Heartbeat CPU 0 instructions: 600000000 cycles: 1625988546 heartbeat IPC: 0.209991 cumulative IPC: 0.19924 (Simulation time: 3 hr 37 min 51 sec) 
Heartbeat CPU 2 instructions: 1640000000 cycles: 1645613785 heartbeat IPC: 0.384035 cumulative IPC: 0.858008 (Simulation time: 3 hr 39 min 34 sec) 
Heartbeat CPU 3 instructions: 510000000 cycles: 1660848832 heartbeat IPC: 0.182467 cumulative IPC: 0.17965 (Simulation time: 3 hr 40 min 53 sec) 
Heartbeat CPU 1 instructions: 520000000 cycles: 1660967792 heartbeat IPC: 0.215973 cumulative IPC: 0.211611 (Simulation time: 3 hr 40 min 54 sec) 
Heartbeat CPU 2 instructions: 1650000003 cycles: 1671597994 heartbeat IPC: 0.384849 cumulative IPC: 0.849934 (Simulation time: 3 hr 41 min 50 sec) 
Heartbeat CPU 0 instructions: 610000001 cycles: 1673418802 heartbeat IPC: 0.210836 cumulative IPC: 0.1996 (Simulation time: 3 hr 41 min 59 sec) 
Heartbeat CPU 2 instructions: 1660000000 cycles: 1697269650 heartbeat IPC: 0.389535 cumulative IPC: 0.842301 (Simulation time: 3 hr 44 min 6 sec) 
Heartbeat CPU 1 instructions: 530000001 cycles: 1706935133 heartbeat IPC: 0.217546 cumulative IPC: 0.211786 (Simulation time: 3 hr 45 min 0 sec) 
Heartbeat CPU 3 instructions: 520000000 cycles: 1715868838 heartbeat IPC: 0.181752 cumulative IPC: 0.179724 (Simulation time: 3 hr 45 min 49 sec) 
Heartbeat CPU 0 instructions: 620000000 cycles: 1720016671 heartbeat IPC: 0.214602 cumulative IPC: 0.200045 (Simulation time: 3 hr 46 min 12 sec) 
Heartbeat CPU 2 instructions: 1670000003 cycles: 1722584345 heartbeat IPC: 0.395028 cumulative IPC: 0.835107 (Simulation time: 3 hr 46 min 25 sec) 
Heartbeat CPU 2 instructions: 1680000000 cycles: 1748067014 heartbeat IPC: 0.392423 cumulative IPC: 0.828054 (Simulation time: 3 hr 48 min 44 sec) 
Heartbeat CPU 1 instructions: 540000000 cycles: 1753748510 heartbeat IPC: 0.213614 cumulative IPC: 0.211839 (Simulation time: 3 hr 49 min 14 sec) 
Heartbeat CPU 0 instructions: 630000001 cycles: 1766668939 heartbeat IPC: 0.214352 cumulative IPC: 0.200458 (Simulation time: 3 hr 50 min 25 sec) 
Heartbeat CPU 2 instructions: 1690000003 cycles: 1773337599 heartbeat IPC: 0.395717 cumulative IPC: 0.821329 (Simulation time: 3 hr 51 min 1 sec) 
Heartbeat CPU 3 instructions: 530000000 cycles: 1779371367 heartbeat IPC: 0.157474 cumulative IPC: 0.178857 (Simulation time: 3 hr 51 min 32 sec) 
Heartbeat CPU 2 instructions: 1700000000 cycles: 1798626439 heartbeat IPC: 0.395431 cumulative IPC: 0.8148 (Simulation time: 3 hr 53 min 18 sec) 
Heartbeat CPU 1 instructions: 550000000 cycles: 1800177934 heartbeat IPC: 0.215381 cumulative IPC: 0.211939 (Simulation time: 3 hr 53 min 26 sec) 
Heartbeat CPU 0 instructions: 640000000 cycles: 1813915889 heartbeat IPC: 0.211654 cumulative IPC: 0.200775 (Simulation time: 3 hr 54 min 42 sec) 
Heartbeat CPU 2 instructions: 1710000001 cycles: 1824149786 heartbeat IPC: 0.391798 cumulative IPC: 0.808356 (Simulation time: 3 hr 55 min 38 sec) 
Heartbeat CPU 3 instructions: 540000000 cycles: 1834444045 heartbeat IPC: 0.181578 cumulative IPC: 0.178946 (Simulation time: 3 hr 56 min 35 sec) 
Heartbeat CPU 1 instructions: 560000000 cycles: 1846619354 heartbeat IPC: 0.215325 cumulative IPC: 0.212032 (Simulation time: 3 hr 57 min 42 sec) 
Heartbeat CPU 2 instructions: 1720000000 cycles: 1849678144 heartbeat IPC: 0.391721 cumulative IPC: 0.802103 (Simulation time: 3 hr 57 min 59 sec) 
Heartbeat CPU 0 instructions: 650000000 cycles: 1861584506 heartbeat IPC: 0.209782 cumulative IPC: 0.201026 (Simulation time: 3 hr 59 min 13 sec) 
Heartbeat CPU 2 instructions: 1730000000 cycles: 1875199052 heartbeat IPC: 0.391836 cumulative IPC: 0.796038 (Simulation time: 4 hr 0 min 28 sec) 
Heartbeat CPU 3 instructions: 550000001 cycles: 1890173559 heartbeat IPC: 0.179438 cumulative IPC: 0.178962 (Simulation time: 4 hr 1 min 49 sec) 
Heartbeat CPU 1 instructions: 570000000 cycles: 1893411199 heartbeat IPC: 0.213712 cumulative IPC: 0.212077 (Simulation time: 4 hr 2 min 7 sec) 
Heartbeat CPU 2 instructions: 1740000000 cycles: 1900532976 heartbeat IPC: 0.394728 cumulative IPC: 0.790235 (Simulation time: 4 hr 2 min 45 sec) 
Heartbeat CPU 0 instructions: 660000000 cycles: 1909361595 heartbeat IPC: 0.209305 cumulative IPC: 0.201251 (Simulation time: 4 hr 3 min 33 sec) 
Heartbeat CPU 2 instructions: 1750000003 cycles: 1925642405 heartbeat IPC: 0.398257 cumulative IPC: 0.784696 (Simulation time: 4 hr 5 min 3 sec) 
Heartbeat CPU 1 instructions: 580000000 cycles: 1939696120 heartbeat IPC: 0.216053 cumulative IPC: 0.212179 (Simulation time: 4 hr 6 min 19 sec) 
Heartbeat CPU 3 instructions: 560000000 cycles: 1945540012 heartbeat IPC: 0.180615 cumulative IPC: 0.179013 (Simulation time: 4 hr 6 min 50 sec) 
Heartbeat CPU 2 instructions: 1760000000 cycles: 1954521353 heartbeat IPC: 0.346273 cumulative IPC: 0.777684 (Simulation time: 4 hr 7 min 31 sec) 
Heartbeat CPU 0 instructions: 670000001 cycles: 1957478461 heartbeat IPC: 0.207827 cumulative IPC: 0.201426 (Simulation time: 4 hr 7 min 44 sec) 
Heartbeat CPU 1 instructions: 590000002 cycles: 1988382342 heartbeat IPC: 0.205397 cumulative IPC: 0.212 (Simulation time: 4 hr 9 min 49 sec) 
Heartbeat CPU 3 instructions: 570000000 cycles: 2006566844 heartbeat IPC: 0.163862 cumulative IPC: 0.178515 (Simulation time: 4 hr 11 min 5 sec) 
Heartbeat CPU 0 instructions: 680000000 cycles: 2008949823 heartbeat IPC: 0.194283 cumulative IPC: 0.201228 (Simulation time: 4 hr 11 min 15 sec) 
Heartbeat CPU 2 instructions: 1770000000 cycles: 2027315750 heartbeat IPC: 0.137373 cumulative IPC: 0.752872 (Simulation time: 4 hr 12 min 31 sec) 
Heartbeat CPU 1 instructions: 600000000 cycles: 2036847161 heartbeat IPC: 0.206335 cumulative IPC: 0.211855 (Simulation time: 4 hr 13 min 11 sec) 
Heartbeat CPU 0 instructions: 690000000 cycles: 2063679480 heartbeat IPC: 0.182716 cumulative IPC: 0.200699 (Simulation time: 4 hr 15 min 1 sec) 
Heartbeat CPU 3 instructions: 580000000 cycles: 2074949246 heartbeat IPC: 0.146236 cumulative IPC: 0.177369 (Simulation time: 4 hr 15 min 48 sec) 
Heartbeat CPU 1 instructions: 610000000 cycles: 2085504185 heartbeat IPC: 0.20552 cumulative IPC: 0.211695 (Simulation time: 4 hr 16 min 32 sec) 
Heartbeat CPU 2 instructions: 1780000000 cycles: 2101898267 heartbeat IPC: 0.13408 cumulative IPC: 0.729243 (Simulation time: 4 hr 17 min 39 sec) 
Heartbeat CPU 0 instructions: 700000000 cycles: 2116130284 heartbeat IPC: 0.190655 cumulative IPC: 0.200431 (Simulation time: 4 hr 18 min 37 sec) 
Heartbeat CPU 1 instructions: 620000000 cycles: 2133887873 heartbeat IPC: 0.206681 cumulative IPC: 0.211573 (Simulation time: 4 hr 19 min 50 sec) 
Heartbeat CPU 3 instructions: 590000002 cycles: 2138463826 heartbeat IPC: 0.157444 cumulative IPC: 0.176733 (Simulation time: 4 hr 20 min 9 sec) 
Heartbeat CPU 0 instructions: 710000001 cycles: 2167425631 heartbeat IPC: 0.194949 cumulative IPC: 0.200292 (Simulation time: 4 hr 22 min 7 sec) 
Heartbeat CPU 2 instructions: 1790000002 cycles: 2180067099 heartbeat IPC: 0.127928 cumulative IPC: 0.706103 (Simulation time: 4 hr 22 min 59 sec) 
Heartbeat CPU 1 instructions: 630000001 cycles: 2181768428 heartbeat IPC: 0.208853 cumulative IPC: 0.211509 (Simulation time: 4 hr 23 min 6 sec) 
Heartbeat CPU 3 instructions: 600000000 cycles: 2199249227 heartbeat IPC: 0.164513 cumulative IPC: 0.176371 (Simulation time: 4 hr 24 min 37 sec) 
Heartbeat CPU 2 instructions: 1800000000 cycles: 2207719580 heartbeat IPC: 0.361631 cumulative IPC: 0.701477 (Simulation time: 4 hr 25 min 24 sec) 
Heartbeat CPU 0 instructions: 720000000 cycles: 2215812992 heartbeat IPC: 0.206666 cumulative IPC: 0.200441 (Simulation time: 4 hr 26 min 8 sec) 
Heartbeat CPU 1 instructions: 640000000 cycles: 2228543469 heartbeat IPC: 0.213789 cumulative IPC: 0.21156 (Simulation time: 4 hr 27 min 19 sec) 
Heartbeat CPU 2 instructions: 1810000003 cycles: 2232020749 heartbeat IPC: 0.411503 cumulative IPC: 0.698094 (Simulation time: 4 hr 27 min 38 sec) 
Heartbeat CPU 3 instructions: 610000000 cycles: 2251895427 heartbeat IPC: 0.189947 cumulative IPC: 0.176711 (Simulation time: 4 hr 29 min 27 sec) 
Heartbeat CPU 2 instructions: 1820000000 cycles: 2256114114 heartbeat IPC: 0.415052 cumulative IPC: 0.694858 (Simulation time: 4 hr 29 min 50 sec) 
Heartbeat CPU 0 instructions: 730000000 cycles: 2263101378 heartbeat IPC: 0.211468 cumulative IPC: 0.200688 (Simulation time: 4 hr 30 min 28 sec) 
Heartbeat CPU 1 instructions: 650000002 cycles: 2274993613 heartbeat IPC: 0.215285 cumulative IPC: 0.211642 (Simulation time: 4 hr 31 min 36 sec) 
Heartbeat CPU 2 instructions: 1830000000 cycles: 2280417624 heartbeat IPC: 0.411463 cumulative IPC: 0.691627 (Simulation time: 4 hr 32 min 6 sec) 
Heartbeat CPU 2 instructions: 1840000000 cycles: 2304712774 heartbeat IPC: 0.411605 cumulative IPC: 0.688471 (Simulation time: 4 hr 34 min 19 sec) 
Heartbeat CPU 3 instructions: 620000000 cycles: 2307371347 heartbeat IPC: 0.180258 cumulative IPC: 0.176802 (Simulation time: 4 hr 34 min 34 sec) 
Heartbeat CPU 0 instructions: 740000000 cycles: 2309736989 heartbeat IPC: 0.214428 cumulative IPC: 0.200984 (Simulation time: 4 hr 34 min 47 sec) 
Heartbeat CPU 1 instructions: 660000000 cycles: 2321230831 heartbeat IPC: 0.216276 cumulative IPC: 0.21174 (Simulation time: 4 hr 35 min 49 sec) 
Heartbeat CPU 2 instructions: 1850000000 cycles: 2328967295 heartbeat IPC: 0.412294 cumulative IPC: 0.685399 (Simulation time: 4 hr 36 min 31 sec) 
Heartbeat CPU 2 instructions: 1860000000 cycles: 2353475350 heartbeat IPC: 0.408029 cumulative IPC: 0.682316 (Simulation time: 4 hr 38 min 45 sec) 
Heartbeat CPU 0 instructions: 750000000 cycles: 2357333480 heartbeat IPC: 0.2101 cumulative IPC: 0.201181 (Simulation time: 4 hr 39 min 5 sec) 
Heartbeat CPU 3 instructions: 630000000 cycles: 2365283500 heartbeat IPC: 0.172675 cumulative IPC: 0.176694 (Simulation time: 4 hr 39 min 48 sec) 
Heartbeat CPU 1 instructions: 670000002 cycles: 2367432295 heartbeat IPC: 0.216443 cumulative IPC: 0.211838 (Simulation time: 4 hr 40 min 0 sec) 
Heartbeat CPU 2 instructions: 1870000002 cycles: 2377823423 heartbeat IPC: 0.41071 cumulative IPC: 0.679349 (Simulation time: 4 hr 40 min 56 sec) 
Heartbeat CPU 2 instructions: 1880000000 cycles: 2402113640 heartbeat IPC: 0.411688 cumulative IPC: 0.676464 (Simulation time: 4 hr 43 min 8 sec) 
Heartbeat CPU 0 instructions: 760000000 cycles: 2404655851 heartbeat IPC: 0.211317 cumulative IPC: 0.201393 (Simulation time: 4 hr 43 min 22 sec) 
Heartbeat CPU 1 instructions: 680000000 cycles: 2413704493 heartbeat IPC: 0.216112 cumulative IPC: 0.211926 (Simulation time: 4 hr 44 min 11 sec) 
Heartbeat CPU 3 instructions: 640000000 cycles: 2425764722 heartbeat IPC: 0.165341 cumulative IPC: 0.176392 (Simulation time: 4 hr 45 min 16 sec) 
Heartbeat CPU 2 instructions: 1890000000 cycles: 2426538842 heartbeat IPC: 0.409413 cumulative IPC: 0.6736 (Simulation time: 4 hr 45 min 21 sec) 
Heartbeat CPU 2 instructions: 1900000000 cycles: 2450683696 heartbeat IPC: 0.414167 cumulative IPC: 0.670879 (Simulation time: 4 hr 47 min 31 sec) 
Heartbeat CPU 0 instructions: 770000003 cycles: 2451286122 heartbeat IPC: 0.214453 cumulative IPC: 0.201658 (Simulation time: 4 hr 47 min 34 sec) 
Heartbeat CPU 1 instructions: 690000000 cycles: 2459535070 heartbeat IPC: 0.218195 cumulative IPC: 0.21205 (Simulation time: 4 hr 48 min 18 sec) 
Heartbeat CPU 2 instructions: 1910000003 cycles: 2474979884 heartbeat IPC: 0.411587 cumulative IPC: 0.668171 (Simulation time: 4 hr 49 min 41 sec) 
Heartbeat CPU 3 instructions: 650000001 cycles: 2487727505 heartbeat IPC: 0.161387 cumulative IPC: 0.175995 (Simulation time: 4 hr 50 min 51 sec) 
Heartbeat CPU 0 instructions: 780000000 cycles: 2498953282 heartbeat IPC: 0.209788 cumulative IPC: 0.201823 (Simulation time: 4 hr 51 min 52 sec) 
Heartbeat CPU 2 instructions: 1920000000 cycles: 2499344671 heartbeat IPC: 0.410428 cumulative IPC: 0.665499 (Simulation time: 4 hr 51 min 54 sec) 
Heartbeat CPU 1 instructions: 700000000 cycles: 2505610738 heartbeat IPC: 0.217034 cumulative IPC: 0.212147 (Simulation time: 4 hr 52 min 28 sec) 
Heartbeat CPU 2 instructions: 1930000000 cycles: 2523513604 heartbeat IPC: 0.413754 cumulative IPC: 0.662937 (Simulation time: 4 hr 54 min 4 sec) 
Heartbeat CPU 0 instructions: 790000003 cycles: 2546728610 heartbeat IPC: 0.209313 cumulative IPC: 0.201972 (Simulation time: 4 hr 56 min 10 sec) 
Heartbeat CPU 3 instructions: 660000000 cycles: 2546813058 heartbeat IPC: 0.169246 cumulative IPC: 0.175829 (Simulation time: 4 hr 56 min 11 sec) 
Heartbeat CPU 2 instructions: 1940000000 cycles: 2547909959 heartbeat IPC: 0.409897 cumulative IPC: 0.660364 (Simulation time: 4 hr 56 min 17 sec) 
Heartbeat CPU 1 instructions: 710000000 cycles: 2551828144 heartbeat IPC: 0.216369 cumulative IPC: 0.212229 (Simulation time: 4 hr 56 min 38 sec) 
Heartbeat CPU 2 instructions: 1950000003 cycles: 2572382499 heartbeat IPC: 0.408621 cumulative IPC: 0.657822 (Simulation time: 4 hr 58 min 30 sec) 
Heartbeat CPU 0 instructions: 800000000 cycles: 2594768215 heartbeat IPC: 0.208162 cumulative IPC: 0.202094 (Simulation time: 5 hr 0 min 32 sec) 
Heartbeat CPU 2 instructions: 1960000000 cycles: 2596826262 heartbeat IPC: 0.409102 cumulative IPC: 0.655338 (Simulation time: 5 hr 0 min 43 sec) 
Heartbeat CPU 1 instructions: 720000000 cycles: 2598455996 heartbeat IPC: 0.214464 cumulative IPC: 0.212271 (Simulation time: 5 hr 0 min 52 sec) 
Heartbeat CPU 3 instructions: 670000000 cycles: 2601973961 heartbeat IPC: 0.181288 cumulative IPC: 0.175951 (Simulation time: 5 hr 1 min 12 sec) 
Heartbeat CPU 2 instructions: 1970000001 cycles: 2621394729 heartbeat IPC: 0.407026 cumulative IPC: 0.652871 (Simulation time: 5 hr 2 min 58 sec) 
Heartbeat CPU 0 instructions: 810000002 cycles: 2642046711 heartbeat IPC: 0.211513 cumulative IPC: 0.202272 (Simulation time: 5 hr 4 min 52 sec) 
Heartbeat CPU 1 instructions: 730000001 cycles: 2644505995 heartbeat IPC: 0.217155 cumulative IPC: 0.212361 (Simulation time: 5 hr 5 min 5 sec) 
Heartbeat CPU 2 instructions: 1980000000 cycles: 2645863333 heartbeat IPC: 0.408687 cumulative IPC: 0.650478 (Simulation time: 5 hr 5 min 13 sec) 
Heartbeat CPU 3 instructions: 680000000 cycles: 2654824317 heartbeat IPC: 0.189213 cumulative IPC: 0.176231 (Simulation time: 5 hr 6 min 2 sec) 
Heartbeat CPU 2 instructions: 1990000001 cycles: 2670266942 heartbeat IPC: 0.409775 cumulative IPC: 0.648149 (Simulation time: 5 hr 7 min 28 sec) 
Heartbeat CPU 0 instructions: 820000000 cycles: 2689032665 heartbeat IPC: 0.21283 cumulative IPC: 0.202467 (Simulation time: 5 hr 9 min 12 sec) 
Heartbeat CPU 1 instructions: 740000000 cycles: 2690797375 heartbeat IPC: 0.216023 cumulative IPC: 0.212428 (Simulation time: 5 hr 9 min 21 sec) 
*** Reached end of trace for Core: 2 Repeating trace: /scratch/user/djimenez/champsim-traces/speccpu2017/xz/649.fotonik3d_s/649.fotonik3d_s-7084B.champsimtrace.xz
Heartbeat CPU 2 instructions: 2000000000 cycles: 2694606901 heartbeat IPC: 0.410847 cumulative IPC: 0.64588 (Simulation time: 5 hr 9 min 42 sec) 
Heartbeat CPU 2 instructions: 2010000001 cycles: 2703054241 heartbeat IPC: 1.1838 cumulative IPC: 0.647659 (Simulation time: 5 hr 10 min 45 sec) 
Heartbeat CPU 3 instructions: 690000001 cycles: 2707284513 heartbeat IPC: 0.190621 cumulative IPC: 0.176526 (Simulation time: 5 hr 11 min 16 sec) 
Heartbeat CPU 2 instructions: 2020000000 cycles: 2711606403 heartbeat IPC: 1.16929 cumulative IPC: 0.6494 (Simulation time: 5 hr 11 min 47 sec) 
Heartbeat CPU 2 instructions: 2030000002 cycles: 2720205588 heartbeat IPC: 1.1629 cumulative IPC: 0.651117 (Simulation time: 5 hr 12 min 48 sec) 
Heartbeat CPU 2 instructions: 2040000000 cycles: 2728766600 heartbeat IPC: 1.16809 cumulative IPC: 0.652832 (Simulation time: 5 hr 13 min 50 sec) 
Heartbeat CPU 2 instructions: 2050000000 cycles: 2737352484 heartbeat IPC: 1.1647 cumulative IPC: 0.65453 (Simulation time: 5 hr 14 min 51 sec) 
Heartbeat CPU 1 instructions: 750000003 cycles: 2738751882 heartbeat IPC: 0.208531 cumulative IPC: 0.212356 (Simulation time: 5 hr 15 min 1 sec) 
Heartbeat CPU 0 instructions: 830000003 cycles: 2741907666 heartbeat IPC: 0.189125 cumulative IPC: 0.202195 (Simulation time: 5 hr 15 min 23 sec) 
Heartbeat CPU 2 instructions: 2060000000 cycles: 2745937408 heartbeat IPC: 1.16483 cumulative IPC: 0.656217 (Simulation time: 5 hr 15 min 52 sec) 
Heartbeat CPU 2 instructions: 2070000001 cycles: 2754424785 heartbeat IPC: 1.17822 cumulative IPC: 0.657917 (Simulation time: 5 hr 16 min 52 sec) 
Heartbeat CPU 2 instructions: 2080000000 cycles: 2762957630 heartbeat IPC: 1.17194 cumulative IPC: 0.659595 (Simulation time: 5 hr 17 min 52 sec) 
Heartbeat CPU 3 instructions: 700000000 cycles: 2769437863 heartbeat IPC: 0.160892 cumulative IPC: 0.176155 (Simulation time: 5 hr 18 min 38 sec) 
Heartbeat CPU 2 instructions: 2090000003 cycles: 2771523317 heartbeat IPC: 1.16745 cumulative IPC: 0.661254 (Simulation time: 5 hr 18 min 53 sec) 
Heartbeat CPU 2 instructions: 2100000000 cycles: 2780163951 heartbeat IPC: 1.15732 cumulative IPC: 0.662883 (Simulation time: 5 hr 19 min 53 sec) 
Heartbeat CPU 1 instructions: 760000000 cycles: 2786659622 heartbeat IPC: 0.208734 cumulative IPC: 0.21229 (Simulation time: 5 hr 20 min 39 sec) 
Heartbeat CPU 2 instructions: 2110000002 cycles: 2788705217 heartbeat IPC: 1.17079 cumulative IPC: 0.664526 (Simulation time: 5 hr 20 min 53 sec) 
Heartbeat CPU 2 instructions: 2120000000 cycles: 2797203386 heartbeat IPC: 1.17672 cumulative IPC: 0.666169 (Simulation time: 5 hr 21 min 54 sec) 
Heartbeat CPU 0 instructions: 840000000 cycles: 2798311601 heartbeat IPC: 0.177293 cumulative IPC: 0.201665 (Simulation time: 5 hr 22 min 2 sec) 
Heartbeat CPU 2 instructions: 2130000001 cycles: 2805741109 heartbeat IPC: 1.17127 cumulative IPC: 0.667792 (Simulation time: 5 hr 22 min 54 sec) 
Heartbeat CPU 2 instructions: 2140000000 cycles: 2814226097 heartbeat IPC: 1.17855 cumulative IPC: 0.669418 (Simulation time: 5 hr 23 min 53 sec) 
Heartbeat CPU 2 instructions: 2150000002 cycles: 2822691630 heartbeat IPC: 1.18126 cumulative IPC: 0.671039 (Simulation time: 5 hr 24 min 54 sec) 
Heartbeat CPU 2 instructions: 2160000000 cycles: 2831267712 heartbeat IPC: 1.16603 cumulative IPC: 0.672621 (Simulation time: 5 hr 25 min 54 sec) 
Heartbeat CPU 1 instructions: 770000001 cycles: 2833840852 heartbeat IPC: 0.211949 cumulative IPC: 0.212284 (Simulation time: 5 hr 26 min 12 sec) 
Heartbeat CPU 2 instructions: 2170000001 cycles: 2839801282 heartbeat IPC: 1.17184 cumulative IPC: 0.674204 (Simulation time: 5 hr 26 min 54 sec) 
Heartbeat CPU 3 instructions: 710000000 cycles: 2840548857 heartbeat IPC: 0.140625 cumulative IPC: 0.175217 (Simulation time: 5 hr 26 min 59 sec) 
Heartbeat CPU 2 instructions: 2180000000 cycles: 2848196197 heartbeat IPC: 1.1912 cumulative IPC: 0.675812 (Simulation time: 5 hr 27 min 53 sec) 
Heartbeat CPU 0 instructions: 850000003 cycles: 2854644438 heartbeat IPC: 0.177516 cumulative IPC: 0.201163 (Simulation time: 5 hr 28 min 39 sec) 
Heartbeat CPU 2 instructions: 2190000001 cycles: 2856706117 heartbeat IPC: 1.1751 cumulative IPC: 0.677381 (Simulation time: 5 hr 28 min 53 sec) 
Heartbeat CPU 2 instructions: 2200000000 cycles: 2865350922 heartbeat IPC: 1.15676 cumulative IPC: 0.678907 (Simulation time: 5 hr 29 min 54 sec) 
Heartbeat CPU 2 instructions: 2210000002 cycles: 2873753247 heartbeat IPC: 1.19015 cumulative IPC: 0.680483 (Simulation time: 5 hr 30 min 53 sec) 
Heartbeat CPU 1 instructions: 780000000 cycles: 2881208261 heartbeat IPC: 0.211116 cumulative IPC: 0.212264 (Simulation time: 5 hr 31 min 43 sec) 
Heartbeat CPU 2 instructions: 2220000000 cycles: 2882283732 heartbeat IPC: 1.17227 cumulative IPC: 0.682018 (Simulation time: 5 hr 31 min 50 sec) 
Heartbeat CPU 2 instructions: 2230000001 cycles: 2890747964 heartbeat IPC: 1.18144 cumulative IPC: 0.68356 (Simulation time: 5 hr 32 min 46 sec) 
Heartbeat CPU 2 instructions: 2240000000 cycles: 2899313005 heartbeat IPC: 1.16754 cumulative IPC: 0.685067 (Simulation time: 5 hr 33 min 44 sec) 
Heartbeat CPU 3 instructions: 720000000 cycles: 2904197494 heartbeat IPC: 0.157113 cumulative IPC: 0.174799 (Simulation time: 5 hr 34 min 16 sec) 
Heartbeat CPU 2 instructions: 2250000000 cycles: 2907845294 heartbeat IPC: 1.17202 cumulative IPC: 0.686572 (Simulation time: 5 hr 34 min 41 sec) 
Heartbeat CPU 0 instructions: 860000000 cycles: 2913634525 heartbeat IPC: 0.16952 cumulative IPC: 0.200487 (Simulation time: 5 hr 35 min 20 sec) 
Heartbeat CPU 2 instructions: 2260000000 cycles: 2916481612 heartbeat IPC: 1.1579 cumulative IPC: 0.688043 (Simulation time: 5 hr 35 min 39 sec) 
Heartbeat CPU 2 instructions: 2270000000 cycles: 2924968474 heartbeat IPC: 1.17829 cumulative IPC: 0.689542 (Simulation time: 5 hr 36 min 36 sec) 
Heartbeat CPU 1 instructions: 790000001 cycles: 2929203950 heartbeat IPC: 0.208352 cumulative IPC: 0.212196 (Simulation time: 5 hr 37 min 5 sec) 
Heartbeat CPU 2 instructions: 2280000000 cycles: 2933406271 heartbeat IPC: 1.18514 cumulative IPC: 0.691044 (Simulation time: 5 hr 37 min 33 sec) 
Heartbeat CPU 2 instructions: 2290000003 cycles: 2942102074 heartbeat IPC: 1.14998 cumulative IPC: 0.692472 (Simulation time: 5 hr 38 min 30 sec) 
Heartbeat CPU 2 instructions: 2300000000 cycles: 2950657422 heartbeat IPC: 1.16886 cumulative IPC: 0.693927 (Simulation time: 5 hr 39 min 28 sec) 
Heartbeat CPU 2 instructions: 2310000003 cycles: 2959204503 heartbeat IPC: 1.16999 cumulative IPC: 0.695375 (Simulation time: 5 hr 40 min 29 sec) 
Heartbeat CPU 3 instructions: 730000000 cycles: 2966619470 heartbeat IPC: 0.1602 cumulative IPC: 0.174475 (Simulation time: 5 hr 41 min 21 sec) 
Heartbeat CPU 2 instructions: 2320000000 cycles: 2967725852 heartbeat IPC: 1.17352 cumulative IPC: 0.69682 (Simulation time: 5 hr 41 min 29 sec) 
Heartbeat CPU 0 instructions: 870000001 cycles: 2974177569 heartbeat IPC: 0.165172 cumulative IPC: 0.199731 (Simulation time: 5 hr 42 min 15 sec) 
Heartbeat CPU 2 instructions: 2330000001 cycles: 2976243658 heartbeat IPC: 1.17401 cumulative IPC: 0.698258 (Simulation time: 5 hr 42 min 29 sec) 
Heartbeat CPU 1 instructions: 800000000 cycles: 2976463800 heartbeat IPC: 0.211596 cumulative IPC: 0.212186 (Simulation time: 5 hr 42 min 31 sec) 
Heartbeat CPU 2 instructions: 2340000000 cycles: 2984762201 heartbeat IPC: 1.17391 cumulative IPC: 0.699686 (Simulation time: 5 hr 43 min 30 sec) 
Heartbeat CPU 2 instructions: 2350000003 cycles: 2993252223 heartbeat IPC: 1.17785 cumulative IPC: 0.701114 (Simulation time: 5 hr 44 min 30 sec) 
Heartbeat CPU 2 instructions: 2360000000 cycles: 3001754201 heartbeat IPC: 1.1762 cumulative IPC: 0.702529 (Simulation time: 5 hr 45 min 30 sec) 
Heartbeat CPU 2 instructions: 2370000002 cycles: 3010028027 heartbeat IPC: 1.20863 cumulative IPC: 0.703993 (Simulation time: 5 hr 46 min 29 sec) 
Heartbeat CPU 2 instructions: 2380000000 cycles: 3018457764 heartbeat IPC: 1.18628 cumulative IPC: 0.705409 (Simulation time: 5 hr 47 min 29 sec) 
Heartbeat CPU 1 instructions: 810000003 cycles: 3024737013 heartbeat IPC: 0.207154 cumulative IPC: 0.212102 (Simulation time: 5 hr 48 min 14 sec) 
Heartbeat CPU 2 instructions: 2390000003 cycles: 3026854878 heartbeat IPC: 1.19089 cumulative IPC: 0.706826 (Simulation time: 5 hr 48 min 29 sec) 
Heartbeat CPU 0 instructions: 880000000 cycles: 3028884230 heartbeat IPC: 0.182793 cumulative IPC: 0.199409 (Simulation time: 5 hr 48 min 44 sec) 
Heartbeat CPU 3 instructions: 740000000 cycles: 3031966918 heartbeat IPC: 0.153028 cumulative IPC: 0.173989 (Simulation time: 5 hr 49 min 7 sec) 
Heartbeat CPU 2 instructions: 2400000000 cycles: 3035084304 heartbeat IPC: 1.21515 cumulative IPC: 0.708275 (Simulation time: 5 hr 49 min 29 sec) 
Heartbeat CPU 2 instructions: 2410000001 cycles: 3043473987 heartbeat IPC: 1.19194 cumulative IPC: 0.709677 (Simulation time: 5 hr 50 min 30 sec) 
Heartbeat CPU 2 instructions: 2420000000 cycles: 3052083706 heartbeat IPC: 1.16148 cumulative IPC: 0.711017 (Simulation time: 5 hr 51 min 32 sec) 
Heartbeat CPU 2 instructions: 2430000003 cycles: 3060559932 heartbeat IPC: 1.17977 cumulative IPC: 0.712381 (Simulation time: 5 hr 52 min 32 sec) 
Heartbeat CPU 2 instructions: 2440000000 cycles: 3068847334 heartbeat IPC: 1.20665 cumulative IPC: 0.713784 (Simulation time: 5 hr 53 min 32 sec) 
Heartbeat CPU 1 instructions: 820000000 cycles: 3072760739 heartbeat IPC: 0.20823 cumulative IPC: 0.212038 (Simulation time: 5 hr 53 min 59 sec) 
Heartbeat CPU 2 instructions: 2450000002 cycles: 3077283726 heartbeat IPC: 1.18534 cumulative IPC: 0.715143 (Simulation time: 5 hr 54 min 32 sec) 
Heartbeat CPU 0 instructions: 890000002 cycles: 3082204328 heartbeat IPC: 0.187547 cumulative IPC: 0.199193 (Simulation time: 5 hr 55 min 7 sec) 
Heartbeat CPU 2 instructions: 2460000000 cycles: 3085819749 heartbeat IPC: 1.17151 cumulative IPC: 0.716469 (Simulation time: 5 hr 55 min 33 sec) 
Heartbeat CPU 2 instructions: 2470000002 cycles: 3094200647 heartbeat IPC: 1.19319 cumulative IPC: 0.717825 (Simulation time: 5 hr 56 min 36 sec) 
Heartbeat CPU 3 instructions: 750000000 cycles: 3096503535 heartbeat IPC: 0.154951 cumulative IPC: 0.173572 (Simulation time: 5 hr 56 min 56 sec) 
Heartbeat CPU 2 instructions: 2480000000 cycles: 3102535094 heartbeat IPC: 1.19984 cumulative IPC: 0.719185 (Simulation time: 5 hr 57 min 44 sec) 
Heartbeat CPU 2 instructions: 2490000001 cycles: 3110872466 heartbeat IPC: 1.19942 cumulative IPC: 0.720537 (Simulation time: 5 hr 58 min 51 sec) 
Heartbeat CPU 2 instructions: 2500000000 cycles: 3119263529 heartbeat IPC: 1.19174 cumulative IPC: 0.721868 (Simulation time: 5 hr 59 min 54 sec) 
Heartbeat CPU 1 instructions: 830000000 cycles: 3120690761 heartbeat IPC: 0.208638 cumulative IPC: 0.211983 (Simulation time: 6 hr 0 min 4 sec) 
Heartbeat CPU 2 instructions: 2510000002 cycles: 3127680875 heartbeat IPC: 1.18802 cumulative IPC: 0.723185 (Simulation time: 6 hr 0 min 59 sec) 
Heartbeat CPU 2 instructions: 2520000000 cycles: 3136038059 heartbeat IPC: 1.19658 cumulative IPC: 0.72451 (Simulation time: 6 hr 1 min 59 sec) 
Heartbeat CPU 0 instructions: 900000000 cycles: 3137386045 heartbeat IPC: 0.181219 cumulative IPC: 0.198861 (Simulation time: 6 hr 2 min 9 sec) 
Heartbeat CPU 2 instructions: 2530000001 cycles: 3144401474 heartbeat IPC: 1.19568 cumulative IPC: 0.725825 (Simulation time: 6 hr 2 min 57 sec) 
Heartbeat CPU 2 instructions: 2540000000 cycles: 3152873091 heartbeat IPC: 1.18041 cumulative IPC: 0.727107 (Simulation time: 6 hr 3 min 54 sec) 
Heartbeat CPU 3 instructions: 760000000 cycles: 3158216890 heartbeat IPC: 0.162039 cumulative IPC: 0.173336 (Simulation time: 6 hr 4 min 31 sec) 
Heartbeat CPU 2 instructions: 2550000003 cycles: 3161220878 heartbeat IPC: 1.19792 cumulative IPC: 0.728412 (Simulation time: 6 hr 4 min 52 sec) 
Heartbeat CPU 1 instructions: 840000000 cycles: 3168636667 heartbeat IPC: 0.208568 cumulative IPC: 0.211929 (Simulation time: 6 hr 5 min 42 sec) 
Heartbeat CPU 2 instructions: 2560000000 cycles: 3169610578 heartbeat IPC: 1.19194 cumulative IPC: 0.729699 (Simulation time: 6 hr 5 min 49 sec) 
Heartbeat CPU 2 instructions: 2570000001 cycles: 3178044777 heartbeat IPC: 1.18565 cumulative IPC: 0.730969 (Simulation time: 6 hr 6 min 46 sec) 
Heartbeat CPU 2 instructions: 2580000000 cycles: 3186562560 heartbeat IPC: 1.17401 cumulative IPC: 0.732211 (Simulation time: 6 hr 7 min 43 sec) 
Heartbeat CPU 0 instructions: 910000002 cycles: 3194697450 heartbeat IPC: 0.174485 cumulative IPC: 0.198403 (Simulation time: 6 hr 8 min 39 sec) 
Heartbeat CPU 2 instructions: 2590000002 cycles: 3194995226 heartbeat IPC: 1.18586 cumulative IPC: 0.733467 (Simulation time: 6 hr 8 min 41 sec) 
Heartbeat CPU 2 instructions: 2600000000 cycles: 3203370574 heartbeat IPC: 1.19398 cumulative IPC: 0.734729 (Simulation time: 6 hr 9 min 38 sec) 
Heartbeat CPU 2 instructions: 2610000003 cycles: 3211747201 heartbeat IPC: 1.1938 cumulative IPC: 0.735985 (Simulation time: 6 hr 10 min 35 sec) 
Heartbeat CPU 1 instructions: 850000002 cycles: 3216748464 heartbeat IPC: 0.207849 cumulative IPC: 0.211865 (Simulation time: 6 hr 11 min 10 sec) 
Heartbeat CPU 3 instructions: 770000000 cycles: 3219008793 heartbeat IPC: 0.164496 cumulative IPC: 0.173161 (Simulation time: 6 hr 11 min 26 sec) 
Heartbeat CPU 2 instructions: 2620000000 cycles: 3219985772 heartbeat IPC: 1.2138 cumulative IPC: 0.737267 (Simulation time: 6 hr 11 min 33 sec) 
Heartbeat CPU 2 instructions: 2630000001 cycles: 3228451028 heartbeat IPC: 1.1813 cumulative IPC: 0.738487 (Simulation time: 6 hr 12 min 34 sec) 
Heartbeat CPU 2 instructions: 2640000000 cycles: 3236968202 heartbeat IPC: 1.1741 cumulative IPC: 0.739688 (Simulation time: 6 hr 13 min 35 sec) 
Heartbeat CPU 2 instructions: 2650000000 cycles: 3245389204 heartbeat IPC: 1.18751 cumulative IPC: 0.740906 (Simulation time: 6 hr 14 min 35 sec) 
Heartbeat CPU 0 instructions: 920000000 cycles: 3250344064 heartbeat IPC: 0.179705 cumulative IPC: 0.198067 (Simulation time: 6 hr 15 min 11 sec) 
Heartbeat CPU 2 instructions: 2660000000 cycles: 3253921531 heartbeat IPC: 1.17201 cumulative IPC: 0.742091 (Simulation time: 6 hr 15 min 37 sec) 
Heartbeat CPU 2 instructions: 2670000001 cycles: 3262353076 heartbeat IPC: 1.18602 cumulative IPC: 0.743293 (Simulation time: 6 hr 16 min 37 sec) 
Heartbeat CPU 1 instructions: 860000000 cycles: 3264649229 heartbeat IPC: 0.208765 cumulative IPC: 0.211817 (Simulation time: 6 hr 16 min 54 sec) 
Heartbeat CPU 2 instructions: 2680000000 cycles: 3270674457 heartbeat IPC: 1.20172 cumulative IPC: 0.744515 (Simulation time: 6 hr 17 min 37 sec) 
Heartbeat CPU 2 instructions: 2690000001 cycles: 3279019912 heartbeat IPC: 1.19826 cumulative IPC: 0.745725 (Simulation time: 6 hr 18 min 38 sec) 
Heartbeat CPU 3 instructions: 780000000 cycles: 3279624922 heartbeat IPC: 0.164973 cumulative IPC: 0.173002 (Simulation time: 6 hr 18 min 42 sec) 
Heartbeat CPU 2 instructions: 2700000000 cycles: 3287420576 heartbeat IPC: 1.19038 cumulative IPC: 0.746915 (Simulation time: 6 hr 19 min 38 sec) 
Heartbeat CPU 2 instructions: 2710000002 cycles: 3295771937 heartbeat IPC: 1.19741 cumulative IPC: 0.74811 (Simulation time: 6 hr 20 min 39 sec) 
Heartbeat CPU 2 instructions: 2720000000 cycles: 3304188512 heartbeat IPC: 1.18813 cumulative IPC: 0.749284 (Simulation time: 6 hr 21 min 40 sec) 
Heartbeat CPU 0 instructions: 930000000 cycles: 3305474847 heartbeat IPC: 0.181387 cumulative IPC: 0.197776 (Simulation time: 6 hr 21 min 49 sec) 
Heartbeat CPU 2 instructions: 2730000003 cycles: 3312642257 heartbeat IPC: 1.18291 cumulative IPC: 0.750443 (Simulation time: 6 hr 22 min 40 sec) 
Heartbeat CPU 1 instructions: 870000000 cycles: 3312691992 heartbeat IPC: 0.208148 cumulative IPC: 0.211762 (Simulation time: 6 hr 22 min 41 sec) 
Heartbeat CPU 2 instructions: 2740000000 cycles: 3321104290 heartbeat IPC: 1.18175 cumulative IPC: 0.751593 (Simulation time: 6 hr 23 min 41 sec) 
Heartbeat CPU 2 instructions: 2750000000 cycles: 3329512025 heartbeat IPC: 1.18938 cumulative IPC: 0.75275 (Simulation time: 6 hr 24 min 42 sec) 
Heartbeat CPU 2 instructions: 2760000000 cycles: 3337786205 heartbeat IPC: 1.20858 cumulative IPC: 0.753933 (Simulation time: 6 hr 25 min 41 sec) 
Heartbeat CPU 3 instructions: 790000001 cycles: 3339078857 heartbeat IPC: 0.168197 cumulative IPC: 0.172913 (Simulation time: 6 hr 25 min 51 sec) 
Heartbeat CPU 2 instructions: 2770000002 cycles: 3346265642 heartbeat IPC: 1.17932 cumulative IPC: 0.755061 (Simulation time: 6 hr 26 min 41 sec) 
Heartbeat CPU 2 instructions: 2780000000 cycles: 3354564275 heartbeat IPC: 1.20502 cumulative IPC: 0.756226 (Simulation time: 6 hr 27 min 41 sec) 
Heartbeat CPU 0 instructions: 940000000 cycles: 3355413796 heartbeat IPC: 0.200245 cumulative IPC: 0.197814 (Simulation time: 6 hr 27 min 47 sec) 
Heartbeat CPU 1 instructions: 880000000 cycles: 3361090078 heartbeat IPC: 0.20662 cumulative IPC: 0.211684 (Simulation time: 6 hr 28 min 29 sec) 
Heartbeat CPU 2 instructions: 2790000001 cycles: 3362989637 heartbeat IPC: 1.18689 cumulative IPC: 0.757355 (Simulation time: 6 hr 28 min 42 sec) 
[...]
Heartbeat CPU 2 instructions: 4250000000 cycles: 5790353133 heartbeat IPC: 1.16157 cumulative IPC: 0.690286 (Simulation time: 10 hr 6 min 54 sec) 
Heartbeat CPU 2 instructions: 4260000000 cycles: 5798865288 heartbeat IPC: 1.17479 cumulative IPC: 0.691016 (Simulation time: 10 hr 7 min 47 sec) 
Heartbeat CPU 2 instructions: 4270000000 cycles: 5807384774 heartbeat IPC: 1.17378 cumulative IPC: 0.691743 (Simulation time: 10 hr 8 min 42 sec) 
Heartbeat CPU 2 instructions: 4280000000 cycles: 5816075542 heartbeat IPC: 1.15065 cumulative IPC: 0.692446 (Simulation time: 10 hr 9 min 37 sec) 
Heartbeat CPU 3 instructions: 1210000001 cycles: 5816581072 heartbeat IPC: 0.141948 cumulative IPC: 0.171432 (Simulation time: 10 hr 9 min 40 sec) 
Heartbeat CPU 2 instructions: 4290000003 cycles: 5824569526 heartbeat IPC: 1.1773 cumulative IPC: 0.693172 (Simulation time: 10 hr 10 min 32 sec) 
Heartbeat CPU 1 instructions: 1410000000 cycles: 5827583189 heartbeat IPC: 0.207951 cumulative IPC: 0.213072 (Simulation time: 10 hr 10 min 51 sec) 
Heartbeat CPU 0 instructions: 1440000000 cycles: 5831479994 heartbeat IPC: 0.194021 cumulative IPC: 0.199609 (Simulation time: 10 hr 11 min 16 sec) 
Heartbeat CPU 2 instructions: 4300000000 cycles: 5833164254 heartbeat IPC: 1.1635 cumulative IPC: 0.693883 (Simulation time: 10 hr 11 min 27 sec) 
Heartbeat CPU 2 instructions: 4310000003 cycles: 5841827426 heartbeat IPC: 1.15431 cumulative IPC: 0.694584 (Simulation time: 10 hr 12 min 22 sec) 
Heartbeat CPU 2 instructions: 4320000000 cycles: 5850410013 heartbeat IPC: 1.16515 cumulative IPC: 0.695292 (Simulation time: 10 hr 13 min 17 sec) 
Heartbeat CPU 2 instructions: 4330000001 cycles: 5859094717 heartbeat IPC: 1.15145 cumulative IPC: 0.695986 (Simulation time: 10 hr 14 min 12 sec) 
Heartbeat CPU 2 instructions: 4340000000 cycles: 5867861970 heartbeat IPC: 1.14061 cumulative IPC: 0.696667 (Simulation time: 10 hr 15 min 7 sec) 
Heartbeat CPU 1 instructions: 1420000000 cycles: 5875804294 heartbeat IPC: 0.207378 cumulative IPC: 0.213024 (Simulation time: 10 hr 15 min 58 sec) 
Heartbeat CPU 2 instructions: 4350000003 cycles: 5876256694 heartbeat IPC: 1.19122 cumulative IPC: 0.697392 (Simulation time: 10 hr 16 min 1 sec) 
Heartbeat CPU 0 instructions: 1450000003 cycles: 5882890314 heartbeat IPC: 0.194514 cumulative IPC: 0.199563 (Simulation time: 10 hr 16 min 43 sec) 
Heartbeat CPU 2 instructions: 4360000000 cycles: 5884698380 heartbeat IPC: 1.1846 cumulative IPC: 0.698109 (Simulation time: 10 hr 16 min 55 sec) 
Heartbeat CPU 3 instructions: 1220000000 cycles: 5886880757 heartbeat IPC: 0.142248 cumulative IPC: 0.171075 (Simulation time: 10 hr 17 min 9 sec) 
Heartbeat CPU 2 instructions: 4370000002 cycles: 5893047387 heartbeat IPC: 1.19775 cumulative IPC: 0.698835 (Simulation time: 10 hr 17 min 49 sec) 
Heartbeat CPU 2 instructions: 4380000000 cycles: 5901420580 heartbeat IPC: 1.19429 cumulative IPC: 0.699557 (Simulation time: 10 hr 18 min 43 sec) 
Heartbeat CPU 2 instructions: 4390000003 cycles: 5909785144 heartbeat IPC: 1.19552 cumulative IPC: 0.700277 (Simulation time: 10 hr 19 min 36 sec) 
Heartbeat CPU 2 instructions: 4400000000 cycles: 5918044675 heartbeat IPC: 1.21072 cumulative IPC: 0.701008 (Simulation time: 10 hr 20 min 29 sec) 
Heartbeat CPU 1 instructions: 1430000003 cycles: 5923573715 heartbeat IPC: 0.209339 cumulative IPC: 0.212994 (Simulation time: 10 hr 21 min 5 sec) 
Heartbeat CPU 2 instructions: 4410000001 cycles: 5926469047 heartbeat IPC: 1.18703 cumulative IPC: 0.701716 (Simulation time: 10 hr 21 min 23 sec) 
Heartbeat CPU 2 instructions: 4420000000 cycles: 5934945708 heartbeat IPC: 1.17971 cumulative IPC: 0.702416 (Simulation time: 10 hr 22 min 18 sec) 
Heartbeat CPU 0 instructions: 1460000000 cycles: 5939100990 heartbeat IPC: 0.177902 cumulative IPC: 0.199353 (Simulation time: 10 hr 22 min 44 sec) 
Heartbeat CPU 2 instructions: 4430000003 cycles: 5943309873 heartbeat IPC: 1.19558 cumulative IPC: 0.703128 (Simulation time: 10 hr 23 min 11 sec) 
Heartbeat CPU 2 instructions: 4440000000 cycles: 5951784394 heartbeat IPC: 1.18001 cumulative IPC: 0.703825 (Simulation time: 10 hr 24 min 6 sec) 
Heartbeat CPU 3 instructions: 1230000000 cycles: 5956987985 heartbeat IPC: 0.142639 cumulative IPC: 0.170731 (Simulation time: 10 hr 24 min 40 sec) 
Heartbeat CPU 2 instructions: 4450000002 cycles: 5960226642 heartbeat IPC: 1.18452 cumulative IPC: 0.704523 (Simulation time: 10 hr 25 min 1 sec) 
Heartbeat CPU 2 instructions: 4460000000 cycles: 5968553752 heartbeat IPC: 1.2009 cumulative IPC: 0.705233 (Simulation time: 10 hr 25 min 55 sec) 
Heartbeat CPU 1 instructions: 1440000000 cycles: 5971518601 heartbeat IPC: 0.208573 cumulative IPC: 0.212957 (Simulation time: 10 hr 26 min 14 sec) 
Heartbeat CPU 2 instructions: 4470000002 cycles: 5976964793 heartbeat IPC: 1.18891 cumulative IPC: 0.705931 (Simulation time: 10 hr 26 min 50 sec) 
Heartbeat CPU 2 instructions: 4480000000 cycles: 5985431117 heartbeat IPC: 1.18115 cumulative IPC: 0.706621 (Simulation time: 10 hr 27 min 44 sec) 
Heartbeat CPU 0 instructions: 1470000000 cycles: 5991922501 heartbeat IPC: 0.189317 cumulative IPC: 0.199262 (Simulation time: 10 hr 28 min 26 sec) 
Heartbeat CPU 2 instructions: 4490000001 cycles: 5993738168 heartbeat IPC: 1.2038 cumulative IPC: 0.707327 (Simulation time: 10 hr 28 min 38 sec) 
Heartbeat CPU 2 instructions: 4500000000 cycles: 6002054152 heartbeat IPC: 1.2025 cumulative IPC: 0.708031 (Simulation time: 10 hr 29 min 33 sec) 
Heartbeat CPU 2 instructions: 4510000002 cycles: 6010352907 heartbeat IPC: 1.205 cumulative IPC: 0.708734 (Simulation time: 10 hr 30 min 26 sec) 
Finished CPU 3 instructions: 1000000001 cycles: 5869212454 cumulative IPC: 0.170381 (Simulation time: 10 hr 31 min 15 sec) 

CPU 0 Branch Prediction Accuracy: 99.5322% MPKI: 1.50788

CPU 1 Branch Prediction Accuracy: 96.147% MPKI: 5.75541

CPU 2 Branch Prediction Accuracy: 99.4685% MPKI: 0.0384141

CPU 3 Branch Prediction Accuracy: 96.819% MPKI: 9.16046

ChampSim completed all CPUs

Total Simulation Statistics (not including warmup)

CPU 0 cumulative IPC: 0.199191 instructions: 1169093777 cycles: 5869212453
L1D TOTAL     ACCESS:  207686635  HIT:  123694112  MISS:   83992523
L1D LOAD      ACCESS:  189527769  HIT:  105588720  MISS:   83939049
L1D RFO       ACCESS:   18158866  HIT:   18105392  MISS:      53474
L1D PREFETCH  ACCESS:          0  HIT:          0  MISS:          0
L1D WRITEBACK ACCESS:          0  HIT:          0  MISS:          0
L1I TOTAL     ACCESS:  424853009  HIT:  424852971  MISS:         38
L1I LOAD      ACCESS:  424853009  HIT:  424852971  MISS:         38
L1I RFO       ACCESS:          0  HIT:          0  MISS:          0
L1I PREFETCH  ACCESS:          0  HIT:          0  MISS:          0
L1I WRITEBACK ACCESS:          0  HIT:          0  MISS:          0
L2C TOTAL     ACCESS:  142945214  HIT:   60387193  MISS:   82558021
L2C LOAD      ACCESS:   83939087  HIT:   59969565  MISS:   23969522
L2C RFO       ACCESS:      53474  HIT:       9304  MISS:      44170
L2C PREFETCH  ACCESS:   58635950  HIT:      91686  MISS:   58544264
L2C WRITEBACK ACCESS:     316703  HIT:     316638  MISS:         65

L2C Best-offset prefetcher final stats
LLC TOTAL     ACCESS:   82708727  HIT:     258145  MISS:   82450582
LLC LOAD      ACCESS:    8664386  HIT:      69474  MISS:    8594912
LLC RFO       ACCESS:      44170  HIT:       7717  MISS:      36453
LLC PREFETCH  ACCESS:   73851747  HIT:      33099  MISS:   73818648
LLC WRITEBACK ACCESS:     148424  HIT:     147855  MISS:        569

CPU 1 cumulative IPC: 0.212961 instructions: 1249911754 cycles: 5869212453
L1D TOTAL     ACCESS:  559737439  HIT:  534025716  MISS:   25711723
L1D LOAD      ACCESS:  333120939  HIT:  310538550  MISS:   22582389
L1D RFO       ACCESS:  226616500  HIT:  223487166  MISS:    3129334
L1D PREFETCH  ACCESS:          0  HIT:          0  MISS:          0
L1D WRITEBACK ACCESS:          0  HIT:          0  MISS:          0
L1I TOTAL     ACCESS:  437060623  HIT:  436225956  MISS:     834667
L1I LOAD      ACCESS:  437060623  HIT:  436225956  MISS:     834667
L1I RFO       ACCESS:          0  HIT:          0  MISS:          0
L1I PREFETCH  ACCESS:          0  HIT:          0  MISS:          0
L1I WRITEBACK ACCESS:          0  HIT:          0  MISS:          0
L2C TOTAL     ACCESS:   52938862  HIT:   24636087  MISS:   28302775
L2C LOAD      ACCESS:   23416134  HIT:    9282314  MISS:   14133820
L2C RFO       ACCESS:    3129154  HIT:    1223939  MISS:    1905215
L2C PREFETCH  ACCESS:   14215049  HIT:    2015630  MISS:   12199419
L2C WRITEBACK ACCESS:   12178525  HIT:   12114204  MISS:      64321

L2C Best-offset prefetcher final stats
LLC TOTAL     ACCESS:   37895944  HIT:   13364671  MISS:   24531273
LLC LOAD      ACCESS:   13809217  HIT:    2136452  MISS:   11672765
LLC RFO       ACCESS:    1798058  HIT:     273567  MISS:    1524491
LLC PREFETCH  ACCESS:   12631713  HIT:    1604708  MISS:   11027005
LLC WRITEBACK ACCESS:    9656956  HIT:    9349944  MISS:     307012

CPU 2 cumulative IPC: 0.709372 instructions: 4163454292 cycles: 5869212454
L1D TOTAL     ACCESS: 1471059794  HIT: 1396686014  MISS:   74373780
L1D LOAD      ACCESS: 1233133330  HIT: 1158759619  MISS:   74373711
L1D RFO       ACCESS:  237926464  HIT:  237926395  MISS:         69
L1D PREFETCH  ACCESS:          0  HIT:          0  MISS:          0
L1D WRITEBACK ACCESS:          0  HIT:          0  MISS:          0
L1I TOTAL     ACCESS:  978244811  HIT:  978244511  MISS:        300
L1I LOAD      ACCESS:  978244811  HIT:  978244511  MISS:        300
L1I RFO       ACCESS:          0  HIT:          0  MISS:          0
L1I PREFETCH  ACCESS:          0  HIT:          0  MISS:          0
L1I WRITEBACK ACCESS:          0  HIT:          0  MISS:          0
L2C TOTAL     ACCESS:  169176318  HIT:   76703642  MISS:   92472676
L2C LOAD      ACCESS:   74374010  HIT:   49409936  MISS:   24964074
L2C RFO       ACCESS:         69  HIT:         14  MISS:         55
L2C PREFETCH  ACCESS:   67798815  HIT:     299029  MISS:   67499786
L2C WRITEBACK ACCESS:   27003424  HIT:   26994663  MISS:       8761

L2C Best-offset prefetcher final stats
LLC TOTAL     ACCESS:  120422334  HIT:   30003268  MISS:   90419066
LLC LOAD      ACCESS:   24050154  HIT:    1711057  MISS:   22339097
LLC RFO       ACCESS:         55  HIT:         35  MISS:         20
LLC PREFETCH  ACCESS:   69446067  HIT:    1368781  MISS:   68077286
LLC WRITEBACK ACCESS:   26926058  HIT:   26923395  MISS:       2663

CPU 3 cumulative IPC: 0.170381 instructions: 1000000001 cycles: 5869212454
L1D TOTAL     ACCESS:  225584275  HIT:   68439305  MISS:  157144970
L1D LOAD      ACCESS:  209679549  HIT:   52851364  MISS:  156828185
L1D RFO       ACCESS:   15904726  HIT:   15587941  MISS:     316785
L1D PREFETCH  ACCESS:          0  HIT:          0  MISS:          0
L1D WRITEBACK ACCESS:          0  HIT:          0  MISS:          0
L1I TOTAL     ACCESS:  215002677  HIT:  215002677  MISS:          0
L1I LOAD      ACCESS:  215002677  HIT:  215002677  MISS:          0
L1I RFO       ACCESS:          0  HIT:          0  MISS:          0
L1I PREFETCH  ACCESS:          0  HIT:          0  MISS:          0
L1I WRITEBACK ACCESS:          0  HIT:          0  MISS:          0
L2C TOTAL     ACCESS:  258515211  HIT:   52457570  MISS:  206057641
L2C LOAD      ACCESS:  156827871  HIT:   47876329  MISS:  108951542
L2C RFO       ACCESS:     316784  HIT:       8114  MISS:     308670
L2C PREFETCH  ACCESS:   99095774  HIT:    2300697  MISS:   96795077
L2C WRITEBACK ACCESS:    2274782  HIT:    2272430  MISS:       2352

L2C Best-offset prefetcher final stats
LLC TOTAL     ACCESS:  217865446  HIT:  131811798  MISS:   86053648
LLC LOAD      ACCESS:  108039517  HIT:   77337844  MISS:   30701673
LLC RFO       ACCESS:     308669  HIT:     274856  MISS:      33813
LLC PREFETCH  ACCESS:  107340538  HIT:   52022378  MISS:   55318160
LLC WRITEBACK ACCESS:    2176722  HIT:    2176720  MISS:          2

Region of Interest Statistics

CPU 0 cumulative IPC: 0.19927 instructions: 1000000000 cycles: 5018316977
L1D TOTAL     ACCESS:  177764343  HIT:  106024014  MISS:   71740329
L1D LOAD      ACCESS:  162083967  HIT:   90392479  MISS:   71691488
L1D RFO       ACCESS:   15680376  HIT:   15631535  MISS:      48841
L1D PREFETCH  ACCESS:          0  HIT:          0  MISS:          0
L1D WRITEBACK ACCESS:          0  HIT:          0  MISS:          0
L1D PREFETCH  REQUESTED:          0  ISSUED:          0  USEFUL:          0  USELESS:          0
L1I TOTAL     ACCESS:  363310720  HIT:  363310682  MISS:         38
L1I LOAD      ACCESS:  363310720  HIT:  363310682  MISS:         38
L1I RFO       ACCESS:          0  HIT:          0  MISS:          0
L1I PREFETCH  ACCESS:          0  HIT:          0  MISS:          0
L1I WRITEBACK ACCESS:          0  HIT:          0  MISS:          0
L1I PREFETCH  REQUESTED:          0  ISSUED:          0  USEFUL:          0  USELESS:          0
L2C TOTAL     ACCESS:  122073721  HIT:   51550548  MISS:   70523173
L2C LOAD      ACCESS:   71691526  HIT:   51187742  MISS:   20503784
L2C RFO       ACCESS:      48841  HIT:       8714  MISS:      40127
L2C PREFETCH  ACCESS:   50059693  HIT:      80495  MISS:   49979198
L2C WRITEBACK ACCESS:     273661  HIT:     273597  MISS:         64
L2C PREFETCH  REQUESTED:   93964136  ISSUED:   93964136  USEFUL:   76789538  USELESS:    1682916
LLC TOTAL     ACCESS:   70654730  HIT:     226590  MISS:   70428140
LLC LOAD      ACCESS:    7415356  HIT:      60103  MISS:    7355253
LLC RFO       ACCESS:      40127  HIT:       7620  MISS:      32507
LLC PREFETCH  ACCESS:   63069787  HIT:      29956  MISS:   63039831
LLC WRITEBACK ACCESS:     129460  HIT:     128911  MISS:        549
LLC PREFETCH  REQUESTED:          0  ISSUED:          0  USEFUL:    4962224  USELESS:  246615221
Major fault: 0 Minor fault: 56943

CPU 1 cumulative IPC: 0.212883 instructions: 1000000000 cycles: 4697424410
L1D TOTAL     ACCESS:  447754570  HIT:  427157025  MISS:   20597545
L1D LOAD      ACCESS:  266563033  HIT:  248470482  MISS:   18092551
L1D RFO       ACCESS:  181191537  HIT:  178686543  MISS:    2504994
L1D PREFETCH  ACCESS:          0  HIT:          0  MISS:          0
L1D WRITEBACK ACCESS:          0  HIT:          0  MISS:          0
L1D PREFETCH  REQUESTED:          0  ISSUED:          0  USEFUL:          0  USELESS:          0
L1I TOTAL     ACCESS:  349706251  HIT:  349053414  MISS:     652837
L1I LOAD      ACCESS:  349706251  HIT:  349053414  MISS:     652837
L1I RFO       ACCESS:          0  HIT:          0  MISS:          0
L1I PREFETCH  ACCESS:          0  HIT:          0  MISS:          0
L1I WRITEBACK ACCESS:          0  HIT:          0  MISS:          0
L1I PREFETCH  REQUESTED:          0  ISSUED:          0  USEFUL:          0  USELESS:          0
L2C TOTAL     ACCESS:   42418877  HIT:   19713932  MISS:   22704945
L2C LOAD      ACCESS:   18744644  HIT:    7408032  MISS:   11336612
L2C RFO       ACCESS:    2504852  HIT:     973333  MISS:    1531519
L2C PREFETCH  ACCESS:   11400734  HIT:    1615378  MISS:    9785356
L2C WRITEBACK ACCESS:    9768647  HIT:    9717189  MISS:      51458
L2C PREFETCH  REQUESTED:   19615985  ISSUED:   19615985  USEFUL:    4333619  USELESS:    9960196
LLC TOTAL     ACCESS:   30413907  HIT:   10703909  MISS:   19709998
LLC LOAD      ACCESS:   11077868  HIT:    1709183  MISS:    9368685
LLC RFO       ACCESS:    1445744  HIT:     188998  MISS:    1256746
LLC PREFETCH  ACCESS:   10130277  HIT:    1285945  MISS:    8844332
LLC WRITEBACK ACCESS:    7760018  HIT:    7519783  MISS:     240235
LLC PREFETCH  REQUESTED:          0  ISSUED:          0  USEFUL:    4962224  USELESS:  246615221
Major fault: 0 Minor fault: 55644

CPU 2 cumulative IPC: 1.1975 instructions: 1000000000 cycles: 835071046
L1D TOTAL     ACCESS:  282807745  HIT:  265976460  MISS:   16831285
L1D LOAD      ACCESS:  233635623  HIT:  216804338  MISS:   16831285
L1D RFO       ACCESS:   49172122  HIT:   49172122  MISS:          0
L1D PREFETCH  ACCESS:          0  HIT:          0  MISS:          0
L1D WRITEBACK ACCESS:          0  HIT:          0  MISS:          0
L1D PREFETCH  REQUESTED:          0  ISSUED:          0  USEFUL:          0  USELESS:          0
L1I TOTAL     ACCESS:  212358220  HIT:  212358220  MISS:          0
L1I LOAD      ACCESS:  212358220  HIT:  212358220  MISS:          0
L1I RFO       ACCESS:          0  HIT:          0  MISS:          0
L1I PREFETCH  ACCESS:          0  HIT:          0  MISS:          0
L1I WRITEBACK ACCESS:          0  HIT:          0  MISS:          0
L1I PREFETCH  REQUESTED:          0  ISSUED:          0  USEFUL:          0  USELESS:          0
L2C TOTAL     ACCESS:   37468796  HIT:   20425554  MISS:   17043242
L2C LOAD      ACCESS:   16831284  HIT:   15102061  MISS:    1729223
L2C RFO       ACCESS:          0  HIT:          0  MISS:          0
L2C PREFETCH  ACCESS:   15416018  HIT:     104562  MISS:   15311456
L2C WRITEBACK ACCESS:    5221494  HIT:    5218931  MISS:       2563
L2C PREFETCH  REQUESTED:   75503593  ISSUED:   75503593  USEFUL:   53637972  USELESS:   19587726
LLC TOTAL     ACCESS:   22376580  HIT:    5332894  MISS:   17043686
LLC LOAD      ACCESS:    1428598  HIT:     136470  MISS:    1292128
LLC RFO       ACCESS:          0  HIT:          0  MISS:          0
LLC PREFETCH  ACCESS:   15753119  HIT:       2517  MISS:   15750602
LLC WRITEBACK ACCESS:    5194863  HIT:    5193907  MISS:        956
LLC PREFETCH  REQUESTED:          0  ISSUED:          0  USEFUL:    4962224  USELESS:  246615221
Major fault: 0 Minor fault: 876298

CPU 3 cumulative IPC: 0.170381 instructions: 1000000001 cycles: 5869212454
L1D TOTAL     ACCESS:  225584275  HIT:   68439305  MISS:  157144970
L1D LOAD      ACCESS:  209679549  HIT:   52851364  MISS:  156828185
L1D RFO       ACCESS:   15904726  HIT:   15587941  MISS:     316785
L1D PREFETCH  ACCESS:          0  HIT:          0  MISS:          0
L1D WRITEBACK ACCESS:          0  HIT:          0  MISS:          0
L1D PREFETCH  REQUESTED:          0  ISSUED:          0  USEFUL:          0  USELESS:          0
L1I TOTAL     ACCESS:  215002677  HIT:  215002677  MISS:          0
L1I LOAD      ACCESS:  215002677  HIT:  215002677  MISS:          0
L1I RFO       ACCESS:          0  HIT:          0  MISS:          0
L1I PREFETCH  ACCESS:          0  HIT:          0  MISS:          0
L1I WRITEBACK ACCESS:          0  HIT:          0  MISS:          0
L1I PREFETCH  REQUESTED:          0  ISSUED:          0  USEFUL:          0  USELESS:          0
L2C TOTAL     ACCESS:  258515211  HIT:   52457570  MISS:  206057641
L2C LOAD      ACCESS:  156827871  HIT:   47876329  MISS:  108951542
L2C RFO       ACCESS:     316784  HIT:       8114  MISS:     308670
L2C PREFETCH  ACCESS:   99095774  HIT:    2300697  MISS:   96795077
L2C WRITEBACK ACCESS:    2274782  HIT:    2272430  MISS:       2352
L2C PREFETCH  REQUESTED:  139900939  ISSUED:  139900939  USEFUL:   52836425  USELESS:   73125724
LLC TOTAL     ACCESS:  217865446  HIT:  131811798  MISS:   86053648
LLC LOAD      ACCESS:  108039517  HIT:   77337844  MISS:   30701673
LLC RFO       ACCESS:     308669  HIT:     274856  MISS:      33813
LLC PREFETCH  ACCESS:  107340538  HIT:   52022378  MISS:   55318160
LLC WRITEBACK ACCESS:    2176722  HIT:    2176720  MISS:          2
LLC PREFETCH  REQUESTED:          0  ISSUED:          0  USEFUL:    4962224  USELESS:  246615221
Major fault: 0 Minor fault: 443600

L2C Best-offset prefetcher final stats

L2C Best-offset prefetcher final stats

L2C Best-offset prefetcher final stats

L2C Best-offset prefetcher final stats

DRAM Statistics
 CHANNEL 0
 RQ ROW_BUFFER_HIT:   66680960  ROW_BUFFER_MISS:   74606828
 DBUS_CONGESTED:  175025719
 WQ ROW_BUFFER_HIT:    1118302  ROW_BUFFER_MISS:   16925279  FULL:          0

 CHANNEL 1
 RQ ROW_BUFFER_HIT:   66814150  ROW_BUFFER_MISS:   75030831
 DBUS_CONGESTED:  175025719
 WQ ROW_BUFFER_HIT:    1117728  ROW_BUFFER_MISS:   16922880  FULL:          0

 AVG_CONGESTED_CYCLE: 12
