
*** ChampSim Multicore Out-of-Order Simulator ***

Warmup Instructions: 200000000
Simulation Instructions: 1000000000
Number of CPUs: 4
LLC sets: 8192
LLC ways: 16
Off-chip DRAM Size: 8192 MB Channels: 2 Width: 64-bit Data Rate: 1600 MT/s

CPU 0 runs /scratch/user/djimenez/champsim-traces/speccpu2017/xz/649.fotonik3d_s/649.fotonik3d_s-8225B.champsimtrace.xz
CPU 1 runs /scratch/user/djimenez/champsim-traces/speccpu2017/xz/602.gcc_s/602.gcc_s-2375B.champsimtrace.xz
CPU 2 runs /scratch/user/djimenez/champsim-traces/speccpu2017/xz/620.omnetpp_s/620.omnetpp_s-874B.champsimtrace.xz
CPU 3 runs /scratch/user/djimenez/champsim-traces/speccpu2017/xz/603.bwaves_s/603.bwaves_s-2609B.champsimtrace.xz
L2C Best-offset prefetcher
L2C Best-offset prefetcher
L2C Best-offset prefetcher
L2C Best-offset prefetcher
Heartbeat CPU 0 instructions: 10000001 cycles: 4399651 heartbeat IPC: 2.27291 cumulative IPC: 2.27291 (Simulation time: 0 hr 3 min 4 sec) 
Heartbeat CPU 3 instructions: 10000001 cycles: 5273801 heartbeat IPC: 1.89617 cumulative IPC: 1.89617 (Simulation time: 0 hr 3 min 42 sec) 
Heartbeat CPU 1 instructions: 10000002 cycles: 6787598 heartbeat IPC: 1.47328 cumulative IPC: 1.47328 (Simulation time: 0 hr 4 min 48 sec) 
Heartbeat CPU 2 instructions: 10000000 cycles: 7370820 heartbeat IPC: 1.3567 cumulative IPC: 1.3567 (Simulation time: 0 hr 5 min 13 sec) 
Heartbeat CPU 0 instructions: 20000000 cycles: 8800391 heartbeat IPC: 2.27234 cumulative IPC: 2.27263 (Simulation time: 0 hr 6 min 17 sec) 
Heartbeat CPU 3 instructions: 20000000 cycles: 10549162 heartbeat IPC: 1.8956 cumulative IPC: 1.89589 (Simulation time: 0 hr 7 min 36 sec) 
Heartbeat CPU 0 instructions: 30000003 cycles: 13200231 heartbeat IPC: 2.27281 cumulative IPC: 2.27269 (Simulation time: 0 hr 9 min 33 sec) 
Heartbeat CPU 1 instructions: 20000000 cycles: 13332271 heartbeat IPC: 1.52796 cumulative IPC: 1.50012 (Simulation time: 0 hr 9 min 38 sec) 
Heartbeat CPU 2 instructions: 20000000 cycles: 14724254 heartbeat IPC: 1.35991 cumulative IPC: 1.3583 (Simulation time: 0 hr 10 min 34 sec) 
Heartbeat CPU 3 instructions: 30000000 cycles: 15820922 heartbeat IPC: 1.8969 cumulative IPC: 1.89622 (Simulation time: 0 hr 11 min 21 sec) 
Heartbeat CPU 0 instructions: 40000000 cycles: 17600007 heartbeat IPC: 2.27284 cumulative IPC: 2.27273 (Simulation time: 0 hr 12 min 39 sec) 
Heartbeat CPU 1 instructions: 30000001 cycles: 20189922 heartbeat IPC: 1.45823 cumulative IPC: 1.48589 (Simulation time: 0 hr 14 min 34 sec) 
Heartbeat CPU 3 instructions: 40000000 cycles: 21094802 heartbeat IPC: 1.89614 cumulative IPC: 1.8962 (Simulation time: 0 hr 15 min 15 sec) 
Heartbeat CPU 0 instructions: 50000002 cycles: 22004888 heartbeat IPC: 2.27021 cumulative IPC: 2.27222 (Simulation time: 0 hr 15 min 56 sec) 
Heartbeat CPU 2 instructions: 30000001 cycles: 22079046 heartbeat IPC: 1.35966 cumulative IPC: 1.35875 (Simulation time: 0 hr 15 min 59 sec) 
Heartbeat CPU 1 instructions: 40000000 cycles: 26356933 heartbeat IPC: 1.62153 cumulative IPC: 1.51763 (Simulation time: 0 hr 19 min 2 sec) 
Heartbeat CPU 3 instructions: 50000002 cycles: 26371627 heartbeat IPC: 1.89508 cumulative IPC: 1.89598 (Simulation time: 0 hr 19 min 3 sec) 
Heartbeat CPU 0 instructions: 60000000 cycles: 26411865 heartbeat IPC: 2.26913 cumulative IPC: 2.27171 (Simulation time: 0 hr 19 min 4 sec) 
Heartbeat CPU 2 instructions: 40000000 cycles: 29443616 heartbeat IPC: 1.35785 cumulative IPC: 1.35853 (Simulation time: 0 hr 21 min 21 sec) 
Heartbeat CPU 0 instructions: 70000001 cycles: 30815093 heartbeat IPC: 2.27106 cumulative IPC: 2.27161 (Simulation time: 0 hr 22 min 25 sec) 
Heartbeat CPU 3 instructions: 60000000 cycles: 31644884 heartbeat IPC: 1.89636 cumulative IPC: 1.89604 (Simulation time: 0 hr 23 min 1 sec) 
Heartbeat CPU 1 instructions: 50000001 cycles: 32229938 heartbeat IPC: 1.70271 cumulative IPC: 1.55135 (Simulation time: 0 hr 23 min 26 sec) 
Heartbeat CPU 0 instructions: 80000000 cycles: 35216960 heartbeat IPC: 2.27176 cumulative IPC: 2.27163 (Simulation time: 0 hr 25 min 37 sec) 
Heartbeat CPU 2 instructions: 50000000 cycles: 36807709 heartbeat IPC: 1.35794 cumulative IPC: 1.35841 (Simulation time: 0 hr 27 min 4 sec) 
Heartbeat CPU 3 instructions: 70000000 cycles: 36919843 heartbeat IPC: 1.89575 cumulative IPC: 1.896 (Simulation time: 0 hr 27 min 9 sec) 
Heartbeat CPU 1 instructions: 60000000 cycles: 37905401 heartbeat IPC: 1.76197 cumulative IPC: 1.58289 (Simulation time: 0 hr 27 min 58 sec) 
Heartbeat CPU 0 instructions: 90000002 cycles: 39616734 heartbeat IPC: 2.27284 cumulative IPC: 2.27177 (Simulation time: 0 hr 29 min 29 sec) 
Heartbeat CPU 3 instructions: 80000000 cycles: 42194390 heartbeat IPC: 1.8959 cumulative IPC: 1.89599 (Simulation time: 0 hr 31 min 31 sec) 
Heartbeat CPU 0 instructions: 100000000 cycles: 44018471 heartbeat IPC: 2.27183 cumulative IPC: 2.27177 (Simulation time: 0 hr 32 min 50 sec) 
Heartbeat CPU 2 instructions: 60000000 cycles: 44179163 heartbeat IPC: 1.35658 cumulative IPC: 1.35811 (Simulation time: 0 hr 32 min 57 sec) 
Heartbeat CPU 1 instructions: 70000001 cycles: 44518098 heartbeat IPC: 1.51224 cumulative IPC: 1.57239 (Simulation time: 0 hr 33 min 13 sec) 
Heartbeat CPU 3 instructions: 90000002 cycles: 47467356 heartbeat IPC: 1.89647 cumulative IPC: 1.89604 (Simulation time: 0 hr 35 min 21 sec) 
Heartbeat CPU 0 instructions: 110000000 cycles: 48418805 heartbeat IPC: 2.27255 cumulative IPC: 2.27184 (Simulation time: 0 hr 36 min 1 sec) 
Heartbeat CPU 1 instructions: 80000000 cycles: 50304336 heartbeat IPC: 1.72824 cumulative IPC: 1.59032 (Simulation time: 0 hr 37 min 23 sec) 
Heartbeat CPU 2 instructions: 70000000 cycles: 51539030 heartbeat IPC: 1.35872 cumulative IPC: 1.35819 (Simulation time: 0 hr 38 min 15 sec) 
Heartbeat CPU 3 instructions: 100000000 cycles: 52741781 heartbeat IPC: 1.89594 cumulative IPC: 1.89603 (Simulation time: 0 hr 39 min 5 sec) 
Heartbeat CPU 0 instructions: 120000000 cycles: 52820355 heartbeat IPC: 2.27193 cumulative IPC: 2.27185 (Simulation time: 0 hr 39 min 8 sec) 
Heartbeat CPU 1 instructions: 90000003 cycles: 55897366 heartbeat IPC: 1.78794 cumulative IPC: 1.61009 (Simulation time: 0 hr 41 min 12 sec) 
Heartbeat CPU 0 instructions: 130000002 cycles: 57221055 heartbeat IPC: 2.27237 cumulative IPC: 2.27189 (Simulation time: 0 hr 42 min 2 sec) 
Heartbeat CPU 3 instructions: 110000002 cycles: 58017446 heartbeat IPC: 1.8955 cumulative IPC: 1.89598 (Simulation time: 0 hr 42 min 32 sec) 
Heartbeat CPU 2 instructions: 80000000 cycles: 58893027 heartbeat IPC: 1.3598 cumulative IPC: 1.3584 (Simulation time: 0 hr 43 min 6 sec) 
Heartbeat CPU 0 instructions: 140000000 cycles: 61621042 heartbeat IPC: 2.27273 cumulative IPC: 2.27195 (Simulation time: 0 hr 44 min 59 sec) 
Heartbeat CPU 1 instructions: 100000000 cycles: 62311322 heartbeat IPC: 1.5591 cumulative IPC: 1.60484 (Simulation time: 0 hr 45 min 29 sec) 
Heartbeat CPU 3 instructions: 120000000 cycles: 63291197 heartbeat IPC: 1.89618 cumulative IPC: 1.896 (Simulation time: 0 hr 46 min 9 sec) 
Heartbeat CPU 0 instructions: 150000000 cycles: 66021102 heartbeat IPC: 2.2727 cumulative IPC: 2.272 (Simulation time: 0 hr 48 min 4 sec) 
Heartbeat CPU 2 instructions: 90000000 cycles: 66249395 heartbeat IPC: 1.35937 cumulative IPC: 1.3585 (Simulation time: 0 hr 48 min 14 sec) 
Heartbeat CPU 3 instructions: 130000002 cycles: 68566605 heartbeat IPC: 1.89559 cumulative IPC: 1.89597 (Simulation time: 0 hr 49 min 51 sec) 
Heartbeat CPU 1 instructions: 110000003 cycles: 68801579 heartbeat IPC: 1.54077 cumulative IPC: 1.5988 (Simulation time: 0 hr 50 min 1 sec) 
Heartbeat CPU 0 instructions: 160000000 cycles: 70421601 heartbeat IPC: 2.27247 cumulative IPC: 2.27203 (Simulation time: 0 hr 51 min 14 sec) 
Heartbeat CPU 2 instructions: 100000000 cycles: 73626018 heartbeat IPC: 1.35563 cumulative IPC: 1.35822 (Simulation time: 0 hr 53 min 21 sec) 
Heartbeat CPU 3 instructions: 140000000 cycles: 73840586 heartbeat IPC: 1.8961 cumulative IPC: 1.89598 (Simulation time: 0 hr 53 min 29 sec) 
Heartbeat CPU 0 instructions: 170000002 cycles: 74822861 heartbeat IPC: 2.27208 cumulative IPC: 2.27203 (Simulation time: 0 hr 54 min 7 sec) 
Heartbeat CPU 1 instructions: 120000000 cycles: 75551155 heartbeat IPC: 1.48157 cumulative IPC: 1.58833 (Simulation time: 0 hr 54 min 35 sec) 
Heartbeat CPU 3 instructions: 150000002 cycles: 79114573 heartbeat IPC: 1.8961 cumulative IPC: 1.89598 (Simulation time: 0 hr 56 min 54 sec) 
Heartbeat CPU 0 instructions: 180000000 cycles: 79223853 heartbeat IPC: 2.27221 cumulative IPC: 2.27204 (Simulation time: 0 hr 56 min 58 sec) 
Heartbeat CPU 2 instructions: 110000003 cycles: 80965885 heartbeat IPC: 1.36242 cumulative IPC: 1.3586 (Simulation time: 0 hr 58 min 5 sec) 
Heartbeat CPU 1 instructions: 130000002 cycles: 81678969 heartbeat IPC: 1.6319 cumulative IPC: 1.5916 (Simulation time: 0 hr 58 min 33 sec) 
Heartbeat CPU 0 instructions: 190000000 cycles: 83626425 heartbeat IPC: 2.2714 cumulative IPC: 2.27201 (Simulation time: 0 hr 59 min 49 sec) 
Heartbeat CPU 3 instructions: 160000000 cycles: 84388518 heartbeat IPC: 1.89611 cumulative IPC: 1.89599 (Simulation time: 1 hr 0 min 19 sec) 
Heartbeat CPU 0 instructions: 200000000 cycles: 88029345 heartbeat IPC: 2.27122 cumulative IPC: 2.27197 (Simulation time: 1 hr 2 min 50 sec) 
Heartbeat CPU 1 instructions: 140000000 cycles: 88228993 heartbeat IPC: 1.52671 cumulative IPC: 1.58678 (Simulation time: 1 hr 2 min 58 sec) 
Heartbeat CPU 2 instructions: 120000000 cycles: 88326107 heartbeat IPC: 1.35865 cumulative IPC: 1.3586 (Simulation time: 1 hr 3 min 2 sec) 
Heartbeat CPU 3 instructions: 170000002 cycles: 89662739 heartbeat IPC: 1.89601 cumulative IPC: 1.89599 (Simulation time: 1 hr 3 min 58 sec) 
Heartbeat CPU 0 instructions: 210000002 cycles: 92429726 heartbeat IPC: 2.27253 cumulative IPC: 0.10819 (Simulation time: 1 hr 5 min 56 sec) 
Heartbeat CPU 1 instructions: 150000000 cycles: 94767614 heartbeat IPC: 1.52937 cumulative IPC: 1.58282 (Simulation time: 1 hr 7 min 36 sec) 
Heartbeat CPU 3 instructions: 180000000 cycles: 94936983 heartbeat IPC: 1.89601 cumulative IPC: 1.89599 (Simulation time: 1 hr 7 min 43 sec) 
Heartbeat CPU 2 instructions: 130000000 cycles: 95669165 heartbeat IPC: 1.36183 cumulative IPC: 1.35885 (Simulation time: 1 hr 8 min 14 sec) 
Heartbeat CPU 0 instructions: 220000000 cycles: 96829086 heartbeat IPC: 2.27306 cumulative IPC: 0.20655 (Simulation time: 1 hr 9 min 4 sec) 
Heartbeat CPU 3 instructions: 190000000 cycles: 100211917 heartbeat IPC: 1.89576 cumulative IPC: 1.89598 (Simulation time: 1 hr 11 min 24 sec) 
Heartbeat CPU 1 instructions: 160000000 cycles: 100507854 heartbeat IPC: 1.74209 cumulative IPC: 1.59192 (Simulation time: 1 hr 11 min 36 sec) 
Heartbeat CPU 0 instructions: 230000001 cycles: 101230159 heartbeat IPC: 2.27217 cumulative IPC: 0.296354 (Simulation time: 1 hr 12 min 3 sec) 
Heartbeat CPU 2 instructions: 140000000 cycles: 103037539 heartbeat IPC: 1.35715 cumulative IPC: 1.35873 (Simulation time: 1 hr 13 min 18 sec) 
Heartbeat CPU 3 instructions: 200000000 cycles: 105486151 heartbeat IPC: 1.89601 cumulative IPC: 1.89598 (Simulation time: 1 hr 14 min 58 sec) 
Heartbeat CPU 0 instructions: 240000000 cycles: 105630822 heartbeat IPC: 2.27238 cumulative IPC: 0.378677 (Simulation time: 1 hr 15 min 4 sec) 
Heartbeat CPU 1 instructions: 170000000 cycles: 107390976 heartbeat IPC: 1.45283 cumulative IPC: 1.583 (Simulation time: 1 hr 16 min 18 sec) 
Heartbeat CPU 0 instructions: 250000000 cycles: 110033305 heartbeat IPC: 2.27145 cumulative IPC: 0.454408 (Simulation time: 1 hr 18 min 1 sec) 
Heartbeat CPU 2 instructions: 150000001 cycles: 110413697 heartbeat IPC: 1.35572 cumulative IPC: 1.35853 (Simulation time: 1 hr 18 min 17 sec) 
Heartbeat CPU 3 instructions: 210000001 cycles: 110759749 heartbeat IPC: 1.89624 cumulative IPC: 0.0902855 (Simulation time: 1 hr 18 min 31 sec) 
Heartbeat CPU 1 instructions: 180000000 cycles: 113613130 heartbeat IPC: 1.60716 cumulative IPC: 1.58432 (Simulation time: 1 hr 20 min 28 sec) 
Heartbeat CPU 0 instructions: 260000000 cycles: 114433904 heartbeat IPC: 2.27242 cumulative IPC: 0.52432 (Simulation time: 1 hr 21 min 2 sec) 
Heartbeat CPU 3 instructions: 220000000 cycles: 116032282 heartbeat IPC: 1.89662 cumulative IPC: 0.172366 (Simulation time: 1 hr 22 min 9 sec) 
Heartbeat CPU 2 instructions: 160000000 cycles: 117794340 heartbeat IPC: 1.3549 cumulative IPC: 1.3583 (Simulation time: 1 hr 23 min 24 sec) 
Heartbeat CPU 0 instructions: 270000001 cycles: 118833938 heartbeat IPC: 2.27271 cumulative IPC: 0.589057 (Simulation time: 1 hr 24 min 10 sec) 
Heartbeat CPU 1 instructions: 190000001 cycles: 120533500 heartbeat IPC: 1.44501 cumulative IPC: 1.57633 (Simulation time: 1 hr 25 min 22 sec) 
Heartbeat CPU 3 instructions: 230000001 cycles: 121308208 heartbeat IPC: 1.8954 cumulative IPC: 0.247304 (Simulation time: 1 hr 25 min 56 sec) 
Heartbeat CPU 0 instructions: 280000000 cycles: 123234265 heartbeat IPC: 2.27256 cumulative IPC: 0.64917 (Simulation time: 1 hr 27 min 18 sec) 
Heartbeat CPU 2 instructions: 170000003 cycles: 125152753 heartbeat IPC: 1.35899 cumulative IPC: 1.35834 (Simulation time: 1 hr 28 min 41 sec) 
Heartbeat CPU 3 instructions: 240000000 cycles: 126583073 heartbeat IPC: 1.89578 cumulative IPC: 0.315998 (Simulation time: 1 hr 29 min 42 sec) 
Heartbeat CPU 1 instructions: 200000000 cycles: 127293936 heartbeat IPC: 1.47919 cumulative IPC: 1.57117 (Simulation time: 1 hr 30 min 13 sec) 
Heartbeat CPU 0 instructions: 290000003 cycles: 127636332 heartbeat IPC: 2.27166 cumulative IPC: 0.705128 (Simulation time: 1 hr 30 min 28 sec) 
Heartbeat CPU 3 instructions: 250000000 cycles: 131857339 heartbeat IPC: 1.896 cumulative IPC: 0.379198 (Simulation time: 1 hr 33 min 23 sec) 
Heartbeat CPU 0 instructions: 300000000 cycles: 132038095 heartbeat IPC: 2.27182 cumulative IPC: 0.757357 (Simulation time: 1 hr 33 min 31 sec) 
Heartbeat CPU 2 instructions: 180000000 cycles: 132520997 heartbeat IPC: 1.35718 cumulative IPC: 1.35828 (Simulation time: 1 hr 33 min 51 sec) 
Heartbeat CPU 1 instructions: 210000000 cycles: 133898247 heartbeat IPC: 1.51416 cumulative IPC: 0.0746836 (Simulation time: 1 hr 34 min 49 sec) 
Heartbeat CPU 0 instructions: 310000001 cycles: 136439009 heartbeat IPC: 2.27226 cumulative IPC: 0.806221 (Simulation time: 1 hr 36 min 36 sec) 
Heartbeat CPU 3 instructions: 260000000 cycles: 137132226 heartbeat IPC: 1.89578 cumulative IPC: 0.437534 (Simulation time: 1 hr 37 min 5 sec) 
Heartbeat CPU 2 instructions: 190000002 cycles: 139874167 heartbeat IPC: 1.35996 cumulative IPC: 1.35836 (Simulation time: 1 hr 39 min 1 sec) 
Heartbeat CPU 1 instructions: 220000000 cycles: 140509254 heartbeat IPC: 1.51263 cumulative IPC: 0.142339 (Simulation time: 1 hr 39 min 28 sec) 
Heartbeat CPU 0 instructions: 320000000 cycles: 140839232 heartbeat IPC: 2.27261 cumulative IPC: 0.852035 (Simulation time: 1 hr 39 min 42 sec) 
Heartbeat CPU 3 instructions: 270000003 cycles: 142405281 heartbeat IPC: 1.89643 cumulative IPC: 0.491555 (Simulation time: 1 hr 41 min 5 sec) 
Heartbeat CPU 0 instructions: 330000003 cycles: 145239564 heartbeat IPC: 2.27256 cumulative IPC: 0.895073 (Simulation time: 1 hr 43 min 26 sec) 
Heartbeat CPU 2 instructions: 200000000 cycles: 147230458 heartbeat IPC: 1.35938 cumulative IPC: 1.35841 (Simulation time: 1 hr 44 min 58 sec) 

Warmup complete CPU 0 instructions: 334523817 cycles: 147230460 (Simulation time: 1 hr 44 min 58 sec) 
Warmup complete CPU 1 instructions: 229955775 cycles: 147230460 (Simulation time: 1 hr 44 min 58 sec) 
Warmup complete CPU 2 instructions: 200000001 cycles: 147230460 (Simulation time: 1 hr 44 min 58 sec) 
Warmup complete CPU 3 instructions: 279149333 cycles: 147230459 (Simulation time: 1 hr 44 min 58 sec) 

Heartbeat CPU 1 instructions: 230000003 cycles: 147364208 heartbeat IPC: 1.4588 cumulative IPC: 0.330682 (Simulation time: 1 hr 45 min 1 sec) 
Heartbeat CPU 3 instructions: 280000000 cycles: 148021556 heartbeat IPC: 1.78054 cumulative IPC: 1.0753 (Simulation time: 1 hr 45 min 15 sec) 
Heartbeat CPU 0 instructions: 340000000 cycles: 153165351 heartbeat IPC: 1.2617 cumulative IPC: 0.92271 (Simulation time: 1 hr 47 min 17 sec) 
Heartbeat CPU 3 instructions: 290000003 cycles: 157491814 heartbeat IPC: 1.05594 cumulative IPC: 1.05743 (Simulation time: 1 hr 48 min 49 sec) 
Heartbeat CPU 0 instructions: 350000000 cycles: 164145521 heartbeat IPC: 0.910733 cumulative IPC: 0.914935 (Simulation time: 1 hr 51 min 4 sec) 
Heartbeat CPU 3 instructions: 300000000 cycles: 167037804 heartbeat IPC: 1.04756 cumulative IPC: 1.05267 (Simulation time: 1 hr 52 min 9 sec) 
Heartbeat CPU 3 instructions: 310000001 cycles: 176450952 heartbeat IPC: 1.06234 cumulative IPC: 1.05579 (Simulation time: 1 hr 55 min 42 sec) 
Heartbeat CPU 1 instructions: 240000000 cycles: 177872704 heartbeat IPC: 0.327777 cumulative IPC: 0.32779 (Simulation time: 1 hr 56 min 10 sec) 
Heartbeat CPU 0 instructions: 360000000 cycles: 178008771 heartbeat IPC: 0.721332 cumulative IPC: 0.827732 (Simulation time: 1 hr 56 min 13 sec) 
Heartbeat CPU 3 instructions: 320000000 cycles: 185615634 heartbeat IPC: 1.09115 cumulative IPC: 1.06423 (Simulation time: 1 hr 58 min 51 sec) 
Heartbeat CPU 2 instructions: 210000003 cycles: 191526229 heartbeat IPC: 0.225755 cumulative IPC: 0.225755 (Simulation time: 2 hr 0 min 57 sec) 
Heartbeat CPU 0 instructions: 370000001 cycles: 191870835 heartbeat IPC: 0.721393 cumulative IPC: 0.794711 (Simulation time: 2 hr 1 min 4 sec) 
Heartbeat CPU 3 instructions: 330000002 cycles: 194697882 heartbeat IPC: 1.10105 cumulative IPC: 1.07128 (Simulation time: 2 hr 2 min 1 sec) 
Heartbeat CPU 3 instructions: 340000000 cycles: 203827754 heartbeat IPC: 1.09531 cumulative IPC: 1.07515 (Simulation time: 2 hr 4 min 54 sec) 
Heartbeat CPU 0 instructions: 380000000 cycles: 205677639 heartbeat IPC: 0.724281 cumulative IPC: 0.778073 (Simulation time: 2 hr 5 min 30 sec) 
Heartbeat CPU 1 instructions: 250000001 cycles: 206951383 heartbeat IPC: 0.343895 cumulative IPC: 0.335632 (Simulation time: 2 hr 5 min 55 sec) 
Heartbeat CPU 3 instructions: 350000000 cycles: 212935837 heartbeat IPC: 1.09793 cumulative IPC: 1.07831 (Simulation time: 2 hr 7 min 46 sec) 
Heartbeat CPU 0 instructions: 390000003 cycles: 219609912 heartbeat IPC: 0.717758 cumulative IPC: 0.766463 (Simulation time: 2 hr 9 min 50 sec) 
Heartbeat CPU 3 instructions: 360000000 cycles: 222032514 heartbeat IPC: 1.0993 cumulative IPC: 1.08086 (Simulation time: 2 hr 10 min 40 sec) 
Heartbeat CPU 3 instructions: 370000000 cycles: 231448391 heartbeat IPC: 1.06204 cumulative IPC: 1.07876 (Simulation time: 2 hr 13 min 45 sec) 
Heartbeat CPU 0 instructions: 400000000 cycles: 233514511 heartbeat IPC: 0.719186 cumulative IPC: 0.758845 (Simulation time: 2 hr 14 min 24 sec) 
Heartbeat CPU 1 instructions: 260000000 cycles: 234666933 heartbeat IPC: 0.360808 cumulative IPC: 0.343612 (Simulation time: 2 hr 14 min 47 sec) 
Heartbeat CPU 2 instructions: 220000000 cycles: 235427330 heartbeat IPC: 0.227785 cumulative IPC: 0.226765 (Simulation time: 2 hr 15 min 2 sec) 
Heartbeat CPU 3 instructions: 380000000 cycles: 240573600 heartbeat IPC: 1.09587 cumulative IPC: 1.08043 (Simulation time: 2 hr 16 min 45 sec) 
Heartbeat CPU 0 instructions: 410000001 cycles: 247343910 heartbeat IPC: 0.723097 cumulative IPC: 0.753907 (Simulation time: 2 hr 18 min 56 sec) 
Heartbeat CPU 3 instructions: 390000003 cycles: 249735222 heartbeat IPC: 1.09151 cumulative IPC: 1.08142 (Simulation time: 2 hr 19 min 41 sec) 
Heartbeat CPU 3 instructions: 400000000 cycles: 259096578 heartbeat IPC: 1.06822 cumulative IPC: 1.08032 (Simulation time: 2 hr 22 min 37 sec) 
Heartbeat CPU 0 instructions: 420000000 cycles: 261279321 heartbeat IPC: 0.717596 cumulative IPC: 0.74947 (Simulation time: 2 hr 23 min 15 sec) 
Heartbeat CPU 1 instructions: 270000000 cycles: 265239120 heartbeat IPC: 0.327095 cumulative IPC: 0.339333 (Simulation time: 2 hr 24 min 28 sec) 
Heartbeat CPU 3 instructions: 410000000 cycles: 268167175 heartbeat IPC: 1.10246 cumulative IPC: 1.08198 (Simulation time: 2 hr 25 min 22 sec) 
Heartbeat CPU 0 instructions: 430000003 cycles: 274981622 heartbeat IPC: 0.729805 cumulative IPC: 0.747361 (Simulation time: 2 hr 27 min 27 sec) 
Heartbeat CPU 3 instructions: 420000000 cycles: 277438182 heartbeat IPC: 1.07863 cumulative IPC: 1.08174 (Simulation time: 2 hr 28 min 13 sec) 
Heartbeat CPU 2 instructions: 230000002 cycles: 278682172 heartbeat IPC: 0.231188 cumulative IPC: 0.228221 (Simulation time: 2 hr 28 min 36 sec) 
Heartbeat CPU 3 instructions: 430000000 cycles: 286547852 heartbeat IPC: 1.09773 cumulative IPC: 1.08278 (Simulation time: 2 hr 31 min 6 sec) 
Heartbeat CPU 0 instructions: 440000000 cycles: 288887205 heartbeat IPC: 0.719135 cumulative IPC: 0.74459 (Simulation time: 2 hr 31 min 53 sec) 
Heartbeat CPU 3 instructions: 440000000 cycles: 295752838 heartbeat IPC: 1.08637 cumulative IPC: 1.08301 (Simulation time: 2 hr 34 min 11 sec) 
Heartbeat CPU 1 instructions: 280000000 cycles: 295875037 heartbeat IPC: 0.326414 cumulative IPC: 0.33667 (Simulation time: 2 hr 34 min 14 sec) 
Heartbeat CPU 0 instructions: 450000000 cycles: 302735531 heartbeat IPC: 0.722109 cumulative IPC: 0.742588 (Simulation time: 2 hr 36 min 26 sec) 
Heartbeat CPU 3 instructions: 450000002 cycles: 305084035 heartbeat IPC: 1.07167 cumulative IPC: 1.08234 (Simulation time: 2 hr 37 min 11 sec) 
Heartbeat CPU 3 instructions: 460000000 cycles: 314378210 heartbeat IPC: 1.07594 cumulative IPC: 1.08198 (Simulation time: 2 hr 40 min 28 sec) 
Heartbeat CPU 0 instructions: 460000000 cycles: 316653402 heartbeat IPC: 0.718501 cumulative IPC: 0.740609 (Simulation time: 2 hr 41 min 49 sec) 
Heartbeat CPU 2 instructions: 240000000 cycles: 322571888 heartbeat IPC: 0.227844 cumulative IPC: 0.228126 (Simulation time: 2 hr 44 min 10 sec) 
Heartbeat CPU 3 instructions: 470000000 cycles: 323847366 heartbeat IPC: 1.05606 cumulative IPC: 1.08059 (Simulation time: 2 hr 44 min 35 sec) 
Heartbeat CPU 1 instructions: 290000001 cycles: 325476291 heartbeat IPC: 0.337824 cumulative IPC: 0.336862 (Simulation time: 2 hr 45 min 9 sec) 
Heartbeat CPU 0 instructions: 470000000 cycles: 330614288 heartbeat IPC: 0.716287 cumulative IPC: 0.738758 (Simulation time: 2 hr 46 min 55 sec) 
Heartbeat CPU 3 instructions: 480000000 cycles: 333013959 heartbeat IPC: 1.09092 cumulative IPC: 1.0811 (Simulation time: 2 hr 47 min 45 sec) 
Heartbeat CPU 3 instructions: 490000001 cycles: 342308976 heartbeat IPC: 1.07585 cumulative IPC: 1.08085 (Simulation time: 2 hr 51 min 9 sec) 
Heartbeat CPU 0 instructions: 480000000 cycles: 344559323 heartbeat IPC: 0.717101 cumulative IPC: 0.737227 (Simulation time: 2 hr 51 min 57 sec) 
Heartbeat CPU 3 instructions: 500000000 cycles: 351642084 heartbeat IPC: 1.07145 cumulative IPC: 1.08042 (Simulation time: 2 hr 54 min 28 sec) 
Heartbeat CPU 1 instructions: 300000000 cycles: 354366154 heartbeat IPC: 0.346142 cumulative IPC: 0.338156 (Simulation time: 2 hr 55 min 26 sec) 
Heartbeat CPU 0 instructions: 490000001 cycles: 358551209 heartbeat IPC: 0.7147 cumulative IPC: 0.735736 (Simulation time: 2 hr 56 min 53 sec) 
Heartbeat CPU 3 instructions: 510000001 cycles: 361012356 heartbeat IPC: 1.0672 cumulative IPC: 1.07984 (Simulation time: 2 hr 57 min 47 sec) 
Heartbeat CPU 2 instructions: 250000000 cycles: 366411224 heartbeat IPC: 0.228106 cumulative IPC: 0.228122 (Simulation time: 2 hr 59 min 47 sec) 
Heartbeat CPU 3 instructions: 520000000 cycles: 370198865 heartbeat IPC: 1.08855 cumulative IPC: 1.0802 (Simulation time: 3 hr 1 min 11 sec) 
Heartbeat CPU 0 instructions: 500000000 cycles: 372452215 heartbeat IPC: 0.719372 cumulative IPC: 0.734726 (Simulation time: 3 hr 1 min 56 sec) 
Heartbeat CPU 3 instructions: 530000002 cycles: 379435983 heartbeat IPC: 1.08259 cumulative IPC: 1.0803 (Simulation time: 3 hr 4 min 25 sec) 
Heartbeat CPU 1 instructions: 310000000 cycles: 380485549 heartbeat IPC: 0.382857 cumulative IPC: 0.343162 (Simulation time: 3 hr 4 min 47 sec) 
Heartbeat CPU 0 instructions: 510000000 cycles: 386354024 heartbeat IPC: 0.719331 cumulative IPC: 0.733831 (Simulation time: 3 hr 6 min 43 sec) 
Heartbeat CPU 3 instructions: 540000000 cycles: 388625063 heartbeat IPC: 1.08825 cumulative IPC: 1.0806 (Simulation time: 3 hr 7 min 29 sec) 
Heartbeat CPU 3 instructions: 550000000 cycles: 397805916 heartbeat IPC: 1.08922 cumulative IPC: 1.08091 (Simulation time: 3 hr 10 min 28 sec) 
Heartbeat CPU 0 instructions: 520000000 cycles: 400225053 heartbeat IPC: 0.720927 cumulative IPC: 0.733123 (Simulation time: 3 hr 11 min 17 sec) 
Heartbeat CPU 3 instructions: 560000000 cycles: 407010410 heartbeat IPC: 1.08643 cumulative IPC: 1.08111 (Simulation time: 3 hr 13 min 33 sec) 
Heartbeat CPU 2 instructions: 260000000 cycles: 410323766 heartbeat IPC: 0.227725 cumulative IPC: 0.228056 (Simulation time: 3 hr 14 min 38 sec) 
Heartbeat CPU 1 instructions: 320000000 cycles: 410743591 heartbeat IPC: 0.330491 cumulative IPC: 0.341707 (Simulation time: 3 hr 14 min 46 sec) 
Heartbeat CPU 0 instructions: 530000002 cycles: 414166950 heartbeat IPC: 0.717263 cumulative IPC: 0.732295 (Simulation time: 3 hr 15 min 55 sec) 
Heartbeat CPU 3 instructions: 570000003 cycles: 416269634 heartbeat IPC: 1.08 cumulative IPC: 1.08107 (Simulation time: 3 hr 16 min 35 sec) 
Heartbeat CPU 3 instructions: 580000000 cycles: 425662107 heartbeat IPC: 1.06468 cumulative IPC: 1.08052 (Simulation time: 3 hr 19 min 40 sec) 
Heartbeat CPU 0 instructions: 540000000 cycles: 428081947 heartbeat IPC: 0.718649 cumulative IPC: 0.731619 (Simulation time: 3 hr 20 min 30 sec) 
Heartbeat CPU 3 instructions: 590000003 cycles: 434990837 heartbeat IPC: 1.07196 cumulative IPC: 1.08024 (Simulation time: 3 hr 22 min 54 sec) 
Heartbeat CPU 1 instructions: 330000002 cycles: 441674610 heartbeat IPC: 0.3233 cumulative IPC: 0.339773 (Simulation time: 3 hr 25 min 5 sec) 
Heartbeat CPU 0 instructions: 550000003 cycles: 442087283 heartbeat IPC: 0.714014 cumulative IPC: 0.730782 (Simulation time: 3 hr 25 min 15 sec) 
Heartbeat CPU 3 instructions: 600000000 cycles: 444161958 heartbeat IPC: 1.09038 cumulative IPC: 1.08055 (Simulation time: 3 hr 26 min 6 sec) 
Heartbeat CPU 3 instructions: 610000002 cycles: 453424577 heartbeat IPC: 1.07961 cumulative IPC: 1.08053 (Simulation time: 3 hr 29 min 8 sec) 
Heartbeat CPU 2 instructions: 270000000 cycles: 454793246 heartbeat IPC: 0.224873 cumulative IPC: 0.227596 (Simulation time: 3 hr 29 min 35 sec) 
Heartbeat CPU 0 instructions: 560000000 cycles: 456032645 heartbeat IPC: 0.717084 cumulative IPC: 0.730164 (Simulation time: 3 hr 30 min 0 sec) 
Heartbeat CPU 3 instructions: 620000000 cycles: 462728637 heartbeat IPC: 1.0748 cumulative IPC: 1.08036 (Simulation time: 3 hr 32 min 12 sec) 
Heartbeat CPU 0 instructions: 570000003 cycles: 469941093 heartbeat IPC: 0.718988 cumulative IPC: 0.729682 (Simulation time: 3 hr 34 min 39 sec) 
Heartbeat CPU 3 instructions: 630000000 cycles: 472052441 heartbeat IPC: 1.07252 cumulative IPC: 1.08013 (Simulation time: 3 hr 35 min 28 sec) 
Heartbeat CPU 1 instructions: 340000000 cycles: 473564373 heartbeat IPC: 0.31358 cumulative IPC: 0.337214 (Simulation time: 3 hr 36 min 2 sec) 
Heartbeat CPU 3 instructions: 640000000 cycles: 481310699 heartbeat IPC: 1.08012 cumulative IPC: 1.08013 (Simulation time: 3 hr 38 min 37 sec) 
Heartbeat CPU 0 instructions: 580000000 cycles: 483885614 heartbeat IPC: 0.717127 cumulative IPC: 0.729162 (Simulation time: 3 hr 39 min 28 sec) 
Heartbeat CPU 3 instructions: 650000002 cycles: 490611443 heartbeat IPC: 1.07518 cumulative IPC: 1.08 (Simulation time: 3 hr 41 min 39 sec) 
Heartbeat CPU 0 instructions: 590000001 cycles: 497372917 heartbeat IPC: 0.741438 cumulative IPC: 0.729635 (Simulation time: 3 hr 43 min 58 sec) 
Heartbeat CPU 2 instructions: 280000000 cycles: 498704249 heartbeat IPC: 0.227733 cumulative IPC: 0.227613 (Simulation time: 3 hr 44 min 25 sec) 
Heartbeat CPU 3 instructions: 660000000 cycles: 499969647 heartbeat IPC: 1.06858 cumulative IPC: 1.07969 (Simulation time: 3 hr 44 min 49 sec) 
Heartbeat CPU 1 instructions: 350000000 cycles: 503686731 heartbeat IPC: 0.331979 cumulative IPC: 0.336771 (Simulation time: 3 hr 46 min 4 sec) 
Heartbeat CPU 3 instructions: 670000003 cycles: 509285351 heartbeat IPC: 1.07346 cumulative IPC: 1.07953 (Simulation time: 3 hr 48 min 5 sec) 
Heartbeat CPU 0 instructions: 600000000 cycles: 511458454 heartbeat IPC: 0.709948 cumulative IPC: 0.728874 (Simulation time: 3 hr 48 min 46 sec) 
Heartbeat CPU 3 instructions: 680000000 cycles: 518533224 heartbeat IPC: 1.08133 cumulative IPC: 1.07958 (Simulation time: 3 hr 50 min 56 sec) 
Heartbeat CPU 0 instructions: 610000003 cycles: 525296532 heartbeat IPC: 0.722644 cumulative IPC: 0.728646 (Simulation time: 3 hr 53 min 0 sec) 
Heartbeat CPU 3 instructions: 690000002 cycles: 527830967 heartbeat IPC: 1.07553 cumulative IPC: 1.07948 (Simulation time: 3 hr 53 min 47 sec) 
Heartbeat CPU 1 instructions: 360000000 cycles: 535891852 heartbeat IPC: 0.31051 cumulative IPC: 0.334595 (Simulation time: 3 hr 57 min 35 sec) 
Heartbeat CPU 3 instructions: 700000000 cycles: 536959815 heartbeat IPC: 1.09543 cumulative IPC: 1.07985 (Simulation time: 3 hr 57 min 56 sec) 
Heartbeat CPU 0 instructions: 620000000 cycles: 539198364 heartbeat IPC: 0.719329 cumulative IPC: 0.728315 (Simulation time: 3 hr 58 min 38 sec) 
Heartbeat CPU 2 instructions: 290000000 cycles: 542744196 heartbeat IPC: 0.227067 cumulative IPC: 0.227552 (Simulation time: 3 hr 59 min 42 sec) 
Heartbeat CPU 3 instructions: 710000002 cycles: 546240275 heartbeat IPC: 1.07753 cumulative IPC: 1.0798 (Simulation time: 4 hr 0 min 45 sec) 
Heartbeat CPU 0 instructions: 630000001 cycles: 553013294 heartbeat IPC: 0.723855 cumulative IPC: 0.728163 (Simulation time: 4 hr 2 min 48 sec) 
Heartbeat CPU 3 instructions: 720000000 cycles: 555456372 heartbeat IPC: 1.08506 cumulative IPC: 1.07992 (Simulation time: 4 hr 3 min 33 sec) 
Heartbeat CPU 3 instructions: 730000002 cycles: 564900905 heartbeat IPC: 1.05881 cumulative IPC: 1.07944 (Simulation time: 4 hr 6 min 22 sec) 
Heartbeat CPU 1 instructions: 370000000 cycles: 566115165 heartbeat IPC: 0.33087 cumulative IPC: 0.334326 (Simulation time: 4 hr 6 min 45 sec) 
Heartbeat CPU 0 instructions: 640000000 cycles: 566814164 heartbeat IPC: 0.724592 cumulative IPC: 0.728046 (Simulation time: 4 hr 6 min 58 sec) 
Heartbeat CPU 3 instructions: 740000000 cycles: 574108906 heartbeat IPC: 1.08601 cumulative IPC: 1.07958 (Simulation time: 4 hr 9 min 10 sec) 
Heartbeat CPU 0 instructions: 650000003 cycles: 580670721 heartbeat IPC: 0.72168 cumulative IPC: 0.727842 (Simulation time: 4 hr 11 min 14 sec) 
Heartbeat CPU 3 instructions: 750000000 cycles: 583294006 heartbeat IPC: 1.08872 cumulative IPC: 1.07978 (Simulation time: 4 hr 11 min 58 sec) 
Heartbeat CPU 2 instructions: 300000000 cycles: 586641397 heartbeat IPC: 0.227805 cumulative IPC: 0.227577 (Simulation time: 4 hr 12 min 55 sec) 
Heartbeat CPU 1 instructions: 380000000 cycles: 591296942 heartbeat IPC: 0.397113 cumulative IPC: 0.337887 (Simulation time: 4 hr 14 min 21 sec) 
Heartbeat CPU 3 instructions: 760000000 cycles: 592378126 heartbeat IPC: 1.10082 cumulative IPC: 1.0802 (Simulation time: 4 hr 14 min 40 sec) 
Heartbeat CPU 0 instructions: 660000000 cycles: 594562735 heartbeat IPC: 0.719838 cumulative IPC: 0.727594 (Simulation time: 4 hr 15 min 19 sec) 
Heartbeat CPU 3 instructions: 770000000 cycles: 601574843 heartbeat IPC: 1.08734 cumulative IPC: 1.08035 (Simulation time: 4 hr 17 min 30 sec) 
Heartbeat CPU 0 instructions: 670000000 cycles: 608507811 heartbeat IPC: 0.717099 cumulative IPC: 0.727277 (Simulation time: 4 hr 19 min 40 sec) 
Heartbeat CPU 3 instructions: 780000000 cycles: 610751432 heartbeat IPC: 1.08973 cumulative IPC: 1.08054 (Simulation time: 4 hr 20 min 29 sec) 
Heartbeat CPU 1 instructions: 390000000 cycles: 615801375 heartbeat IPC: 0.408089 cumulative IPC: 0.341558 (Simulation time: 4 hr 22 min 7 sec) 
Heartbeat CPU 3 instructions: 790000001 cycles: 619990790 heartbeat IPC: 1.08233 cumulative IPC: 1.08057 (Simulation time: 4 hr 23 min 27 sec) 
Heartbeat CPU 0 instructions: 680000000 cycles: 622468812 heartbeat IPC: 0.716281 cumulative IPC: 0.726954 (Simulation time: 4 hr 24 min 13 sec) 
Heartbeat CPU 3 instructions: 800000000 cycles: 629313136 heartbeat IPC: 1.07269 cumulative IPC: 1.08042 (Simulation time: 4 hr 27 min 15 sec) 
Heartbeat CPU 2 instructions: 310000000 cycles: 630238907 heartbeat IPC: 0.229371 cumulative IPC: 0.227739 (Simulation time: 4 hr 27 min 32 sec) 
Heartbeat CPU 0 instructions: 690000000 cycles: 636306157 heartbeat IPC: 0.722682 cumulative IPC: 0.726833 (Simulation time: 4 hr 29 min 22 sec) 
Heartbeat CPU 3 instructions: 810000003 cycles: 638508399 heartbeat IPC: 1.08752 cumulative IPC: 1.08055 (Simulation time: 4 hr 30 min 2 sec) 
Heartbeat CPU 1 instructions: 400000000 cycles: 646458916 heartbeat IPC: 0.326184 cumulative IPC: 0.340614 (Simulation time: 4 hr 32 min 22 sec) 
Heartbeat CPU 3 instructions: 820000000 cycles: 647863071 heartbeat IPC: 1.06898 cumulative IPC: 1.08033 (Simulation time: 4 hr 32 min 45 sec) 
Heartbeat CPU 0 instructions: 700000000 cycles: 650266774 heartbeat IPC: 0.716301 cumulative IPC: 0.72654 (Simulation time: 4 hr 33 min 25 sec) 
Heartbeat CPU 3 instructions: 830000001 cycles: 656887747 heartbeat IPC: 1.10807 cumulative IPC: 1.08083 (Simulation time: 4 hr 35 min 21 sec) 
Heartbeat CPU 0 instructions: 710000002 cycles: 664124217 heartbeat IPC: 0.721634 cumulative IPC: 0.726409 (Simulation time: 4 hr 37 min 27 sec) 
Heartbeat CPU 3 instructions: 840000000 cycles: 666243002 heartbeat IPC: 1.06892 cumulative IPC: 1.08061 (Simulation time: 4 hr 38 min 7 sec) 
Heartbeat CPU 2 instructions: 320000000 cycles: 674278570 heartbeat IPC: 0.227068 cumulative IPC: 0.227683 (Simulation time: 4 hr 40 min 34 sec) 
Heartbeat CPU 3 instructions: 850000002 cycles: 675353343 heartbeat IPC: 1.09765 cumulative IPC: 1.0809 (Simulation time: 4 hr 40 min 52 sec) 
Heartbeat CPU 1 instructions: 410000000 cycles: 676640502 heartbeat IPC: 0.331328 cumulative IPC: 0.340085 (Simulation time: 4 hr 41 min 17 sec) 
Heartbeat CPU 0 instructions: 720000000 cycles: 677971472 heartbeat IPC: 0.722165 cumulative IPC: 0.726298 (Simulation time: 4 hr 41 min 42 sec) 
Heartbeat CPU 3 instructions: 860000000 cycles: 684609815 heartbeat IPC: 1.08033 cumulative IPC: 1.0809 (Simulation time: 4 hr 43 min 47 sec) 
Heartbeat CPU 0 instructions: 730000000 cycles: 691811871 heartbeat IPC: 0.722522 cumulative IPC: 0.726202 (Simulation time: 4 hr 46 min 2 sec) 
Heartbeat CPU 3 instructions: 870000000 cycles: 693731135 heartbeat IPC: 1.09633 cumulative IPC: 1.08115 (Simulation time: 4 hr 46 min 38 sec) 
Heartbeat CPU 3 instructions: 880000000 cycles: 702877611 heartbeat IPC: 1.09332 cumulative IPC: 1.08135 (Simulation time: 4 hr 49 min 26 sec) 
Heartbeat CPU 1 instructions: 420000000 cycles: 704367738 heartbeat IPC: 0.360656 cumulative IPC: 0.341108 (Simulation time: 4 hr 49 min 53 sec) 
Heartbeat CPU 0 instructions: 740000000 cycles: 705783175 heartbeat IPC: 0.715753 cumulative IPC: 0.725941 (Simulation time: 4 hr 50 min 19 sec) 
Heartbeat CPU 3 instructions: 890000003 cycles: 712166714 heartbeat IPC: 1.07653 cumulative IPC: 1.08127 (Simulation time: 4 hr 52 min 12 sec) 
Heartbeat CPU 2 instructions: 330000003 cycles: 718330884 heartbeat IPC: 0.227003 cumulative IPC: 0.227631 (Simulation time: 4 hr 53 min 59 sec) 
Heartbeat CPU 0 instructions: 750000002 cycles: 719799742 heartbeat IPC: 0.713442 cumulative IPC: 0.725635 (Simulation time: 4 hr 54 min 26 sec) 
Heartbeat CPU 3 instructions: 900000000 cycles: 721412437 heartbeat IPC: 1.08158 cumulative IPC: 1.08128 (Simulation time: 4 hr 54 min 53 sec) 
Heartbeat CPU 3 instructions: 910000001 cycles: 730622204 heartbeat IPC: 1.0858 cumulative IPC: 1.08135 (Simulation time: 4 hr 57 min 28 sec) 
Heartbeat CPU 0 instructions: 760000000 cycles: 733707869 heartbeat IPC: 0.719004 cumulative IPC: 0.725478 (Simulation time: 4 hr 58 min 18 sec) 
Heartbeat CPU 1 instructions: 430000000 cycles: 735268472 heartbeat IPC: 0.323617 cumulative IPC: 0.340189 (Simulation time: 4 hr 58 min 45 sec) 
Heartbeat CPU 3 instructions: 920000000 cycles: 739835563 heartbeat IPC: 1.08538 cumulative IPC: 1.08141 (Simulation time: 5 hr 0 min 1 sec) 
Heartbeat CPU 0 instructions: 770000000 cycles: 747557288 heartbeat IPC: 0.722052 cumulative IPC: 0.725398 (Simulation time: 5 hr 2 min 21 sec) 
Heartbeat CPU 3 instructions: 930000003 cycles: 749017943 heartbeat IPC: 1.08904 cumulative IPC: 1.08153 (Simulation time: 5 hr 2 min 48 sec) 
Heartbeat CPU 3 instructions: 940000000 cycles: 758254795 heartbeat IPC: 1.08262 cumulative IPC: 1.08155 (Simulation time: 5 hr 5 min 38 sec) 
Heartbeat CPU 0 instructions: 780000000 cycles: 761390372 heartbeat IPC: 0.722905 cumulative IPC: 0.725342 (Simulation time: 5 hr 6 min 36 sec) 
Heartbeat CPU 2 instructions: 340000000 cycles: 762227848 heartbeat IPC: 0.227806 cumulative IPC: 0.227643 (Simulation time: 5 hr 6 min 53 sec) 
Heartbeat CPU 1 instructions: 440000000 cycles: 762770719 heartbeat IPC: 0.363607 cumulative IPC: 0.341236 (Simulation time: 5 hr 7 min 2 sec) 
Heartbeat CPU 3 instructions: 950000001 cycles: 767291965 heartbeat IPC: 1.10654 cumulative IPC: 1.08191 (Simulation time: 5 hr 8 min 26 sec) 
Heartbeat CPU 0 instructions: 790000000 cycles: 775297453 heartbeat IPC: 0.719058 cumulative IPC: 0.725203 (Simulation time: 5 hr 11 min 24 sec) 
Heartbeat CPU 3 instructions: 960000000 cycles: 776389593 heartbeat IPC: 1.09919 cumulative IPC: 1.08216 (Simulation time: 5 hr 11 min 44 sec) 
Heartbeat CPU 3 instructions: 970000002 cycles: 785863953 heartbeat IPC: 1.05548 cumulative IPC: 1.08176 (Simulation time: 5 hr 14 min 35 sec) 
Heartbeat CPU 0 instructions: 800000000 cycles: 789418112 heartbeat IPC: 0.708182 cumulative IPC: 0.724829 (Simulation time: 5 hr 15 min 42 sec) 
Heartbeat CPU 1 instructions: 450000000 cycles: 791564727 heartbeat IPC: 0.347294 cumulative IPC: 0.341506 (Simulation time: 5 hr 16 min 23 sec) 
Heartbeat CPU 3 instructions: 980000000 cycles: 795139477 heartbeat IPC: 1.07811 cumulative IPC: 1.08171 (Simulation time: 5 hr 17 min 36 sec) 
Heartbeat CPU 0 instructions: 810000001 cycles: 803283372 heartbeat IPC: 0.721227 cumulative IPC: 0.724753 (Simulation time: 5 hr 20 min 16 sec) 
Heartbeat CPU 3 instructions: 990000001 cycles: 804520964 heartbeat IPC: 1.06593 cumulative IPC: 1.08149 (Simulation time: 5 hr 20 min 40 sec) 
Heartbeat CPU 2 instructions: 350000001 cycles: 806686735 heartbeat IPC: 0.224927 cumulative IPC: 0.22746 (Simulation time: 5 hr 21 min 24 sec) 
Heartbeat CPU 3 instructions: 1000000000 cycles: 813615254 heartbeat IPC: 1.09959 cumulative IPC: 1.08173 (Simulation time: 5 hr 23 min 44 sec) 
Heartbeat CPU 0 instructions: 820000000 cycles: 817315767 heartbeat IPC: 0.712637 cumulative IPC: 0.724499 (Simulation time: 5 hr 24 min 58 sec) 
Heartbeat CPU 1 instructions: 460000000 cycles: 817727112 heartbeat IPC: 0.382228 cumulative IPC: 0.343095 (Simulation time: 5 hr 25 min 6 sec) 
Heartbeat CPU 3 instructions: 1010000003 cycles: 822993348 heartbeat IPC: 1.06632 cumulative IPC: 1.08152 (Simulation time: 5 hr 26 min 43 sec) 
Heartbeat CPU 0 instructions: 830000003 cycles: 831263741 heartbeat IPC: 0.71695 cumulative IPC: 0.724345 (Simulation time: 5 hr 29 min 18 sec) 
Heartbeat CPU 3 instructions: 1020000000 cycles: 832208596 heartbeat IPC: 1.08516 cumulative IPC: 1.08157 (Simulation time: 5 hr 29 min 38 sec) 
Heartbeat CPU 3 instructions: 1030000002 cycles: 841367536 heartbeat IPC: 1.09183 cumulative IPC: 1.0817 (Simulation time: 5 hr 32 min 39 sec) 
Heartbeat CPU 0 instructions: 840000000 cycles: 845153867 heartbeat IPC: 0.719936 cumulative IPC: 0.724257 (Simulation time: 5 hr 33 min 54 sec) 
Heartbeat CPU 1 instructions: 470000000 cycles: 846887261 heartbeat IPC: 0.342934 cumulative IPC: 0.343089 (Simulation time: 5 hr 34 min 28 sec) 
Heartbeat CPU 3 instructions: 1040000000 cycles: 850627731 heartbeat IPC: 1.07989 cumulative IPC: 1.08168 (Simulation time: 5 hr 35 min 41 sec) 
Heartbeat CPU 2 instructions: 360000000 cycles: 850698653 heartbeat IPC: 0.227211 cumulative IPC: 0.227445 (Simulation time: 5 hr 35 min 42 sec) 
Heartbeat CPU 0 instructions: 850000001 cycles: 859051192 heartbeat IPC: 0.719563 cumulative IPC: 0.724166 (Simulation time: 5 hr 38 min 44 sec) 
Heartbeat CPU 3 instructions: 1050000002 cycles: 859712950 heartbeat IPC: 1.10069 cumulative IPC: 1.08192 (Simulation time: 5 hr 38 min 59 sec) 
Heartbeat CPU 3 instructions: 1060000000 cycles: 868881015 heartbeat IPC: 1.09074 cumulative IPC: 1.08203 (Simulation time: 5 hr 42 min 23 sec) 
Heartbeat CPU 0 instructions: 860000000 cycles: 872968570 heartbeat IPC: 0.718526 cumulative IPC: 0.724058 (Simulation time: 5 hr 43 min 45 sec) 
Heartbeat CPU 1 instructions: 480000000 cycles: 877596865 heartbeat IPC: 0.325631 cumulative IPC: 0.342355 (Simulation time: 5 hr 45 min 26 sec) 
Heartbeat CPU 3 instructions: 1070000000 cycles: 878022079 heartbeat IPC: 1.09396 cumulative IPC: 1.08218 (Simulation time: 5 hr 45 min 35 sec) 
Heartbeat CPU 0 instructions: 870000003 cycles: 886639724 heartbeat IPC: 0.731467 cumulative IPC: 0.724195 (Simulation time: 5 hr 48 min 54 sec) 
Heartbeat CPU 3 instructions: 1080000000 cycles: 887186549 heartbeat IPC: 1.09117 cumulative IPC: 1.08229 (Simulation time: 5 hr 49 min 6 sec) 
Heartbeat CPU 2 instructions: 370000001 cycles: 894436799 heartbeat IPC: 0.228633 cumulative IPC: 0.227514 (Simulation time: 5 hr 51 min 41 sec) 
Heartbeat CPU 3 instructions: 1090000003 cycles: 896387842 heartbeat IPC: 1.0868 cumulative IPC: 1.08235 (Simulation time: 5 hr 52 min 22 sec) 
Heartbeat CPU 0 instructions: 880000000 cycles: 900505507 heartbeat IPC: 0.7212 cumulative IPC: 0.724139 (Simulation time: 5 hr 53 min 51 sec) 
Heartbeat CPU 3 instructions: 1100000000 cycles: 905550922 heartbeat IPC: 1.09134 cumulative IPC: 1.08246 (Simulation time: 5 hr 55 min 39 sec) 
Heartbeat CPU 1 instructions: 490000000 cycles: 907938257 heartbeat IPC: 0.329583 cumulative IPC: 0.341845 (Simulation time: 5 hr 56 min 31 sec) 
Heartbeat CPU 0 instructions: 890000003 cycles: 914320245 heartbeat IPC: 0.723865 cumulative IPC: 0.724135 (Simulation time: 5 hr 58 min 54 sec) 
Heartbeat CPU 3 instructions: 1110000001 cycles: 914655224 heartbeat IPC: 1.09838 cumulative IPC: 1.08265 (Simulation time: 5 hr 59 min 2 sec) 
Heartbeat CPU 3 instructions: 1120000000 cycles: 923741371 heartbeat IPC: 1.10058 cumulative IPC: 1.08286 (Simulation time: 6 hr 2 min 18 sec) 
Heartbeat CPU 0 instructions: 900000000 cycles: 928097334 heartbeat IPC: 0.725843 cumulative IPC: 0.724165 (Simulation time: 6 hr 3 min 52 sec) 
Heartbeat CPU 3 instructions: 1130000003 cycles: 933081456 heartbeat IPC: 1.07065 cumulative IPC: 1.08271 (Simulation time: 6 hr 5 min 41 sec) 
Heartbeat CPU 2 instructions: 380000000 cycles: 938181453 heartbeat IPC: 0.228599 cumulative IPC: 0.227574 (Simulation time: 6 hr 7 min 23 sec) 
Heartbeat CPU 1 instructions: 500000000 cycles: 938193724 heartbeat IPC: 0.330519 cumulative IPC: 0.341412 (Simulation time: 6 hr 7 min 23 sec) 
Heartbeat CPU 0 instructions: 910000001 cycles: 941872781 heartbeat IPC: 0.725929 cumulative IPC: 0.724195 (Simulation time: 6 hr 8 min 32 sec) 
Heartbeat CPU 3 instructions: 1140000000 cycles: 942374202 heartbeat IPC: 1.07611 cumulative IPC: 1.08264 (Simulation time: 6 hr 8 min 40 sec) 
Heartbeat CPU 3 instructions: 1150000000 cycles: 951597542 heartbeat IPC: 1.08421 cumulative IPC: 1.08265 (Simulation time: 6 hr 11 min 32 sec) 
Heartbeat CPU 0 instructions: 920000000 cycles: 955710475 heartbeat IPC: 0.722664 cumulative IPC: 0.724169 (Simulation time: 6 hr 12 min 49 sec) 
Heartbeat CPU 3 instructions: 1160000000 cycles: 960766888 heartbeat IPC: 1.09059 cumulative IPC: 1.08274 (Simulation time: 6 hr 14 min 34 sec) 
Heartbeat CPU 1 instructions: 510000000 cycles: 964338722 heartbeat IPC: 0.382482 cumulative IPC: 0.342726 (Simulation time: 6 hr 15 min 42 sec) 
Heartbeat CPU 0 instructions: 930000000 cycles: 969525187 heartbeat IPC: 0.723866 cumulative IPC: 0.724164 (Simulation time: 6 hr 17 min 11 sec) 
Heartbeat CPU 3 instructions: 1170000003 cycles: 970013772 heartbeat IPC: 1.08145 cumulative IPC: 1.08273 (Simulation time: 6 hr 17 min 20 sec) 
Heartbeat CPU 3 instructions: 1180000000 cycles: 979203881 heartbeat IPC: 1.08813 cumulative IPC: 1.08279 (Simulation time: 6 hr 20 min 1 sec) 
Heartbeat CPU 2 instructions: 390000002 cycles: 981684864 heartbeat IPC: 0.229867 cumulative IPC: 0.227694 (Simulation time: 6 hr 20 min 46 sec) 
Heartbeat CPU 0 instructions: 940000000 cycles: 983404125 heartbeat IPC: 0.720516 cumulative IPC: 0.724103 (Simulation time: 6 hr 21 min 19 sec) 
Heartbeat CPU 3 instructions: 1190000001 cycles: 988480445 heartbeat IPC: 1.07799 cumulative IPC: 1.08273 (Simulation time: 6 hr 22 min 54 sec) 
Heartbeat CPU 1 instructions: 520000000 cycles: 989882088 heartbeat IPC: 0.391491 cumulative IPC: 0.344204 (Simulation time: 6 hr 23 min 19 sec) 
Heartbeat CPU 0 instructions: 950000002 cycles: 997226018 heartbeat IPC: 0.72349 cumulative IPC: 0.724093 (Simulation time: 6 hr 25 min 37 sec) 
Heartbeat CPU 3 instructions: 1200000000 cycles: 997660564 heartbeat IPC: 1.08931 cumulative IPC: 1.08281 (Simulation time: 6 hr 25 min 45 sec) 
Heartbeat CPU 3 instructions: 1210000003 cycles: 1006998309 heartbeat IPC: 1.07092 cumulative IPC: 1.08268 (Simulation time: 6 hr 28 min 35 sec) 
Heartbeat CPU 0 instructions: 960000000 cycles: 1011241759 heartbeat IPC: 0.713483 cumulative IPC: 0.723921 (Simulation time: 6 hr 29 min 55 sec) 
Heartbeat CPU 3 instructions: 1220000000 cycles: 1016217228 heartbeat IPC: 1.08473 cumulative IPC: 1.0827 (Simulation time: 6 hr 31 min 28 sec) 
Heartbeat CPU 1 instructions: 530000001 cycles: 1019931654 heartbeat IPC: 0.332784 cumulative IPC: 0.343811 (Simulation time: 6 hr 32 min 37 sec) 
Heartbeat CPU 0 instructions: 970000000 cycles: 1025044402 heartbeat IPC: 0.724499 cumulative IPC: 0.72393 (Simulation time: 6 hr 34 min 12 sec) 
Heartbeat CPU 3 instructions: 1230000002 cycles: 1025446813 heartbeat IPC: 1.08347 cumulative IPC: 1.08271 (Simulation time: 6 hr 34 min 19 sec) 
Heartbeat CPU 2 instructions: 400000000 cycles: 1025764519 heartbeat IPC: 0.226862 cumulative IPC: 0.227652 (Simulation time: 6 hr 34 min 25 sec) 
Heartbeat CPU 3 instructions: 1240000000 cycles: 1034834005 heartbeat IPC: 1.06528 cumulative IPC: 1.08252 (Simulation time: 6 hr 37 min 15 sec) 
Heartbeat CPU 0 instructions: 980000000 cycles: 1038927848 heartbeat IPC: 0.720282 cumulative IPC: 0.723874 (Simulation time: 6 hr 38 min 30 sec) 
Heartbeat CPU 3 instructions: 1250000002 cycles: 1044097966 heartbeat IPC: 1.07945 cumulative IPC: 1.08249 (Simulation time: 6 hr 40 min 29 sec) 
Heartbeat CPU 1 instructions: 540000000 cycles: 1048070250 heartbeat IPC: 0.355384 cumulative IPC: 0.344172 (Simulation time: 6 hr 41 min 54 sec) 
Heartbeat CPU 0 instructions: 990000000 cycles: 1052837774 heartbeat IPC: 0.718911 cumulative IPC: 0.723797 (Simulation time: 6 hr 43 min 34 sec) 
Heartbeat CPU 3 instructions: 1260000000 cycles: 1053258268 heartbeat IPC: 1.09167 cumulative IPC: 1.08258 (Simulation time: 6 hr 43 min 42 sec) 
Heartbeat CPU 3 instructions: 1270000000 cycles: 1062493474 heartbeat IPC: 1.08281 cumulative IPC: 1.08259 (Simulation time: 6 hr 46 min 42 sec) 
Heartbeat CPU 0 instructions: 1000000000 cycles: 1066801576 heartbeat IPC: 0.716137 cumulative IPC: 0.723681 (Simulation time: 6 hr 48 min 11 sec) 
Heartbeat CPU 2 instructions: 410000000 cycles: 1069856947 heartbeat IPC: 0.226796 cumulative IPC: 0.227611 (Simulation time: 6 hr 49 min 15 sec) 
Finished CPU 3 instructions: 1000000000 cycles: 923815391 cumulative IPC: 1.08247 (Simulation time: 6 hr 49 min 38 sec) 
Heartbeat CPU 3 instructions: 1280000000 cycles: 1071835042 heartbeat IPC: 1.07048 cumulative IPC: 1.08246 (Simulation time: 6 hr 49 min 53 sec) 
Heartbeat CPU 1 instructions: 550000000 cycles: 1077868122 heartbeat IPC: 0.335594 cumulative IPC: 0.343898 (Simulation time: 6 hr 51 min 52 sec) 
Heartbeat CPU 0 instructions: 1010000001 cycles: 1080701005 heartbeat IPC: 0.719454 cumulative IPC: 0.723618 (Simulation time: 6 hr 52 min 49 sec) 
Heartbeat CPU 3 instructions: 1290000000 cycles: 1081109731 heartbeat IPC: 1.0782 cumulative IPC: 1.08242 (Simulation time: 6 hr 52 min 57 sec) 
Heartbeat CPU 3 instructions: 1300000000 cycles: 1090277444 heartbeat IPC: 1.09078 cumulative IPC: 1.0825 (Simulation time: 6 hr 56 min 3 sec) 
Heartbeat CPU 0 instructions: 1020000000 cycles: 1094616747 heartbeat IPC: 0.718611 cumulative IPC: 0.723545 (Simulation time: 6 hr 57 min 30 sec) 
Heartbeat CPU 3 instructions: 1310000002 cycles: 1099456618 heartbeat IPC: 1.08942 cumulative IPC: 1.08257 (Simulation time: 6 hr 59 min 8 sec) 
Heartbeat CPU 1 instructions: 560000000 cycles: 1100214022 heartbeat IPC: 0.447509 cumulative IPC: 0.346327 (Simulation time: 6 hr 59 min 23 sec) 
Heartbeat CPU 0 instructions: 1030000003 cycles: 1108402813 heartbeat IPC: 0.72537 cumulative IPC: 0.723571 (Simulation time: 7 hr 2 min 10 sec) 
Heartbeat CPU 3 instructions: 1320000000 cycles: 1108651086 heartbeat IPC: 1.08761 cumulative IPC: 1.08262 (Simulation time: 7 hr 2 min 15 sec) 
Heartbeat CPU 2 instructions: 420000000 cycles: 1113434040 heartbeat IPC: 0.229478 cumulative IPC: 0.227695 (Simulation time: 7 hr 3 min 51 sec) 
Heartbeat CPU 3 instructions: 1330000003 cycles: 1117853511 heartbeat IPC: 1.08667 cumulative IPC: 1.08266 (Simulation time: 7 hr 5 min 18 sec) 
Heartbeat CPU 0 instructions: 1040000000 cycles: 1122281909 heartbeat IPC: 0.720508 cumulative IPC: 0.723527 (Simulation time: 7 hr 6 min 45 sec) 
Heartbeat CPU 3 instructions: 1340000000 cycles: 1127076632 heartbeat IPC: 1.08423 cumulative IPC: 1.08267 (Simulation time: 7 hr 8 min 20 sec) 
Heartbeat CPU 1 instructions: 570000001 cycles: 1127296456 heartbeat IPC: 0.369243 cumulative IPC: 0.346961 (Simulation time: 7 hr 8 min 24 sec) 
Heartbeat CPU 0 instructions: 1050000001 cycles: 1136182491 heartbeat IPC: 0.719394 cumulative IPC: 0.723469 (Simulation time: 7 hr 11 min 19 sec) 
Heartbeat CPU 3 instructions: 1350000001 cycles: 1136294459 heartbeat IPC: 1.08485 cumulative IPC: 1.08269 (Simulation time: 7 hr 11 min 21 sec) 
Heartbeat CPU 3 instructions: 1360000000 cycles: 1145698300 heartbeat IPC: 1.0634 cumulative IPC: 1.08251 (Simulation time: 7 hr 14 min 17 sec) 
Heartbeat CPU 0 instructions: 1060000000 cycles: 1150062500 heartbeat IPC: 0.720461 cumulative IPC: 0.723427 (Simulation time: 7 hr 15 min 36 sec) 
Heartbeat CPU 3 instructions: 1370000000 cycles: 1155141469 heartbeat IPC: 1.05897 cumulative IPC: 1.08229 (Simulation time: 7 hr 17 min 5 sec) 
Heartbeat CPU 2 instructions: 430000000 cycles: 1157418199 heartbeat IPC: 0.227355 cumulative IPC: 0.22768 (Simulation time: 7 hr 17 min 46 sec) 
Heartbeat CPU 1 instructions: 580000000 cycles: 1158820457 heartbeat IPC: 0.317219 cumulative IPC: 0.346034 (Simulation time: 7 hr 18 min 12 sec) 
Heartbeat CPU 0 instructions: 1070000002 cycles: 1163969168 heartbeat IPC: 0.71908 cumulative IPC: 0.723368 (Simulation time: 7 hr 19 min 50 sec) 
Heartbeat CPU 3 instructions: 1380000000 cycles: 1164205379 heartbeat IPC: 1.10328 cumulative IPC: 1.08248 (Simulation time: 7 hr 19 min 54 sec) 
Heartbeat CPU 3 instructions: 1390000001 cycles: 1173479492 heartbeat IPC: 1.07827 cumulative IPC: 1.08244 (Simulation time: 7 hr 22 min 53 sec) 
Heartbeat CPU 0 instructions: 1080000000 cycles: 1177860884 heartbeat IPC: 0.719853 cumulative IPC: 0.723321 (Simulation time: 7 hr 24 min 20 sec) 
Heartbeat CPU 3 instructions: 1400000000 cycles: 1182715107 heartbeat IPC: 1.08276 cumulative IPC: 1.08244 (Simulation time: 7 hr 25 min 57 sec) 
Heartbeat CPU 1 instructions: 590000000 cycles: 1189592096 heartbeat IPC: 0.324975 cumulative IPC: 0.345412 (Simulation time: 7 hr 28 min 15 sec) 
Heartbeat CPU 0 instructions: 1090000000 cycles: 1191079628 heartbeat IPC: 0.756501 cumulative IPC: 0.723741 (Simulation time: 7 hr 28 min 46 sec) 
Heartbeat CPU 3 instructions: 1410000003 cycles: 1191963825 heartbeat IPC: 1.08123 cumulative IPC: 1.08243 (Simulation time: 7 hr 29 min 5 sec) 
Heartbeat CPU 2 instructions: 440000000 cycles: 1200930492 heartbeat IPC: 0.22982 cumulative IPC: 0.227769 (Simulation time: 7 hr 32 min 7 sec) 
Heartbeat CPU 3 instructions: 1420000000 cycles: 1201138939 heartbeat IPC: 1.0899 cumulative IPC: 1.08249 (Simulation time: 7 hr 32 min 12 sec) 
Heartbeat CPU 0 instructions: 1100000000 cycles: 1204832993 heartbeat IPC: 0.727095 cumulative IPC: 0.723784 (Simulation time: 7 hr 33 min 31 sec) 
Heartbeat CPU 3 instructions: 1430000001 cycles: 1210331733 heartbeat IPC: 1.08781 cumulative IPC: 1.08254 (Simulation time: 7 hr 35 min 26 sec) 
Heartbeat CPU 0 instructions: 1110000003 cycles: 1218646759 heartbeat IPC: 0.723916 cumulative IPC: 0.723786 (Simulation time: 7 hr 38 min 9 sec) 
Heartbeat CPU 3 instructions: 1440000000 cycles: 1219614494 heartbeat IPC: 1.07727 cumulative IPC: 1.0825 (Simulation time: 7 hr 38 min 29 sec) 
Heartbeat CPU 1 instructions: 600000000 cycles: 1219773809 heartbeat IPC: 0.331326 cumulative IPC: 0.345016 (Simulation time: 7 hr 38 min 32 sec) 
Heartbeat CPU 3 instructions: 1450000000 cycles: 1228860786 heartbeat IPC: 1.08151 cumulative IPC: 1.08249 (Simulation time: 7 hr 41 min 31 sec) 
Heartbeat CPU 0 instructions: 1120000000 cycles: 1232601075 heartbeat IPC: 0.716624 cumulative IPC: 0.723694 (Simulation time: 7 hr 42 min 45 sec) 
Heartbeat CPU 3 instructions: 1460000000 cycles: 1238068095 heartbeat IPC: 1.08609 cumulative IPC: 1.08252 (Simulation time: 7 hr 44 min 34 sec) 
Heartbeat CPU 2 instructions: 450000002 cycles: 1244941872 heartbeat IPC: 0.227214 cumulative IPC: 0.227747 (Simulation time: 7 hr 46 min 48 sec) 
Heartbeat CPU 0 instructions: 1130000001 cycles: 1246378094 heartbeat IPC: 0.725846 cumulative IPC: 0.723721 (Simulation time: 7 hr 47 min 17 sec) 
Heartbeat CPU 3 instructions: 1470000001 cycles: 1247112623 heartbeat IPC: 1.10564 cumulative IPC: 1.08271 (Simulation time: 7 hr 47 min 31 sec) 
Heartbeat CPU 1 instructions: 610000000 cycles: 1251258354 heartbeat IPC: 0.317616 cumulative IPC: 0.344234 (Simulation time: 7 hr 48 min 52 sec) 
Heartbeat CPU 3 instructions: 1480000000 cycles: 1256497821 heartbeat IPC: 1.06551 cumulative IPC: 1.08256 (Simulation time: 7 hr 50 min 36 sec) 
Heartbeat CPU 0 instructions: 1140000000 cycles: 1260247665 heartbeat IPC: 0.721003 cumulative IPC: 0.723687 (Simulation time: 7 hr 51 min 48 sec) 
Heartbeat CPU 3 instructions: 1490000000 cycles: 1265806291 heartbeat IPC: 1.07429 cumulative IPC: 1.08249 (Simulation time: 7 hr 53 min 35 sec) 
Heartbeat CPU 0 instructions: 1150000000 cycles: 1274142536 heartbeat IPC: 0.71969 cumulative IPC: 0.723638 (Simulation time: 7 hr 56 min 6 sec) 
Heartbeat CPU 3 instructions: 1500000000 cycles: 1275144765 heartbeat IPC: 1.07084 cumulative IPC: 1.0824 (Simulation time: 7 hr 56 min 24 sec) 
Heartbeat CPU 1 instructions: 620000000 cycles: 1277527677 heartbeat IPC: 0.380672 cumulative IPC: 0.345081 (Simulation time: 7 hr 57 min 8 sec) 
Heartbeat CPU 3 instructions: 1510000003 cycles: 1284319819 heartbeat IPC: 1.08991 cumulative IPC: 1.08246 (Simulation time: 7 hr 59 min 11 sec) 
Heartbeat CPU 0 instructions: 1160000000 cycles: 1288149376 heartbeat IPC: 0.713937 cumulative IPC: 0.723519 (Simulation time: 8 hr 0 min 21 sec) 
Heartbeat CPU 2 instructions: 460000000 cycles: 1288310454 heartbeat IPC: 0.230582 cumulative IPC: 0.227854 (Simulation time: 8 hr 0 min 24 sec) 
Heartbeat CPU 3 instructions: 1520000000 cycles: 1293464074 heartbeat IPC: 1.09358 cumulative IPC: 1.08255 (Simulation time: 8 hr 1 min 59 sec) 
Heartbeat CPU 0 instructions: 1170000002 cycles: 1302134129 heartbeat IPC: 0.715065 cumulative IPC: 0.723416 (Simulation time: 8 hr 4 min 37 sec) 
Heartbeat CPU 3 instructions: 1530000003 cycles: 1302588747 heartbeat IPC: 1.09593 cumulative IPC: 1.08265 (Simulation time: 8 hr 4 min 46 sec) 
Heartbeat CPU 1 instructions: 630000000 cycles: 1303426692 heartbeat IPC: 0.386115 cumulative IPC: 0.346 (Simulation time: 8 hr 5 min 2 sec) 
Heartbeat CPU 3 instructions: 1540000000 cycles: 1311925955 heartbeat IPC: 1.07098 cumulative IPC: 1.08256 (Simulation time: 8 hr 7 min 34 sec) 
Heartbeat CPU 0 instructions: 1180000000 cycles: 1316021195 heartbeat IPC: 0.720094 cumulative IPC: 0.723377 (Simulation time: 8 hr 8 min 47 sec) 
Heartbeat CPU 3 instructions: 1550000001 cycles: 1321178591 heartbeat IPC: 1.08077 cumulative IPC: 1.08254 (Simulation time: 8 hr 10 min 26 sec) 
Heartbeat CPU 0 instructions: 1190000000 cycles: 1329907153 heartbeat IPC: 0.720152 cumulative IPC: 0.723339 (Simulation time: 8 hr 13 min 22 sec) 
Heartbeat CPU 3 instructions: 1560000000 cycles: 1330432538 heartbeat IPC: 1.08062 cumulative IPC: 1.08253 (Simulation time: 8 hr 13 min 33 sec) 
Heartbeat CPU 2 instructions: 470000001 cycles: 1332122026 heartbeat IPC: 0.22825 cumulative IPC: 0.227869 (Simulation time: 8 hr 14 min 6 sec) 
Heartbeat CPU 1 instructions: 640000000 cycles: 1335166661 heartbeat IPC: 0.31506 cumulative IPC: 0.345174 (Simulation time: 8 hr 15 min 6 sec) 
Heartbeat CPU 3 instructions: 1570000000 cycles: 1339780822 heartbeat IPC: 1.06972 cumulative IPC: 1.08243 (Simulation time: 8 hr 16 min 37 sec) 
Heartbeat CPU 0 instructions: 1200000000 cycles: 1343907984 heartbeat IPC: 0.714243 cumulative IPC: 0.723233 (Simulation time: 8 hr 18 min 3 sec) 
Heartbeat CPU 3 instructions: 1580000000 cycles: 1349024512 heartbeat IPC: 1.08182 cumulative IPC: 1.08242 (Simulation time: 8 hr 19 min 48 sec) 
Heartbeat CPU 0 instructions: 1210000002 cycles: 1357770889 heartbeat IPC: 0.72135 cumulative IPC: 0.723211 (Simulation time: 8 hr 22 min 43 sec) 
Heartbeat CPU 3 instructions: 1590000000 cycles: 1358335515 heartbeat IPC: 1.074 cumulative IPC: 1.08236 (Simulation time: 8 hr 23 min 2 sec) 
Heartbeat CPU 1 instructions: 650000002 cycles: 1362957918 heartbeat IPC: 0.359825 cumulative IPC: 0.345509 (Simulation time: 8 hr 24 min 50 sec) 
Heartbeat CPU 3 instructions: 1600000000 cycles: 1367662632 heartbeat IPC: 1.07214 cumulative IPC: 1.08228 (Simulation time: 8 hr 26 min 23 sec) 
Heartbeat CPU 0 instructions: 1220000000 cycles: 1371766386 heartbeat IPC: 0.714515 cumulative IPC: 0.723112 (Simulation time: 8 hr 27 min 42 sec) 
Heartbeat CPU 2 instructions: 480000000 cycles: 1375858771 heartbeat IPC: 0.228641 cumulative IPC: 0.227896 (Simulation time: 8 hr 29 min 2 sec) 
Heartbeat CPU 3 instructions: 1610000003 cycles: 1376878769 heartbeat IPC: 1.08505 cumulative IPC: 1.0823 (Simulation time: 8 hr 29 min 22 sec) 
Heartbeat CPU 0 instructions: 1230000001 cycles: 1385734682 heartbeat IPC: 0.715907 cumulative IPC: 0.72303 (Simulation time: 8 hr 32 min 20 sec) 
Heartbeat CPU 3 instructions: 1620000000 cycles: 1386171354 heartbeat IPC: 1.07613 cumulative IPC: 1.08226 (Simulation time: 8 hr 32 min 29 sec) 
Heartbeat CPU 1 instructions: 660000000 cycles: 1394476102 heartbeat IPC: 0.317277 cumulative IPC: 0.344795 (Simulation time: 8 hr 35 min 11 sec) 
Heartbeat CPU 3 instructions: 1630000001 cycles: 1395281263 heartbeat IPC: 1.09771 cumulative IPC: 1.08237 (Simulation time: 8 hr 35 min 27 sec) 
Heartbeat CPU 0 instructions: 1240000000 cycles: 1399675086 heartbeat IPC: 0.717339 cumulative IPC: 0.722967 (Simulation time: 8 hr 36 min 52 sec) 
Heartbeat CPU 3 instructions: 1640000000 cycles: 1404432233 heartbeat IPC: 1.09278 cumulative IPC: 1.08244 (Simulation time: 8 hr 38 min 26 sec) 
Heartbeat CPU 0 instructions: 1250000003 cycles: 1413497582 heartbeat IPC: 0.723459 cumulative IPC: 0.722972 (Simulation time: 8 hr 41 min 18 sec) 
Heartbeat CPU 3 instructions: 1650000000 cycles: 1413833971 heartbeat IPC: 1.06363 cumulative IPC: 1.0823 (Simulation time: 8 hr 41 min 24 sec) 
Heartbeat CPU 2 instructions: 490000002 cycles: 1419561517 heartbeat IPC: 0.228819 cumulative IPC: 0.227928 (Simulation time: 8 hr 43 min 10 sec) 
Heartbeat CPU 3 instructions: 1660000000 cycles: 1423144197 heartbeat IPC: 1.07409 cumulative IPC: 1.08224 (Simulation time: 8 hr 44 min 16 sec) 
Heartbeat CPU 1 instructions: 670000000 cycles: 1423292460 heartbeat IPC: 0.347025 cumulative IPC: 0.344846 (Simulation time: 8 hr 44 min 18 sec) 
Heartbeat CPU 0 instructions: 1260000000 cycles: 1427391584 heartbeat IPC: 0.719735 cumulative IPC: 0.722937 (Simulation time: 8 hr 45 min 33 sec) 
Heartbeat CPU 3 instructions: 1670000002 cycles: 1432387964 heartbeat IPC: 1.08181 cumulative IPC: 1.08224 (Simulation time: 8 hr 47 min 4 sec) 
Heartbeat CPU 0 instructions: 1270000001 cycles: 1441259140 heartbeat IPC: 0.721108 cumulative IPC: 0.722918 (Simulation time: 8 hr 49 min 35 sec) 
Heartbeat CPU 3 instructions: 1680000000 cycles: 1441549509 heartbeat IPC: 1.09152 cumulative IPC: 1.08231 (Simulation time: 8 hr 49 min 40 sec) 
Heartbeat CPU 3 instructions: 1690000000 cycles: 1450780489 heartbeat IPC: 1.08331 cumulative IPC: 1.08231 (Simulation time: 8 hr 52 min 21 sec) 
Heartbeat CPU 1 instructions: 680000000 cycles: 1452274626 heartbeat IPC: 0.34504 cumulative IPC: 0.34485 (Simulation time: 8 hr 52 min 47 sec) 
Heartbeat CPU 0 instructions: 1280000000 cycles: 1455158422 heartbeat IPC: 0.719462 cumulative IPC: 0.722881 (Simulation time: 8 hr 53 min 39 sec) 
Heartbeat CPU 3 instructions: 1700000000 cycles: 1460090600 heartbeat IPC: 1.0741 cumulative IPC: 1.08226 (Simulation time: 8 hr 55 min 14 sec) 
Heartbeat CPU 2 instructions: 500000000 cycles: 1462997213 heartbeat IPC: 0.230225 cumulative IPC: 0.228004 (Simulation time: 8 hr 56 min 9 sec) 
Heartbeat CPU 0 instructions: 1290000003 cycles: 1469015674 heartbeat IPC: 0.721644 cumulative IPC: 0.722868 (Simulation time: 8 hr 58 min 4 sec) 
Heartbeat CPU 3 instructions: 1710000003 cycles: 1469423601 heartbeat IPC: 1.07147 cumulative IPC: 1.08218 (Simulation time: 8 hr 58 min 12 sec) 
Heartbeat CPU 3 instructions: 1720000000 cycles: 1478622970 heartbeat IPC: 1.08703 cumulative IPC: 1.08221 (Simulation time: 9 hr 0 min 58 sec) 
Heartbeat CPU 0 instructions: 1300000000 cycles: 1483033701 heartbeat IPC: 0.713367 cumulative IPC: 0.722768 (Simulation time: 9 hr 2 min 15 sec) 
Heartbeat CPU 1 instructions: 690000002 cycles: 1484553720 heartbeat IPC: 0.309798 cumulative IPC: 0.344004 (Simulation time: 9 hr 2 min 41 sec) 
Heartbeat CPU 3 instructions: 1730000003 cycles: 1487682976 heartbeat IPC: 1.10375 cumulative IPC: 1.08236 (Simulation time: 9 hr 3 min 39 sec) 
Heartbeat CPU 3 instructions: 1740000000 cycles: 1496860385 heartbeat IPC: 1.08963 cumulative IPC: 1.08241 (Simulation time: 9 hr 6 min 40 sec) 
Heartbeat CPU 0 instructions: 1310000001 cycles: 1496878990 heartbeat IPC: 0.722267 cumulative IPC: 0.722763 (Simulation time: 9 hr 6 min 40 sec) 
Heartbeat CPU 3 instructions: 1750000001 cycles: 1506167537 heartbeat IPC: 1.07444 cumulative IPC: 1.08235 (Simulation time: 9 hr 9 min 40 sec) 
Heartbeat CPU 2 instructions: 510000002 cycles: 1506711181 heartbeat IPC: 0.22876 cumulative IPC: 0.228028 (Simulation time: 9 hr 9 min 50 sec) 
Heartbeat CPU 0 instructions: 1320000000 cycles: 1510722824 heartbeat IPC: 0.722343 cumulative IPC: 0.722759 (Simulation time: 9 hr 11 min 9 sec) 
Heartbeat CPU 1 instructions: 700000000 cycles: 1515020364 heartbeat IPC: 0.328228 cumulative IPC: 0.343652 (Simulation time: 9 hr 12 min 30 sec) 
Heartbeat CPU 3 instructions: 1760000000 cycles: 1515230051 heartbeat IPC: 1.10345 cumulative IPC: 1.08249 (Simulation time: 9 hr 12 min 34 sec) 
Heartbeat CPU 3 instructions: 1770000000 cycles: 1524427091 heartbeat IPC: 1.08731 cumulative IPC: 1.08253 (Simulation time: 9 hr 15 min 34 sec) 
Heartbeat CPU 0 instructions: 1330000000 cycles: 1524588694 heartbeat IPC: 0.721195 cumulative IPC: 0.722743 (Simulation time: 9 hr 15 min 37 sec) 
Finished CPU 0 instructions: 1000000003 cycles: 1383642185 cumulative IPC: 0.72273 (Simulation time: 9 hr 17 min 37 sec) 
Heartbeat CPU 3 instructions: 1780000000 cycles: 1533713471 heartbeat IPC: 1.07685 cumulative IPC: 1.08249 (Simulation time: 9 hr 18 min 32 sec) 
Heartbeat CPU 0 instructions: 1340000000 cycles: 1538433924 heartbeat IPC: 0.72227 cumulative IPC: 0.722738 (Simulation time: 9 hr 20 min 4 sec) 
Heartbeat CPU 3 instructions: 1790000003 cycles: 1542966375 heartbeat IPC: 1.08074 cumulative IPC: 1.08248 (Simulation time: 9 hr 21 min 31 sec) 
Heartbeat CPU 1 instructions: 710000000 cycles: 1546584271 heartbeat IPC: 0.316818 cumulative IPC: 0.343047 (Simulation time: 9 hr 22 min 34 sec) 
Heartbeat CPU 2 instructions: 520000000 cycles: 1550404053 heartbeat IPC: 0.22887 cumulative IPC: 0.228054 (Simulation time: 9 hr 23 min 37 sec) 
Heartbeat CPU 3 instructions: 1800000000 cycles: 1552089484 heartbeat IPC: 1.09612 cumulative IPC: 1.08256 (Simulation time: 9 hr 24 min 8 sec) 
Heartbeat CPU 0 instructions: 1350000001 cycles: 1552312529 heartbeat IPC: 0.720534 cumulative IPC: 0.722717 (Simulation time: 9 hr 24 min 11 sec) 
Heartbeat CPU 3 instructions: 1810000003 cycles: 1561361220 heartbeat IPC: 1.07855 cumulative IPC: 1.08254 (Simulation time: 9 hr 26 min 42 sec) 
Heartbeat CPU 0 instructions: 1360000000 cycles: 1566176938 heartbeat IPC: 0.721271 cumulative IPC: 0.722703 (Simulation time: 9 hr 28 min 1 sec) 
Heartbeat CPU 3 instructions: 1820000000 cycles: 1570557412 heartbeat IPC: 1.08741 cumulative IPC: 1.08257 (Simulation time: 9 hr 29 min 16 sec) 
Heartbeat CPU 1 instructions: 720000000 cycles: 1578145357 heartbeat IPC: 0.316846 cumulative IPC: 0.342469 (Simulation time: 9 hr 31 min 27 sec) 
Heartbeat CPU 3 instructions: 1830000002 cycles: 1579828831 heartbeat IPC: 1.07858 cumulative IPC: 1.08254 (Simulation time: 9 hr 31 min 57 sec) 
Heartbeat CPU 0 instructions: 1370000000 cycles: 1580072520 heartbeat IPC: 0.719653 cumulative IPC: 0.722673 (Simulation time: 9 hr 32 min 2 sec) 
Heartbeat CPU 3 instructions: 1840000000 cycles: 1589070438 heartbeat IPC: 1.08206 cumulative IPC: 1.08254 (Simulation time: 9 hr 35 min 36 sec) 
Heartbeat CPU 0 instructions: 1380000000 cycles: 1594076563 heartbeat IPC: 0.714079 cumulative IPC: 0.72259 (Simulation time: 9 hr 37 min 16 sec) 
Heartbeat CPU 2 instructions: 530000000 cycles: 1594088363 heartbeat IPC: 0.228915 cumulative IPC: 0.22808 (Simulation time: 9 hr 37 min 16 sec) 
Heartbeat CPU 3 instructions: 1850000000 cycles: 1598414004 heartbeat IPC: 1.07026 cumulative IPC: 1.08246 (Simulation time: 9 hr 38 min 41 sec) 
Heartbeat CPU 3 instructions: 1860000000 cycles: 1607772033 heartbeat IPC: 1.0686 cumulative IPC: 1.08237 (Simulation time: 9 hr 41 min 37 sec) 
Heartbeat CPU 0 instructions: 1390000002 cycles: 1607851852 heartbeat IPC: 0.725938 cumulative IPC: 0.722621 (Simulation time: 9 hr 41 min 39 sec) 
Heartbeat CPU 1 instructions: 730000000 cycles: 1608751484 heartbeat IPC: 0.326732 cumulative IPC: 0.34214 (Simulation time: 9 hr 41 min 56 sec) 
Heartbeat CPU 3 instructions: 1870000002 cycles: 1616961906 heartbeat IPC: 1.08815 cumulative IPC: 1.08241 (Simulation time: 9 hr 44 min 34 sec) 
Heartbeat CPU 0 instructions: 1400000000 cycles: 1621754047 heartbeat IPC: 0.719311 cumulative IPC: 0.72259 (Simulation time: 9 hr 46 min 8 sec) 
Heartbeat CPU 3 instructions: 1880000000 cycles: 1626159477 heartbeat IPC: 1.08724 cumulative IPC: 1.08244 (Simulation time: 9 hr 47 min 33 sec) 
Heartbeat CPU 3 instructions: 1890000000 cycles: 1635335976 heartbeat IPC: 1.08974 cumulative IPC: 1.08248 (Simulation time: 9 hr 50 min 37 sec) 
Heartbeat CPU 0 instructions: 1410000000 cycles: 1635644625 heartbeat IPC: 0.719912 cumulative IPC: 0.722565 (Simulation time: 9 hr 50 min 44 sec) 
Heartbeat CPU 1 instructions: 740000000 cycles: 1635920339 heartbeat IPC: 0.368069 cumulative IPC: 0.342613 (Simulation time: 9 hr 50 min 50 sec) 
Heartbeat CPU 2 instructions: 540000000 cycles: 1637295662 heartbeat IPC: 0.231442 cumulative IPC: 0.228178 (Simulation time: 9 hr 51 min 20 sec) 
Heartbeat CPU 3 instructions: 1900000000 cycles: 1644515722 heartbeat IPC: 1.08935 cumulative IPC: 1.08253 (Simulation time: 9 hr 53 min 40 sec) 
Heartbeat CPU 0 instructions: 1420000000 cycles: 1649553030 heartbeat IPC: 0.71899 cumulative IPC: 0.722532 (Simulation time: 9 hr 55 min 16 sec) 
Heartbeat CPU 3 instructions: 1910000000 cycles: 1653758750 heartbeat IPC: 1.0819 cumulative IPC: 1.08252 (Simulation time: 9 hr 56 min 37 sec) 
Heartbeat CPU 1 instructions: 750000002 cycles: 1660333596 heartbeat IPC: 0.409614 cumulative IPC: 0.343694 (Simulation time: 9 hr 58 min 52 sec) 
Heartbeat CPU 3 instructions: 1920000000 cycles: 1662885816 heartbeat IPC: 1.09564 cumulative IPC: 1.0826 (Simulation time: 9 hr 59 min 48 sec) 
Heartbeat CPU 0 instructions: 1430000002 cycles: 1663570590 heartbeat IPC: 0.713391 cumulative IPC: 0.722448 (Simulation time: 10 hr 0 min 16 sec) 
Heartbeat CPU 3 instructions: 1930000000 cycles: 1672071370 heartbeat IPC: 1.08867 cumulative IPC: 1.08264 (Simulation time: 10 hr 3 min 26 sec) 
Heartbeat CPU 0 instructions: 1440000000 cycles: 1677539401 heartbeat IPC: 0.71588 cumulative IPC: 0.722388 (Simulation time: 10 hr 5 min 24 sec) 
Heartbeat CPU 3 instructions: 1940000000 cycles: 1681314765 heartbeat IPC: 1.08185 cumulative IPC: 1.08263 (Simulation time: 10 hr 6 min 42 sec) 
Heartbeat CPU 2 instructions: 550000001 cycles: 1681370853 heartbeat IPC: 0.226885 cumulative IPC: 0.228141 (Simulation time: 10 hr 6 min 44 sec) 
Heartbeat CPU 1 instructions: 760000000 cycles: 1685454843 heartbeat IPC: 0.398069 cumulative IPC: 0.344582 (Simulation time: 10 hr 8 min 8 sec) 
Heartbeat CPU 3 instructions: 1950000002 cycles: 1690459858 heartbeat IPC: 1.09348 cumulative IPC: 1.0827 (Simulation time: 10 hr 9 min 53 sec) 
Heartbeat CPU 0 instructions: 1450000003 cycles: 1691374706 heartbeat IPC: 0.722789 cumulative IPC: 0.722391 (Simulation time: 10 hr 10 min 12 sec) 
Heartbeat CPU 3 instructions: 1960000000 cycles: 1699929369 heartbeat IPC: 1.05602 cumulative IPC: 1.08253 (Simulation time: 10 hr 13 min 10 sec) 
Heartbeat CPU 0 instructions: 1460000000 cycles: 1705388255 heartbeat IPC: 0.713595 cumulative IPC: 0.722312 (Simulation time: 10 hr 14 min 59 sec) 
Heartbeat CPU 3 instructions: 1970000001 cycles: 1709335114 heartbeat IPC: 1.06318 cumulative IPC: 1.08242 (Simulation time: 10 hr 16 min 16 sec) 
Heartbeat CPU 1 instructions: 770000002 cycles: 1715302645 heartbeat IPC: 0.335033 cumulative IPC: 0.3444 (Simulation time: 10 hr 18 min 14 sec) 
Heartbeat CPU 3 instructions: 1980000000 cycles: 1718524549 heartbeat IPC: 1.08821 cumulative IPC: 1.08245 (Simulation time: 10 hr 19 min 17 sec) 
Heartbeat CPU 0 instructions: 1470000000 cycles: 1719304914 heartbeat IPC: 0.718563 cumulative IPC: 0.722279 (Simulation time: 10 hr 19 min 32 sec) 
Heartbeat CPU 2 instructions: 560000000 cycles: 1725616715 heartbeat IPC: 0.22601 cumulative IPC: 0.228081 (Simulation time: 10 hr 21 min 37 sec) 
Heartbeat CPU 3 instructions: 1990000002 cycles: 1727794428 heartbeat IPC: 1.07876 cumulative IPC: 1.08243 (Simulation time: 10 hr 22 min 21 sec) 
Heartbeat CPU 0 instructions: 1480000000 cycles: 1733123445 heartbeat IPC: 0.723666 cumulative IPC: 0.722291 (Simulation time: 10 hr 24 min 5 sec) 
*** Reached end of trace for Core: 3 Repeating trace: /scratch/user/djimenez/champsim-traces/speccpu2017/xz/603.bwaves_s/603.bwaves_s-2609B.champsimtrace.xz
Heartbeat CPU 3 instructions: 2000000000 cycles: 1736847413 heartbeat IPC: 1.10461 cumulative IPC: 1.08256 (Simulation time: 10 hr 25 min 21 sec) 
Heartbeat CPU 1 instructions: 780000000 cycles: 1744716639 heartbeat IPC: 0.339974 cumulative IPC: 0.344319 (Simulation time: 10 hr 28 min 0 sec) 
Heartbeat CPU 3 instructions: 2010000000 cycles: 1746154395 heartbeat IPC: 1.07446 cumulative IPC: 1.08251 (Simulation time: 10 hr 28 min 30 sec) 
Heartbeat CPU 0 instructions: 1490000000 cycles: 1747026111 heartbeat IPC: 0.719287 cumulative IPC: 0.722265 (Simulation time: 10 hr 28 min 49 sec) 
Heartbeat CPU 3 instructions: 2020000000 cycles: 1755422407 heartbeat IPC: 1.07898 cumulative IPC: 1.08249 (Simulation time: 10 hr 31 min 33 sec) 
Heartbeat CPU 0 instructions: 1500000000 cycles: 1761261319 heartbeat IPC: 0.702484 cumulative IPC: 0.72209 (Simulation time: 10 hr 33 min 19 sec) 
Heartbeat CPU 3 instructions: 2030000000 cycles: 1764834104 heartbeat IPC: 1.06251 cumulative IPC: 1.08237 (Simulation time: 10 hr 34 min 29 sec) 
Heartbeat CPU 2 instructions: 570000001 cycles: 1768998041 heartbeat IPC: 0.230514 cumulative IPC: 0.228146 (Simulation time: 10 hr 35 min 51 sec) 
Heartbeat CPU 1 instructions: 790000000 cycles: 1773705969 heartbeat IPC: 0.344955 cumulative IPC: 0.34433 (Simulation time: 10 hr 37 min 20 sec) 
Heartbeat CPU 3 instructions: 2040000000 cycles: 1774008883 heartbeat IPC: 1.08994 cumulative IPC: 1.08242 (Simulation time: 10 hr 37 min 27 sec) 
Heartbeat CPU 0 instructions: 1510000003 cycles: 1775366963 heartbeat IPC: 0.708936 cumulative IPC: 0.721976 (Simulation time: 10 hr 37 min 56 sec) 
Heartbeat CPU 3 instructions: 2050000001 cycles: 1783328694 heartbeat IPC: 1.07298 cumulative IPC: 1.08236 (Simulation time: 10 hr 40 min 26 sec) 
Heartbeat CPU 0 instructions: 1520000000 cycles: 1789460334 heartbeat IPC: 0.709553 cumulative IPC: 0.72187 (Simulation time: 10 hr 43 min 0 sec) 
Heartbeat CPU 3 instructions: 2060000000 cycles: 1792751698 heartbeat IPC: 1.06123 cumulative IPC: 1.08224 (Simulation time: 10 hr 44 min 1 sec) 
Heartbeat CPU 3 instructions: 2070000003 cycles: 1802233693 heartbeat IPC: 1.05463 cumulative IPC: 1.08208 (Simulation time: 10 hr 46 min 46 sec) 
Heartbeat CPU 1 instructions: 800000000 cycles: 1803659491 heartbeat IPC: 0.333851 cumulative IPC: 0.34414 (Simulation time: 10 hr 47 min 13 sec) 
Heartbeat CPU 0 instructions: 1530000001 cycles: 1803688717 heartbeat IPC: 0.702821 cumulative IPC: 0.721706 (Simulation time: 10 hr 47 min 14 sec) 
Heartbeat CPU 3 instructions: 2080000000 cycles: 1811502626 heartbeat IPC: 1.07887 cumulative IPC: 1.08206 (Simulation time: 10 hr 49 min 42 sec) 
Heartbeat CPU 2 instructions: 580000000 cycles: 1812291316 heartbeat IPC: 0.230983 cumulative IPC: 0.22822 (Simulation time: 10 hr 49 min 57 sec) 
Heartbeat CPU 0 instructions: 1540000000 cycles: 1817612959 heartbeat IPC: 0.718172 cumulative IPC: 0.721677 (Simulation time: 10 hr 51 min 36 sec) 
Heartbeat CPU 3 instructions: 2090000002 cycles: 1820859014 heartbeat IPC: 1.06879 cumulative IPC: 1.08199 (Simulation time: 10 hr 52 min 37 sec) 
Heartbeat CPU 3 instructions: 2100000000 cycles: 1830125350 heartbeat IPC: 1.07917 cumulative IPC: 1.08198 (Simulation time: 10 hr 55 min 36 sec) 
Heartbeat CPU 0 instructions: 1550000002 cycles: 1830803845 heartbeat IPC: 0.758099 cumulative IPC: 0.721962 (Simulation time: 10 hr 55 min 49 sec) 
Heartbeat CPU 1 instructions: 810000001 cycles: 1833725081 heartbeat IPC: 0.332606 cumulative IPC: 0.343935 (Simulation time: 10 hr 56 min 46 sec) 
Heartbeat CPU 3 instructions: 2110000002 cycles: 1839613218 heartbeat IPC: 1.05398 cumulative IPC: 1.08182 (Simulation time: 10 hr 58 min 40 sec) 
Heartbeat CPU 0 instructions: 1560000000 cycles: 1843871141 heartbeat IPC: 0.765269 cumulative IPC: 0.722296 (Simulation time: 11 hr 0 min 1 sec) 
Heartbeat CPU 3 instructions: 2120000000 cycles: 1849088410 heartbeat IPC: 1.05539 cumulative IPC: 1.08167 (Simulation time: 11 hr 1 min 38 sec) 
Heartbeat CPU 2 instructions: 590000001 cycles: 1856304747 heartbeat IPC: 0.227203 cumulative IPC: 0.228194 (Simulation time: 11 hr 3 min 53 sec) 
Heartbeat CPU 0 instructions: 1570000000 cycles: 1857980164 heartbeat IPC: 0.708766 cumulative IPC: 0.722184 (Simulation time: 11 hr 4 min 25 sec) 
Heartbeat CPU 3 instructions: 2130000002 cycles: 1858445915 heartbeat IPC: 1.06866 cumulative IPC: 1.0816 (Simulation time: 11 hr 4 min 34 sec) 
Heartbeat CPU 1 instructions: 820000000 cycles: 1859798944 heartbeat IPC: 0.383526 cumulative IPC: 0.344538 (Simulation time: 11 hr 4 min 59 sec) 
Heartbeat CPU 3 instructions: 2140000000 cycles: 1867797087 heartbeat IPC: 1.06938 cumulative IPC: 1.08153 (Simulation time: 11 hr 7 min 30 sec) 
Heartbeat CPU 0 instructions: 1580000000 cycles: 1871920482 heartbeat IPC: 0.717344 cumulative IPC: 0.722145 (Simulation time: 11 hr 8 min 50 sec) 
Heartbeat CPU 3 instructions: 2150000002 cycles: 1877390465 heartbeat IPC: 1.04239 cumulative IPC: 1.08132 (Simulation time: 11 hr 10 min 27 sec) 
Heartbeat CPU 0 instructions: 1590000001 cycles: 1886135665 heartbeat IPC: 0.703473 cumulative IPC: 0.721992 (Simulation time: 11 hr 13 min 3 sec) 
Heartbeat CPU 3 instructions: 2160000000 cycles: 1886820424 heartbeat IPC: 1.06045 cumulative IPC: 1.0812 (Simulation time: 11 hr 13 min 16 sec) 
Heartbeat CPU 1 instructions: 830000000 cycles: 1887896035 heartbeat IPC: 0.355909 cumulative IPC: 0.344721 (Simulation time: 11 hr 13 min 35 sec) 
Heartbeat CPU 3 instructions: 2170000002 cycles: 1896205375 heartbeat IPC: 1.06554 cumulative IPC: 1.08112 (Simulation time: 11 hr 16 min 6 sec) 
Heartbeat CPU 2 instructions: 600000000 cycles: 1899987155 heartbeat IPC: 0.228925 cumulative IPC: 0.228212 (Simulation time: 11 hr 17 min 21 sec) 
Heartbeat CPU 0 instructions: 1600000000 cycles: 1900265738 heartbeat IPC: 0.70771 cumulative IPC: 0.721877 (Simulation time: 11 hr 17 min 26 sec) 
Heartbeat CPU 3 instructions: 2180000000 cycles: 1905587101 heartbeat IPC: 1.0659 cumulative IPC: 1.08104 (Simulation time: 11 hr 19 min 5 sec) 
Heartbeat CPU 0 instructions: 1610000000 cycles: 1914283619 heartbeat IPC: 0.713375 cumulative IPC: 0.72181 (Simulation time: 11 hr 21 min 43 sec) 
Heartbeat CPU 3 instructions: 2190000000 cycles: 1914957716 heartbeat IPC: 1.06717 cumulative IPC: 1.08096 (Simulation time: 11 hr 21 min 55 sec) 
Heartbeat CPU 1 instructions: 840000000 cycles: 1917341119 heartbeat IPC: 0.339615 cumulative IPC: 0.344636 (Simulation time: 11 hr 22 min 35 sec) 
Heartbeat CPU 3 instructions: 2200000000 cycles: 1924186484 heartbeat IPC: 1.08357 cumulative IPC: 1.08098 (Simulation time: 11 hr 24 min 35 sec) 
Heartbeat CPU 0 instructions: 1620000000 cycles: 1928322969 heartbeat IPC: 0.712284 cumulative IPC: 0.721735 (Simulation time: 11 hr 25 min 53 sec) 
Heartbeat CPU 3 instructions: 2210000002 cycles: 1933511113 heartbeat IPC: 1.07243 cumulative IPC: 1.08093 (Simulation time: 11 hr 27 min 33 sec) 
Heartbeat CPU 1 instructions: 850000000 cycles: 1941347800 heartbeat IPC: 0.416551 cumulative IPC: 0.345598 (Simulation time: 11 hr 30 min 1 sec) 
Heartbeat CPU 0 instructions: 1630000002 cycles: 1942233484 heartbeat IPC: 0.718881 cumulative IPC: 0.721713 (Simulation time: 11 hr 30 min 17 sec) 
Heartbeat CPU 3 instructions: 2220000000 cycles: 1942973863 heartbeat IPC: 1.05678 cumulative IPC: 1.08081 (Simulation time: 11 hr 30 min 31 sec) 
Heartbeat CPU 2 instructions: 610000003 cycles: 1943583144 heartbeat IPC: 0.229379 cumulative IPC: 0.22824 (Simulation time: 11 hr 30 min 43 sec) 
Heartbeat CPU 3 instructions: 2230000001 cycles: 1952292944 heartbeat IPC: 1.07307 cumulative IPC: 1.08077 (Simulation time: 11 hr 35 min 20 sec) 
Heartbeat CPU 0 instructions: 1640000000 cycles: 1956218623 heartbeat IPC: 0.715045 cumulative IPC: 0.721661 (Simulation time: 11 hr 36 min 33 sec) 
Heartbeat CPU 3 instructions: 2240000000 cycles: 1961652188 heartbeat IPC: 1.06846 cumulative IPC: 1.0807 (Simulation time: 11 hr 38 min 17 sec) 
Heartbeat CPU 1 instructions: 860000000 cycles: 1967768273 heartbeat IPC: 0.378494 cumulative IPC: 0.346076 (Simulation time: 11 hr 40 min 14 sec) 
Heartbeat CPU 0 instructions: 1650000000 cycles: 1970198423 heartbeat IPC: 0.715318 cumulative IPC: 0.721612 (Simulation time: 11 hr 41 min 0 sec) 
Heartbeat CPU 3 instructions: 2250000001 cycles: 1971096748 heartbeat IPC: 1.05881 cumulative IPC: 1.08059 (Simulation time: 11 hr 41 min 18 sec) 
Heartbeat CPU 3 instructions: 2260000000 cycles: 1980559013 heartbeat IPC: 1.05683 cumulative IPC: 1.08047 (Simulation time: 11 hr 44 min 7 sec) 
Heartbeat CPU 0 instructions: 1660000000 cycles: 1984416660 heartbeat IPC: 0.703322 cumulative IPC: 0.721471 (Simulation time: 11 hr 45 min 19 sec) 
Heartbeat CPU 2 instructions: 620000000 cycles: 1988165801 heartbeat IPC: 0.224302 cumulative IPC: 0.228145 (Simulation time: 11 hr 46 min 30 sec) 
[...]
Heartbeat CPU 3 instructions: 4820000000 cycles: 4385033920 heartbeat IPC: 1.07081 cumulative IPC: 1.07151 (Simulation time: 23 hr 2 min 20 sec) 
Heartbeat CPU 1 instructions: 1740000000 cycles: 4389147975 heartbeat IPC: 0.347341 cumulative IPC: 0.355982 (Simulation time: 23 hr 3 min 21 sec) 
Heartbeat CPU 0 instructions: 3400000000 cycles: 4390818463 heartbeat IPC: 0.700308 cumulative IPC: 0.722378 (Simulation time: 23 hr 3 min 43 sec) 
Heartbeat CPU 3 instructions: 4830000001 cycles: 4394218853 heartbeat IPC: 1.08874 cumulative IPC: 1.07155 (Simulation time: 23 hr 4 min 36 sec) 
Heartbeat CPU 3 instructions: 4840000000 cycles: 4403651937 heartbeat IPC: 1.0601 cumulative IPC: 1.07152 (Simulation time: 23 hr 6 min 52 sec) 
Heartbeat CPU 0 instructions: 3410000000 cycles: 4404933315 heartbeat IPC: 0.708474 cumulative IPC: 0.722332 (Simulation time: 23 hr 7 min 11 sec) 
Heartbeat CPU 2 instructions: 1170000000 cycles: 4411790738 heartbeat IPC: 0.229029 cumulative IPC: 0.227456 (Simulation time: 23 hr 8 min 51 sec) 
Heartbeat CPU 3 instructions: 4850000002 cycles: 4413035395 heartbeat IPC: 1.06571 cumulative IPC: 1.07151 (Simulation time: 23 hr 9 min 8 sec) 
Heartbeat CPU 1 instructions: 1750000000 cycles: 4418136041 heartbeat IPC: 0.34497 cumulative IPC: 0.355907 (Simulation time: 23 hr 10 min 24 sec) 
Heartbeat CPU 0 instructions: 3420000000 cycles: 4418923241 heartbeat IPC: 0.7148 cumulative IPC: 0.722308 (Simulation time: 23 hr 10 min 35 sec) 
Heartbeat CPU 3 instructions: 4860000000 cycles: 4422420839 heartbeat IPC: 1.06548 cumulative IPC: 1.0715 (Simulation time: 23 hr 11 min 25 sec) 
Heartbeat CPU 3 instructions: 4870000000 cycles: 4431819963 heartbeat IPC: 1.06393 cumulative IPC: 1.07148 (Simulation time: 23 hr 13 min 40 sec) 
Heartbeat CPU 0 instructions: 3430000002 cycles: 4433245516 heartbeat IPC: 0.698213 cumulative IPC: 0.722227 (Simulation time: 23 hr 14 min 1 sec) 
Heartbeat CPU 3 instructions: 4880000000 cycles: 4441197206 heartbeat IPC: 1.06641 cumulative IPC: 1.07147 (Simulation time: 23 hr 15 min 58 sec) 
Heartbeat CPU 0 instructions: 3440000000 cycles: 4447607092 heartbeat IPC: 0.696302 cumulative IPC: 0.72214 (Simulation time: 23 hr 17 min 27 sec) 
Heartbeat CPU 1 instructions: 1760000000 cycles: 4447933942 heartbeat IPC: 0.335594 cumulative IPC: 0.355766 (Simulation time: 23 hr 17 min 33 sec) 
Heartbeat CPU 3 instructions: 4890000003 cycles: 4450804891 heartbeat IPC: 1.04083 cumulative IPC: 1.0714 (Simulation time: 23 hr 18 min 15 sec) 
Heartbeat CPU 2 instructions: 1180000000 cycles: 4455792167 heartbeat IPC: 0.227265 cumulative IPC: 0.227454 (Simulation time: 23 hr 19 min 23 sec) 
Heartbeat CPU 3 instructions: 4900000000 cycles: 4460213507 heartbeat IPC: 1.06286 cumulative IPC: 1.07138 (Simulation time: 23 hr 20 min 24 sec) 
Heartbeat CPU 0 instructions: 3450000003 cycles: 4461615310 heartbeat IPC: 0.713867 cumulative IPC: 0.722114 (Simulation time: 23 hr 20 min 44 sec) 
Heartbeat CPU 3 instructions: 4910000001 cycles: 4469703001 heartbeat IPC: 1.0538 cumulative IPC: 1.07134 (Simulation time: 23 hr 22 min 34 sec) 
Heartbeat CPU 0 instructions: 3460000000 cycles: 4475815048 heartbeat IPC: 0.704238 cumulative IPC: 0.722055 (Simulation time: 23 hr 23 min 52 sec) 
Heartbeat CPU 1 instructions: 1770000000 cycles: 4476196497 heartbeat IPC: 0.353825 cumulative IPC: 0.355753 (Simulation time: 23 hr 23 min 57 sec) 
Heartbeat CPU 3 instructions: 4920000000 cycles: 4479139313 heartbeat IPC: 1.05974 cumulative IPC: 1.07132 (Simulation time: 23 hr 24 min 37 sec) 
Heartbeat CPU 3 instructions: 4930000003 cycles: 4488432197 heartbeat IPC: 1.07609 cumulative IPC: 1.07133 (Simulation time: 23 hr 26 min 42 sec) 
Heartbeat CPU 0 instructions: 3470000000 cycles: 4489815324 heartbeat IPC: 0.714272 cumulative IPC: 0.72203 (Simulation time: 23 hr 27 min 0 sec) 
Heartbeat CPU 3 instructions: 4940000000 cycles: 4497899310 heartbeat IPC: 1.05629 cumulative IPC: 1.0713 (Simulation time: 23 hr 28 min 49 sec) 
Heartbeat CPU 2 instructions: 1190000003 cycles: 4499419045 heartbeat IPC: 0.229217 cumulative IPC: 0.227472 (Simulation time: 23 hr 29 min 9 sec) 
Heartbeat CPU 0 instructions: 3480000000 cycles: 4504082108 heartbeat IPC: 0.700929 cumulative IPC: 0.721961 (Simulation time: 23 hr 30 min 9 sec) 
Heartbeat CPU 1 instructions: 1780000000 cycles: 4504331939 heartbeat IPC: 0.355424 cumulative IPC: 0.355751 (Simulation time: 23 hr 30 min 12 sec) 
Heartbeat CPU 3 instructions: 4950000001 cycles: 4507150468 heartbeat IPC: 1.08095 cumulative IPC: 1.07132 (Simulation time: 23 hr 30 min 50 sec) 
Heartbeat CPU 3 instructions: 4960000000 cycles: 4516557843 heartbeat IPC: 1.063 cumulative IPC: 1.0713 (Simulation time: 23 hr 32 min 53 sec) 
Heartbeat CPU 0 instructions: 3490000000 cycles: 4518236039 heartbeat IPC: 0.706518 cumulative IPC: 0.721911 (Simulation time: 23 hr 33 min 17 sec) 
Heartbeat CPU 3 instructions: 4970000002 cycles: 4525804970 heartbeat IPC: 1.08142 cumulative IPC: 1.07132 (Simulation time: 23 hr 34 min 57 sec) 
Heartbeat CPU 0 instructions: 3500000000 cycles: 4532418859 heartbeat IPC: 0.705078 cumulative IPC: 0.721856 (Simulation time: 23 hr 36 min 22 sec) 
Heartbeat CPU 1 instructions: 1790000002 cycles: 4534654538 heartbeat IPC: 0.329787 cumulative IPC: 0.355572 (Simulation time: 23 hr 36 min 53 sec) 
Heartbeat CPU 3 instructions: 4980000000 cycles: 4535092504 heartbeat IPC: 1.07671 cumulative IPC: 1.07133 (Simulation time: 23 hr 36 min 59 sec) 
Heartbeat CPU 2 instructions: 1200000000 cycles: 4543742216 heartbeat IPC: 0.225616 cumulative IPC: 0.227453 (Simulation time: 23 hr 38 min 51 sec) 
Finished CPU 2 instructions: 1000000000 cycles: 4396511770 cumulative IPC: 0.227453 (Simulation time: 23 hr 38 min 51 sec) 

CPU 0 Branch Prediction Accuracy: 99.975% MPKI: 0.0042034

CPU 1 Branch Prediction Accuracy: 90.9754% MPKI: 16.0345

CPU 2 Branch Prediction Accuracy: 96.7197% MPKI: 4.86726

CPU 3 Branch Prediction Accuracy: 99.9709% MPKI: 0.00715559

ChampSim completed all CPUs

Total Simulation Statistics (not including warmup)

CPU 0 cumulative IPC: 0.721825 instructions: 3173512509 cycles: 4396511770
L1D TOTAL     ACCESS:  669593764  HIT:  627596206  MISS:   41997558
L1D LOAD      ACCESS:  446891539  HIT:  404935808  MISS:   41955731
L1D RFO       ACCESS:  222702225  HIT:  222660398  MISS:      41827
L1D PREFETCH  ACCESS:          0  HIT:          0  MISS:          0
L1D WRITEBACK ACCESS:          0  HIT:          0  MISS:          0
L1I TOTAL     ACCESS:  647142931  HIT:  647142931  MISS:          0
L1I LOAD      ACCESS:  647142931  HIT:  647142931  MISS:          0
L1I RFO       ACCESS:          0  HIT:          0  MISS:          0
L1I PREFETCH  ACCESS:          0  HIT:          0  MISS:          0
L1I WRITEBACK ACCESS:          0  HIT:          0  MISS:          0
L2C TOTAL     ACCESS:   93973369  HIT:   52706473  MISS:   41266896
L2C LOAD      ACCESS:   41955731  HIT:   24772515  MISS:   17183216
L2C RFO       ACCESS:      41827  HIT:       8333  MISS:      33494
L2C PREFETCH  ACCESS:   24089557  HIT:      39371  MISS:   24050186
L2C WRITEBACK ACCESS:   27886254  HIT:   27886254  MISS:          0

L2C Best-offset prefetcher final stats
LLC TOTAL     ACCESS:   69132342  HIT:   41298606  MISS:   27833736
LLC LOAD      ACCESS:    1088581  HIT:     485058  MISS:     603523
LLC RFO       ACCESS:      33493  HIT:      33493  MISS:          0
LLC PREFETCH  ACCESS:   40144843  HIT:   12914881  MISS:   27229962
LLC WRITEBACK ACCESS:   27865425  HIT:   27865174  MISS:        251

CPU 1 cumulative IPC: 0.355493 instructions: 1562929242 cycles: 4396511770
L1D TOTAL     ACCESS:  545301003  HIT:  531245575  MISS:   14055428
L1D LOAD      ACCESS:  333346853  HIT:  321274372  MISS:   12072481
L1D RFO       ACCESS:  211954150  HIT:  209971203  MISS:    1982947
L1D PREFETCH  ACCESS:          0  HIT:          0  MISS:          0
L1D WRITEBACK ACCESS:          0  HIT:          0  MISS:          0
L1I TOTAL     ACCESS:  431971360  HIT:  424630441  MISS:    7340919
L1I LOAD      ACCESS:  431971360  HIT:  424630441  MISS:    7340919
L1I RFO       ACCESS:          0  HIT:          0  MISS:          0
L1I PREFETCH  ACCESS:          0  HIT:          0  MISS:          0
L1I WRITEBACK ACCESS:          0  HIT:          0  MISS:          0
L2C TOTAL     ACCESS:   29999386  HIT:   21238750  MISS:    8760636
L2C LOAD      ACCESS:   19413233  HIT:   15408426  MISS:    4004807
L2C RFO       ACCESS:    1982877  HIT:     844877  MISS:    1138000
L2C PREFETCH  ACCESS:    4689531  HIT:    1118662  MISS:    3570869
L2C WRITEBACK ACCESS:    3913745  HIT:    3866785  MISS:      46960

L2C Best-offset prefetcher final stats
LLC TOTAL     ACCESS:   10706581  HIT:    5182989  MISS:    5523592
LLC LOAD      ACCESS:    3635725  HIT:    1716565  MISS:    1919160
LLC RFO       ACCESS:    1129724  HIT:     373151  MISS:     756573
LLC PREFETCH  ACCESS:    3949875  HIT:    1526081  MISS:    2423794
LLC WRITEBACK ACCESS:    1991257  HIT:    1567192  MISS:     424065

CPU 2 cumulative IPC: 0.227453 instructions: 1000000000 cycles: 4396511770
L1D TOTAL     ACCESS:  443704326  HIT:  423688520  MISS:   20015806
L1D LOAD      ACCESS:  262220163  HIT:  244724029  MISS:   17496134
L1D RFO       ACCESS:  181484163  HIT:  178964491  MISS:    2519672
L1D PREFETCH  ACCESS:          0  HIT:          0  MISS:          0
L1D WRITEBACK ACCESS:          0  HIT:          0  MISS:          0
L1I TOTAL     ACCESS:  356258923  HIT:  355879810  MISS:     379113
L1I LOAD      ACCESS:  356258923  HIT:  355879810  MISS:     379113
L1I RFO       ACCESS:          0  HIT:          0  MISS:          0
L1I PREFETCH  ACCESS:          0  HIT:          0  MISS:          0
L1I WRITEBACK ACCESS:          0  HIT:          0  MISS:          0
L2C TOTAL     ACCESS:   41075217  HIT:   19322050  MISS:   21753167
L2C LOAD      ACCESS:   17874652  HIT:    7012887  MISS:   10861765
L2C RFO       ACCESS:    2519528  HIT:     983755  MISS:    1535773
L2C PREFETCH  ACCESS:   11006313  HIT:    1701048  MISS:    9305265
L2C WRITEBACK ACCESS:    9674724  HIT:    9624360  MISS:      50364

L2C Best-offset prefetcher final stats
LLC TOTAL     ACCESS:   29342652  HIT:   13822917  MISS:   15519735
LLC LOAD      ACCESS:   10672204  HIT:    3055542  MISS:    7616662
LLC RFO       ACCESS:    1460104  HIT:     572708  MISS:     887396
LLC PREFETCH  ACCESS:    9570848  HIT:    2599604  MISS:    6971244
LLC WRITEBACK ACCESS:    7639496  HIT:    7595063  MISS:      44433

CPU 3 cumulative IPC: 1.07133 instructions: 4710112408 cycles: 4396511771
L1D TOTAL     ACCESS: 1795866166  HIT: 1697982509  MISS:   97883657
L1D LOAD      ACCESS: 1533749974  HIT: 1438867084  MISS:   94882890
L1D RFO       ACCESS:  262116192  HIT:  259115425  MISS:    3000767
L1D PREFETCH  ACCESS:          0  HIT:          0  MISS:          0
L1D WRITEBACK ACCESS:          0  HIT:          0  MISS:          0
L1I TOTAL     ACCESS: 1168091983  HIT: 1168091983  MISS:          0
L1I LOAD      ACCESS: 1168091983  HIT: 1168091983  MISS:          0
L1I RFO       ACCESS:          0  HIT:          0  MISS:          0
L1I PREFETCH  ACCESS:          0  HIT:          0  MISS:          0
L1I WRITEBACK ACCESS:          0  HIT:          0  MISS:          0
L2C TOTAL     ACCESS:  157810688  HIT:   67971379  MISS:   89839309
L2C LOAD      ACCESS:   94856058  HIT:   63635961  MISS:   31220097
L2C RFO       ACCESS:    2942248  HIT:     647274  MISS:    2294974
L2C PREFETCH  ACCESS:   56744862  HIT:     442595  MISS:   56302267
L2C WRITEBACK ACCESS:    3267520  HIT:    3245549  MISS:      21971

L2C Best-offset prefetcher final stats
LLC TOTAL     ACCESS:  109858865  HIT:   20349214  MISS:   89509651
LLC LOAD      ACCESS:   23439291  HIT:   17717374  MISS:    5721917
LLC RFO       ACCESS:    2294974  HIT:          0  MISS:    2294974
LLC PREFETCH  ACCESS:   81804888  HIT:     315840  MISS:   81489048
LLC WRITEBACK ACCESS:    2319712  HIT:    2316000  MISS:       3712

Region of Interest Statistics

CPU 0 cumulative IPC: 0.72273 instructions: 1000000003 cycles: 1383642185
L1D TOTAL     ACCESS:  211003941  HIT:  197770168  MISS:   13233773
L1D LOAD      ACCESS:  140828542  HIT:  127607949  MISS:   13220593
L1D RFO       ACCESS:   70175399  HIT:   70162219  MISS:      13180
L1D PREFETCH  ACCESS:          0  HIT:          0  MISS:          0
L1D WRITEBACK ACCESS:          0  HIT:          0  MISS:          0
L1D PREFETCH  REQUESTED:          0  ISSUED:          0  USEFUL:          0  USELESS:          0
L1I TOTAL     ACCESS:  203968606  HIT:  203968606  MISS:          0
L1I LOAD      ACCESS:  203968606  HIT:  203968606  MISS:          0
L1I RFO       ACCESS:          0  HIT:          0  MISS:          0
L1I PREFETCH  ACCESS:          0  HIT:          0  MISS:          0
L1I WRITEBACK ACCESS:          0  HIT:          0  MISS:          0
L1I PREFETCH  REQUESTED:          0  ISSUED:          0  USEFUL:          0  USELESS:          0
L2C TOTAL     ACCESS:   29459342  HIT:   16517766  MISS:   12941576
L2C LOAD      ACCESS:   13220593  HIT:    7715117  MISS:    5505476
L2C RFO       ACCESS:      13180  HIT:       2777  MISS:      10403
L2C PREFETCH  ACCESS:    7438378  HIT:      12681  MISS:    7425697
L2C WRITEBACK ACCESS:    8787191  HIT:    8787191  MISS:          0
L2C PREFETCH  REQUESTED:   44297988  ISSUED:   44297988  USEFUL:   27972451  USELESS:     143855
LLC TOTAL     ACCESS:   21722449  HIT:   12952165  MISS:    8770284
LLC LOAD      ACCESS:     280723  HIT:     132596  MISS:     148127
LLC RFO       ACCESS:      10403  HIT:      10403  MISS:          0
LLC PREFETCH  ACCESS:   12650450  HIT:    4028333  MISS:    8622117
LLC WRITEBACK ACCESS:    8780873  HIT:    8780833  MISS:         40
LLC PREFETCH  REQUESTED:          0  ISSUED:          0  USEFUL:   18573389  USELESS:  108846767
Major fault: 0 Minor fault: 274488

CPU 1 cumulative IPC: 0.352303 instructions: 1000000000 cycles: 2838461950
L1D TOTAL     ACCESS:  349160084  HIT:  339390158  MISS:    9769926
L1D LOAD      ACCESS:  214004212  HIT:  205446522  MISS:    8557690
L1D RFO       ACCESS:  135155872  HIT:  133943636  MISS:    1212236
L1D PREFETCH  ACCESS:          0  HIT:          0  MISS:          0
L1D WRITEBACK ACCESS:          0  HIT:          0  MISS:          0
L1D PREFETCH  REQUESTED:          0  ISSUED:          0  USEFUL:          0  USELESS:          0
L1I TOTAL     ACCESS:  272541898  HIT:  267793500  MISS:    4748398
L1I LOAD      ACCESS:  272541898  HIT:  267793500  MISS:    4748398
L1I RFO       ACCESS:          0  HIT:          0  MISS:          0
L1I PREFETCH  ACCESS:          0  HIT:          0  MISS:          0
L1I WRITEBACK ACCESS:          0  HIT:          0  MISS:          0
L1I PREFETCH  REQUESTED:          0  ISSUED:          0  USEFUL:          0  USELESS:          0
L2C TOTAL     ACCESS:   20317177  HIT:   14461449  MISS:    5855728
L2C LOAD      ACCESS:   13305973  HIT:   10576560  MISS:    2729413
L2C RFO       ACCESS:    1212183  HIT:     516052  MISS:     696131
L2C PREFETCH  ACCESS:    3243208  HIT:     841753  MISS:    2401455
L2C WRITEBACK ACCESS:    2555813  HIT:    2527084  MISS:      28729
L2C PREFETCH  REQUESTED:    6899731  ISSUED:    6899731  USEFUL:    2352654  USELESS:    2025135
LLC TOTAL     ACCESS:    7137113  HIT:    3661642  MISS:    3475471
LLC LOAD      ACCESS:    2489283  HIT:    1278188  MISS:    1211095
LLC RFO       ACCESS:     690506  HIT:     202692  MISS:     487814
LLC PREFETCH  ACCESS:    2648188  HIT:    1132361  MISS:    1515827
LLC WRITEBACK ACCESS:    1309136  HIT:    1048401  MISS:     260735
LLC PREFETCH  REQUESTED:          0  ISSUED:          0  USEFUL:   18573389  USELESS:  108846767
Major fault: 0 Minor fault: 31614

CPU 2 cumulative IPC: 0.227453 instructions: 1000000000 cycles: 4396511770
L1D TOTAL     ACCESS:  443704326  HIT:  423688520  MISS:   20015806
L1D LOAD      ACCESS:  262220163  HIT:  244724029  MISS:   17496134
L1D RFO       ACCESS:  181484163  HIT:  178964491  MISS:    2519672
L1D PREFETCH  ACCESS:          0  HIT:          0  MISS:          0
L1D WRITEBACK ACCESS:          0  HIT:          0  MISS:          0
L1D PREFETCH  REQUESTED:          0  ISSUED:          0  USEFUL:          0  USELESS:          0
L1I TOTAL     ACCESS:  356258923  HIT:  355879810  MISS:     379113
L1I LOAD      ACCESS:  356258923  HIT:  355879810  MISS:     379113
L1I RFO       ACCESS:          0  HIT:          0  MISS:          0
L1I PREFETCH  ACCESS:          0  HIT:          0  MISS:          0
L1I WRITEBACK ACCESS:          0  HIT:          0  MISS:          0
L1I PREFETCH  REQUESTED:          0  ISSUED:          0  USEFUL:          0  USELESS:          0
L2C TOTAL     ACCESS:   41075217  HIT:   19322050  MISS:   21753167
L2C LOAD      ACCESS:   17874652  HIT:    7012887  MISS:   10861765
L2C RFO       ACCESS:    2519528  HIT:     983755  MISS:    1535773
L2C PREFETCH  ACCESS:   11006313  HIT:    1701048  MISS:    9305265
L2C WRITEBACK ACCESS:    9674724  HIT:    9624360  MISS:      50364
L2C PREFETCH  REQUESTED:   15621140  ISSUED:   15621140  USEFUL:    3535219  USELESS:    7749238
LLC TOTAL     ACCESS:   29342652  HIT:   13822917  MISS:   15519735
LLC LOAD      ACCESS:   10672204  HIT:    3055542  MISS:    7616662
LLC RFO       ACCESS:    1460104  HIT:     572708  MISS:     887396
LLC PREFETCH  ACCESS:    9570848  HIT:    2599604  MISS:    6971244
LLC WRITEBACK ACCESS:    7639496  HIT:    7595063  MISS:      44433
LLC PREFETCH  REQUESTED:          0  ISSUED:          0  USEFUL:   18573389  USELESS:  108846767
Major fault: 0 Minor fault: 52120

CPU 3 cumulative IPC: 1.08247 instructions: 1000000000 cycles: 923815391
L1D TOTAL     ACCESS:  381364454  HIT:  360582381  MISS:   20782073
L1D LOAD      ACCESS:  325672706  HIT:  305527931  MISS:   20144775
L1D RFO       ACCESS:   55691748  HIT:   55054450  MISS:     637298
L1D PREFETCH  ACCESS:          0  HIT:          0  MISS:          0
L1D WRITEBACK ACCESS:          0  HIT:          0  MISS:          0
L1D PREFETCH  REQUESTED:          0  ISSUED:          0  USEFUL:          0  USELESS:          0
L1I TOTAL     ACCESS:  247881914  HIT:  247881914  MISS:          0
L1I LOAD      ACCESS:  247881914  HIT:  247881914  MISS:          0
L1I RFO       ACCESS:          0  HIT:          0  MISS:          0
L1I PREFETCH  ACCESS:          0  HIT:          0  MISS:          0
L1I WRITEBACK ACCESS:          0  HIT:          0  MISS:          0
L1I PREFETCH  REQUESTED:          0  ISSUED:          0  USEFUL:          0  USELESS:          0
L2C TOTAL     ACCESS:   33716802  HIT:   14637915  MISS:   19078887
L2C LOAD      ACCESS:   20139105  HIT:   13715180  MISS:    6423925
L2C RFO       ACCESS:     624755  HIT:     137512  MISS:     487243
L2C PREFETCH  ACCESS:   12259033  HIT:      95910  MISS:   12163123
L2C WRITEBACK ACCESS:     693909  HIT:     689313  MISS:       4596
L2C PREFETCH  REQUESTED:   87453429  ISSUED:   87453429  USEFUL:   61226353  USELESS:       1761
LLC TOTAL     ACCESS:   23173008  HIT:    4169359  MISS:   19003649
LLC LOAD      ACCESS:    4800341  HIT:    3606384  MISS:    1193957
LLC RFO       ACCESS:     487243  HIT:          0  MISS:     487243
LLC PREFETCH  ACCESS:   17392997  HIT:      71338  MISS:   17321659
LLC WRITEBACK ACCESS:     492427  HIT:     491637  MISS:        790
LLC PREFETCH  REQUESTED:          0  ISSUED:          0  USEFUL:   18573389  USELESS:  108846767
Major fault: 0 Minor fault: 563665

L2C Best-offset prefetcher final stats

L2C Best-offset prefetcher final stats

L2C Best-offset prefetcher final stats

L2C Best-offset prefetcher final stats

DRAM Statistics
 CHANNEL 0
 RQ ROW_BUFFER_HIT:   42604569  ROW_BUFFER_MISS:   26304205
 DBUS_CONGESTED:   76950516
 WQ ROW_BUFFER_HIT:    2158235  ROW_BUFFER_MISS:   16278058  FULL:          0

 CHANNEL 1
 RQ ROW_BUFFER_HIT:   42584470  ROW_BUFFER_MISS:   26416835
 DBUS_CONGESTED:   76950516
 WQ ROW_BUFFER_HIT:    2152985  ROW_BUFFER_MISS:   16275311  FULL:          0

 AVG_CONGESTED_CYCLE: 12
