
*** ChampSim Multicore Out-of-Order Simulator ***

Warmup Instructions: 200000000
Simulation Instructions: 1000000000
Number of CPUs: 4
LLC sets: 8192
LLC ways: 16
Off-chip DRAM Size: 8192 MB Channels: 2 Width: 64-bit Data Rate: 1600 MT/s

CPU 0 runs /scratch/user/djimenez/champsim-traces/speccpu2017/xz/619.lbm_s/619.lbm_s-3766B.champsimtrace.xz
CPU 1 runs /scratch/user/djimenez/champsim-traces/speccpu2017/xz/649.fotonik3d_s/649.fotonik3d_s-10881B.champsimtrace.xz
CPU 2 runs /scratch/user/djimenez/champsim-traces/speccpu2017/xz/623.xalancbmk_s/623.xalancbmk_s-165B.champsimtrace.xz
CPU 3 runs /scratch/user/djimenez/champsim-traces/speccpu2017/xz/649.fotonik3d_s/649.fotonik3d_s-8225B.champsimtrace.xz
L2C Best-offset prefetcher
L2C Best-offset prefetcher
L2C Best-offset prefetcher
L2C Best-offset prefetcher
Heartbeat CPU 2 instructions: 10000001 cycles: 4164487 heartbeat IPC: 2.40126 cumulative IPC: 2.40126 (Simulation time: 0 hr 1 min 48 sec) 
Heartbeat CPU 0 instructions: 10000000 cycles: 4276719 heartbeat IPC: 2.33824 cumulative IPC: 2.33824 (Simulation time: 0 hr 1 min 51 sec) 
Heartbeat CPU 3 instructions: 10000001 cycles: 4399857 heartbeat IPC: 2.2728 cumulative IPC: 2.2728 (Simulation time: 0 hr 1 min 54 sec) 
Heartbeat CPU 2 instructions: 20000000 cycles: 8324255 heartbeat IPC: 2.40398 cumulative IPC: 2.40262 (Simulation time: 0 hr 3 min 35 sec) 
Heartbeat CPU 1 instructions: 10000001 cycles: 8411790 heartbeat IPC: 1.18881 cumulative IPC: 1.18881 (Simulation time: 0 hr 3 min 37 sec) 
Heartbeat CPU 0 instructions: 20000000 cycles: 8564013 heartbeat IPC: 2.33247 cumulative IPC: 2.33535 (Simulation time: 0 hr 3 min 41 sec) 
Heartbeat CPU 3 instructions: 20000000 cycles: 8798900 heartbeat IPC: 2.27322 cumulative IPC: 2.27301 (Simulation time: 0 hr 3 min 47 sec) 
Heartbeat CPU 2 instructions: 30000001 cycles: 12479492 heartbeat IPC: 2.4066 cumulative IPC: 2.40394 (Simulation time: 0 hr 5 min 23 sec) 
Heartbeat CPU 0 instructions: 30000001 cycles: 12842804 heartbeat IPC: 2.33711 cumulative IPC: 2.33594 (Simulation time: 0 hr 5 min 33 sec) 
Heartbeat CPU 3 instructions: 30000003 cycles: 13197647 heartbeat IPC: 2.27338 cumulative IPC: 2.27313 (Simulation time: 0 hr 5 min 42 sec) 
Heartbeat CPU 2 instructions: 40000000 cycles: 16630824 heartbeat IPC: 2.40887 cumulative IPC: 2.40517 (Simulation time: 0 hr 7 min 11 sec) 
Heartbeat CPU 1 instructions: 20000000 cycles: 16787853 heartbeat IPC: 1.19388 cumulative IPC: 1.19134 (Simulation time: 0 hr 7 min 15 sec) 
Heartbeat CPU 0 instructions: 40000000 cycles: 17130595 heartbeat IPC: 2.3322 cumulative IPC: 2.335 (Simulation time: 0 hr 7 min 24 sec) 
Heartbeat CPU 3 instructions: 40000000 cycles: 17596475 heartbeat IPC: 2.27333 cumulative IPC: 2.27318 (Simulation time: 0 hr 7 min 36 sec) 
Heartbeat CPU 2 instructions: 50000000 cycles: 20783408 heartbeat IPC: 2.40814 cumulative IPC: 2.40577 (Simulation time: 0 hr 8 min 59 sec) 
Heartbeat CPU 0 instructions: 50000001 cycles: 21418347 heartbeat IPC: 2.33222 cumulative IPC: 2.33445 (Simulation time: 0 hr 9 min 16 sec) 
Heartbeat CPU 3 instructions: 50000002 cycles: 21995305 heartbeat IPC: 2.27333 cumulative IPC: 2.27321 (Simulation time: 0 hr 9 min 31 sec) 
Heartbeat CPU 2 instructions: 60000000 cycles: 24933741 heartbeat IPC: 2.40945 cumulative IPC: 2.40638 (Simulation time: 0 hr 10 min 47 sec) 
Heartbeat CPU 1 instructions: 30000000 cycles: 25158859 heartbeat IPC: 1.1946 cumulative IPC: 1.19242 (Simulation time: 0 hr 10 min 52 sec) 
Heartbeat CPU 0 instructions: 60000000 cycles: 25696777 heartbeat IPC: 2.33731 cumulative IPC: 2.33492 (Simulation time: 0 hr 11 min 6 sec) 
Heartbeat CPU 3 instructions: 60000000 cycles: 26394736 heartbeat IPC: 2.27302 cumulative IPC: 2.27318 (Simulation time: 0 hr 11 min 23 sec) 
Heartbeat CPU 2 instructions: 70000000 cycles: 29089070 heartbeat IPC: 2.40655 cumulative IPC: 2.4064 (Simulation time: 0 hr 12 min 32 sec) 
Heartbeat CPU 0 instructions: 70000003 cycles: 29984371 heartbeat IPC: 2.33231 cumulative IPC: 2.33455 (Simulation time: 0 hr 12 min 55 sec) 
Heartbeat CPU 3 instructions: 70000001 cycles: 30794738 heartbeat IPC: 2.27273 cumulative IPC: 2.27312 (Simulation time: 0 hr 13 min 23 sec) 
Heartbeat CPU 2 instructions: 80000000 cycles: 33237775 heartbeat IPC: 2.41039 cumulative IPC: 2.4069 (Simulation time: 0 hr 14 min 30 sec) 
Heartbeat CPU 1 instructions: 40000000 cycles: 33537209 heartbeat IPC: 1.19355 cumulative IPC: 1.19271 (Simulation time: 0 hr 14 min 38 sec) 
Heartbeat CPU 0 instructions: 80000000 cycles: 34262980 heartbeat IPC: 2.33721 cumulative IPC: 2.33488 (Simulation time: 0 hr 14 min 57 sec) 
Heartbeat CPU 3 instructions: 80000000 cycles: 35193650 heartbeat IPC: 2.27329 cumulative IPC: 2.27314 (Simulation time: 0 hr 15 min 25 sec) 
Heartbeat CPU 2 instructions: 90000000 cycles: 37397222 heartbeat IPC: 2.40417 cumulative IPC: 2.4066 (Simulation time: 0 hr 16 min 47 sec) 
Heartbeat CPU 0 instructions: 90000001 cycles: 38550409 heartbeat IPC: 2.3324 cumulative IPC: 2.33461 (Simulation time: 0 hr 17 min 30 sec) 
Heartbeat CPU 3 instructions: 90000002 cycles: 39592259 heartbeat IPC: 2.27345 cumulative IPC: 2.27317 (Simulation time: 0 hr 18 min 27 sec) 
Heartbeat CPU 2 instructions: 100000000 cycles: 41546026 heartbeat IPC: 2.41033 cumulative IPC: 2.40697 (Simulation time: 0 hr 20 min 12 sec) 
Heartbeat CPU 1 instructions: 50000001 cycles: 41957437 heartbeat IPC: 1.18762 cumulative IPC: 1.19168 (Simulation time: 0 hr 20 min 24 sec) 
Heartbeat CPU 0 instructions: 100000000 cycles: 42829213 heartbeat IPC: 2.3371 cumulative IPC: 2.33485 (Simulation time: 0 hr 20 min 47 sec) 
Heartbeat CPU 3 instructions: 100000000 cycles: 43990819 heartbeat IPC: 2.27347 cumulative IPC: 2.2732 (Simulation time: 0 hr 21 min 18 sec) 
Heartbeat CPU 2 instructions: 110000003 cycles: 45698350 heartbeat IPC: 2.40829 cumulative IPC: 2.40709 (Simulation time: 0 hr 22 min 3 sec) 
Heartbeat CPU 0 instructions: 110000001 cycles: 47142992 heartbeat IPC: 2.31815 cumulative IPC: 2.33333 (Simulation time: 0 hr 22 min 42 sec) 
Heartbeat CPU 3 instructions: 110000000 cycles: 48389710 heartbeat IPC: 2.2733 cumulative IPC: 2.27321 (Simulation time: 0 hr 23 min 15 sec) 
Heartbeat CPU 2 instructions: 120000000 cycles: 49862100 heartbeat IPC: 2.40168 cumulative IPC: 2.40664 (Simulation time: 0 hr 23 min 54 sec) 
Heartbeat CPU 1 instructions: 60000000 cycles: 50340229 heartbeat IPC: 1.19292 cumulative IPC: 1.19189 (Simulation time: 0 hr 24 min 7 sec) 
Heartbeat CPU 0 instructions: 120000000 cycles: 51474732 heartbeat IPC: 2.30854 cumulative IPC: 2.33124 (Simulation time: 0 hr 24 min 37 sec) 
Heartbeat CPU 3 instructions: 120000000 cycles: 52789548 heartbeat IPC: 2.27281 cumulative IPC: 2.27318 (Simulation time: 0 hr 25 min 12 sec) 
Heartbeat CPU 2 instructions: 130000001 cycles: 54020426 heartbeat IPC: 2.40481 cumulative IPC: 2.4065 (Simulation time: 0 hr 25 min 45 sec) 
Heartbeat CPU 0 instructions: 130000003 cycles: 55926269 heartbeat IPC: 2.24642 cumulative IPC: 2.32449 (Simulation time: 0 hr 26 min 36 sec) 
Heartbeat CPU 3 instructions: 130000002 cycles: 57189112 heartbeat IPC: 2.27295 cumulative IPC: 2.27316 (Simulation time: 0 hr 27 min 9 sec) 
Heartbeat CPU 2 instructions: 140000000 cycles: 58175951 heartbeat IPC: 2.40643 cumulative IPC: 2.40649 (Simulation time: 0 hr 27 min 36 sec) 
Heartbeat CPU 1 instructions: 70000003 cycles: 58711086 heartbeat IPC: 1.19462 cumulative IPC: 1.19228 (Simulation time: 0 hr 27 min 50 sec) 
Heartbeat CPU 0 instructions: 140000000 cycles: 60458838 heartbeat IPC: 2.20625 cumulative IPC: 2.31562 (Simulation time: 0 hr 28 min 36 sec) 
Heartbeat CPU 3 instructions: 140000000 cycles: 61588235 heartbeat IPC: 2.27318 cumulative IPC: 2.27316 (Simulation time: 0 hr 29 min 6 sec) 
Heartbeat CPU 2 instructions: 150000002 cycles: 62331985 heartbeat IPC: 2.40614 cumulative IPC: 2.40647 (Simulation time: 0 hr 29 min 26 sec) 
Heartbeat CPU 0 instructions: 150000001 cycles: 65121163 heartbeat IPC: 2.14485 cumulative IPC: 2.3034 (Simulation time: 0 hr 30 min 40 sec) 
Heartbeat CPU 3 instructions: 150000000 cycles: 65986968 heartbeat IPC: 2.27338 cumulative IPC: 2.27318 (Simulation time: 0 hr 31 min 3 sec) 
Heartbeat CPU 2 instructions: 160000000 cycles: 66492585 heartbeat IPC: 2.4035 cumulative IPC: 2.40628 (Simulation time: 0 hr 31 min 16 sec) 
Heartbeat CPU 1 instructions: 80000000 cycles: 67100322 heartbeat IPC: 1.192 cumulative IPC: 1.19224 (Simulation time: 0 hr 31 min 33 sec) 
Heartbeat CPU 0 instructions: 160000000 cycles: 70007836 heartbeat IPC: 2.04638 cumulative IPC: 2.28546 (Simulation time: 0 hr 32 min 46 sec) 
Heartbeat CPU 3 instructions: 160000000 cycles: 70385537 heartbeat IPC: 2.27347 cumulative IPC: 2.27319 (Simulation time: 0 hr 32 min 56 sec) 
Heartbeat CPU 2 instructions: 170000003 cycles: 70658174 heartbeat IPC: 2.40062 cumulative IPC: 2.40595 (Simulation time: 0 hr 33 min 2 sec) 
Heartbeat CPU 3 instructions: 170000002 cycles: 74784457 heartbeat IPC: 2.27329 cumulative IPC: 2.2732 (Simulation time: 0 hr 34 min 45 sec) 
Heartbeat CPU 2 instructions: 180000000 cycles: 74824923 heartbeat IPC: 2.39995 cumulative IPC: 2.40562 (Simulation time: 0 hr 34 min 46 sec) 
Heartbeat CPU 0 instructions: 170000002 cycles: 75145848 heartbeat IPC: 1.94628 cumulative IPC: 2.26227 (Simulation time: 0 hr 34 min 54 sec) 
Heartbeat CPU 1 instructions: 90000001 cycles: 75507451 heartbeat IPC: 1.18947 cumulative IPC: 1.19194 (Simulation time: 0 hr 35 min 5 sec) 
Heartbeat CPU 2 instructions: 190000001 cycles: 78988148 heartbeat IPC: 2.40198 cumulative IPC: 2.40542 (Simulation time: 0 hr 36 min 37 sec) 
Heartbeat CPU 3 instructions: 180000000 cycles: 79184378 heartbeat IPC: 2.27277 cumulative IPC: 2.27318 (Simulation time: 0 hr 36 min 42 sec) 
Heartbeat CPU 0 instructions: 180000000 cycles: 80399295 heartbeat IPC: 1.90351 cumulative IPC: 2.23883 (Simulation time: 0 hr 37 min 14 sec) 
Heartbeat CPU 2 instructions: 200000000 cycles: 83155228 heartbeat IPC: 2.39976 cumulative IPC: 2.40514 (Simulation time: 0 hr 38 min 26 sec) 
Heartbeat CPU 3 instructions: 190000000 cycles: 83583813 heartbeat IPC: 2.27302 cumulative IPC: 2.27317 (Simulation time: 0 hr 38 min 37 sec) 
Heartbeat CPU 1 instructions: 100000000 cycles: 83886400 heartbeat IPC: 1.19347 cumulative IPC: 1.19209 (Simulation time: 0 hr 38 min 45 sec) 
Heartbeat CPU 0 instructions: 190000001 cycles: 85732376 heartbeat IPC: 1.87509 cumulative IPC: 2.2162 (Simulation time: 0 hr 39 min 34 sec) 
Heartbeat CPU 2 instructions: 210000002 cycles: 87327286 heartbeat IPC: 2.3969 cumulative IPC: 0.114512 (Simulation time: 0 hr 40 min 16 sec) 
Heartbeat CPU 3 instructions: 200000000 cycles: 87982848 heartbeat IPC: 2.27323 cumulative IPC: 2.27317 (Simulation time: 0 hr 40 min 33 sec) 
Heartbeat CPU 0 instructions: 200000000 cycles: 90929257 heartbeat IPC: 1.92423 cumulative IPC: 2.19951 (Simulation time: 0 hr 41 min 50 sec) 
Heartbeat CPU 2 instructions: 220000000 cycles: 91537871 heartbeat IPC: 2.37497 cumulative IPC: 0.218489 (Simulation time: 0 hr 42 min 5 sec) 
Heartbeat CPU 1 instructions: 110000002 cycles: 92268879 heartbeat IPC: 1.19296 cumulative IPC: 1.19217 (Simulation time: 0 hr 42 min 24 sec) 
Heartbeat CPU 3 instructions: 210000002 cycles: 92382106 heartbeat IPC: 2.27311 cumulative IPC: 0.108246 (Simulation time: 0 hr 42 min 27 sec) 
Heartbeat CPU 2 instructions: 230000000 cycles: 95750461 heartbeat IPC: 2.37384 cumulative IPC: 0.313314 (Simulation time: 0 hr 43 min 55 sec) 
Heartbeat CPU 0 instructions: 210000001 cycles: 96030649 heartbeat IPC: 1.96025 cumulative IPC: 0.104133 (Simulation time: 0 hr 44 min 2 sec) 
Heartbeat CPU 3 instructions: 220000000 cycles: 96783008 heartbeat IPC: 2.27226 cumulative IPC: 0.206648 (Simulation time: 0 hr 44 min 21 sec) 
Heartbeat CPU 2 instructions: 240000000 cycles: 99951081 heartbeat IPC: 2.3806 cumulative IPC: 0.400196 (Simulation time: 0 hr 45 min 44 sec) 
Heartbeat CPU 1 instructions: 120000000 cycles: 100658686 heartbeat IPC: 1.19192 cumulative IPC: 1.19215 (Simulation time: 0 hr 46 min 2 sec) 
Heartbeat CPU 0 instructions: 220000000 cycles: 101006915 heartbeat IPC: 2.00954 cumulative IPC: 0.198006 (Simulation time: 0 hr 46 min 11 sec) 
Heartbeat CPU 3 instructions: 230000001 cycles: 101184460 heartbeat IPC: 2.27198 cumulative IPC: 0.296488 (Simulation time: 0 hr 46 min 16 sec) 
Heartbeat CPU 2 instructions: 250000001 cycles: 104148781 heartbeat IPC: 2.38226 cumulative IPC: 0.480082 (Simulation time: 0 hr 47 min 33 sec) 
Heartbeat CPU 3 instructions: 240000000 cycles: 105586563 heartbeat IPC: 2.27164 cumulative IPC: 0.378836 (Simulation time: 0 hr 48 min 11 sec) 
Heartbeat CPU 0 instructions: 230000003 cycles: 105962704 heartbeat IPC: 2.01784 cumulative IPC: 0.283119 (Simulation time: 0 hr 48 min 20 sec) 
Heartbeat CPU 2 instructions: 260000000 cycles: 108332673 heartbeat IPC: 2.39012 cumulative IPC: 0.55385 (Simulation time: 0 hr 49 min 22 sec) 
Heartbeat CPU 1 instructions: 130000001 cycles: 109062811 heartbeat IPC: 1.18989 cumulative IPC: 1.19197 (Simulation time: 0 hr 49 min 41 sec) 
Heartbeat CPU 3 instructions: 250000000 cycles: 109987728 heartbeat IPC: 2.27213 cumulative IPC: 0.454596 (Simulation time: 0 hr 50 min 5 sec) 
Heartbeat CPU 0 instructions: 240000000 cycles: 110859805 heartbeat IPC: 2.04202 cumulative IPC: 0.360816 (Simulation time: 0 hr 50 min 28 sec) 
Heartbeat CPU 2 instructions: 270000002 cycles: 112511215 heartbeat IPC: 2.39318 cumulative IPC: 0.62216 (Simulation time: 0 hr 51 min 11 sec) 
Heartbeat CPU 3 instructions: 260000000 cycles: 114389660 heartbeat IPC: 2.27173 cumulative IPC: 0.524523 (Simulation time: 0 hr 52 min 0 sec) 
Heartbeat CPU 0 instructions: 250000003 cycles: 115758220 heartbeat IPC: 2.04148 cumulative IPC: 0.431935 (Simulation time: 0 hr 52 min 36 sec) 
Heartbeat CPU 2 instructions: 280000000 cycles: 116689899 heartbeat IPC: 2.3931 cumulative IPC: 0.685578 (Simulation time: 0 hr 53 min 0 sec) 
Heartbeat CPU 1 instructions: 140000000 cycles: 117441785 heartbeat IPC: 1.19346 cumulative IPC: 1.19208 (Simulation time: 0 hr 53 min 20 sec) 
Heartbeat CPU 3 instructions: 270000001 cycles: 118789927 heartbeat IPC: 2.27259 cumulative IPC: 0.589276 (Simulation time: 0 hr 53 min 55 sec) 
Heartbeat CPU 0 instructions: 260000000 cycles: 120653935 heartbeat IPC: 2.0426 cumulative IPC: 0.49729 (Simulation time: 0 hr 54 min 44 sec) 
Heartbeat CPU 2 instructions: 290000000 cycles: 120866112 heartbeat IPC: 2.39451 cumulative IPC: 0.744626 (Simulation time: 0 hr 54 min 49 sec) 
Heartbeat CPU 3 instructions: 280000000 cycles: 123189646 heartbeat IPC: 2.27287 cumulative IPC: 0.649405 (Simulation time: 0 hr 55 min 50 sec) 
Heartbeat CPU 2 instructions: 300000000 cycles: 125042991 heartbeat IPC: 2.39413 cumulative IPC: 0.799725 (Simulation time: 0 hr 56 min 38 sec) 
Heartbeat CPU 0 instructions: 270000003 cycles: 125510877 heartbeat IPC: 2.05891 cumulative IPC: 0.557721 (Simulation time: 0 hr 56 min 51 sec) 
Heartbeat CPU 1 instructions: 150000002 cycles: 125812508 heartbeat IPC: 1.19464 cumulative IPC: 1.19225 (Simulation time: 0 hr 56 min 59 sec) 
Heartbeat CPU 3 instructions: 290000003 cycles: 127589033 heartbeat IPC: 2.27304 cumulative IPC: 0.70539 (Simulation time: 0 hr 57 min 46 sec) 
Heartbeat CPU 2 instructions: 310000001 cycles: 129218448 heartbeat IPC: 2.39495 cumulative IPC: 0.851272 (Simulation time: 0 hr 58 min 28 sec) 
Heartbeat CPU 0 instructions: 280000000 cycles: 130371102 heartbeat IPC: 2.05752 cumulative IPC: 0.613633 (Simulation time: 0 hr 58 min 58 sec) 
Heartbeat CPU 3 instructions: 300000000 cycles: 131988328 heartbeat IPC: 2.27309 cumulative IPC: 0.757643 (Simulation time: 0 hr 59 min 40 sec) 
Heartbeat CPU 2 instructions: 320000000 cycles: 133389980 heartbeat IPC: 2.3972 cumulative IPC: 0.899618 (Simulation time: 1 hr 0 min 17 sec) 
Heartbeat CPU 1 instructions: 160000000 cycles: 134211466 heartbeat IPC: 1.19062 cumulative IPC: 1.19215 (Simulation time: 1 hr 0 min 39 sec) 
Heartbeat CPU 0 instructions: 290000002 cycles: 135246872 heartbeat IPC: 2.05096 cumulative IPC: 0.66545 (Simulation time: 1 hr 1 min 6 sec) 
Heartbeat CPU 3 instructions: 310000001 cycles: 136387765 heartbeat IPC: 2.27302 cumulative IPC: 0.806524 (Simulation time: 1 hr 1 min 36 sec) 
Heartbeat CPU 2 instructions: 330000001 cycles: 137564473 heartbeat IPC: 2.3955 cumulative IPC: 0.945011 (Simulation time: 1 hr 2 min 7 sec) 
Heartbeat CPU 0 instructions: 300000000 cycles: 140151553 heartbeat IPC: 2.03887 cumulative IPC: 0.713513 (Simulation time: 1 hr 3 min 14 sec) 
Heartbeat CPU 3 instructions: 320000000 cycles: 140786956 heartbeat IPC: 2.27314 cumulative IPC: 0.852352 (Simulation time: 1 hr 3 min 31 sec) 
Heartbeat CPU 2 instructions: 340000000 cycles: 141728071 heartbeat IPC: 2.40177 cumulative IPC: 0.987807 (Simulation time: 1 hr 3 min 55 sec) 
Heartbeat CPU 1 instructions: 170000000 cycles: 142613459 heartbeat IPC: 1.19019 cumulative IPC: 1.19203 (Simulation time: 1 hr 4 min 18 sec) 
Heartbeat CPU 0 instructions: 310000003 cycles: 145098251 heartbeat IPC: 2.02155 cumulative IPC: 0.758107 (Simulation time: 1 hr 5 min 23 sec) 
Heartbeat CPU 3 instructions: 330000003 cycles: 145186578 heartbeat IPC: 2.27292 cumulative IPC: 0.8954 (Simulation time: 1 hr 5 min 25 sec) 
Heartbeat CPU 2 instructions: 350000001 cycles: 145889918 heartbeat IPC: 2.40278 cumulative IPC: 1.02817 (Simulation time: 1 hr 5 min 44 sec) 
Heartbeat CPU 3 instructions: 340000000 cycles: 149585542 heartbeat IPC: 2.27326 cumulative IPC: 0.935919 (Simulation time: 1 hr 7 min 20 sec) 
Heartbeat CPU 2 instructions: 360000000 cycles: 150049037 heartbeat IPC: 2.40436 cumulative IPC: 1.06632 (Simulation time: 1 hr 7 min 32 sec) 
Heartbeat CPU 0 instructions: 320000000 cycles: 150054518 heartbeat IPC: 2.01765 cumulative IPC: 0.799709 (Simulation time: 1 hr 7 min 32 sec) 
Heartbeat CPU 1 instructions: 180000000 cycles: 150986737 heartbeat IPC: 1.19428 cumulative IPC: 1.19216 (Simulation time: 1 hr 7 min 57 sec) 
Heartbeat CPU 3 instructions: 350000001 cycles: 153985128 heartbeat IPC: 2.27294 cumulative IPC: 0.97412 (Simulation time: 1 hr 9 min 15 sec) 
Heartbeat CPU 2 instructions: 370000002 cycles: 154204748 heartbeat IPC: 2.40633 cumulative IPC: 1.10243 (Simulation time: 1 hr 9 min 20 sec) 
Heartbeat CPU 0 instructions: 330000000 cycles: 155007046 heartbeat IPC: 2.01917 cumulative IPC: 0.838672 (Simulation time: 1 hr 9 min 41 sec) 
Heartbeat CPU 2 instructions: 380000000 cycles: 158359602 heartbeat IPC: 2.40682 cumulative IPC: 1.13665 (Simulation time: 1 hr 11 min 9 sec) 
Heartbeat CPU 3 instructions: 360000000 cycles: 158384445 heartbeat IPC: 2.27308 cumulative IPC: 1.0102 (Simulation time: 1 hr 11 min 9 sec) 
Heartbeat CPU 1 instructions: 190000001 cycles: 159368863 heartbeat IPC: 1.19301 cumulative IPC: 1.1922 (Simulation time: 1 hr 11 min 36 sec) 
Heartbeat CPU 0 instructions: 340000000 cycles: 159912004 heartbeat IPC: 2.03875 cumulative IPC: 0.875481 (Simulation time: 1 hr 11 min 50 sec) 
Heartbeat CPU 2 instructions: 390000001 cycles: 162508041 heartbeat IPC: 2.41055 cumulative IPC: 1.16917 (Simulation time: 1 hr 12 min 58 sec) 
Heartbeat CPU 3 instructions: 370000003 cycles: 162783750 heartbeat IPC: 2.27309 cumulative IPC: 1.04433 (Simulation time: 1 hr 13 min 5 sec) 
Heartbeat CPU 0 instructions: 350000001 cycles: 164842924 heartbeat IPC: 2.02802 cumulative IPC: 0.909957 (Simulation time: 1 hr 14 min 1 sec) 
Heartbeat CPU 2 instructions: 400000000 cycles: 166652700 heartbeat IPC: 2.41274 cumulative IPC: 1.2001 (Simulation time: 1 hr 14 min 56 sec) 
Heartbeat CPU 3 instructions: 380000000 cycles: 167182916 heartbeat IPC: 2.27316 cumulative IPC: 1.07667 (Simulation time: 1 hr 15 min 11 sec) 
Heartbeat CPU 1 instructions: 200000000 cycles: 167758369 heartbeat IPC: 1.19197 cumulative IPC: 1.19219 (Simulation time: 1 hr 15 min 26 sec) 

Warmup complete CPU 0 instructions: 355946294 cycles: 167758388 (Simulation time: 1 hr 15 min 26 sec) 
Warmup complete CPU 1 instructions: 200000001 cycles: 167758388 (Simulation time: 1 hr 15 min 26 sec) 
Warmup complete CPU 2 instructions: 402665791 cycles: 167758387 (Simulation time: 1 hr 15 min 26 sec) 
Warmup complete CPU 3 instructions: 381308233 cycles: 167758387 (Simulation time: 1 hr 15 min 26 sec) 

Heartbeat CPU 2 instructions: 410000002 cycles: 176623054 heartbeat IPC: 1.00297 cumulative IPC: 0.827353 (Simulation time: 1 hr 17 min 2 sec) 
Heartbeat CPU 0 instructions: 360000000 cycles: 176797481 heartbeat IPC: 0.836501 cumulative IPC: 0.448464 (Simulation time: 1 hr 17 min 4 sec) 
Heartbeat CPU 3 instructions: 390000003 cycles: 182219599 heartbeat IPC: 0.66504 cumulative IPC: 0.60104 (Simulation time: 1 hr 18 min 1 sec) 
Heartbeat CPU 1 instructions: 210000002 cycles: 187675510 heartbeat IPC: 0.50208 cumulative IPC: 0.502081 (Simulation time: 1 hr 18 min 59 sec) 
Heartbeat CPU 2 instructions: 420000000 cycles: 188697399 heartbeat IPC: 0.828202 cumulative IPC: 0.827843 (Simulation time: 1 hr 19 min 10 sec) 
Heartbeat CPU 0 instructions: 370000001 cycles: 198009323 heartbeat IPC: 0.471435 cumulative IPC: 0.464571 (Simulation time: 1 hr 20 min 49 sec) 
Heartbeat CPU 3 instructions: 400000000 cycles: 198684963 heartbeat IPC: 0.607335 cumulative IPC: 0.604392 (Simulation time: 1 hr 20 min 56 sec) 
Heartbeat CPU 2 instructions: 430000000 cycles: 200750863 heartbeat IPC: 0.829637 cumulative IPC: 0.828498 (Simulation time: 1 hr 21 min 18 sec) 
Heartbeat CPU 1 instructions: 220000000 cycles: 207470488 heartbeat IPC: 0.505179 cumulative IPC: 0.503625 (Simulation time: 1 hr 22 min 29 sec) 
Heartbeat CPU 2 instructions: 440000000 cycles: 212775288 heartbeat IPC: 0.831641 cumulative IPC: 0.829338 (Simulation time: 1 hr 23 min 25 sec) 
Heartbeat CPU 3 instructions: 410000000 cycles: 215219311 heartbeat IPC: 0.604802 cumulative IPC: 0.604535 (Simulation time: 1 hr 23 min 51 sec) 
Heartbeat CPU 0 instructions: 380000000 cycles: 219319470 heartbeat IPC: 0.46926 cumulative IPC: 0.466509 (Simulation time: 1 hr 24 min 35 sec) 
Heartbeat CPU 2 instructions: 450000000 cycles: 224836167 heartbeat IPC: 0.829127 cumulative IPC: 0.829293 (Simulation time: 1 hr 25 min 34 sec) 
Heartbeat CPU 1 instructions: 230000002 cycles: 227181386 heartbeat IPC: 0.507334 cumulative IPC: 0.504855 (Simulation time: 1 hr 25 min 59 sec) 
Heartbeat CPU 3 instructions: 420000000 cycles: 231691738 heartbeat IPC: 0.607075 cumulative IPC: 0.605189 (Simulation time: 1 hr 26 min 47 sec) 
Heartbeat CPU 2 instructions: 460000000 cycles: 236836043 heartbeat IPC: 0.833342 cumulative IPC: 0.829996 (Simulation time: 1 hr 27 min 52 sec) 
Heartbeat CPU 0 instructions: 390000000 cycles: 239968787 heartbeat IPC: 0.484278 cumulative IPC: 0.47159 (Simulation time: 1 hr 28 min 26 sec) 
Heartbeat CPU 1 instructions: 240000000 cycles: 247005917 heartbeat IPC: 0.504425 cumulative IPC: 0.504748 (Simulation time: 1 hr 29 min 39 sec) 
Heartbeat CPU 3 instructions: 430000003 cycles: 248195612 heartbeat IPC: 0.605919 cumulative IPC: 0.605339 (Simulation time: 1 hr 29 min 52 sec) 
Heartbeat CPU 2 instructions: 470000002 cycles: 248810628 heartbeat IPC: 0.835102 cumulative IPC: 0.830751 (Simulation time: 1 hr 29 min 58 sec) 
Heartbeat CPU 2 instructions: 480000000 cycles: 260820017 heartbeat IPC: 0.832682 cumulative IPC: 0.831 (Simulation time: 1 hr 32 min 22 sec) 
Heartbeat CPU 0 instructions: 400000000 cycles: 261457313 heartbeat IPC: 0.465365 cumulative IPC: 0.470162 (Simulation time: 1 hr 32 min 29 sec) 
Heartbeat CPU 3 instructions: 440000000 cycles: 264735905 heartbeat IPC: 0.604584 cumulative IPC: 0.60521 (Simulation time: 1 hr 33 min 3 sec) 
Heartbeat CPU 1 instructions: 250000001 cycles: 266882715 heartbeat IPC: 0.503099 cumulative IPC: 0.504417 (Simulation time: 1 hr 33 min 26 sec) 
Heartbeat CPU 2 instructions: 490000000 cycles: 272781396 heartbeat IPC: 0.836024 cumulative IPC: 0.831572 (Simulation time: 1 hr 34 min 28 sec) 
Heartbeat CPU 3 instructions: 450000000 cycles: 281224242 heartbeat IPC: 0.606489 cumulative IPC: 0.605396 (Simulation time: 1 hr 35 min 57 sec) 
Heartbeat CPU 0 instructions: 410000003 cycles: 282909404 heartbeat IPC: 0.466155 cumulative IPC: 0.469416 (Simulation time: 1 hr 36 min 15 sec) 
Heartbeat CPU 2 instructions: 500000000 cycles: 284758203 heartbeat IPC: 0.834947 cumulative IPC: 0.831918 (Simulation time: 1 hr 36 min 34 sec) 
Heartbeat CPU 1 instructions: 260000000 cycles: 286667171 heartbeat IPC: 0.505447 cumulative IPC: 0.504588 (Simulation time: 1 hr 36 min 54 sec) 
Heartbeat CPU 2 instructions: 510000000 cycles: 296743019 heartbeat IPC: 0.834389 cumulative IPC: 0.832147 (Simulation time: 1 hr 38 min 40 sec) 
Heartbeat CPU 3 instructions: 460000000 cycles: 297711731 heartbeat IPC: 0.60652 cumulative IPC: 0.605539 (Simulation time: 1 hr 38 min 49 sec) 
Heartbeat CPU 0 instructions: 420000000 cycles: 304509365 heartbeat IPC: 0.462964 cumulative IPC: 0.468397 (Simulation time: 1 hr 40 min 0 sec) 
Heartbeat CPU 1 instructions: 270000001 cycles: 306465430 heartbeat IPC: 0.505095 cumulative IPC: 0.504661 (Simulation time: 1 hr 40 min 20 sec) 
Heartbeat CPU 2 instructions: 520000000 cycles: 308766368 heartbeat IPC: 0.831715 cumulative IPC: 0.83211 (Simulation time: 1 hr 40 min 43 sec) 
Heartbeat CPU 3 instructions: 470000000 cycles: 314206852 heartbeat IPC: 0.60624 cumulative IPC: 0.605618 (Simulation time: 1 hr 41 min 38 sec) 
Heartbeat CPU 2 instructions: 530000000 cycles: 320769162 heartbeat IPC: 0.833139 cumulative IPC: 0.832191 (Simulation time: 1 hr 42 min 41 sec) 
Heartbeat CPU 0 instructions: 430000003 cycles: 326207778 heartbeat IPC: 0.460863 cumulative IPC: 0.467365 (Simulation time: 1 hr 43 min 28 sec) 
Heartbeat CPU 3 instructions: 480000000 cycles: 330760084 heartbeat IPC: 0.604112 cumulative IPC: 0.605465 (Simulation time: 1 hr 44 min 8 sec) 
Heartbeat CPU 2 instructions: 540000000 cycles: 332775604 heartbeat IPC: 0.832886 cumulative IPC: 0.832242 (Simulation time: 1 hr 44 min 25 sec) 
Heartbeat CPU 2 instructions: 550000000 cycles: 344732341 heartbeat IPC: 0.836349 cumulative IPC: 0.832519 (Simulation time: 1 hr 46 min 8 sec) 
Heartbeat CPU 3 instructions: 490000001 cycles: 347376870 heartbeat IPC: 0.601801 cumulative IPC: 0.605126 (Simulation time: 1 hr 46 min 31 sec) 
Heartbeat CPU 0 instructions: 440000000 cycles: 347415556 heartbeat IPC: 0.471525 cumulative IPC: 0.467856 (Simulation time: 1 hr 46 min 31 sec) 
Heartbeat CPU 2 instructions: 560000000 cycles: 356697598 heartbeat IPC: 0.835753 cumulative IPC: 0.832724 (Simulation time: 1 hr 47 min 51 sec) 
Heartbeat CPU 1 instructions: 280000000 cycles: 361907319 heartbeat IPC: 0.180369 cumulative IPC: 0.412055 (Simulation time: 1 hr 48 min 36 sec) 
Heartbeat CPU 3 instructions: 500000000 cycles: 364138766 heartbeat IPC: 0.596591 cumulative IPC: 0.604397 (Simulation time: 1 hr 48 min 55 sec) 
Heartbeat CPU 2 instructions: 570000001 cycles: 368669616 heartbeat IPC: 0.835281 cumulative IPC: 0.832876 (Simulation time: 1 hr 49 min 34 sec) 
Heartbeat CPU 0 instructions: 450000001 cycles: 368846821 heartbeat IPC: 0.466608 cumulative IPC: 0.467723 (Simulation time: 1 hr 49 min 36 sec) 
Heartbeat CPU 2 instructions: 580000000 cycles: 380627971 heartbeat IPC: 0.836235 cumulative IPC: 0.833065 (Simulation time: 1 hr 51 min 17 sec) 
Heartbeat CPU 3 instructions: 510000000 cycles: 380813148 heartbeat IPC: 0.599722 cumulative IPC: 0.604031 (Simulation time: 1 hr 51 min 19 sec) 
Heartbeat CPU 0 instructions: 460000000 cycles: 389806545 heartbeat IPC: 0.477105 cumulative IPC: 0.468609 (Simulation time: 1 hr 52 min 37 sec) 
Heartbeat CPU 2 instructions: 590000002 cycles: 392564828 heartbeat IPC: 0.837742 cumulative IPC: 0.833313 (Simulation time: 1 hr 53 min 0 sec) 
Heartbeat CPU 3 instructions: 520000000 cycles: 397413332 heartbeat IPC: 0.602403 cumulative IPC: 0.603914 (Simulation time: 1 hr 53 min 42 sec) 
Heartbeat CPU 2 instructions: 600000000 cycles: 404539691 heartbeat IPC: 0.835082 cumulative IPC: 0.833403 (Simulation time: 1 hr 54 min 44 sec) 
Heartbeat CPU 0 instructions: 470000002 cycles: 411230327 heartbeat IPC: 0.466771 cumulative IPC: 0.468447 (Simulation time: 1 hr 56 min 15 sec) 
Heartbeat CPU 3 instructions: 530000002 cycles: 414052215 heartbeat IPC: 0.601002 cumulative IPC: 0.603717 (Simulation time: 1 hr 56 min 58 sec) 
Heartbeat CPU 2 instructions: 610000000 cycles: 416466024 heartbeat IPC: 0.838481 cumulative IPC: 0.833646 (Simulation time: 1 hr 57 min 19 sec) 
Heartbeat CPU 1 instructions: 290000000 cycles: 426914299 heartbeat IPC: 0.15383 cumulative IPC: 0.347281 (Simulation time: 1 hr 59 min 10 sec) 
Heartbeat CPU 2 instructions: 620000000 cycles: 428387274 heartbeat IPC: 0.838838 cumulative IPC: 0.833884 (Simulation time: 1 hr 59 min 25 sec) 
Heartbeat CPU 3 instructions: 540000000 cycles: 430505610 heartbeat IPC: 0.607777 cumulative IPC: 0.603971 (Simulation time: 1 hr 59 min 48 sec) 
Heartbeat CPU 0 instructions: 480000000 cycles: 432459030 heartbeat IPC: 0.47106 cumulative IPC: 0.468657 (Simulation time: 2 hr 0 min 10 sec) 
Heartbeat CPU 2 instructions: 630000002 cycles: 440293548 heartbeat IPC: 0.839893 cumulative IPC: 0.834146 (Simulation time: 2 hr 1 min 33 sec) 
Heartbeat CPU 1 instructions: 300000000 cycles: 446936298 heartbeat IPC: 0.499451 cumulative IPC: 0.358195 (Simulation time: 2 hr 2 min 43 sec) 
Heartbeat CPU 3 instructions: 550000003 cycles: 447044104 heartbeat IPC: 0.60465 cumulative IPC: 0.604011 (Simulation time: 2 hr 2 min 45 sec) 
Heartbeat CPU 2 instructions: 640000000 cycles: 452198372 heartbeat IPC: 0.839995 cumulative IPC: 0.834391 (Simulation time: 2 hr 3 min 39 sec) 
Heartbeat CPU 0 instructions: 490000000 cycles: 453601182 heartbeat IPC: 0.472989 cumulative IPC: 0.468977 (Simulation time: 2 hr 3 min 54 sec) 
Heartbeat CPU 3 instructions: 560000000 cycles: 463482241 heartbeat IPC: 0.608341 cumulative IPC: 0.604252 (Simulation time: 2 hr 5 min 39 sec) 
Heartbeat CPU 2 instructions: 650000000 cycles: 464106378 heartbeat IPC: 0.839771 cumulative IPC: 0.834607 (Simulation time: 2 hr 5 min 45 sec) 
Heartbeat CPU 1 instructions: 310000002 cycles: 467093569 heartbeat IPC: 0.496099 cumulative IPC: 0.367481 (Simulation time: 2 hr 6 min 17 sec) 
Heartbeat CPU 0 instructions: 500000000 cycles: 474792992 heartbeat IPC: 0.47188 cumulative IPC: 0.469177 (Simulation time: 2 hr 7 min 38 sec) 
Heartbeat CPU 2 instructions: 660000000 cycles: 476007201 heartbeat IPC: 0.840278 cumulative IPC: 0.834826 (Simulation time: 2 hr 7 min 51 sec) 
Heartbeat CPU 3 instructions: 570000003 cycles: 479983678 heartbeat IPC: 0.606008 cumulative IPC: 0.604345 (Simulation time: 2 hr 8 min 33 sec) 
Heartbeat CPU 1 instructions: 320000000 cycles: 487230021 heartbeat IPC: 0.496612 cumulative IPC: 0.37562 (Simulation time: 2 hr 9 min 50 sec) 
Heartbeat CPU 2 instructions: 670000000 cycles: 487917113 heartbeat IPC: 0.839637 cumulative IPC: 0.835005 (Simulation time: 2 hr 9 min 57 sec) 
Heartbeat CPU 0 instructions: 510000003 cycles: 496218353 heartbeat IPC: 0.466737 cumulative IPC: 0.469018 (Simulation time: 2 hr 11 min 25 sec) 
Heartbeat CPU 3 instructions: 580000000 cycles: 496542277 heartbeat IPC: 0.603916 cumulative IPC: 0.604323 (Simulation time: 2 hr 11 min 28 sec) 
Heartbeat CPU 2 instructions: 680000000 cycles: 499944308 heartbeat IPC: 0.831449 cumulative IPC: 0.834876 (Simulation time: 2 hr 12 min 4 sec) 
Heartbeat CPU 1 instructions: 330000002 cycles: 507370201 heartbeat IPC: 0.49652 cumulative IPC: 0.38279 (Simulation time: 2 hr 13 min 19 sec) 
Heartbeat CPU 2 instructions: 690000000 cycles: 511971028 heartbeat IPC: 0.831482 cumulative IPC: 0.834758 (Simulation time: 2 hr 14 min 5 sec) 
Heartbeat CPU 3 instructions: 590000001 cycles: 513111543 heartbeat IPC: 0.603527 cumulative IPC: 0.604285 (Simulation time: 2 hr 14 min 16 sec) 
Heartbeat CPU 0 instructions: 520000000 cycles: 517345585 heartbeat IPC: 0.473323 cumulative IPC: 0.469278 (Simulation time: 2 hr 14 min 59 sec) 
Heartbeat CPU 2 instructions: 700000000 cycles: 523982554 heartbeat IPC: 0.832534 cumulative IPC: 0.834683 (Simulation time: 2 hr 16 min 6 sec) 
Heartbeat CPU 1 instructions: 340000000 cycles: 527448577 heartbeat IPC: 0.498048 cumulative IPC: 0.389224 (Simulation time: 2 hr 16 min 42 sec) 
Heartbeat CPU 3 instructions: 600000000 cycles: 529691492 heartbeat IPC: 0.603138 cumulative IPC: 0.604233 (Simulation time: 2 hr 17 min 4 sec) 
Heartbeat CPU 2 instructions: 710000000 cycles: 535998217 heartbeat IPC: 0.832247 cumulative IPC: 0.834603 (Simulation time: 2 hr 18 min 7 sec) 
Heartbeat CPU 0 instructions: 530000000 cycles: 538894078 heartbeat IPC: 0.46407 cumulative IPC: 0.468976 (Simulation time: 2 hr 18 min 36 sec) 
Heartbeat CPU 3 instructions: 610000003 cycles: 546261280 heartbeat IPC: 0.603508 cumulative IPC: 0.604201 (Simulation time: 2 hr 19 min 53 sec) 
Heartbeat CPU 1 instructions: 350000003 cycles: 547573109 heartbeat IPC: 0.496906 cumulative IPC: 0.394929 (Simulation time: 2 hr 20 min 8 sec) 
Heartbeat CPU 2 instructions: 720000000 cycles: 548003794 heartbeat IPC: 0.832946 cumulative IPC: 0.834551 (Simulation time: 2 hr 20 min 13 sec) 
Heartbeat CPU 2 instructions: 730000001 cycles: 560003944 heartbeat IPC: 0.833323 cumulative IPC: 0.834513 (Simulation time: 2 hr 22 min 19 sec) 
Heartbeat CPU 0 instructions: 540000000 cycles: 560040800 heartbeat IPC: 0.472887 cumulative IPC: 0.469187 (Simulation time: 2 hr 22 min 19 sec) 
Heartbeat CPU 3 instructions: 620000000 cycles: 562889837 heartbeat IPC: 0.601375 cumulative IPC: 0.604082 (Simulation time: 2 hr 22 min 50 sec) 
Heartbeat CPU 1 instructions: 360000000 cycles: 567791428 heartbeat IPC: 0.494601 cumulative IPC: 0.399967 (Simulation time: 2 hr 23 min 41 sec) 
Heartbeat CPU 2 instructions: 740000000 cycles: 571995619 heartbeat IPC: 0.833912 cumulative IPC: 0.834496 (Simulation time: 2 hr 24 min 24 sec) 
Heartbeat CPU 3 instructions: 630000001 cycles: 579548198 heartbeat IPC: 0.600299 cumulative IPC: 0.603929 (Simulation time: 2 hr 25 min 44 sec) 
Heartbeat CPU 0 instructions: 550000001 cycles: 581120648 heartbeat IPC: 0.474387 cumulative IPC: 0.469452 (Simulation time: 2 hr 26 min 0 sec) 
Heartbeat CPU 2 instructions: 750000000 cycles: 584012930 heartbeat IPC: 0.832133 cumulative IPC: 0.834427 (Simulation time: 2 hr 26 min 31 sec) 
Heartbeat CPU 1 instructions: 370000000 cycles: 588023244 heartbeat IPC: 0.494271 cumulative IPC: 0.404507 (Simulation time: 2 hr 27 min 13 sec) 
Heartbeat CPU 2 instructions: 760000000 cycles: 595990204 heartbeat IPC: 0.834915 cumulative IPC: 0.834441 (Simulation time: 2 hr 28 min 37 sec) 
Heartbeat CPU 3 instructions: 640000000 cycles: 596177383 heartbeat IPC: 0.601352 cumulative IPC: 0.603829 (Simulation time: 2 hr 28 min 39 sec) 
Heartbeat CPU 0 instructions: 560000000 cycles: 602401828 heartbeat IPC: 0.469899 cumulative IPC: 0.469474 (Simulation time: 2 hr 29 min 45 sec) 
Heartbeat CPU 2 instructions: 770000001 cycles: 607963190 heartbeat IPC: 0.835214 cumulative IPC: 0.834462 (Simulation time: 2 hr 30 min 44 sec) 
Heartbeat CPU 1 instructions: 380000000 cycles: 608164048 heartbeat IPC: 0.496505 cumulative IPC: 0.408714 (Simulation time: 2 hr 30 min 46 sec) 
Heartbeat CPU 3 instructions: 650000003 cycles: 612790474 heartbeat IPC: 0.601935 cumulative IPC: 0.603758 (Simulation time: 2 hr 31 min 34 sec) 
Heartbeat CPU 2 instructions: 780000000 cycles: 619966778 heartbeat IPC: 0.833084 cumulative IPC: 0.834426 (Simulation time: 2 hr 32 min 51 sec) 
Heartbeat CPU 0 instructions: 570000000 cycles: 623886725 heartbeat IPC: 0.465443 cumulative IPC: 0.469284 (Simulation time: 2 hr 33 min 32 sec) 
Heartbeat CPU 1 instructions: 390000001 cycles: 628389166 heartbeat IPC: 0.494435 cumulative IPC: 0.412478 (Simulation time: 2 hr 34 min 19 sec) 
Heartbeat CPU 3 instructions: 660000000 cycles: 629304940 heartbeat IPC: 0.60553 cumulative IPC: 0.603822 (Simulation time: 2 hr 34 min 29 sec) 
Heartbeat CPU 2 instructions: 790000002 cycles: 631959005 heartbeat IPC: 0.833874 cumulative IPC: 0.834411 (Simulation time: 2 hr 34 min 57 sec) 
Heartbeat CPU 2 instructions: 800000000 cycles: 643917435 heartbeat IPC: 0.83623 cumulative IPC: 0.834457 (Simulation time: 2 hr 37 min 3 sec) 
Heartbeat CPU 0 instructions: 580000000 cycles: 645302544 heartbeat IPC: 0.466945 cumulative IPC: 0.469179 (Simulation time: 2 hr 37 min 17 sec) 
Heartbeat CPU 3 instructions: 670000000 cycles: 645862615 heartbeat IPC: 0.60395 cumulative IPC: 0.603826 (Simulation time: 2 hr 37 min 23 sec) 
Heartbeat CPU 1 instructions: 400000000 cycles: 648599871 heartbeat IPC: 0.494787 cumulative IPC: 0.415937 (Simulation time: 2 hr 37 min 52 sec) 
Heartbeat CPU 2 instructions: 810000000 cycles: 655855435 heartbeat IPC: 0.837661 cumulative IPC: 0.834535 (Simulation time: 2 hr 39 min 9 sec) 
Heartbeat CPU 3 instructions: 680000000 cycles: 662484317 heartbeat IPC: 0.601623 cumulative IPC: 0.603752 (Simulation time: 2 hr 40 min 19 sec) 
Heartbeat CPU 0 instructions: 590000001 cycles: 666291852 heartbeat IPC: 0.476433 cumulative IPC: 0.469484 (Simulation time: 2 hr 40 min 59 sec) 
Heartbeat CPU 2 instructions: 820000000 cycles: 667836736 heartbeat IPC: 0.834634 cumulative IPC: 0.834538 (Simulation time: 2 hr 41 min 16 sec) 
Heartbeat CPU 1 instructions: 410000003 cycles: 668804883 heartbeat IPC: 0.494927 cumulative IPC: 0.419123 (Simulation time: 2 hr 41 min 26 sec) 
Heartbeat CPU 3 instructions: 690000000 cycles: 678906052 heartbeat IPC: 0.608949 cumulative IPC: 0.603919 (Simulation time: 2 hr 43 min 13 sec) 
Heartbeat CPU 2 instructions: 830000000 cycles: 679801889 heartbeat IPC: 0.83576 cumulative IPC: 0.834566 (Simulation time: 2 hr 43 min 22 sec) 
Heartbeat CPU 0 instructions: 600000000 cycles: 686867971 heartbeat IPC: 0.486 cumulative IPC: 0.470139 (Simulation time: 2 hr 44 min 37 sec) 
Heartbeat CPU 1 instructions: 420000000 cycles: 689065370 heartbeat IPC: 0.493571 cumulative IPC: 0.422016 (Simulation time: 2 hr 45 min 0 sec) 
Heartbeat CPU 2 instructions: 840000000 cycles: 691748292 heartbeat IPC: 0.837072 cumulative IPC: 0.834623 (Simulation time: 2 hr 45 min 29 sec) 
Heartbeat CPU 3 instructions: 700000000 cycles: 695543072 heartbeat IPC: 0.601069 cumulative IPC: 0.603829 (Simulation time: 2 hr 46 min 9 sec) 
Heartbeat CPU 2 instructions: 850000000 cycles: 703718316 heartbeat IPC: 0.83542 cumulative IPC: 0.834641 (Simulation time: 2 hr 47 min 35 sec) 
Heartbeat CPU 0 instructions: 610000001 cycles: 707990285 heartbeat IPC: 0.473433 cumulative IPC: 0.470268 (Simulation time: 2 hr 48 min 21 sec) 
Heartbeat CPU 1 instructions: 430000003 cycles: 709300423 heartbeat IPC: 0.494192 cumulative IPC: 0.424713 (Simulation time: 2 hr 48 min 35 sec) 
Heartbeat CPU 3 instructions: 710000002 cycles: 712055831 heartbeat IPC: 0.605592 cumulative IPC: 0.603883 (Simulation time: 2 hr 49 min 4 sec) 
Heartbeat CPU 2 instructions: 860000000 cycles: 715665727 heartbeat IPC: 0.837001 cumulative IPC: 0.834693 (Simulation time: 2 hr 49 min 42 sec) 
Heartbeat CPU 2 instructions: 870000001 cycles: 727597936 heartbeat IPC: 0.838068 cumulative IPC: 0.834765 (Simulation time: 2 hr 51 min 49 sec) 
Heartbeat CPU 3 instructions: 720000000 cycles: 728641964 heartbeat IPC: 0.602913 cumulative IPC: 0.603854 (Simulation time: 2 hr 52 min 0 sec) 
Heartbeat CPU 0 instructions: 620000000 cycles: 728711450 heartbeat IPC: 0.482598 cumulative IPC: 0.470723 (Simulation time: 2 hr 52 min 1 sec) 
Heartbeat CPU 1 instructions: 440000000 cycles: 729513463 heartbeat IPC: 0.49473 cumulative IPC: 0.427232 (Simulation time: 2 hr 52 min 9 sec) 
Heartbeat CPU 2 instructions: 880000000 cycles: 739546017 heartbeat IPC: 0.836954 cumulative IPC: 0.83481 (Simulation time: 2 hr 53 min 55 sec) 
Heartbeat CPU 3 instructions: 730000000 cycles: 745193999 heartbeat IPC: 0.604155 cumulative IPC: 0.603863 (Simulation time: 2 hr 54 min 55 sec) 
Heartbeat CPU 0 instructions: 630000000 cycles: 749563984 heartbeat IPC: 0.479558 cumulative IPC: 0.47104 (Simulation time: 2 hr 55 min 41 sec) 
Heartbeat CPU 1 instructions: 450000002 cycles: 749718159 heartbeat IPC: 0.494935 cumulative IPC: 0.429583 (Simulation time: 2 hr 55 min 43 sec) 
Heartbeat CPU 2 instructions: 890000001 cycles: 751494401 heartbeat IPC: 0.836933 cumulative IPC: 0.834854 (Simulation time: 2 hr 56 min 2 sec) 
Heartbeat CPU 3 instructions: 740000000 cycles: 761715596 heartbeat IPC: 0.605268 cumulative IPC: 0.603902 (Simulation time: 2 hr 57 min 50 sec) 
Heartbeat CPU 2 instructions: 900000000 cycles: 763439443 heartbeat IPC: 0.837167 cumulative IPC: 0.8349 (Simulation time: 2 hr 58 min 8 sec) 
Heartbeat CPU 1 instructions: 460000000 cycles: 769982428 heartbeat IPC: 0.493479 cumulative IPC: 0.431733 (Simulation time: 2 hr 59 min 17 sec) 
Heartbeat CPU 0 instructions: 640000000 cycles: 770462975 heartbeat IPC: 0.478492 cumulative IPC: 0.471298 (Simulation time: 2 hr 59 min 22 sec) 
Heartbeat CPU 2 instructions: 910000002 cycles: 775399137 heartbeat IPC: 0.836142 cumulative IPC: 0.834925 (Simulation time: 3 hr 0 min 15 sec) 
Heartbeat CPU 3 instructions: 750000002 cycles: 778296810 heartbeat IPC: 0.603092 cumulative IPC: 0.60388 (Simulation time: 3 hr 0 min 45 sec) 
Heartbeat CPU 2 instructions: 920000000 cycles: 787321850 heartbeat IPC: 0.838735 cumulative IPC: 0.834998 (Simulation time: 3 hr 2 min 21 sec) 
Heartbeat CPU 1 instructions: 470000003 cycles: 790183134 heartbeat IPC: 0.495032 cumulative IPC: 0.433787 (Simulation time: 3 hr 2 min 51 sec) 
Heartbeat CPU 0 instructions: 650000000 cycles: 791706244 heartbeat IPC: 0.470737 cumulative IPC: 0.471279 (Simulation time: 3 hr 3 min 7 sec) 
Heartbeat CPU 3 instructions: 760000000 cycles: 794923708 heartbeat IPC: 0.601435 cumulative IPC: 0.603815 (Simulation time: 3 hr 3 min 41 sec) 
Heartbeat CPU 2 instructions: 930000001 cycles: 799269062 heartbeat IPC: 0.837015 cumulative IPC: 0.835036 (Simulation time: 3 hr 4 min 27 sec) 
Heartbeat CPU 1 instructions: 480000000 cycles: 810429270 heartbeat IPC: 0.493921 cumulative IPC: 0.435682 (Simulation time: 3 hr 6 min 23 sec) 
Heartbeat CPU 2 instructions: 940000000 cycles: 811197386 heartbeat IPC: 0.838341 cumulative IPC: 0.835097 (Simulation time: 3 hr 6 min 32 sec) 
Heartbeat CPU 3 instructions: 770000000 cycles: 811573189 heartbeat IPC: 0.600619 cumulative IPC: 0.603732 (Simulation time: 3 hr 6 min 35 sec) 
Heartbeat CPU 0 instructions: 660000000 cycles: 813001715 heartbeat IPC: 0.469583 cumulative IPC: 0.471223 (Simulation time: 3 hr 6 min 50 sec) 
Heartbeat CPU 2 instructions: 950000002 cycles: 823141189 heartbeat IPC: 0.837254 cumulative IPC: 0.835137 (Simulation time: 3 hr 8 min 37 sec) 
Heartbeat CPU 3 instructions: 780000000 cycles: 828171398 heartbeat IPC: 0.602475 cumulative IPC: 0.603701 (Simulation time: 3 hr 9 min 30 sec) 
Heartbeat CPU 1 instructions: 490000000 cycles: 830630013 heartbeat IPC: 0.495031 cumulative IPC: 0.43749 (Simulation time: 3 hr 9 min 56 sec) 
Heartbeat CPU 2 instructions: 960000000 cycles: 835065593 heartbeat IPC: 0.838616 cumulative IPC: 0.835199 (Simulation time: 3 hr 10 min 42 sec) 
Heartbeat CPU 0 instructions: 670000000 cycles: 835185720 heartbeat IPC: 0.450775 cumulative IPC: 0.470544 (Simulation time: 3 hr 10 min 44 sec) 
Heartbeat CPU 3 instructions: 790000000 cycles: 844713182 heartbeat IPC: 0.60453 cumulative IPC: 0.603721 (Simulation time: 3 hr 12 min 24 sec) 
Heartbeat CPU 2 instructions: 970000000 cycles: 846990709 heartbeat IPC: 0.838566 cumulative IPC: 0.835258 (Simulation time: 3 hr 12 min 48 sec) 
Heartbeat CPU 1 instructions: 500000000 cycles: 850937340 heartbeat IPC: 0.492433 cumulative IPC: 0.439124 (Simulation time: 3 hr 13 min 29 sec) 
Heartbeat CPU 0 instructions: 680000000 cycles: 857452272 heartbeat IPC: 0.449104 cumulative IPC: 0.469851 (Simulation time: 3 hr 14 min 37 sec) 
Heartbeat CPU 2 instructions: 980000000 cycles: 858943427 heartbeat IPC: 0.83663 cumulative IPC: 0.835282 (Simulation time: 3 hr 14 min 53 sec) 
Heartbeat CPU 3 instructions: 800000000 cycles: 861423391 heartbeat IPC: 0.598437 cumulative IPC: 0.603594 (Simulation time: 3 hr 15 min 19 sec) 
Heartbeat CPU 2 instructions: 990000002 cycles: 870899742 heartbeat IPC: 0.836378 cumulative IPC: 0.8353 (Simulation time: 3 hr 16 min 59 sec) 
Heartbeat CPU 1 instructions: 510000000 cycles: 871194554 heartbeat IPC: 0.493651 cumulative IPC: 0.440694 (Simulation time: 3 hr 17 min 2 sec) 
Heartbeat CPU 3 instructions: 810000001 cycles: 878053645 heartbeat IPC: 0.601314 cumulative IPC: 0.60354 (Simulation time: 3 hr 18 min 14 sec) 
Heartbeat CPU 0 instructions: 690000002 cycles: 879576646 heartbeat IPC: 0.45199 cumulative IPC: 0.469296 (Simulation time: 3 hr 18 min 30 sec) 
Heartbeat CPU 2 instructions: 1000000000 cycles: 882836264 heartbeat IPC: 0.837765 cumulative IPC: 0.835341 (Simulation time: 3 hr 19 min 5 sec) 
Heartbeat CPU 1 instructions: 520000000 cycles: 891460956 heartbeat IPC: 0.493427 cumulative IPC: 0.442171 (Simulation time: 3 hr 20 min 35 sec) 
Heartbeat CPU 3 instructions: 820000000 cycles: 894708287 heartbeat IPC: 0.600433 cumulative IPC: 0.603469 (Simulation time: 3 hr 21 min 9 sec) 
Heartbeat CPU 2 instructions: 1010000003 cycles: 894758629 heartbeat IPC: 0.83876 cumulative IPC: 0.835398 (Simulation time: 3 hr 21 min 10 sec) 
Heartbeat CPU 0 instructions: 700000000 cycles: 900873709 heartbeat IPC: 0.469548 cumulative IPC: 0.469304 (Simulation time: 3 hr 22 min 14 sec) 
Heartbeat CPU 2 instructions: 1020000000 cycles: 906726278 heartbeat IPC: 0.835586 cumulative IPC: 0.835401 (Simulation time: 3 hr 23 min 15 sec) 
Heartbeat CPU 3 instructions: 830000003 cycles: 911361260 heartbeat IPC: 0.600494 cumulative IPC: 0.603402 (Simulation time: 3 hr 24 min 4 sec) 
Heartbeat CPU 1 instructions: 530000002 cycles: 911757452 heartbeat IPC: 0.492696 cumulative IPC: 0.443549 (Simulation time: 3 hr 24 min 8 sec) 
Heartbeat CPU 2 instructions: 1030000003 cycles: 918652546 heartbeat IPC: 0.838486 cumulative IPC: 0.83545 (Simulation time: 3 hr 25 min 20 sec) 
Heartbeat CPU 0 instructions: 710000000 cycles: 922566297 heartbeat IPC: 0.460987 cumulative IPC: 0.469065 (Simulation time: 3 hr 26 min 2 sec) 
Heartbeat CPU 3 instructions: 840000000 cycles: 927915946 heartbeat IPC: 0.604058 cumulative IPC: 0.603417 (Simulation time: 3 hr 26 min 58 sec) 
Heartbeat CPU 2 instructions: 1040000000 cycles: 930566526 heartbeat IPC: 0.83935 cumulative IPC: 0.83551 (Simulation time: 3 hr 27 min 26 sec) 
Heartbeat CPU 1 instructions: 540000000 cycles: 931919588 heartbeat IPC: 0.495979 cumulative IPC: 0.444932 (Simulation time: 3 hr 27 min 40 sec) 
Heartbeat CPU 2 instructions: 1050000003 cycles: 942489746 heartbeat IPC: 0.8387 cumulative IPC: 0.83556 (Simulation time: 3 hr 29 min 31 sec) 
Heartbeat CPU 0 instructions: 720000000 cycles: 943709079 heartbeat IPC: 0.472975 cumulative IPC: 0.469171 (Simulation time: 3 hr 29 min 44 sec) 
Heartbeat CPU 3 instructions: 850000002 cycles: 944486997 heartbeat IPC: 0.603462 cumulative IPC: 0.603418 (Simulation time: 3 hr 29 min 52 sec) 
Heartbeat CPU 1 instructions: 550000000 cycles: 952148562 heartbeat IPC: 0.49434 cumulative IPC: 0.446207 (Simulation time: 3 hr 31 min 13 sec) 
Heartbeat CPU 2 instructions: 1060000000 cycles: 954446593 heartbeat IPC: 0.836341 cumulative IPC: 0.835571 (Simulation time: 3 hr 31 min 37 sec) 
Heartbeat CPU 3 instructions: 860000000 cycles: 961108142 heartbeat IPC: 0.601643 cumulative IPC: 0.603381 (Simulation time: 3 hr 32 min 47 sec) 
Heartbeat CPU 0 instructions: 730000003 cycles: 964983081 heartbeat IPC: 0.470057 cumulative IPC: 0.469195 (Simulation time: 3 hr 33 min 30 sec) 
Heartbeat CPU 2 instructions: 1070000000 cycles: 966397096 heartbeat IPC: 0.836785 cumulative IPC: 0.83559 (Simulation time: 3 hr 33 min 45 sec) 
Heartbeat CPU 1 instructions: 560000000 cycles: 972342260 heartbeat IPC: 0.495204 cumulative IPC: 0.447436 (Simulation time: 3 hr 34 min 49 sec) 
Heartbeat CPU 3 instructions: 870000003 cycles: 977684205 heartbeat IPC: 0.60328 cumulative IPC: 0.603378 (Simulation time: 3 hr 35 min 46 sec) 
Heartbeat CPU 2 instructions: 1080000000 cycles: 978335256 heartbeat IPC: 0.83765 cumulative IPC: 0.83562 (Simulation time: 3 hr 35 min 53 sec) 
Heartbeat CPU 0 instructions: 740000000 cycles: 985908544 heartbeat IPC: 0.477887 cumulative IPC: 0.469417 (Simulation time: 3 hr 37 min 13 sec) 
Heartbeat CPU 2 instructions: 1090000002 cycles: 990243340 heartbeat IPC: 0.839766 cumulative IPC: 0.83568 (Simulation time: 3 hr 37 min 59 sec) 
Heartbeat CPU 1 instructions: 570000001 cycles: 992564575 heartbeat IPC: 0.494503 cumulative IPC: 0.44859 (Simulation time: 3 hr 38 min 24 sec) 
Heartbeat CPU 3 instructions: 880000000 cycles: 994384470 heartbeat IPC: 0.598793 cumulative IPC: 0.603286 (Simulation time: 3 hr 38 min 43 sec) 
Heartbeat CPU 2 instructions: 1100000000 cycles: 1002163002 heartbeat IPC: 0.83895 cumulative IPC: 0.835727 (Simulation time: 3 hr 40 min 5 sec) 
Heartbeat CPU 0 instructions: 750000003 cycles: 1006170268 heartbeat IPC: 0.493542 cumulative IPC: 0.47 (Simulation time: 3 hr 40 min 49 sec) 
Heartbeat CPU 3 instructions: 890000003 cycles: 1010951077 heartbeat IPC: 0.603624 cumulative IPC: 0.603292 (Simulation time: 3 hr 41 min 39 sec) 
Heartbeat CPU 1 instructions: 580000000 cycles: 1012829347 heartbeat IPC: 0.493467 cumulative IPC: 0.449666 (Simulation time: 3 hr 41 min 59 sec) 
Heartbeat CPU 2 instructions: 1110000003 cycles: 1014079114 heartbeat IPC: 0.8392 cumulative IPC: 0.835776 (Simulation time: 3 hr 42 min 13 sec) 
Heartbeat CPU 2 instructions: 1120000000 cycles: 1026015609 heartbeat IPC: 0.837767 cumulative IPC: 0.835803 (Simulation time: 3 hr 44 min 20 sec) 
Heartbeat CPU 0 instructions: 760000000 cycles: 1026556917 heartbeat IPC: 0.490517 cumulative IPC: 0.470487 (Simulation time: 3 hr 44 min 25 sec) 
Heartbeat CPU 3 instructions: 900000000 cycles: 1027495486 heartbeat IPC: 0.604434 cumulative IPC: 0.603314 (Simulation time: 3 hr 44 min 35 sec) 
Heartbeat CPU 1 instructions: 590000003 cycles: 1033080336 heartbeat IPC: 0.493803 cumulative IPC: 0.450699 (Simulation time: 3 hr 45 min 34 sec) 
Heartbeat CPU 2 instructions: 1130000000 cycles: 1037919535 heartbeat IPC: 0.840059 cumulative IPC: 0.835862 (Simulation time: 3 hr 46 min 25 sec) 
Heartbeat CPU 3 instructions: 910000002 cycles: 1044104594 heartbeat IPC: 0.602079 cumulative IPC: 0.603291 (Simulation time: 3 hr 47 min 32 sec) 
Heartbeat CPU 0 instructions: 770000003 cycles: 1047293629 heartbeat IPC: 0.482237 cumulative IPC: 0.470764 (Simulation time: 3 hr 48 min 6 sec) 
Heartbeat CPU 2 instructions: 1140000000 cycles: 1049836503 heartbeat IPC: 0.83914 cumulative IPC: 0.835906 (Simulation time: 3 hr 48 min 33 sec) 
Heartbeat CPU 1 instructions: 600000000 cycles: 1053295393 heartbeat IPC: 0.494681 cumulative IPC: 0.451703 (Simulation time: 3 hr 49 min 9 sec) 
Heartbeat CPU 3 instructions: 920000000 cycles: 1060663641 heartbeat IPC: 0.603899 cumulative IPC: 0.603302 (Simulation time: 3 hr 50 min 28 sec) 
Heartbeat CPU 2 instructions: 1150000001 cycles: 1061752867 heartbeat IPC: 0.839182 cumulative IPC: 0.835949 (Simulation time: 3 hr 50 min 40 sec) 
Heartbeat CPU 0 instructions: 780000000 cycles: 1067747076 heartbeat IPC: 0.488915 cumulative IPC: 0.471177 (Simulation time: 3 hr 51 min 44 sec) 
Heartbeat CPU 1 instructions: 610000000 cycles: 1071258138 heartbeat IPC: 0.556708 cumulative IPC: 0.453791 (Simulation time: 3 hr 52 min 26 sec) 
Heartbeat CPU 2 instructions: 1160000000 cycles: 1073667307 heartbeat IPC: 0.839318 cumulative IPC: 0.835994 (Simulation time: 3 hr 52 min 55 sec) 
Heartbeat CPU 3 instructions: 930000000 cycles: 1077217958 heartbeat IPC: 0.604072 cumulative IPC: 0.603316 (Simulation time: 3 hr 53 min 38 sec) 
Heartbeat CPU 1 instructions: 620000000 cycles: 1083722660 heartbeat IPC: 0.802277 cumulative IPC: 0.458533 (Simulation time: 3 hr 54 min 56 sec) 
Heartbeat CPU 2 instructions: 1170000000 cycles: 1085579061 heartbeat IPC: 0.839507 cumulative IPC: 0.836039 (Simulation time: 3 hr 55 min 19 sec) 
Heartbeat CPU 0 instructions: 790000001 cycles: 1088967257 heartbeat IPC: 0.47125 cumulative IPC: 0.471178 (Simulation time: 3 hr 55 min 59 sec) 
Heartbeat CPU 3 instructions: 940000000 cycles: 1093878009 heartbeat IPC: 0.600238 cumulative IPC: 0.603261 (Simulation time: 3 hr 56 min 58 sec) 
Heartbeat CPU 1 instructions: 630000002 cycles: 1096217223 heartbeat IPC: 0.800348 cumulative IPC: 0.463133 (Simulation time: 3 hr 57 min 27 sec) 
Heartbeat CPU 2 instructions: 1180000000 cycles: 1097522197 heartbeat IPC: 0.837301 cumulative IPC: 0.836056 (Simulation time: 3 hr 57 min 43 sec) 
Heartbeat CPU 1 instructions: 640000000 cycles: 1108698017 heartbeat IPC: 0.801231 cumulative IPC: 0.467618 (Simulation time: 4 hr 0 min 0 sec) 
Heartbeat CPU 2 instructions: 1190000001 cycles: 1109450966 heartbeat IPC: 0.83831 cumulative IPC: 0.836084 (Simulation time: 4 hr 0 min 10 sec) 
Heartbeat CPU 0 instructions: 800000000 cycles: 1110328527 heartbeat IPC: 0.468137 cumulative IPC: 0.471109 (Simulation time: 4 hr 0 min 20 sec) 
Heartbeat CPU 3 instructions: 950000002 cycles: 1110552718 heartbeat IPC: 0.599711 cumulative IPC: 0.603198 (Simulation time: 4 hr 0 min 23 sec) 
Heartbeat CPU 1 instructions: 650000002 cycles: 1121193264 heartbeat IPC: 0.800304 cumulative IPC: 0.471978 (Simulation time: 4 hr 2 min 31 sec) 
Heartbeat CPU 2 instructions: 1200000000 cycles: 1121381396 heartbeat IPC: 0.838193 cumulative IPC: 0.83611 (Simulation time: 4 hr 2 min 33 sec) 
Heartbeat CPU 3 instructions: 960000000 cycles: 1127344033 heartbeat IPC: 0.595546 cumulative IPC: 0.603064 (Simulation time: 4 hr 3 min 44 sec) 
Heartbeat CPU 0 instructions: 810000001 cycles: 1131388507 heartbeat IPC: 0.474834 cumulative IPC: 0.471191 (Simulation time: 4 hr 4 min 34 sec) 
Heartbeat CPU 2 instructions: 1210000003 cycles: 1133307600 heartbeat IPC: 0.83849 cumulative IPC: 0.83614 (Simulation time: 4 hr 4 min 56 sec) 
Heartbeat CPU 1 instructions: 660000000 cycles: 1133679825 heartbeat IPC: 0.800861 cumulative IPC: 0.476229 (Simulation time: 4 hr 5 min 1 sec) 
Heartbeat CPU 3 instructions: 970000000 cycles: 1144125986 heartbeat IPC: 0.595878 cumulative IPC: 0.602941 (Simulation time: 4 hr 7 min 5 sec) 
Heartbeat CPU 2 instructions: 1220000000 cycles: 1145212562 heartbeat IPC: 0.839986 cumulative IPC: 0.836187 (Simulation time: 4 hr 7 min 19 sec) 
Heartbeat CPU 1 instructions: 670000000 cycles: 1146156965 heartbeat IPC: 0.801466 cumulative IPC: 0.480377 (Simulation time: 4 hr 7 min 30 sec) 
Heartbeat CPU 0 instructions: 820000000 cycles: 1153249475 heartbeat IPC: 0.457436 cumulative IPC: 0.470886 (Simulation time: 4 hr 8 min 55 sec) 
Heartbeat CPU 2 instructions: 1230000000 cycles: 1157137962 heartbeat IPC: 0.838546 cumulative IPC: 0.836215 (Simulation time: 4 hr 9 min 40 sec) 
Heartbeat CPU 1 instructions: 680000000 cycles: 1158985175 heartbeat IPC: 0.779532 cumulative IPC: 0.484248 (Simulation time: 4 hr 10 min 1 sec) 
Heartbeat CPU 3 instructions: 980000000 cycles: 1160791651 heartbeat IPC: 0.600036 cumulative IPC: 0.602892 (Simulation time: 4 hr 10 min 21 sec) 
Heartbeat CPU 2 instructions: 1240000000 cycles: 1169139443 heartbeat IPC: 0.83323 cumulative IPC: 0.836179 (Simulation time: 4 hr 12 min 0 sec) 
Heartbeat CPU 1 instructions: 690000003 cycles: 1172161425 heartbeat IPC: 0.758942 cumulative IPC: 0.487852 (Simulation time: 4 hr 12 min 36 sec) 
Heartbeat CPU 0 instructions: 830000000 cycles: 1174886040 heartbeat IPC: 0.462181 cumulative IPC: 0.470699 (Simulation time: 4 hr 13 min 8 sec) 
Heartbeat CPU 3 instructions: 990000000 cycles: 1177271679 heartbeat IPC: 0.606795 cumulative IPC: 0.602956 (Simulation time: 4 hr 13 min 36 sec) 
Heartbeat CPU 2 instructions: 1250000003 cycles: 1181133931 heartbeat IPC: 0.833717 cumulative IPC: 0.83615 (Simulation time: 4 hr 14 min 23 sec) 
Heartbeat CPU 1 instructions: 700000000 cycles: 1183998552 heartbeat IPC: 0.844799 cumulative IPC: 0.49201 (Simulation time: 4 hr 14 min 57 sec) 
Heartbeat CPU 2 instructions: 1260000000 cycles: 1193110900 heartbeat IPC: 0.834936 cumulative IPC: 0.836136 (Simulation time: 4 hr 16 min 47 sec) 
Heartbeat CPU 3 instructions: 1000000000 cycles: 1193779734 heartbeat IPC: 0.605765 cumulative IPC: 0.603001 (Simulation time: 4 hr 16 min 55 sec) 
Heartbeat CPU 1 instructions: 710000003 cycles: 1195808894 heartbeat IPC: 0.846716 cumulative IPC: 0.496085 (Simulation time: 4 hr 17 min 19 sec) 
Heartbeat CPU 0 instructions: 840000000 cycles: 1195911060 heartbeat IPC: 0.475624 cumulative IPC: 0.470799 (Simulation time: 4 hr 17 min 20 sec) 
Heartbeat CPU 2 instructions: 1270000002 cycles: 1205110574 heartbeat IPC: 0.833356 cumulative IPC: 0.836104 (Simulation time: 4 hr 19 min 11 sec) 
Heartbeat CPU 1 instructions: 720000000 cycles: 1207631677 heartbeat IPC: 0.845824 cumulative IPC: 0.500061 (Simulation time: 4 hr 19 min 41 sec) 
Heartbeat CPU 3 instructions: 1010000001 cycles: 1210289963 heartbeat IPC: 0.605685 cumulative IPC: 0.603043 (Simulation time: 4 hr 20 min 13 sec) 
Heartbeat CPU 0 instructions: 850000000 cycles: 1216967516 heartbeat IPC: 0.474914 cumulative IPC: 0.470882 (Simulation time: 4 hr 21 min 33 sec) 
Heartbeat CPU 2 instructions: 1280000000 cycles: 1217126993 heartbeat IPC: 0.832195 cumulative IPC: 0.836059 (Simulation time: 4 hr 21 min 35 sec) 
Heartbeat CPU 1 instructions: 730000001 cycles: 1219430822 heartbeat IPC: 0.847519 cumulative IPC: 0.503959 (Simulation time: 4 hr 22 min 3 sec) 
Heartbeat CPU 3 instructions: 1020000000 cycles: 1226912875 heartbeat IPC: 0.601579 cumulative IPC: 0.60302 (Simulation time: 4 hr 23 min 33 sec) 
Heartbeat CPU 2 instructions: 1290000000 cycles: 1229121984 heartbeat IPC: 0.833681 cumulative IPC: 0.836032 (Simulation time: 4 hr 23 min 59 sec) 
Heartbeat CPU 1 instructions: 740000000 cycles: 1231254249 heartbeat IPC: 0.845778 cumulative IPC: 0.507759 (Simulation time: 4 hr 24 min 25 sec) 
Heartbeat CPU 0 instructions: 860000000 cycles: 1237568005 heartbeat IPC: 0.485425 cumulative IPC: 0.471162 (Simulation time: 4 hr 25 min 41 sec) 
Heartbeat CPU 2 instructions: 1300000000 cycles: 1241146177 heartbeat IPC: 0.831657 cumulative IPC: 0.835983 (Simulation time: 4 hr 26 min 24 sec) 
Heartbeat CPU 1 instructions: 750000003 cycles: 1243074105 heartbeat IPC: 0.846034 cumulative IPC: 0.511478 (Simulation time: 4 hr 26 min 47 sec) 
Heartbeat CPU 3 instructions: 1030000003 cycles: 1243566476 heartbeat IPC: 0.600471 cumulative IPC: 0.602981 (Simulation time: 4 hr 26 min 53 sec) 
Heartbeat CPU 2 instructions: 1310000003 cycles: 1253153442 heartbeat IPC: 0.832829 cumulative IPC: 0.835948 (Simulation time: 4 hr 28 min 48 sec) 
Heartbeat CPU 1 instructions: 760000000 cycles: 1254873336 heartbeat IPC: 0.847513 cumulative IPC: 0.515125 (Simulation time: 4 hr 29 min 9 sec) 
Heartbeat CPU 0 instructions: 870000003 cycles: 1257905722 heartbeat IPC: 0.491697 cumulative IPC: 0.471545 (Simulation time: 4 hr 29 min 46 sec) 
Heartbeat CPU 3 instructions: 1040000000 cycles: 1260111437 heartbeat IPC: 0.604413 cumulative IPC: 0.603003 (Simulation time: 4 hr 30 min 12 sec) 
Heartbeat CPU 2 instructions: 1320000000 cycles: 1265150836 heartbeat IPC: 0.833514 cumulative IPC: 0.835922 (Simulation time: 4 hr 31 min 12 sec) 
Heartbeat CPU 1 instructions: 770000000 cycles: 1266811016 heartbeat IPC: 0.837684 cumulative IPC: 0.518628 (Simulation time: 4 hr 31 min 32 sec) 
Heartbeat CPU 3 instructions: 1050000001 cycles: 1276742798 heartbeat IPC: 0.601274 cumulative IPC: 0.602977 (Simulation time: 4 hr 33 min 32 sec) 
Heartbeat CPU 2 instructions: 1330000000 cycles: 1277140834 heartbeat IPC: 0.834028 cumulative IPC: 0.835901 (Simulation time: 4 hr 33 min 36 sec) 
Heartbeat CPU 0 instructions: 880000000 cycles: 1278494294 heartbeat IPC: 0.485706 cumulative IPC: 0.471808 (Simulation time: 4 hr 33 min 52 sec) 
Heartbeat CPU 1 instructions: 780000000 cycles: 1279504246 heartbeat IPC: 0.787822 cumulative IPC: 0.521702 (Simulation time: 4 hr 34 min 4 sec) 
Heartbeat CPU 2 instructions: 1340000000 cycles: 1289114371 heartbeat IPC: 0.835175 cumulative IPC: 0.835894 (Simulation time: 4 hr 35 min 59 sec) 
Heartbeat CPU 1 instructions: 790000000 cycles: 1292212962 heartbeat IPC: 0.786862 cumulative IPC: 0.524699 (Simulation time: 4 hr 36 min 37 sec) 
Heartbeat CPU 3 instructions: 1060000000 cycles: 1293558581 heartbeat IPC: 0.594679 cumulative IPC: 0.602853 (Simulation time: 4 hr 36 min 53 sec) 
Heartbeat CPU 0 instructions: 890000003 cycles: 1299243128 heartbeat IPC: 0.481955 cumulative IPC: 0.471994 (Simulation time: 4 hr 38 min 1 sec) 
Heartbeat CPU 2 instructions: 1350000001 cycles: 1301085206 heartbeat IPC: 0.835364 cumulative IPC: 0.835888 (Simulation time: 4 hr 38 min 23 sec) 
Heartbeat CPU 1 instructions: 800000000 cycles: 1304970931 heartbeat IPC: 0.783824 cumulative IPC: 0.527606 (Simulation time: 4 hr 39 min 9 sec) 
Heartbeat CPU 3 instructions: 1070000002 cycles: 1310362254 heartbeat IPC: 0.595108 cumulative IPC: 0.602739 (Simulation time: 4 hr 40 min 14 sec) 
Heartbeat CPU 2 instructions: 1360000000 cycles: 1313061878 heartbeat IPC: 0.834956 cumulative IPC: 0.835878 (Simulation time: 4 hr 40 min 46 sec) 
Heartbeat CPU 1 instructions: 810000000 cycles: 1317729264 heartbeat IPC: 0.783801 cumulative IPC: 0.530448 (Simulation time: 4 hr 41 min 42 sec) 
Heartbeat CPU 0 instructions: 900000000 cycles: 1319955807 heartbeat IPC: 0.482796 cumulative IPC: 0.472188 (Simulation time: 4 hr 42 min 8 sec) 
Heartbeat CPU 2 instructions: 1370000001 cycles: 1325060343 heartbeat IPC: 0.83344 cumulative IPC: 0.835853 (Simulation time: 4 hr 43 min 9 sec) 
Heartbeat CPU 3 instructions: 1080000000 cycles: 1327198625 heartbeat IPC: 0.593952 cumulative IPC: 0.602611 (Simulation time: 4 hr 43 min 35 sec) 
Heartbeat CPU 1 instructions: 820000000 cycles: 1330434503 heartbeat IPC: 0.787077 cumulative IPC: 0.533253 (Simulation time: 4 hr 44 min 14 sec) 
Heartbeat CPU 2 instructions: 1380000000 cycles: 1337084556 heartbeat IPC: 0.831655 cumulative IPC: 0.83581 (Simulation time: 4 hr 45 min 32 sec) 
Heartbeat CPU 0 instructions: 910000002 cycles: 1340810233 heartbeat IPC: 0.479515 cumulative IPC: 0.472318 (Simulation time: 4 hr 46 min 17 sec) 
Heartbeat CPU 1 instructions: 830000003 cycles: 1343168408 heartbeat IPC: 0.785305 cumulative IPC: 0.535983 (Simulation time: 4 hr 46 min 45 sec) 
Heartbeat CPU 3 instructions: 1090000001 cycles: 1344067047 heartbeat IPC: 0.592824 cumulative IPC: 0.602471 (Simulation time: 4 hr 46 min 56 sec) 
Heartbeat CPU 2 instructions: 1390000002 cycles: 1349065809 heartbeat IPC: 0.834637 cumulative IPC: 0.835798 (Simulation time: 4 hr 47 min 56 sec) 
Heartbeat CPU 1 instructions: 840000000 cycles: 1355902531 heartbeat IPC: 0.785291 cumulative IPC: 0.538655 (Simulation time: 4 hr 49 min 17 sec) 
Heartbeat CPU 3 instructions: 1100000000 cycles: 1360875116 heartbeat IPC: 0.594952 cumulative IPC: 0.602365 (Simulation time: 4 hr 50 min 17 sec) 
Heartbeat CPU 2 instructions: 1400000000 cycles: 1361035818 heartbeat IPC: 0.835421 cumulative IPC: 0.835794 (Simulation time: 4 hr 50 min 19 sec) 
Heartbeat CPU 0 instructions: 920000000 cycles: 1361433716 heartbeat IPC: 0.484884 cumulative IPC: 0.472535 (Simulation time: 4 hr 50 min 24 sec) 
Finished CPU 2 instructions: 1000000000 cycles: 1196474425 cumulative IPC: 0.835789 (Simulation time: 4 hr 50 min 57 sec) 
Heartbeat CPU 1 instructions: 850000003 cycles: 1368628220 heartbeat IPC: 0.785812 cumulative IPC: 0.541274 (Simulation time: 4 hr 51 min 50 sec) 
Heartbeat CPU 2 instructions: 1410000000 cycles: 1372996093 heartbeat IPC: 0.836101 cumulative IPC: 0.835797 (Simulation time: 4 hr 52 min 42 sec) 
Heartbeat CPU 3 instructions: 1110000003 cycles: 1377548460 heartbeat IPC: 0.59976 cumulative IPC: 0.602329 (Simulation time: 4 hr 53 min 36 sec) 
Heartbeat CPU 1 instructions: 860000000 cycles: 1381345650 heartbeat IPC: 0.786322 cumulative IPC: 0.543842 (Simulation time: 4 hr 54 min 22 sec) 
Heartbeat CPU 0 instructions: 930000002 cycles: 1382320559 heartbeat IPC: 0.47877 cumulative IPC: 0.472643 (Simulation time: 4 hr 54 min 33 sec) 
Heartbeat CPU 2 instructions: 1420000000 cycles: 1384986163 heartbeat IPC: 0.834023 cumulative IPC: 0.83578 (Simulation time: 4 hr 55 min 6 sec) 
Heartbeat CPU 1 instructions: 870000000 cycles: 1394061284 heartbeat IPC: 0.786433 cumulative IPC: 0.546358 (Simulation time: 4 hr 56 min 54 sec) 
Heartbeat CPU 3 instructions: 1120000000 cycles: 1394289143 heartbeat IPC: 0.597347 cumulative IPC: 0.602261 (Simulation time: 4 hr 56 min 56 sec) 
Heartbeat CPU 2 instructions: 1430000000 cycles: 1396966156 heartbeat IPC: 0.834725 cumulative IPC: 0.835769 (Simulation time: 4 hr 57 min 28 sec) 
Heartbeat CPU 0 instructions: 940000000 cycles: 1403012532 heartbeat IPC: 0.483279 cumulative IPC: 0.472821 (Simulation time: 4 hr 58 min 41 sec) 
Heartbeat CPU 1 instructions: 880000000 cycles: 1406773785 heartbeat IPC: 0.786627 cumulative IPC: 0.548823 (Simulation time: 4 hr 59 min 26 sec) 
Heartbeat CPU 2 instructions: 1440000000 cycles: 1408945234 heartbeat IPC: 0.834789 cumulative IPC: 0.83576 (Simulation time: 4 hr 59 min 52 sec) 
Heartbeat CPU 3 instructions: 1130000001 cycles: 1410987883 heartbeat IPC: 0.598848 cumulative IPC: 0.602215 (Simulation time: 5 hr 0 min 16 sec) 
Heartbeat CPU 1 instructions: 890000000 cycles: 1419504795 heartbeat IPC: 0.785484 cumulative IPC: 0.55123 (Simulation time: 5 hr 1 min 58 sec) 
Heartbeat CPU 2 instructions: 1450000000 cycles: 1420948477 heartbeat IPC: 0.833108 cumulative IPC: 0.835734 (Simulation time: 5 hr 2 min 15 sec) 
Heartbeat CPU 0 instructions: 950000003 cycles: 1424137259 heartbeat IPC: 0.473379 cumulative IPC: 0.47283 (Simulation time: 5 hr 2 min 53 sec) 
Heartbeat CPU 3 instructions: 1140000000 cycles: 1427734268 heartbeat IPC: 0.597144 cumulative IPC: 0.602148 (Simulation time: 5 hr 3 min 36 sec) 
Heartbeat CPU 1 instructions: 900000000 cycles: 1432225656 heartbeat IPC: 0.78611 cumulative IPC: 0.553593 (Simulation time: 5 hr 4 min 30 sec) 
Heartbeat CPU 2 instructions: 1460000000 cycles: 1432907680 heartbeat IPC: 0.836176 cumulative IPC: 0.835739 (Simulation time: 5 hr 4 min 38 sec) 
Heartbeat CPU 3 instructions: 1150000000 cycles: 1444541938 heartbeat IPC: 0.594966 cumulative IPC: 0.602053 (Simulation time: 5 hr 6 min 56 sec) 
Heartbeat CPU 2 instructions: 1470000000 cycles: 1444907834 heartbeat IPC: 0.833323 cumulative IPC: 0.835716 (Simulation time: 5 hr 7 min 1 sec) 
Heartbeat CPU 1 instructions: 910000002 cycles: 1444946289 heartbeat IPC: 0.786125 cumulative IPC: 0.555909 (Simulation time: 5 hr 7 min 1 sec) 
Heartbeat CPU 0 instructions: 960000000 cycles: 1445224588 heartbeat IPC: 0.474218 cumulative IPC: 0.472853 (Simulation time: 5 hr 7 min 4 sec) 
Heartbeat CPU 2 instructions: 1480000000 cycles: 1456873111 heartbeat IPC: 0.835752 cumulative IPC: 0.835716 (Simulation time: 5 hr 9 min 24 sec) 
Heartbeat CPU 1 instructions: 920000000 cycles: 1457653680 heartbeat IPC: 0.786943 cumulative IPC: 0.558185 (Simulation time: 5 hr 9 min 33 sec) 
Heartbeat CPU 3 instructions: 1160000000 cycles: 1461320920 heartbeat IPC: 0.595984 cumulative IPC: 0.601975 (Simulation time: 5 hr 10 min 17 sec) 
Heartbeat CPU 0 instructions: 970000002 cycles: 1466515291 heartbeat IPC: 0.469689 cumulative IPC: 0.472801 (Simulation time: 5 hr 11 min 19 sec) 
Heartbeat CPU 2 instructions: 1490000003 cycles: 1468843231 heartbeat IPC: 0.835414 cumulative IPC: 0.835714 (Simulation time: 5 hr 11 min 46 sec) 
Heartbeat CPU 1 instructions: 930000001 cycles: 1470381977 heartbeat IPC: 0.785651 cumulative IPC: 0.560407 (Simulation time: 5 hr 12 min 5 sec) 
Heartbeat CPU 3 instructions: 1170000002 cycles: 1478041948 heartbeat IPC: 0.598049 cumulative IPC: 0.601924 (Simulation time: 5 hr 13 min 36 sec) 
Heartbeat CPU 2 instructions: 1500000000 cycles: 1480816463 heartbeat IPC: 0.835196 cumulative IPC: 0.835709 (Simulation time: 5 hr 14 min 9 sec) 
Heartbeat CPU 1 instructions: 940000000 cycles: 1483105613 heartbeat IPC: 0.785939 cumulative IPC: 0.562589 (Simulation time: 5 hr 14 min 36 sec) 
Heartbeat CPU 0 instructions: 980000000 cycles: 1487751347 heartbeat IPC: 0.470897 cumulative IPC: 0.47277 (Simulation time: 5 hr 15 min 32 sec) 
Heartbeat CPU 2 instructions: 1510000000 cycles: 1492795990 heartbeat IPC: 0.834758 cumulative IPC: 0.8357 (Simulation time: 5 hr 16 min 32 sec) 
Heartbeat CPU 3 instructions: 1180000000 cycles: 1494810514 heartbeat IPC: 0.596354 cumulative IPC: 0.601854 (Simulation time: 5 hr 16 min 57 sec) 
Heartbeat CPU 1 instructions: 950000003 cycles: 1495784117 heartbeat IPC: 0.788737 cumulative IPC: 0.564748 (Simulation time: 5 hr 17 min 12 sec) 
Heartbeat CPU 2 instructions: 1520000000 cycles: 1504750850 heartbeat IPC: 0.83648 cumulative IPC: 0.835707 (Simulation time: 5 hr 18 min 59 sec) 
Heartbeat CPU 1 instructions: 960000000 cycles: 1508518119 heartbeat IPC: 0.785299 cumulative IPC: 0.566843 (Simulation time: 5 hr 19 min 44 sec) 
Heartbeat CPU 0 instructions: 990000003 cycles: 1508957289 heartbeat IPC: 0.471566 cumulative IPC: 0.472751 (Simulation time: 5 hr 19 min 49 sec) 
Heartbeat CPU 3 instructions: 1190000000 cycles: 1511721165 heartbeat IPC: 0.591343 cumulative IPC: 0.601722 (Simulation time: 5 hr 20 min 22 sec) 
Heartbeat CPU 2 instructions: 1530000000 cycles: 1516728358 heartbeat IPC: 0.834898 cumulative IPC: 0.8357 (Simulation time: 5 hr 21 min 22 sec) 
Heartbeat CPU 1 instructions: 970000000 cycles: 1521258143 heartbeat IPC: 0.784928 cumulative IPC: 0.568896 (Simulation time: 5 hr 22 min 16 sec) 
Heartbeat CPU 3 instructions: 1200000000 cycles: 1528447295 heartbeat IPC: 0.597867 cumulative IPC: 0.601674 (Simulation time: 5 hr 23 min 42 sec) 
Heartbeat CPU 2 instructions: 1540000000 cycles: 1528679084 heartbeat IPC: 0.836769 cumulative IPC: 0.835709 (Simulation time: 5 hr 23 min 44 sec) 
Heartbeat CPU 0 instructions: 1000000000 cycles: 1530495003 heartbeat IPC: 0.464302 cumulative IPC: 0.472618 (Simulation time: 5 hr 24 min 6 sec) 
Heartbeat CPU 1 instructions: 980000000 cycles: 1533965858 heartbeat IPC: 0.786924 cumulative IPC: 0.570924 (Simulation time: 5 hr 24 min 47 sec) 
Heartbeat CPU 2 instructions: 1550000001 cycles: 1540701036 heartbeat IPC: 0.831812 cumulative IPC: 0.835675 (Simulation time: 5 hr 26 min 7 sec) 
Heartbeat CPU 3 instructions: 1210000002 cycles: 1545356831 heartbeat IPC: 0.591382 cumulative IPC: 0.601548 (Simulation time: 5 hr 27 min 3 sec) 
Heartbeat CPU 1 instructions: 990000000 cycles: 1546728195 heartbeat IPC: 0.783556 cumulative IPC: 0.572891 (Simulation time: 5 hr 27 min 19 sec) 
Heartbeat CPU 0 instructions: 1010000001 cycles: 1551747068 heartbeat IPC: 0.470543 cumulative IPC: 0.472586 (Simulation time: 5 hr 28 min 19 sec) 
Heartbeat CPU 2 instructions: 1560000000 cycles: 1552689439 heartbeat IPC: 0.834139 cumulative IPC: 0.835662 (Simulation time: 5 hr 28 min 30 sec) 
Heartbeat CPU 1 instructions: 1000000000 cycles: 1559510751 heartbeat IPC: 0.782316 cumulative IPC: 0.574815 (Simulation time: 5 hr 29 min 51 sec) 
Heartbeat CPU 3 instructions: 1220000000 cycles: 1562182172 heartbeat IPC: 0.594341 cumulative IPC: 0.601461 (Simulation time: 5 hr 30 min 23 sec) 
Heartbeat CPU 2 instructions: 1570000002 cycles: 1564632718 heartbeat IPC: 0.837291 cumulative IPC: 0.835676 (Simulation time: 5 hr 30 min 52 sec) 
Heartbeat CPU 1 instructions: 1010000002 cycles: 1572323082 heartbeat IPC: 0.780498 cumulative IPC: 0.576691 (Simulation time: 5 hr 32 min 19 sec) 
Heartbeat CPU 0 instructions: 1020000000 cycles: 1573132204 heartbeat IPC: 0.467614 cumulative IPC: 0.47251 (Simulation time: 5 hr 32 min 28 sec) 
Heartbeat CPU 2 instructions: 1580000000 cycles: 1576618213 heartbeat IPC: 0.834342 cumulative IPC: 0.835665 (Simulation time: 5 hr 33 min 8 sec) 
Heartbeat CPU 3 instructions: 1230000001 cycles: 1579026525 heartbeat IPC: 0.593671 cumulative IPC: 0.601368 (Simulation time: 5 hr 33 min 35 sec) 
Heartbeat CPU 1 instructions: 1020000000 cycles: 1585079257 heartbeat IPC: 0.783934 cumulative IPC: 0.578556 (Simulation time: 5 hr 34 min 44 sec) 
Heartbeat CPU 2 instructions: 1590000002 cycles: 1588546869 heartbeat IPC: 0.838318 cumulative IPC: 0.835687 (Simulation time: 5 hr 35 min 23 sec) 
Heartbeat CPU 0 instructions: 1030000003 cycles: 1594391364 heartbeat IPC: 0.470386 cumulative IPC: 0.472479 (Simulation time: 5 hr 36 min 25 sec) 
Heartbeat CPU 3 instructions: 1240000000 cycles: 1595626863 heartbeat IPC: 0.602397 cumulative IPC: 0.60138 (Simulation time: 5 hr 36 min 38 sec) 
Heartbeat CPU 2 instructions: 1600000000 cycles: 1600512272 heartbeat IPC: 0.835743 cumulative IPC: 0.835687 (Simulation time: 5 hr 37 min 27 sec) 
Heartbeat CPU 1 instructions: 1030000001 cycles: 1602322837 heartbeat IPC: 0.579926 cumulative IPC: 0.578573 (Simulation time: 5 hr 37 min 46 sec) 
Heartbeat CPU 3 instructions: 1250000003 cycles: 1612089566 heartbeat IPC: 0.607434 cumulative IPC: 0.601449 (Simulation time: 5 hr 39 min 34 sec) 
Heartbeat CPU 2 instructions: 1610000000 cycles: 1612474859 heartbeat IPC: 0.83594 cumulative IPC: 0.835689 (Simulation time: 5 hr 39 min 39 sec) 
Heartbeat CPU 0 instructions: 1040000000 cycles: 1615849213 heartbeat IPC: 0.46603 cumulative IPC: 0.472383 (Simulation time: 5 hr 40 min 19 sec) 
Heartbeat CPU 1 instructions: 1040000000 cycles: 1616316161 heartbeat IPC: 0.714626 cumulative IPC: 0.579887 (Simulation time: 5 hr 40 min 25 sec) 
Heartbeat CPU 2 instructions: 1620000000 cycles: 1624450287 heartbeat IPC: 0.835043 cumulative IPC: 0.835684 (Simulation time: 5 hr 42 min 0 sec) 
Heartbeat CPU 3 instructions: 1260000000 cycles: 1628763566 heartbeat IPC: 0.599736 cumulative IPC: 0.60143 (Simulation time: 5 hr 42 min 51 sec) 
Heartbeat CPU 1 instructions: 1050000000 cycles: 1629451965 heartbeat IPC: 0.761278 cumulative IPC: 0.581517 (Simulation time: 5 hr 43 min 0 sec) 
Heartbeat CPU 2 instructions: 1630000001 cycles: 1636418763 heartbeat IPC: 0.835528 cumulative IPC: 0.835683 (Simulation time: 5 hr 44 min 22 sec) 
Heartbeat CPU 0 instructions: 1050000000 cycles: 1637547557 heartbeat IPC: 0.460865 cumulative IPC: 0.472213 (Simulation time: 5 hr 44 min 35 sec) 
Heartbeat CPU 1 instructions: 1060000000 cycles: 1642605169 heartbeat IPC: 0.760271 cumulative IPC: 0.583111 (Simulation time: 5 hr 45 min 35 sec) 
Heartbeat CPU 3 instructions: 1270000001 cycles: 1645505495 heartbeat IPC: 0.597303 cumulative IPC: 0.601383 (Simulation time: 5 hr 46 min 9 sec) 
Heartbeat CPU 2 instructions: 1640000000 cycles: 1648343886 heartbeat IPC: 0.838566 cumulative IPC: 0.835706 (Simulation time: 5 hr 46 min 43 sec) 
Heartbeat CPU 1 instructions: 1070000001 cycles: 1655781645 heartbeat IPC: 0.758928 cumulative IPC: 0.584668 (Simulation time: 5 hr 48 min 11 sec) 
Heartbeat CPU 0 instructions: 1060000000 cycles: 1659905900 heartbeat IPC: 0.44726 cumulative IPC: 0.471839 (Simulation time: 5 hr 48 min 59 sec) 
Heartbeat CPU 2 instructions: 1650000001 cycles: 1660302477 heartbeat IPC: 0.836219 cumulative IPC: 0.83571 (Simulation time: 5 hr 49 min 4 sec) 
Heartbeat CPU 3 instructions: 1280000000 cycles: 1662170893 heartbeat IPC: 0.600046 cumulative IPC: 0.601368 (Simulation time: 5 hr 49 min 26 sec) 
Heartbeat CPU 1 instructions: 1080000000 cycles: 1668931868 heartbeat IPC: 0.760443 cumulative IPC: 0.586208 (Simulation time: 5 hr 50 min 45 sec) 
Heartbeat CPU 2 instructions: 1660000000 cycles: 1672294897 heartbeat IPC: 0.83386 cumulative IPC: 0.835695 (Simulation time: 5 hr 51 min 25 sec) 
Heartbeat CPU 3 instructions: 1290000003 cycles: 1679017581 heartbeat IPC: 0.593589 cumulative IPC: 0.601281 (Simulation time: 5 hr 52 min 45 sec) 
Heartbeat CPU 0 instructions: 1070000000 cycles: 1681993893 heartbeat IPC: 0.452735 cumulative IPC: 0.471561 (Simulation time: 5 hr 53 min 19 sec) 
Heartbeat CPU 1 instructions: 1090000002 cycles: 1682089101 heartbeat IPC: 0.760038 cumulative IPC: 0.587718 (Simulation time: 5 hr 53 min 21 sec) 
Heartbeat CPU 2 instructions: 1670000000 cycles: 1684267448 heartbeat IPC: 0.835244 cumulative IPC: 0.835692 (Simulation time: 5 hr 53 min 46 sec) 
Heartbeat CPU 1 instructions: 1100000000 cycles: 1695261464 heartbeat IPC: 0.759165 cumulative IPC: 0.589197 (Simulation time: 5 hr 55 min 57 sec) 
Heartbeat CPU 3 instructions: 1300000000 cycles: 1695598894 heartbeat IPC: 0.603088 cumulative IPC: 0.601301 (Simulation time: 5 hr 56 min 1 sec) 
Heartbeat CPU 2 instructions: 1680000000 cycles: 1696238488 heartbeat IPC: 0.835349 cumulative IPC: 0.835689 (Simulation time: 5 hr 56 min 8 sec) 
Heartbeat CPU 0 instructions: 1080000000 cycles: 1704129842 heartbeat IPC: 0.451754 cumulative IPC: 0.471275 (Simulation time: 5 hr 57 min 55 sec) 
Heartbeat CPU 2 instructions: 1690000003 cycles: 1708204710 heartbeat IPC: 0.835686 cumulative IPC: 0.835689 (Simulation time: 5 hr 58 min 48 sec) 
Heartbeat CPU 1 instructions: 1110000001 cycles: 1708457863 heartbeat IPC: 0.757783 cumulative IPC: 0.590641 (Simulation time: 5 hr 58 min 51 sec) 
Heartbeat CPU 3 instructions: 1310000000 cycles: 1712336784 heartbeat IPC: 0.597447 cumulative IPC: 0.601259 (Simulation time: 5 hr 59 min 43 sec) 
Heartbeat CPU 2 instructions: 1700000000 cycles: 1720167910 heartbeat IPC: 0.835896 cumulative IPC: 0.835691 (Simulation time: 6 hr 1 min 21 sec) 
Heartbeat CPU 1 instructions: 1120000000 cycles: 1721646934 heartbeat IPC: 0.758203 cumulative IPC: 0.592063 (Simulation time: 6 hr 1 min 38 sec) 
Heartbeat CPU 0 instructions: 1090000002 cycles: 1725369425 heartbeat IPC: 0.470819 cumulative IPC: 0.471269 (Simulation time: 6 hr 2 min 23 sec) 
Heartbeat CPU 3 instructions: 1320000000 cycles: 1729009630 heartbeat IPC: 0.599778 cumulative IPC: 0.601243 (Simulation time: 6 hr 3 min 4 sec) 
Heartbeat CPU 2 instructions: 1710000000 cycles: 1732139093 heartbeat IPC: 0.835339 cumulative IPC: 0.835688 (Simulation time: 6 hr 3 min 39 sec) 
Heartbeat CPU 1 instructions: 1130000002 cycles: 1734832987 heartbeat IPC: 0.758377 cumulative IPC: 0.593462 (Simulation time: 6 hr 4 min 9 sec) 
Heartbeat CPU 2 instructions: 1720000000 cycles: 1744076022 heartbeat IPC: 0.837736 cumulative IPC: 0.835704 (Simulation time: 6 hr 5 min 53 sec) 
Heartbeat CPU 3 instructions: 1330000000 cycles: 1745743239 heartbeat IPC: 0.5976 cumulative IPC: 0.601205 (Simulation time: 6 hr 6 min 12 sec) 
Heartbeat CPU 0 instructions: 1100000000 cycles: 1747297104 heartbeat IPC: 0.456045 cumulative IPC: 0.471058 (Simulation time: 6 hr 6 min 29 sec) 
Heartbeat CPU 1 instructions: 1140000000 cycles: 1748022155 heartbeat IPC: 0.758198 cumulative IPC: 0.594837 (Simulation time: 6 hr 6 min 37 sec) 
Heartbeat CPU 2 instructions: 1730000001 cycles: 1756113540 heartbeat IPC: 0.830736 cumulative IPC: 0.835666 (Simulation time: 6 hr 8 min 8 sec) 
Heartbeat CPU 1 instructions: 1150000003 cycles: 1761211174 heartbeat IPC: 0.758207 cumulative IPC: 0.59619 (Simulation time: 6 hr 9 min 6 sec) 
Heartbeat CPU 3 instructions: 1340000000 cycles: 1762494120 heartbeat IPC: 0.596984 cumulative IPC: 0.60116 (Simulation time: 6 hr 9 min 20 sec) 
Heartbeat CPU 2 instructions: 1740000000 cycles: 1768097073 heartbeat IPC: 0.834478 cumulative IPC: 0.835657 (Simulation time: 6 hr 10 min 23 sec) 
Heartbeat CPU 0 instructions: 1110000002 cycles: 1769477769 heartbeat IPC: 0.450843 cumulative IPC: 0.470778 (Simulation time: 6 hr 10 min 39 sec) 
Heartbeat CPU 1 instructions: 1160000000 cycles: 1774355446 heartbeat IPC: 0.760787 cumulative IPC: 0.597536 (Simulation time: 6 hr 11 min 35 sec) 
Heartbeat CPU 3 instructions: 1350000001 cycles: 1779230057 heartbeat IPC: 0.597517 cumulative IPC: 0.601122 (Simulation time: 6 hr 12 min 33 sec) 
Heartbeat CPU 2 instructions: 1750000001 cycles: 1780027163 heartbeat IPC: 0.838217 cumulative IPC: 0.835676 (Simulation time: 6 hr 12 min 42 sec) 
Heartbeat CPU 1 instructions: 1170000003 cycles: 1787516873 heartbeat IPC: 0.759796 cumulative IPC: 0.598855 (Simulation time: 6 hr 14 min 10 sec) 
Heartbeat CPU 0 instructions: 1120000000 cycles: 1791516498 heartbeat IPC: 0.453747 cumulative IPC: 0.470547 (Simulation time: 6 hr 14 min 57 sec) 
Heartbeat CPU 2 instructions: 1760000000 cycles: 1791989817 heartbeat IPC: 0.835935 cumulative IPC: 0.835678 (Simulation time: 6 hr 15 min 3 sec) 
[...]
Heartbeat CPU 1 instructions: 1380000000 cycles: 2132481959 heartbeat IPC: 0.91315 cumulative IPC: 0.600593 (Simulation time: 7 hr 12 min 10 sec) 
Heartbeat CPU 2 instructions: 2020000000 cycles: 2138528464 heartbeat IPC: 0.393453 cumulative IPC: 0.820661 (Simulation time: 7 hr 13 min 5 sec) 
Heartbeat CPU 1 instructions: 1390000001 cycles: 2143495218 heartbeat IPC: 0.907997 cumulative IPC: 0.602307 (Simulation time: 7 hr 13 min 49 sec) 
Heartbeat CPU 3 instructions: 1570000000 cycles: 2146246790 heartbeat IPC: 0.597066 cumulative IPC: 0.600808 (Simulation time: 7 hr 14 min 14 sec) 
Heartbeat CPU 0 instructions: 1290000000 cycles: 2153466864 heartbeat IPC: 0.442153 cumulative IPC: 0.470388 (Simulation time: 7 hr 15 min 19 sec) 
Heartbeat CPU 1 instructions: 1400000000 cycles: 2154540463 heartbeat IPC: 0.905367 cumulative IPC: 0.603992 (Simulation time: 7 hr 15 min 29 sec) 
Heartbeat CPU 3 instructions: 1580000000 cycles: 2162980475 heartbeat IPC: 0.597597 cumulative IPC: 0.600781 (Simulation time: 7 hr 16 min 44 sec) 
Heartbeat CPU 2 instructions: 2030000001 cycles: 2164000353 heartbeat IPC: 0.39259 cumulative IPC: 0.815199 (Simulation time: 7 hr 16 min 53 sec) 
Heartbeat CPU 1 instructions: 1410000000 cycles: 2165700034 heartbeat IPC: 0.896092 cumulative IPC: 0.605623 (Simulation time: 7 hr 17 min 9 sec) 
Heartbeat CPU 0 instructions: 1300000000 cycles: 2175357662 heartbeat IPC: 0.456813 cumulative IPC: 0.47024 (Simulation time: 7 hr 18 min 36 sec) 
Heartbeat CPU 1 instructions: 1420000000 cycles: 2176835582 heartbeat IPC: 0.898025 cumulative IPC: 0.607244 (Simulation time: 7 hr 18 min 49 sec) 
Heartbeat CPU 3 instructions: 1590000001 cycles: 2179781989 heartbeat IPC: 0.595185 cumulative IPC: 0.600734 (Simulation time: 7 hr 19 min 15 sec) 
Heartbeat CPU 1 instructions: 1430000000 cycles: 2188023793 heartbeat IPC: 0.893798 cumulative IPC: 0.608831 (Simulation time: 7 hr 20 min 30 sec) 
Heartbeat CPU 2 instructions: 2040000000 cycles: 2189544647 heartbeat IPC: 0.391477 cumulative IPC: 0.809845 (Simulation time: 7 hr 20 min 43 sec) 
Heartbeat CPU 3 instructions: 1600000000 cycles: 2196409712 heartbeat IPC: 0.601405 cumulative IPC: 0.60074 (Simulation time: 7 hr 21 min 45 sec) 
Heartbeat CPU 0 instructions: 1310000002 cycles: 2197497130 heartbeat IPC: 0.451682 cumulative IPC: 0.470038 (Simulation time: 7 hr 21 min 55 sec) 
Heartbeat CPU 1 instructions: 1440000000 cycles: 2199202399 heartbeat IPC: 0.894566 cumulative IPC: 0.610403 (Simulation time: 7 hr 22 min 10 sec) 
Heartbeat CPU 1 instructions: 1450000000 cycles: 2210154086 heartbeat IPC: 0.913101 cumulative IPC: 0.612026 (Simulation time: 7 hr 23 min 49 sec) 
Heartbeat CPU 3 instructions: 1610000000 cycles: 2213336402 heartbeat IPC: 0.590783 cumulative IPC: 0.600658 (Simulation time: 7 hr 24 min 17 sec) 
Heartbeat CPU 2 instructions: 2050000003 cycles: 2214983348 heartbeat IPC: 0.393102 cumulative IPC: 0.804667 (Simulation time: 7 hr 24 min 32 sec) 
Heartbeat CPU 0 instructions: 1320000000 cycles: 2219611448 heartbeat IPC: 0.452196 cumulative IPC: 0.469845 (Simulation time: 7 hr 25 min 14 sec) 
Heartbeat CPU 1 instructions: 1460000000 cycles: 2221155219 heartbeat IPC: 0.908997 cumulative IPC: 0.613617 (Simulation time: 7 hr 25 min 27 sec) 
Heartbeat CPU 3 instructions: 1620000000 cycles: 2230165327 heartbeat IPC: 0.594215 cumulative IPC: 0.600605 (Simulation time: 7 hr 26 min 49 sec) 
Heartbeat CPU 1 instructions: 1470000003 cycles: 2232840110 heartbeat IPC: 0.855806 cumulative IPC: 0.614988 (Simulation time: 7 hr 27 min 12 sec) 
Heartbeat CPU 2 instructions: 2060000000 cycles: 2240081998 heartbeat IPC: 0.398428 cumulative IPC: 0.799747 (Simulation time: 7 hr 28 min 13 sec) 
Heartbeat CPU 0 instructions: 1330000003 cycles: 2241231655 heartbeat IPC: 0.46253 cumulative IPC: 0.469769 (Simulation time: 7 hr 28 min 22 sec) 
Heartbeat CPU 3 instructions: 1630000002 cycles: 2245201769 heartbeat IPC: 0.665051 cumulative IPC: 0.601071 (Simulation time: 7 hr 28 min 57 sec) 
Heartbeat CPU 1 instructions: 1480000000 cycles: 2247696165 heartbeat IPC: 0.673126 cumulative IPC: 0.615403 (Simulation time: 7 hr 29 min 19 sec) 
Heartbeat CPU 1 instructions: 1490000001 cycles: 2258460132 heartbeat IPC: 0.929026 cumulative IPC: 0.617018 (Simulation time: 7 hr 30 min 53 sec) 
Heartbeat CPU 0 instructions: 1340000000 cycles: 2262265948 heartbeat IPC: 0.475414 cumulative IPC: 0.469826 (Simulation time: 7 hr 31 min 26 sec) 
Heartbeat CPU 2 instructions: 2070000000 cycles: 2265187678 heartbeat IPC: 0.398316 cumulative IPC: 0.794942 (Simulation time: 7 hr 31 min 52 sec) 
Heartbeat CPU 3 instructions: 1640000000 cycles: 2266491756 heartbeat IPC: 0.469704 cumulative IPC: 0.599739 (Simulation time: 7 hr 32 min 3 sec) 
Heartbeat CPU 1 instructions: 1500000000 cycles: 2269220549 heartbeat IPC: 0.929332 cumulative IPC: 0.618617 (Simulation time: 7 hr 32 min 27 sec) 
Heartbeat CPU 1 instructions: 1510000000 cycles: 2280013873 heartbeat IPC: 0.926499 cumulative IPC: 0.62019 (Simulation time: 7 hr 34 min 1 sec) 
Heartbeat CPU 0 instructions: 1350000001 cycles: 2282499611 heartbeat IPC: 0.494226 cumulative IPC: 0.470059 (Simulation time: 7 hr 34 min 23 sec) 
Heartbeat CPU 3 instructions: 1650000000 cycles: 2287875135 heartbeat IPC: 0.467653 cumulative IPC: 0.598407 (Simulation time: 7 hr 35 min 10 sec) 
Heartbeat CPU 2 instructions: 2080000000 cycles: 2290132574 heartbeat IPC: 0.400884 cumulative IPC: 0.79031 (Simulation time: 7 hr 35 min 30 sec) 
Heartbeat CPU 1 instructions: 1520000000 cycles: 2290720012 heartbeat IPC: 0.934044 cumulative IPC: 0.621773 (Simulation time: 7 hr 35 min 35 sec) 
Finished CPU 0 instructions: 1000000003 cycles: 2127153287 cumulative IPC: 0.470112 (Simulation time: 7 hr 36 min 11 sec) 

CPU 0 Branch Prediction Accuracy: 97.092% MPKI: 0.451147

CPU 1 Branch Prediction Accuracy: 99.6818% MPKI: 0.0340176

CPU 2 Branch Prediction Accuracy: 99.9568% MPKI: 0.0995061

CPU 3 Branch Prediction Accuracy: 99.975% MPKI: 0.00383465

ChampSim completed all CPUs

Total Simulation Statistics (not including warmup)

CPU 0 cumulative IPC: 0.470112 instructions: 1000000003 cycles: 2127153287
L1D TOTAL     ACCESS:  285307649  HIT:  206882611  MISS:   78425038
L1D LOAD      ACCESS:  102024208  HIT:   90132452  MISS:   11891756
L1D RFO       ACCESS:  183283441  HIT:  116750159  MISS:   66533282
L1D PREFETCH  ACCESS:          0  HIT:          0  MISS:          0
L1D WRITEBACK ACCESS:          0  HIT:          0  MISS:          0
L1I TOTAL     ACCESS:  238727783  HIT:  238727783  MISS:          0
L1I LOAD      ACCESS:  238727783  HIT:  238727783  MISS:          0
L1I RFO       ACCESS:          0  HIT:          0  MISS:          0
L1I PREFETCH  ACCESS:          0  HIT:          0  MISS:          0
L1I WRITEBACK ACCESS:          0  HIT:          0  MISS:          0
L2C TOTAL     ACCESS:  153341752  HIT:   96306328  MISS:   57035424
L2C LOAD      ACCESS:   11891756  HIT:    8377632  MISS:    3514124
L2C RFO       ACCESS:   66533191  HIT:   21408012  MISS:   45125179
L2C PREFETCH  ACCESS:    8383523  HIT:       4703  MISS:    8378820
L2C WRITEBACK ACCESS:   66533282  HIT:   66515981  MISS:      17301

L2C Best-offset prefetcher final stats
LLC TOTAL     ACCESS:  102135195  HIT:   54628660  MISS:   47506535
LLC LOAD      ACCESS:    2222666  HIT:       8479  MISS:    2214187
LLC RFO       ACCESS:   45100450  HIT:    9474188  MISS:   35626262
LLC PREFETCH  ACCESS:    9670299  HIT:       7708  MISS:    9662591
LLC WRITEBACK ACCESS:   45141780  HIT:   45138285  MISS:       3495

CPU 1 cumulative IPC: 0.622397 instructions: 1323933966 cycles: 2127153287
L1D TOTAL     ACCESS:  682474109  HIT:  654946111  MISS:   27527998
L1D LOAD      ACCESS:  601069496  HIT:  573541836  MISS:   27527660
L1D RFO       ACCESS:   81404613  HIT:   81404275  MISS:        338
L1D PREFETCH  ACCESS:          0  HIT:          0  MISS:          0
L1D WRITEBACK ACCESS:          0  HIT:          0  MISS:          0
L1I TOTAL     ACCESS:  363912813  HIT:  363912301  MISS:        512
L1I LOAD      ACCESS:  363912813  HIT:  363912301  MISS:        512
L1I RFO       ACCESS:          0  HIT:          0  MISS:          0
L1I PREFETCH  ACCESS:          0  HIT:          0  MISS:          0
L1I WRITEBACK ACCESS:          0  HIT:          0  MISS:          0
L2C TOTAL     ACCESS:   60217959  HIT:   31799871  MISS:   28418088
L2C LOAD      ACCESS:   27528168  HIT:   20817129  MISS:    6711039
L2C RFO       ACCESS:        329  HIT:        297  MISS:         32
L2C PREFETCH  ACCESS:   21744579  HIT:      38453  MISS:   21706126
L2C WRITEBACK ACCESS:   10944883  HIT:   10943992  MISS:        891

L2C Best-offset prefetcher final stats
LLC TOTAL     ACCESS:   40113709  HIT:   14125744  MISS:   25987965
LLC LOAD      ACCESS:    5951364  HIT:    1286436  MISS:    4664928
LLC RFO       ACCESS:         31  HIT:          5  MISS:         26
LLC PREFETCH  ACCESS:   23225472  HIT:    1902708  MISS:   21322764
LLC WRITEBACK ACCESS:   10936842  HIT:   10936595  MISS:        247

CPU 2 cumulative IPC: 0.78943 instructions: 1679239657 cycles: 2127153288
L1D TOTAL     ACCESS:  356315948  HIT:  314481174  MISS:   41834774
L1D LOAD      ACCESS:  326027828  HIT:  284222371  MISS:   41805457
L1D RFO       ACCESS:   30288120  HIT:   30258803  MISS:      29317
L1D PREFETCH  ACCESS:          0  HIT:          0  MISS:          0
L1D WRITEBACK ACCESS:          0  HIT:          0  MISS:          0
L1I TOTAL     ACCESS:  586663904  HIT:  586663903  MISS:          1
L1I LOAD      ACCESS:  586663904  HIT:  586663903  MISS:          1
L1I RFO       ACCESS:          0  HIT:          0  MISS:          0
L1I PREFETCH  ACCESS:          0  HIT:          0  MISS:          0
L1I WRITEBACK ACCESS:          0  HIT:          0  MISS:          0
L2C TOTAL     ACCESS:   78805382  HIT:   36513371  MISS:   42292011
L2C LOAD      ACCESS:   41805458  HIT:   36274654  MISS:    5530804
L2C RFO       ACCESS:      29317  HIT:      13216  MISS:      16101
L2C PREFETCH  ACCESS:   36927911  HIT:     182816  MISS:   36745095
L2C WRITEBACK ACCESS:      42696  HIT:      42685  MISS:         11

L2C Best-offset prefetcher final stats
LLC TOTAL     ACCESS:   42347186  HIT:   40444471  MISS:    1902715
LLC LOAD      ACCESS:    5454474  HIT:    4839903  MISS:     614571
LLC RFO       ACCESS:      16044  HIT:      11050  MISS:       4994
LLC PREFETCH  ACCESS:   36833910  HIT:   35550858  MISS:    1283052
LLC WRITEBACK ACCESS:      42758  HIT:      42660  MISS:         98

CPU 3 cumulative IPC: 0.597991 instructions: 1272019059 cycles: 2127153288
L1D TOTAL     ACCESS:  269404543  HIT:  252570951  MISS:   16833592
L1D LOAD      ACCESS:  180140040  HIT:  163323208  MISS:   16816832
L1D RFO       ACCESS:   89264503  HIT:   89247743  MISS:      16760
L1D PREFETCH  ACCESS:          0  HIT:          0  MISS:          0
L1D WRITEBACK ACCESS:          0  HIT:          0  MISS:          0
L1I TOTAL     ACCESS:  260073507  HIT:  260073507  MISS:          0
L1I LOAD      ACCESS:  260073507  HIT:  260073507  MISS:          0
L1I RFO       ACCESS:          0  HIT:          0  MISS:          0
L1I PREFETCH  ACCESS:          0  HIT:          0  MISS:          0
L1I WRITEBACK ACCESS:          0  HIT:          0  MISS:          0
L2C TOTAL     ACCESS:   39403659  HIT:   22888467  MISS:   16515192
L2C LOAD      ACCESS:   16816832  HIT:   11684539  MISS:    5132293
L2C RFO       ACCESS:      16760  HIT:       3039  MISS:      13721
L2C PREFETCH  ACCESS:   11392602  HIT:      23424  MISS:   11369178
L2C WRITEBACK ACCESS:   11177465  HIT:   11177465  MISS:          0

L2C Best-offset prefetcher final stats
LLC TOTAL     ACCESS:   27683029  HIT:   16499786  MISS:   11183243
LLC LOAD      ACCESS:     595385  HIT:     242725  MISS:     352660
LLC RFO       ACCESS:      13720  HIT:      13715  MISS:          5
LLC PREFETCH  ACCESS:   15906100  HIT:    5076456  MISS:   10829644
LLC WRITEBACK ACCESS:   11167824  HIT:   11166890  MISS:        934

Region of Interest Statistics

CPU 0 cumulative IPC: 0.470112 instructions: 1000000003 cycles: 2127153287
L1D TOTAL     ACCESS:  285307649  HIT:  206882611  MISS:   78425038
L1D LOAD      ACCESS:  102024208  HIT:   90132452  MISS:   11891756
L1D RFO       ACCESS:  183283441  HIT:  116750159  MISS:   66533282
L1D PREFETCH  ACCESS:          0  HIT:          0  MISS:          0
L1D WRITEBACK ACCESS:          0  HIT:          0  MISS:          0
L1D PREFETCH  REQUESTED:          0  ISSUED:          0  USEFUL:          0  USELESS:          0
L1I TOTAL     ACCESS:  238727783  HIT:  238727783  MISS:          0
L1I LOAD      ACCESS:  238727783  HIT:  238727783  MISS:          0
L1I RFO       ACCESS:          0  HIT:          0  MISS:          0
L1I PREFETCH  ACCESS:          0  HIT:          0  MISS:          0
L1I WRITEBACK ACCESS:          0  HIT:          0  MISS:          0
L1I PREFETCH  REQUESTED:          0  ISSUED:          0  USEFUL:          0  USELESS:          0
L2C TOTAL     ACCESS:  153341752  HIT:   96306328  MISS:   57035424
L2C LOAD      ACCESS:   11891756  HIT:    8377632  MISS:    3514124
L2C RFO       ACCESS:   66533191  HIT:   21408012  MISS:   45125179
L2C PREFETCH  ACCESS:    8383523  HIT:       4703  MISS:    8378820
L2C WRITEBACK ACCESS:   66533282  HIT:   66515981  MISS:      17301
L2C PREFETCH  REQUESTED:   14300082  ISSUED:   14300082  USEFUL:   11497360  USELESS:      10553
LLC TOTAL     ACCESS:  102135195  HIT:   54628660  MISS:   47506535
LLC LOAD      ACCESS:    2222666  HIT:       8479  MISS:    2214187
LLC RFO       ACCESS:   45100450  HIT:    9474188  MISS:   35626262
LLC PREFETCH  ACCESS:    9670299  HIT:       7708  MISS:    9662591
LLC WRITEBACK ACCESS:   45141780  HIT:   45138285  MISS:       3495
LLC PREFETCH  REQUESTED:          0  ISSUED:          0  USEFUL:     466096  USELESS:   54509674
Major fault: 0 Minor fault: 482726

CPU 1 cumulative IPC: 0.602679 instructions: 1000000000 cycles: 1659257153
L1D TOTAL     ACCESS:  562594581  HIT:  541866452  MISS:   20728129
L1D LOAD      ACCESS:  498250282  HIT:  477522480  MISS:   20727802
L1D RFO       ACCESS:   64344299  HIT:   64343972  MISS:        327
L1D PREFETCH  ACCESS:          0  HIT:          0  MISS:          0
L1D WRITEBACK ACCESS:          0  HIT:          0  MISS:          0
L1D PREFETCH  REQUESTED:          0  ISSUED:          0  USEFUL:          0  USELESS:          0
L1I TOTAL     ACCESS:  287163252  HIT:  287162918  MISS:        334
L1I LOAD      ACCESS:  287163252  HIT:  287162918  MISS:        334
L1I RFO       ACCESS:          0  HIT:          0  MISS:          0
L1I PREFETCH  ACCESS:          0  HIT:          0  MISS:          0
L1I WRITEBACK ACCESS:          0  HIT:          0  MISS:          0
L1I PREFETCH  REQUESTED:          0  ISSUED:          0  USEFUL:          0  USELESS:          0
L2C TOTAL     ACCESS:   45947466  HIT:   24786611  MISS:   21160855
L2C LOAD      ACCESS:   20728132  HIT:   15970530  MISS:    4757602
L2C RFO       ACCESS:        318  HIT:        296  MISS:         22
L2C PREFETCH  ACCESS:   16421561  HIT:      18442  MISS:   16403119
L2C WRITEBACK ACCESS:    8797455  HIT:    8797343  MISS:        112
L2C PREFETCH  REQUESTED:   27105105  ISSUED:   27105105  USEFUL:   19612501  USELESS:    5879079
LLC TOTAL     ACCESS:   30279519  HIT:   11370258  MISS:   18909261
LLC LOAD      ACCESS:    4242661  HIT:     894289  MISS:    3348372
LLC RFO       ACCESS:         21  HIT:          4  MISS:         17
LLC PREFETCH  ACCESS:   17243834  HIT:    1682982  MISS:   15560852
LLC WRITEBACK ACCESS:    8793003  HIT:    8792983  MISS:         20
LLC PREFETCH  REQUESTED:          0  ISSUED:          0  USEFUL:     466096  USELESS:   54509674
Major fault: 0 Minor fault: 929080

CPU 2 cumulative IPC: 0.835789 instructions: 1000000000 cycles: 1196474425
L1D TOTAL     ACCESS:  213585495  HIT:  188184565  MISS:   25400930
L1D LOAD      ACCESS:  195220110  HIT:  169839845  MISS:   25380265
L1D RFO       ACCESS:   18365385  HIT:   18344720  MISS:      20665
L1D PREFETCH  ACCESS:          0  HIT:          0  MISS:          0
L1D WRITEBACK ACCESS:          0  HIT:          0  MISS:          0
L1D PREFETCH  REQUESTED:          0  ISSUED:          0  USEFUL:          0  USELESS:          0
L1I TOTAL     ACCESS:  348134482  HIT:  348134481  MISS:          1
L1I LOAD      ACCESS:  348134482  HIT:  348134481  MISS:          1
L1I RFO       ACCESS:          0  HIT:          0  MISS:          0
L1I PREFETCH  ACCESS:          0  HIT:          0  MISS:          0
L1I WRITEBACK ACCESS:          0  HIT:          0  MISS:          0
L1I PREFETCH  REQUESTED:          0  ISSUED:          0  USEFUL:          0  USELESS:          0
L2C TOTAL     ACCESS:   48027441  HIT:   22412809  MISS:   25614632
L2C LOAD      ACCESS:   25380266  HIT:   22246387  MISS:    3133879
L2C RFO       ACCESS:      20665  HIT:       9606  MISS:      11059
L2C PREFETCH  ACCESS:   22596280  HIT:     126592  MISS:   22469688
L2C WRITEBACK ACCESS:      30230  HIT:      30224  MISS:          6
L2C PREFETCH  REQUESTED:   43471225  ISSUED:   43471225  USEFUL:   42313854  USELESS:     799917
LLC TOTAL     ACCESS:   25645171  HIT:   25548744  MISS:      96427
LLC LOAD      ACCESS:    3100040  HIT:    3086294  MISS:      13746
LLC RFO       ACCESS:      11033  HIT:       8031  MISS:       3002
LLC PREFETCH  ACCESS:   22503811  HIT:   22424225  MISS:      79586
LLC WRITEBACK ACCESS:      30287  HIT:      30194  MISS:         93
LLC PREFETCH  REQUESTED:          0  ISSUED:          0  USEFUL:     466096  USELESS:   54509674
Major fault: 0 Minor fault: 4844

CPU 3 cumulative IPC: 0.600995 instructions: 1000000002 cycles: 1663907094
L1D TOTAL     ACCESS:  211829553  HIT:  198595803  MISS:   13233750
L1D LOAD      ACCESS:  141654113  HIT:  128433538  MISS:   13220575
L1D RFO       ACCESS:   70175440  HIT:   70162265  MISS:      13175
L1D PREFETCH  ACCESS:          0  HIT:          0  MISS:          0
L1D WRITEBACK ACCESS:          0  HIT:          0  MISS:          0
L1D PREFETCH  REQUESTED:          0  ISSUED:          0  USEFUL:          0  USELESS:          0
L1I TOTAL     ACCESS:  204498785  HIT:  204498785  MISS:          0
L1I LOAD      ACCESS:  204498785  HIT:  204498785  MISS:          0
L1I RFO       ACCESS:          0  HIT:          0  MISS:          0
L1I PREFETCH  ACCESS:          0  HIT:          0  MISS:          0
L1I WRITEBACK ACCESS:          0  HIT:          0  MISS:          0
L1I PREFETCH  REQUESTED:          0  ISSUED:          0  USEFUL:          0  USELESS:          0
L2C TOTAL     ACCESS:   31027760  HIT:   18034943  MISS:   12992817
L2C LOAD      ACCESS:   13220576  HIT:    9227246  MISS:    3993330
L2C RFO       ACCESS:      13175  HIT:       2390  MISS:      10785
L2C PREFETCH  ACCESS:    9006829  HIT:      18127  MISS:    8988702
L2C WRITEBACK ACCESS:    8787180  HIT:    8787180  MISS:          0
L2C PREFETCH  REQUESTED:   20678524  ISSUED:   20678524  USEFUL:   16029646  USELESS:      72300
LLC TOTAL     ACCESS:   21772429  HIT:   12986249  MISS:    8786180
LLC LOAD      ACCESS:     468838  HIT:     191189  MISS:     277649
LLC RFO       ACCESS:      10784  HIT:      10783  MISS:          1
LLC PREFETCH  ACCESS:   12513205  HIT:    4005161  MISS:    8508044
LLC WRITEBACK ACCESS:    8779602  HIT:    8779116  MISS:        486
LLC PREFETCH  REQUESTED:          0  ISSUED:          0  USEFUL:     466096  USELESS:   54509674
Major fault: 0 Minor fault: 226917

L2C Best-offset prefetcher final stats

L2C Best-offset prefetcher final stats

L2C Best-offset prefetcher final stats

L2C Best-offset prefetcher final stats

DRAM Statistics
 CHANNEL 0
 RQ ROW_BUFFER_HIT:   11675414  ROW_BUFFER_MISS:   31569272
 DBUS_CONGESTED:  103055567
 WQ ROW_BUFFER_HIT:    2944523  ROW_BUFFER_MISS:   25935577  FULL:          0

 CHANNEL 1
 RQ ROW_BUFFER_HIT:   11732519  ROW_BUFFER_MISS:   31598302
 DBUS_CONGESTED:  103055567
 WQ ROW_BUFFER_HIT:    3003621  ROW_BUFFER_MISS:   25875426  FULL:          0

 AVG_CONGESTED_CYCLE: 14
