
*** ChampSim Multicore Out-of-Order Simulator ***

Warmup Instructions: 200000000
Simulation Instructions: 1000000000
Number of CPUs: 4
LLC sets: 8192
LLC ways: 16
Off-chip DRAM Size: 8192 MB Channels: 2 Width: 64-bit Data Rate: 1600 MT/s

CPU 0 runs /scratch/user/djimenez/champsim-traces/speccpu2017/xz/654.roms_s/654.roms_s-294B.champsimtrace.xz
CPU 1 runs /scratch/user/djimenez/champsim-traces/speccpu2017/xz/619.lbm_s/619.lbm_s-2676B.champsimtrace.xz
CPU 2 runs /scratch/user/djimenez/champsim-traces/speccpu2017/xz/654.roms_s/654.roms_s-1070B.champsimtrace.xz
CPU 3 runs /scratch/user/djimenez/champsim-traces/speccpu2017/xz/623.xalancbmk_s/623.xalancbmk_s-165B.champsimtrace.xz
L2C Best-offset prefetcher
L2C Best-offset prefetcher
L2C Best-offset prefetcher
L2C Best-offset prefetcher
Heartbeat CPU 3 instructions: 10000001 cycles: 4171261 heartbeat IPC: 2.39736 cumulative IPC: 2.39736 (Simulation time: 0 hr 4 min 18 sec) 
Heartbeat CPU 1 instructions: 10000000 cycles: 4849952 heartbeat IPC: 2.06188 cumulative IPC: 2.06188 (Simulation time: 0 hr 4 min 58 sec) 
Heartbeat CPU 0 instructions: 10000003 cycles: 4879332 heartbeat IPC: 2.04946 cumulative IPC: 2.04946 (Simulation time: 0 hr 5 min 0 sec) 
Heartbeat CPU 2 instructions: 10000001 cycles: 4946660 heartbeat IPC: 2.02157 cumulative IPC: 2.02157 (Simulation time: 0 hr 5 min 4 sec) 
Heartbeat CPU 3 instructions: 20000000 cycles: 8338799 heartbeat IPC: 2.3995 cumulative IPC: 2.39843 (Simulation time: 0 hr 8 min 27 sec) 
Heartbeat CPU 1 instructions: 20000000 cycles: 9678730 heartbeat IPC: 2.07092 cumulative IPC: 2.06639 (Simulation time: 0 hr 9 min 49 sec) 
Heartbeat CPU 0 instructions: 20000000 cycles: 9758320 heartbeat IPC: 2.0496 cumulative IPC: 2.04953 (Simulation time: 0 hr 9 min 54 sec) 
Heartbeat CPU 2 instructions: 20000000 cycles: 10006529 heartbeat IPC: 1.97634 cumulative IPC: 1.9987 (Simulation time: 0 hr 10 min 9 sec) 
Heartbeat CPU 3 instructions: 30000001 cycles: 12499646 heartbeat IPC: 2.40336 cumulative IPC: 2.40007 (Simulation time: 0 hr 12 min 46 sec) 
Heartbeat CPU 1 instructions: 30000003 cycles: 14481921 heartbeat IPC: 2.08195 cumulative IPC: 2.07155 (Simulation time: 0 hr 14 min 48 sec) 
Heartbeat CPU 0 instructions: 30000002 cycles: 14637228 heartbeat IPC: 2.04964 cumulative IPC: 2.04957 (Simulation time: 0 hr 14 min 58 sec) 
Heartbeat CPU 2 instructions: 30000003 cycles: 14935342 heartbeat IPC: 2.02889 cumulative IPC: 2.00866 (Simulation time: 0 hr 15 min 17 sec) 
Heartbeat CPU 3 instructions: 40000000 cycles: 16658192 heartbeat IPC: 2.40469 cumulative IPC: 2.40122 (Simulation time: 0 hr 17 min 3 sec) 
Heartbeat CPU 1 instructions: 40000000 cycles: 19235882 heartbeat IPC: 2.10351 cumulative IPC: 2.07945 (Simulation time: 0 hr 19 min 53 sec) 
Heartbeat CPU 0 instructions: 40000000 cycles: 19516183 heartbeat IPC: 2.04962 cumulative IPC: 2.04958 (Simulation time: 0 hr 20 min 10 sec) 
Heartbeat CPU 2 instructions: 40000000 cycles: 20011280 heartbeat IPC: 1.97008 cumulative IPC: 1.99887 (Simulation time: 0 hr 20 min 40 sec) 
Heartbeat CPU 3 instructions: 50000000 cycles: 20816477 heartbeat IPC: 2.40484 cumulative IPC: 2.40194 (Simulation time: 0 hr 21 min 30 sec) 
Heartbeat CPU 1 instructions: 50000002 cycles: 23944172 heartbeat IPC: 2.12391 cumulative IPC: 2.08819 (Simulation time: 0 hr 24 min 56 sec) 
Heartbeat CPU 0 instructions: 50000000 cycles: 24395337 heartbeat IPC: 2.04954 cumulative IPC: 2.04957 (Simulation time: 0 hr 25 min 22 sec) 
Heartbeat CPU 3 instructions: 60000000 cycles: 24971963 heartbeat IPC: 2.40646 cumulative IPC: 2.40269 (Simulation time: 0 hr 25 min 56 sec) 
Heartbeat CPU 2 instructions: 50000000 cycles: 25044461 heartbeat IPC: 1.98682 cumulative IPC: 1.99645 (Simulation time: 0 hr 26 min 0 sec) 
Heartbeat CPU 1 instructions: 60000000 cycles: 28603643 heartbeat IPC: 2.14617 cumulative IPC: 2.09763 (Simulation time: 0 hr 29 min 36 sec) 
Heartbeat CPU 3 instructions: 70000000 cycles: 29134293 heartbeat IPC: 2.4025 cumulative IPC: 2.40267 (Simulation time: 0 hr 30 min 7 sec) 
Heartbeat CPU 0 instructions: 60000000 cycles: 29274520 heartbeat IPC: 2.04952 cumulative IPC: 2.04956 (Simulation time: 0 hr 30 min 15 sec) 
Heartbeat CPU 2 instructions: 60000000 cycles: 30004249 heartbeat IPC: 2.01622 cumulative IPC: 1.99972 (Simulation time: 0 hr 30 min 56 sec) 
Heartbeat CPU 1 instructions: 70000000 cycles: 33220526 heartbeat IPC: 2.16596 cumulative IPC: 2.10713 (Simulation time: 0 hr 33 min 59 sec) 
Heartbeat CPU 3 instructions: 80000000 cycles: 33288041 heartbeat IPC: 2.40746 cumulative IPC: 2.40327 (Simulation time: 0 hr 34 min 3 sec) 
Heartbeat CPU 0 instructions: 70000003 cycles: 34153496 heartbeat IPC: 2.04961 cumulative IPC: 2.04957 (Simulation time: 0 hr 34 min 51 sec) 
Heartbeat CPU 2 instructions: 70000003 cycles: 35056254 heartbeat IPC: 1.97941 cumulative IPC: 1.99679 (Simulation time: 0 hr 35 min 42 sec) 
Heartbeat CPU 3 instructions: 90000000 cycles: 37450563 heartbeat IPC: 2.40239 cumulative IPC: 2.40317 (Simulation time: 0 hr 37 min 58 sec) 
Heartbeat CPU 1 instructions: 80000000 cycles: 37760761 heartbeat IPC: 2.20253 cumulative IPC: 2.1186 (Simulation time: 0 hr 38 min 15 sec) 
Heartbeat CPU 0 instructions: 80000000 cycles: 39032427 heartbeat IPC: 2.04963 cumulative IPC: 2.04958 (Simulation time: 0 hr 39 min 26 sec) 
Heartbeat CPU 2 instructions: 80000000 cycles: 39976040 heartbeat IPC: 2.03261 cumulative IPC: 2.0012 (Simulation time: 0 hr 40 min 19 sec) 
Heartbeat CPU 3 instructions: 100000000 cycles: 41605156 heartbeat IPC: 2.40697 cumulative IPC: 2.40355 (Simulation time: 0 hr 41 min 42 sec) 
Heartbeat CPU 1 instructions: 90000000 cycles: 42298447 heartbeat IPC: 2.20377 cumulative IPC: 2.12774 (Simulation time: 0 hr 42 min 17 sec) 
Heartbeat CPU 0 instructions: 90000000 cycles: 43911422 heartbeat IPC: 2.0496 cumulative IPC: 2.04958 (Simulation time: 0 hr 43 min 38 sec) 
Heartbeat CPU 2 instructions: 90000001 cycles: 45060697 heartbeat IPC: 1.9667 cumulative IPC: 1.99731 (Simulation time: 0 hr 44 min 36 sec) 
Heartbeat CPU 3 instructions: 110000003 cycles: 45761001 heartbeat IPC: 2.40625 cumulative IPC: 2.40379 (Simulation time: 0 hr 45 min 14 sec) 
Heartbeat CPU 1 instructions: 100000000 cycles: 46789013 heartbeat IPC: 2.22689 cumulative IPC: 2.13725 (Simulation time: 0 hr 46 min 9 sec) 
Heartbeat CPU 0 instructions: 100000000 cycles: 48790371 heartbeat IPC: 2.04962 cumulative IPC: 2.04958 (Simulation time: 0 hr 48 min 0 sec) 
Heartbeat CPU 3 instructions: 120000000 cycles: 49926819 heartbeat IPC: 2.40049 cumulative IPC: 2.40352 (Simulation time: 0 hr 49 min 2 sec) 
Heartbeat CPU 2 instructions: 100000000 cycles: 50098486 heartbeat IPC: 1.985 cumulative IPC: 1.99607 (Simulation time: 0 hr 49 min 12 sec) 
Heartbeat CPU 1 instructions: 110000001 cycles: 51263625 heartbeat IPC: 2.23483 cumulative IPC: 2.14577 (Simulation time: 0 hr 50 min 17 sec) 
Heartbeat CPU 0 instructions: 110000001 cycles: 53668756 heartbeat IPC: 2.04986 cumulative IPC: 2.04961 (Simulation time: 0 hr 52 min 24 sec) 
Heartbeat CPU 3 instructions: 130000001 cycles: 54088698 heartbeat IPC: 2.40276 cumulative IPC: 2.40346 (Simulation time: 0 hr 52 min 45 sec) 
Heartbeat CPU 2 instructions: 110000001 cycles: 55063590 heartbeat IPC: 2.01406 cumulative IPC: 1.99769 (Simulation time: 0 hr 53 min 34 sec) 
Heartbeat CPU 1 instructions: 120000000 cycles: 55702439 heartbeat IPC: 2.25285 cumulative IPC: 2.1543 (Simulation time: 0 hr 54 min 6 sec) 
Heartbeat CPU 3 instructions: 140000000 cycles: 58245479 heartbeat IPC: 2.40571 cumulative IPC: 2.40362 (Simulation time: 0 hr 56 min 14 sec) 
Heartbeat CPU 0 instructions: 120000000 cycles: 58547591 heartbeat IPC: 2.04967 cumulative IPC: 2.04961 (Simulation time: 0 hr 56 min 29 sec) 
Heartbeat CPU 2 instructions: 120000000 cycles: 60111081 heartbeat IPC: 1.98118 cumulative IPC: 1.9963 (Simulation time: 0 hr 57 min 47 sec) 
Heartbeat CPU 1 instructions: 130000001 cycles: 60112621 heartbeat IPC: 2.26748 cumulative IPC: 2.16261 (Simulation time: 0 hr 57 min 47 sec) 
Heartbeat CPU 3 instructions: 150000002 cycles: 62401934 heartbeat IPC: 2.4059 cumulative IPC: 2.40377 (Simulation time: 0 hr 59 min 41 sec) 
Heartbeat CPU 0 instructions: 130000000 cycles: 63426504 heartbeat IPC: 2.04964 cumulative IPC: 2.04962 (Simulation time: 1 hr 0 min 32 sec) 
Heartbeat CPU 1 instructions: 140000000 cycles: 64515634 heartbeat IPC: 2.27117 cumulative IPC: 2.17002 (Simulation time: 1 hr 1 min 32 sec) 
Heartbeat CPU 2 instructions: 130000001 cycles: 65042973 heartbeat IPC: 2.02762 cumulative IPC: 1.99868 (Simulation time: 1 hr 2 min 0 sec) 
Heartbeat CPU 3 instructions: 160000000 cycles: 66563121 heartbeat IPC: 2.40316 cumulative IPC: 2.40373 (Simulation time: 1 hr 3 min 23 sec) 
Heartbeat CPU 0 instructions: 140000000 cycles: 68305060 heartbeat IPC: 2.04979 cumulative IPC: 2.04963 (Simulation time: 1 hr 4 min 58 sec) 
Heartbeat CPU 1 instructions: 150000002 cycles: 68892618 heartbeat IPC: 2.28468 cumulative IPC: 2.1773 (Simulation time: 1 hr 5 min 30 sec) 
Heartbeat CPU 2 instructions: 140000000 cycles: 70113581 heartbeat IPC: 1.97215 cumulative IPC: 1.99676 (Simulation time: 1 hr 6 min 37 sec) 
Heartbeat CPU 3 instructions: 170000003 cycles: 70725360 heartbeat IPC: 2.40255 cumulative IPC: 2.40366 (Simulation time: 1 hr 7 min 11 sec) 
Heartbeat CPU 0 instructions: 150000003 cycles: 73184145 heartbeat IPC: 2.04957 cumulative IPC: 2.04962 (Simulation time: 1 hr 9 min 26 sec) 
Heartbeat CPU 1 instructions: 160000000 cycles: 73243722 heartbeat IPC: 2.29827 cumulative IPC: 2.18449 (Simulation time: 1 hr 9 min 29 sec) 
Heartbeat CPU 3 instructions: 180000000 cycles: 74887219 heartbeat IPC: 2.40277 cumulative IPC: 2.40361 (Simulation time: 1 hr 11 min 20 sec) 
Heartbeat CPU 2 instructions: 150000000 cycles: 75115255 heartbeat IPC: 1.99933 cumulative IPC: 1.99693 (Simulation time: 1 hr 11 min 33 sec) 
Heartbeat CPU 1 instructions: 170000003 cycles: 77590391 heartbeat IPC: 2.30061 cumulative IPC: 2.19099 (Simulation time: 1 hr 13 min 57 sec) 
Heartbeat CPU 0 instructions: 160000000 cycles: 78062619 heartbeat IPC: 2.04982 cumulative IPC: 2.04964 (Simulation time: 1 hr 14 min 24 sec) 
Heartbeat CPU 3 instructions: 190000001 cycles: 79047503 heartbeat IPC: 2.40368 cumulative IPC: 2.40362 (Simulation time: 1 hr 15 min 20 sec) 
Heartbeat CPU 2 instructions: 160000000 cycles: 80113625 heartbeat IPC: 2.00065 cumulative IPC: 1.99716 (Simulation time: 1 hr 16 min 21 sec) 
Heartbeat CPU 1 instructions: 180000000 cycles: 81936046 heartbeat IPC: 2.30115 cumulative IPC: 2.19684 (Simulation time: 1 hr 18 min 6 sec) 
Heartbeat CPU 0 instructions: 170000002 cycles: 82941584 heartbeat IPC: 2.04962 cumulative IPC: 2.04964 (Simulation time: 1 hr 19 min 5 sec) 
Heartbeat CPU 3 instructions: 200000000 cycles: 83208519 heartbeat IPC: 2.40326 cumulative IPC: 2.4036 (Simulation time: 1 hr 19 min 19 sec) 
Heartbeat CPU 2 instructions: 170000001 cycles: 85164185 heartbeat IPC: 1.97998 cumulative IPC: 1.99614 (Simulation time: 1 hr 21 min 7 sec) 
Heartbeat CPU 1 instructions: 190000002 cycles: 86260112 heartbeat IPC: 2.31264 cumulative IPC: 2.20264 (Simulation time: 1 hr 22 min 14 sec) 
Heartbeat CPU 3 instructions: 210000002 cycles: 87375010 heartbeat IPC: 2.4001 cumulative IPC: 0.114449 (Simulation time: 1 hr 23 min 19 sec) 
Heartbeat CPU 0 instructions: 180000000 cycles: 87820147 heartbeat IPC: 2.04978 cumulative IPC: 2.04964 (Simulation time: 1 hr 23 min 44 sec) 
Heartbeat CPU 2 instructions: 180000000 cycles: 90103923 heartbeat IPC: 2.0244 cumulative IPC: 1.99769 (Simulation time: 1 hr 25 min 52 sec) 
Heartbeat CPU 1 instructions: 200000000 cycles: 90579447 heartbeat IPC: 2.31517 cumulative IPC: 2.20801 (Simulation time: 1 hr 26 min 18 sec) 
Heartbeat CPU 3 instructions: 220000000 cycles: 91584491 heartbeat IPC: 2.37559 cumulative IPC: 0.218378 (Simulation time: 1 hr 27 min 12 sec) 
Heartbeat CPU 0 instructions: 190000001 cycles: 92699298 heartbeat IPC: 2.04954 cumulative IPC: 2.04964 (Simulation time: 1 hr 28 min 13 sec) 
Heartbeat CPU 1 instructions: 210000000 cycles: 94884510 heartbeat IPC: 2.32285 cumulative IPC: 0.105391 (Simulation time: 1 hr 30 min 14 sec) 
Heartbeat CPU 2 instructions: 190000000 cycles: 95161485 heartbeat IPC: 1.97724 cumulative IPC: 1.99661 (Simulation time: 1 hr 30 min 29 sec) 
Heartbeat CPU 3 instructions: 230000000 cycles: 95797098 heartbeat IPC: 2.37383 cumulative IPC: 0.313162 (Simulation time: 1 hr 31 min 5 sec) 
Heartbeat CPU 0 instructions: 200000000 cycles: 97577945 heartbeat IPC: 2.04975 cumulative IPC: 2.04964 (Simulation time: 1 hr 32 min 48 sec) 
Heartbeat CPU 1 instructions: 220000000 cycles: 99192935 heartbeat IPC: 2.32103 cumulative IPC: 0.201627 (Simulation time: 1 hr 34 min 22 sec) 
Heartbeat CPU 3 instructions: 240000000 cycles: 99997666 heartbeat IPC: 2.38063 cumulative IPC: 0.400009 (Simulation time: 1 hr 35 min 9 sec) 
Heartbeat CPU 2 instructions: 200000000 cycles: 100216767 heartbeat IPC: 1.97813 cumulative IPC: 1.99567 (Simulation time: 1 hr 35 min 22 sec) 

Warmup complete CPU 0 instructions: 205409318 cycles: 100216769 (Simulation time: 1 hr 35 min 22 sec) 
Warmup complete CPU 1 instructions: 222380558 cycles: 100216769 (Simulation time: 1 hr 35 min 22 sec) 
Warmup complete CPU 2 instructions: 200000004 cycles: 100216769 (Simulation time: 1 hr 35 min 22 sec) 
Warmup complete CPU 3 instructions: 240522331 cycles: 100216768 (Simulation time: 1 hr 35 min 22 sec) 

Heartbeat CPU 0 instructions: 210000001 cycles: 105737551 heartbeat IPC: 1.22555 cumulative IPC: 0.831528 (Simulation time: 1 hr 37 min 51 sec) 
Heartbeat CPU 1 instructions: 230000000 cycles: 108717545 heartbeat IPC: 1.04991 cumulative IPC: 0.896323 (Simulation time: 1 hr 39 min 13 sec) 
Heartbeat CPU 3 instructions: 250000001 cycles: 111800138 heartbeat IPC: 0.84728 cumulative IPC: 0.818214 (Simulation time: 1 hr 40 min 35 sec) 
Heartbeat CPU 0 instructions: 220000000 cycles: 117191106 heartbeat IPC: 0.873091 cumulative IPC: 0.859573 (Simulation time: 1 hr 43 min 32 sec) 
Heartbeat CPU 1 instructions: 240000000 cycles: 119685582 heartbeat IPC: 0.91174 cumulative IPC: 0.905009 (Simulation time: 1 hr 44 min 46 sec) 
Heartbeat CPU 2 instructions: 210000002 cycles: 120101335 heartbeat IPC: 0.502903 cumulative IPC: 0.502903 (Simulation time: 1 hr 44 min 58 sec) 
Heartbeat CPU 3 instructions: 260000000 cycles: 123989174 heartbeat IPC: 0.820409 cumulative IPC: 0.819339 (Simulation time: 1 hr 47 min 0 sec) 
Heartbeat CPU 0 instructions: 230000000 cycles: 128363256 heartbeat IPC: 0.895083 cumulative IPC: 0.873668 (Simulation time: 1 hr 49 min 13 sec) 
Heartbeat CPU 1 instructions: 250000001 cycles: 130223182 heartbeat IPC: 0.948983 cumulative IPC: 0.920451 (Simulation time: 1 hr 50 min 4 sec) 
Heartbeat CPU 2 instructions: 220000000 cycles: 135558268 heartbeat IPC: 0.646959 cumulative IPC: 0.565907 (Simulation time: 1 hr 52 min 58 sec) 
Heartbeat CPU 3 instructions: 270000002 cycles: 136164603 heartbeat IPC: 0.821326 cumulative IPC: 0.820012 (Simulation time: 1 hr 53 min 21 sec) 
Heartbeat CPU 0 instructions: 240000000 cycles: 139602906 heartbeat IPC: 0.889707 cumulative IPC: 0.878245 (Simulation time: 1 hr 55 min 5 sec) 
Heartbeat CPU 1 instructions: 260000000 cycles: 140780484 heartbeat IPC: 0.947212 cumulative IPC: 0.927416 (Simulation time: 1 hr 55 min 38 sec) 
Heartbeat CPU 3 instructions: 280000000 cycles: 148368834 heartbeat IPC: 0.819388 cumulative IPC: 0.819854 (Simulation time: 1 hr 58 min 52 sec) 
Heartbeat CPU 0 instructions: 250000003 cycles: 151271551 heartbeat IPC: 0.856998 cumulative IPC: 0.873389 (Simulation time: 2 hr 0 min 2 sec) 
Heartbeat CPU 1 instructions: 270000002 cycles: 151954445 heartbeat IPC: 0.894938 cumulative IPC: 0.920402 (Simulation time: 2 hr 0 min 19 sec) 
Heartbeat CPU 2 instructions: 230000001 cycles: 154743169 heartbeat IPC: 0.521243 cumulative IPC: 0.550192 (Simulation time: 2 hr 1 min 31 sec) 
Heartbeat CPU 3 instructions: 290000000 cycles: 160529821 heartbeat IPC: 0.822302 cumulative IPC: 0.820348 (Simulation time: 2 hr 4 min 2 sec) 
Heartbeat CPU 0 instructions: 260000000 cycles: 162632052 heartbeat IPC: 0.880243 cumulative IPC: 0.874636 (Simulation time: 2 hr 4 min 56 sec) 
Heartbeat CPU 1 instructions: 280000000 cycles: 162873349 heartbeat IPC: 0.915843 cumulative IPC: 0.919607 (Simulation time: 2 hr 5 min 4 sec) 
Heartbeat CPU 2 instructions: 240000000 cycles: 172667602 heartbeat IPC: 0.557898 cumulative IPC: 0.552099 (Simulation time: 2 hr 10 min 16 sec) 
Heartbeat CPU 3 instructions: 300000000 cycles: 172812936 heartbeat IPC: 0.814126 cumulative IPC: 0.819295 (Simulation time: 2 hr 10 min 20 sec) 
Heartbeat CPU 1 instructions: 290000000 cycles: 173227514 heartbeat IPC: 0.965795 cumulative IPC: 0.926157 (Simulation time: 2 hr 10 min 31 sec) 
Heartbeat CPU 0 instructions: 270000000 cycles: 173889359 heartbeat IPC: 0.888312 cumulative IPC: 0.876726 (Simulation time: 2 hr 10 min 49 sec) 
Heartbeat CPU 1 instructions: 300000000 cycles: 183647791 heartbeat IPC: 0.959667 cumulative IPC: 0.930343 (Simulation time: 2 hr 15 min 5 sec) 
Heartbeat CPU 3 instructions: 310000003 cycles: 185081436 heartbeat IPC: 0.815096 cumulative IPC: 0.818688 (Simulation time: 2 hr 15 min 43 sec) 
Heartbeat CPU 0 instructions: 280000000 cycles: 185288944 heartbeat IPC: 0.877225 cumulative IPC: 0.876793 (Simulation time: 2 hr 15 min 48 sec) 
Heartbeat CPU 2 instructions: 250000000 cycles: 189085334 heartbeat IPC: 0.609098 cumulative IPC: 0.562629 (Simulation time: 2 hr 17 min 24 sec) 
Heartbeat CPU 1 instructions: 310000002 cycles: 194544776 heartbeat IPC: 0.917685 cumulative IPC: 0.92888 (Simulation time: 2 hr 19 min 38 sec) 
Heartbeat CPU 3 instructions: 320000000 cycles: 197411768 heartbeat IPC: 0.811008 cumulative IPC: 0.817714 (Simulation time: 2 hr 20 min 50 sec) 
Heartbeat CPU 0 instructions: 290000002 cycles: 197490383 heartbeat IPC: 0.819576 cumulative IPC: 0.869616 (Simulation time: 2 hr 20 min 52 sec) 
Heartbeat CPU 1 instructions: 320000000 cycles: 205261919 heartbeat IPC: 0.933084 cumulative IPC: 0.929309 (Simulation time: 2 hr 24 min 10 sec) 
Heartbeat CPU 0 instructions: 300000000 cycles: 209431743 heartbeat IPC: 0.837425 cumulative IPC: 0.866096 (Simulation time: 2 hr 26 min 1 sec) 
Heartbeat CPU 3 instructions: 330000000 cycles: 209657160 heartbeat IPC: 0.816634 cumulative IPC: 0.817593 (Simulation time: 2 hr 26 min 8 sec) 
Heartbeat CPU 2 instructions: 260000000 cycles: 209922281 heartbeat IPC: 0.479917 cumulative IPC: 0.546919 (Simulation time: 2 hr 26 min 15 sec) 
Heartbeat CPU 1 instructions: 330000003 cycles: 215676843 heartbeat IPC: 0.960161 cumulative IPC: 0.932092 (Simulation time: 2 hr 28 min 53 sec) 
Heartbeat CPU 0 instructions: 310000002 cycles: 221077304 heartbeat IPC: 0.858696 cumulative IPC: 0.865383 (Simulation time: 2 hr 31 min 23 sec) 
Heartbeat CPU 3 instructions: 340000000 cycles: 221811133 heartbeat IPC: 0.822776 cumulative IPC: 0.818111 (Simulation time: 2 hr 31 min 43 sec) 
Heartbeat CPU 2 instructions: 270000002 cycles: 225878955 heartbeat IPC: 0.626697 cumulative IPC: 0.557049 (Simulation time: 2 hr 33 min 36 sec) 
Heartbeat CPU 1 instructions: 340000000 cycles: 226057111 heartbeat IPC: 0.963366 cumulative IPC: 0.934672 (Simulation time: 2 hr 33 min 41 sec) 
Heartbeat CPU 0 instructions: 320000000 cycles: 232655527 heartbeat IPC: 0.86369 cumulative IPC: 0.865235 (Simulation time: 2 hr 36 min 33 sec) 
Heartbeat CPU 3 instructions: 350000000 cycles: 233962131 heartbeat IPC: 0.822978 cumulative IPC: 0.818553 (Simulation time: 2 hr 37 min 5 sec) 
Heartbeat CPU 1 instructions: 350000000 cycles: 236469383 heartbeat IPC: 0.960405 cumulative IPC: 0.936638 (Simulation time: 2 hr 38 min 6 sec) 
Heartbeat CPU 2 instructions: 280000000 cycles: 244623824 heartbeat IPC: 0.533479 cumulative IPC: 0.55399 (Simulation time: 2 hr 41 min 17 sec) 
Heartbeat CPU 0 instructions: 330000001 cycles: 245009127 heartbeat IPC: 0.809481 cumulative IPC: 0.860478 (Simulation time: 2 hr 41 min 27 sec) 
Heartbeat CPU 3 instructions: 360000000 cycles: 246146932 heartbeat IPC: 0.820695 cumulative IPC: 0.818732 (Simulation time: 2 hr 41 min 55 sec) 
Heartbeat CPU 1 instructions: 360000000 cycles: 247449383 heartbeat IPC: 0.910747 cumulative IPC: 0.934708 (Simulation time: 2 hr 42 min 27 sec) 
Heartbeat CPU 0 instructions: 340000000 cycles: 256982242 heartbeat IPC: 0.835204 cumulative IPC: 0.858548 (Simulation time: 2 hr 46 min 41 sec) 
Heartbeat CPU 1 instructions: 370000002 cycles: 258180413 heartbeat IPC: 0.931877 cumulative IPC: 0.934515 (Simulation time: 2 hr 47 min 14 sec) 
Heartbeat CPU 3 instructions: 370000001 cycles: 258273792 heartbeat IPC: 0.824616 cumulative IPC: 0.819183 (Simulation time: 2 hr 47 min 16 sec) 
Heartbeat CPU 2 instructions: 290000000 cycles: 262437634 heartbeat IPC: 0.561362 cumulative IPC: 0.554799 (Simulation time: 2 hr 49 min 14 sec) 
Heartbeat CPU 1 instructions: 380000000 cycles: 268436416 heartbeat IPC: 0.975039 cumulative IPC: 0.936986 (Simulation time: 2 hr 51 min 52 sec) 
Heartbeat CPU 0 instructions: 350000002 cycles: 268596539 heartbeat IPC: 0.861008 cumulative IPC: 0.858718 (Simulation time: 2 hr 51 min 56 sec) 
Heartbeat CPU 3 instructions: 380000000 cycles: 270390727 heartbeat IPC: 0.825291 cumulative IPC: 0.819618 (Simulation time: 2 hr 52 min 40 sec) 
Heartbeat CPU 2 instructions: 300000000 cycles: 277372500 heartbeat IPC: 0.669574 cumulative IPC: 0.564475 (Simulation time: 2 hr 55 min 35 sec) 
Heartbeat CPU 1 instructions: 390000001 cycles: 278910186 heartbeat IPC: 0.954766 cumulative IPC: 0.938028 (Simulation time: 2 hr 56 min 9 sec) 
Heartbeat CPU 0 instructions: 360000000 cycles: 280441769 heartbeat IPC: 0.844222 cumulative IPC: 0.857765 (Simulation time: 2 hr 56 min 49 sec) 
Heartbeat CPU 3 instructions: 390000001 cycles: 282529280 heartbeat IPC: 0.823821 cumulative IPC: 0.819898 (Simulation time: 2 hr 57 min 45 sec) 
Heartbeat CPU 1 instructions: 400000000 cycles: 289859252 heartbeat IPC: 0.91332 cumulative IPC: 0.936602 (Simulation time: 3 hr 0 min 56 sec) 
Heartbeat CPU 0 instructions: 370000001 cycles: 292664536 heartbeat IPC: 0.818145 cumulative IPC: 0.855249 (Simulation time: 3 hr 2 min 11 sec) 
Heartbeat CPU 3 instructions: 400000000 cycles: 294603253 heartbeat IPC: 0.828228 cumulative IPC: 0.820415 (Simulation time: 3 hr 3 min 1 sec) 
Heartbeat CPU 2 instructions: 310000001 cycles: 298330800 heartbeat IPC: 0.477138 cumulative IPC: 0.555236 (Simulation time: 3 hr 4 min 37 sec) 
Heartbeat CPU 1 instructions: 410000003 cycles: 300589133 heartbeat IPC: 0.931977 cumulative IPC: 0.936354 (Simulation time: 3 hr 5 min 36 sec) 
Heartbeat CPU 0 instructions: 380000000 cycles: 304479157 heartbeat IPC: 0.846409 cumulative IPC: 0.854737 (Simulation time: 3 hr 7 min 21 sec) 
Heartbeat CPU 3 instructions: 410000002 cycles: 306678292 heartbeat IPC: 0.828155 cumulative IPC: 0.820868 (Simulation time: 3 hr 8 min 20 sec) 
Heartbeat CPU 1 instructions: 420000000 cycles: 310800497 heartbeat IPC: 0.979301 cumulative IPC: 0.938436 (Simulation time: 3 hr 10 min 11 sec) 
Heartbeat CPU 2 instructions: 320000000 cycles: 313247325 heartbeat IPC: 0.670397 cumulative IPC: 0.563299 (Simulation time: 3 hr 11 min 18 sec) 
Heartbeat CPU 0 instructions: 390000001 cycles: 316094824 heartbeat IPC: 0.860906 cumulative IPC: 0.855069 (Simulation time: 3 hr 12 min 34 sec) 
Heartbeat CPU 3 instructions: 420000000 cycles: 318746887 heartbeat IPC: 0.828597 cumulative IPC: 0.821295 (Simulation time: 3 hr 13 min 45 sec) 
Heartbeat CPU 1 instructions: 430000002 cycles: 321201377 heartbeat IPC: 0.961457 cumulative IPC: 0.93952 (Simulation time: 3 hr 14 min 49 sec) 
Heartbeat CPU 0 instructions: 400000000 cycles: 328306642 heartbeat IPC: 0.818879 cumulative IPC: 0.853132 (Simulation time: 3 hr 17 min 48 sec) 
Heartbeat CPU 2 instructions: 330000003 cycles: 330674117 heartbeat IPC: 0.573829 cumulative IPC: 0.564096 (Simulation time: 3 hr 18 min 49 sec) 
Heartbeat CPU 3 instructions: 430000000 cycles: 330843105 heartbeat IPC: 0.826705 cumulative IPC: 0.821579 (Simulation time: 3 hr 18 min 53 sec) 
Heartbeat CPU 1 instructions: 440000000 cycles: 332139403 heartbeat IPC: 0.914242 cumulative IPC: 0.938328 (Simulation time: 3 hr 19 min 26 sec) 
Heartbeat CPU 0 instructions: 410000000 cycles: 340237592 heartbeat IPC: 0.838156 cumulative IPC: 0.852387 (Simulation time: 3 hr 22 min 41 sec) 
Heartbeat CPU 1 instructions: 450000002 cycles: 342888479 heartbeat IPC: 0.930313 cumulative IPC: 0.937973 (Simulation time: 3 hr 23 min 46 sec) 
Heartbeat CPU 3 instructions: 440000000 cycles: 342906790 heartbeat IPC: 0.828934 cumulative IPC: 0.821944 (Simulation time: 3 hr 23 min 47 sec) 
Heartbeat CPU 2 instructions: 340000000 cycles: 349546682 heartbeat IPC: 0.529869 cumulative IPC: 0.561505 (Simulation time: 3 hr 26 min 40 sec) 
Heartbeat CPU 0 instructions: 420000000 cycles: 351989566 heartbeat IPC: 0.850921 cumulative IPC: 0.852319 (Simulation time: 3 hr 27 min 45 sec) 
Heartbeat CPU 1 instructions: 460000000 cycles: 353186304 heartbeat IPC: 0.971079 cumulative IPC: 0.93932 (Simulation time: 3 hr 28 min 17 sec) 
Heartbeat CPU 3 instructions: 450000000 cycles: 354925462 heartbeat IPC: 0.832039 cumulative IPC: 0.822421 (Simulation time: 3 hr 29 min 5 sec) 
Heartbeat CPU 1 instructions: 470000001 cycles: 363558820 heartbeat IPC: 0.964086 cumulative IPC: 0.940296 (Simulation time: 3 hr 33 min 10 sec) 
Heartbeat CPU 0 instructions: 430000000 cycles: 363585516 heartbeat IPC: 0.86237 cumulative IPC: 0.852761 (Simulation time: 3 hr 33 min 11 sec) 
Heartbeat CPU 2 instructions: 350000002 cycles: 365260801 heartbeat IPC: 0.636371 cumulative IPC: 0.565944 (Simulation time: 3 hr 33 min 53 sec) 
Heartbeat CPU 3 instructions: 460000000 cycles: 366906226 heartbeat IPC: 0.834671 cumulative IPC: 0.822971 (Simulation time: 3 hr 34 min 34 sec) 
Heartbeat CPU 1 instructions: 480000000 cycles: 374388586 heartbeat IPC: 0.923381 cumulative IPC: 0.939628 (Simulation time: 3 hr 37 min 31 sec) 
Heartbeat CPU 0 instructions: 440000000 cycles: 375843558 heartbeat IPC: 0.815791 cumulative IPC: 0.851117 (Simulation time: 3 hr 38 min 8 sec) 
Heartbeat CPU 3 instructions: 470000002 cycles: 378921024 heartbeat IPC: 0.832307 cumulative IPC: 0.823373 (Simulation time: 3 hr 39 min 27 sec) 
Heartbeat CPU 1 instructions: 490000001 cycles: 384949579 heartbeat IPC: 0.946881 cumulative IPC: 0.939897 (Simulation time: 3 hr 42 min 0 sec) 
Heartbeat CPU 2 instructions: 360000000 cycles: 385840736 heartbeat IPC: 0.48591 cumulative IPC: 0.560177 (Simulation time: 3 hr 42 min 21 sec) 
Heartbeat CPU 0 instructions: 450000001 cycles: 387862982 heartbeat IPC: 0.831987 cumulative IPC: 0.850318 (Simulation time: 3 hr 43 min 11 sec) 
Heartbeat CPU 3 instructions: 480000000 cycles: 390889608 heartbeat IPC: 0.835521 cumulative IPC: 0.823874 (Simulation time: 3 hr 44 min 29 sec) 
Heartbeat CPU 0 instructions: 460000000 cycles: 399947743 heartbeat IPC: 0.827488 cumulative IPC: 0.849397 (Simulation time: 3 hr 47 min 52 sec) 
Heartbeat CPU 2 instructions: 370000000 cycles: 402589825 heartbeat IPC: 0.597047 cumulative IPC: 0.562219 (Simulation time: 3 hr 48 min 49 sec) 
Heartbeat CPU 3 instructions: 490000000 cycles: 402888433 heartbeat IPC: 0.833415 cumulative IPC: 0.824252 (Simulation time: 3 hr 48 min 55 sec) 
Heartbeat CPU 1 instructions: 500000000 cycles: 404020006 heartbeat IPC: 0.524372 cumulative IPC: 0.913813 (Simulation time: 3 hr 49 min 20 sec) 
Heartbeat CPU 0 instructions: 470000001 cycles: 412388771 heartbeat IPC: 0.803792 cumulative IPC: 0.84758 (Simulation time: 3 hr 52 min 22 sec) 
Heartbeat CPU 3 instructions: 500000000 cycles: 414869055 heartbeat IPC: 0.834681 cumulative IPC: 0.824649 (Simulation time: 3 hr 53 min 16 sec) 
Heartbeat CPU 2 instructions: 380000000 cycles: 420985872 heartbeat IPC: 0.543595 cumulative IPC: 0.561151 (Simulation time: 3 hr 55 min 26 sec) 
Heartbeat CPU 0 instructions: 480000000 cycles: 425421099 heartbeat IPC: 0.767323 cumulative IPC: 0.844364 (Simulation time: 3 hr 57 min 46 sec) 
Heartbeat CPU 3 instructions: 510000000 cycles: 426905754 heartbeat IPC: 0.830793 cumulative IPC: 0.824875 (Simulation time: 3 hr 58 min 24 sec) 
Heartbeat CPU 1 instructions: 510000002 cycles: 430977770 heartbeat IPC: 0.370951 cumulative IPC: 0.869569 (Simulation time: 4 hr 0 min 8 sec) 
Heartbeat CPU 0 instructions: 490000000 cycles: 437512445 heartbeat IPC: 0.827038 cumulative IPC: 0.843742 (Simulation time: 4 hr 2 min 58 sec) 
Heartbeat CPU 3 instructions: 520000000 cycles: 438906411 heartbeat IPC: 0.833288 cumulative IPC: 0.825173 (Simulation time: 4 hr 3 min 36 sec) 
Heartbeat CPU 2 instructions: 390000000 cycles: 440108973 heartbeat IPC: 0.522928 cumulative IPC: 0.559001 (Simulation time: 4 hr 4 min 9 sec) 
Heartbeat CPU 1 instructions: 520000000 cycles: 441439862 heartbeat IPC: 0.955832 cumulative IPC: 0.872214 (Simulation time: 4 hr 4 min 44 sec) 
Heartbeat CPU 0 instructions: 500000000 cycles: 449243838 heartbeat IPC: 0.852414 cumulative IPC: 0.844034 (Simulation time: 4 hr 8 min 12 sec) 
Heartbeat CPU 3 instructions: 530000000 cycles: 450893831 heartbeat IPC: 0.834208 cumulative IPC: 0.825482 (Simulation time: 4 hr 8 min 57 sec) 
Heartbeat CPU 1 instructions: 530000001 cycles: 451746929 heartbeat IPC: 0.970208 cumulative IPC: 0.875087 (Simulation time: 4 hr 9 min 20 sec) 
Heartbeat CPU 2 instructions: 400000000 cycles: 454433543 heartbeat IPC: 0.698101 cumulative IPC: 0.564626 (Simulation time: 4 hr 10 min 28 sec) 
Heartbeat CPU 0 instructions: 510000003 cycles: 461140811 heartbeat IPC: 0.84055 cumulative IPC: 0.843919 (Simulation time: 4 hr 13 min 11 sec) 
Heartbeat CPU 1 instructions: 540000000 cycles: 462515238 heartbeat IPC: 0.928651 cumulative IPC: 0.876679 (Simulation time: 4 hr 13 min 43 sec) 
Heartbeat CPU 3 instructions: 540000000 cycles: 462860060 heartbeat IPC: 0.835685 cumulative IPC: 0.825819 (Simulation time: 4 hr 13 min 52 sec) 
Heartbeat CPU 1 instructions: 550000003 cycles: 473267301 heartbeat IPC: 0.930054 cumulative IPC: 0.878217 (Simulation time: 4 hr 18 min 24 sec) 
Heartbeat CPU 0 instructions: 520000000 cycles: 473348632 heartbeat IPC: 0.819147 cumulative IPC: 0.843109 (Simulation time: 4 hr 18 min 26 sec) 
Heartbeat CPU 2 instructions: 410000002 cycles: 474098705 heartbeat IPC: 0.508514 cumulative IPC: 0.561675 (Simulation time: 4 hr 18 min 45 sec) 
Heartbeat CPU 3 instructions: 550000000 cycles: 474805410 heartbeat IPC: 0.837146 cumulative IPC: 0.82618 (Simulation time: 4 hr 19 min 3 sec) 
Heartbeat CPU 1 instructions: 560000000 cycles: 483950898 heartbeat IPC: 0.936014 cumulative IPC: 0.879826 (Simulation time: 4 hr 23 min 0 sec) 
Heartbeat CPU 0 instructions: 530000003 cycles: 485225932 heartbeat IPC: 0.841942 cumulative IPC: 0.843073 (Simulation time: 4 hr 23 min 34 sec) 
Heartbeat CPU 3 instructions: 560000000 cycles: 486753352 heartbeat IPC: 0.836964 cumulative IPC: 0.826513 (Simulation time: 4 hr 24 min 16 sec) 
Heartbeat CPU 2 instructions: 420000000 cycles: 490136838 heartbeat IPC: 0.623514 cumulative IPC: 0.564218 (Simulation time: 4 hr 25 min 47 sec) 
Heartbeat CPU 1 instructions: 570000003 cycles: 494171741 heartbeat IPC: 0.978393 cumulative IPC: 0.882384 (Simulation time: 4 hr 27 min 36 sec) 
Heartbeat CPU 0 instructions: 540000000 cycles: 496856821 heartbeat IPC: 0.859779 cumulative IPC: 0.843563 (Simulation time: 4 hr 28 min 45 sec) 
Heartbeat CPU 3 instructions: 570000001 cycles: 498683956 heartbeat IPC: 0.838181 cumulative IPC: 0.826863 (Simulation time: 4 hr 29 min 34 sec) 
Heartbeat CPU 1 instructions: 580000000 cycles: 504732539 heartbeat IPC: 0.946898 cumulative IPC: 0.884068 (Simulation time: 4 hr 32 min 9 sec) 
Heartbeat CPU 2 instructions: 430000000 cycles: 506262267 heartbeat IPC: 0.620139 cumulative IPC: 0.566439 (Simulation time: 4 hr 32 min 44 sec) 
Heartbeat CPU 0 instructions: 550000000 cycles: 509055336 heartbeat IPC: 0.819772 cumulative IPC: 0.842853 (Simulation time: 4 hr 33 min 48 sec) 
Heartbeat CPU 3 instructions: 580000000 cycles: 510661590 heartbeat IPC: 0.834889 cumulative IPC: 0.827097 (Simulation time: 4 hr 34 min 27 sec) 
Heartbeat CPU 1 instructions: 590000000 cycles: 515554298 heartbeat IPC: 0.924064 cumulative IPC: 0.88511 (Simulation time: 4 hr 36 min 22 sec) 
Heartbeat CPU 0 instructions: 560000000 cycles: 520995963 heartbeat IPC: 0.837477 cumulative IPC: 0.8427 (Simulation time: 4 hr 38 min 38 sec) 
Heartbeat CPU 3 instructions: 590000002 cycles: 522589699 heartbeat IPC: 0.838356 cumulative IPC: 0.827415 (Simulation time: 4 hr 39 min 36 sec) 
Heartbeat CPU 2 instructions: 440000000 cycles: 526127789 heartbeat IPC: 0.503385 cumulative IPC: 0.563498 (Simulation time: 4 hr 41 min 38 sec) 
Heartbeat CPU 1 instructions: 600000000 cycles: 526287825 heartbeat IPC: 0.93166 cumulative IPC: 0.886283 (Simulation time: 4 hr 41 min 43 sec) 
Heartbeat CPU 0 instructions: 570000003 cycles: 532715128 heartbeat IPC: 0.853303 cumulative IPC: 0.842987 (Simulation time: 4 hr 44 min 46 sec) 
Heartbeat CPU 3 instructions: 600000000 cycles: 534514735 heartbeat IPC: 0.838572 cumulative IPC: 0.827721 (Simulation time: 4 hr 45 min 37 sec) 
Heartbeat CPU 1 instructions: 610000002 cycles: 536438911 heartbeat IPC: 0.985116 cumulative IPC: 0.888583 (Simulation time: 4 hr 46 min 32 sec) 
Heartbeat CPU 2 instructions: 450000000 cycles: 541494182 heartbeat IPC: 0.650771 cumulative IPC: 0.566537 (Simulation time: 4 hr 48 min 54 sec) 
Heartbeat CPU 0 instructions: 580000000 cycles: 544327572 heartbeat IPC: 0.861145 cumulative IPC: 0.843462 (Simulation time: 4 hr 50 min 14 sec) 
Heartbeat CPU 3 instructions: 610000000 cycles: 546415769 heartbeat IPC: 0.840263 cumulative IPC: 0.828056 (Simulation time: 4 hr 51 min 12 sec) 
Heartbeat CPU 1 instructions: 620000000 cycles: 546834186 heartbeat IPC: 0.961975 cumulative IPC: 0.890291 (Simulation time: 4 hr 51 min 24 sec) 
Heartbeat CPU 0 instructions: 590000003 cycles: 556566251 heartbeat IPC: 0.817082 cumulative IPC: 0.842755 (Simulation time: 4 hr 55 min 55 sec) 
Heartbeat CPU 1 instructions: 630000001 cycles: 557751808 heartbeat IPC: 0.91595 cumulative IPC: 0.890903 (Simulation time: 4 hr 56 min 35 sec) 
Heartbeat CPU 3 instructions: 620000000 cycles: 558364514 heartbeat IPC: 0.836908 cumulative IPC: 0.828287 (Simulation time: 4 hr 56 min 55 sec) 
Heartbeat CPU 2 instructions: 460000000 cycles: 560575350 heartbeat IPC: 0.524077 cumulative IPC: 0.564777 (Simulation time: 4 hr 58 min 4 sec) 
Heartbeat CPU 1 instructions: 640000000 cycles: 568524978 heartbeat IPC: 0.928232 cumulative IPC: 0.891762 (Simulation time: 5 hr 1 min 53 sec) 
Heartbeat CPU 0 instructions: 600000000 cycles: 568563017 heartbeat IPC: 0.833558 cumulative IPC: 0.842519 (Simulation time: 5 hr 1 min 55 sec) 
Heartbeat CPU 3 instructions: 630000002 cycles: 570278772 heartbeat IPC: 0.839331 cumulative IPC: 0.828567 (Simulation time: 5 hr 2 min 43 sec) 
Heartbeat CPU 2 instructions: 470000002 cycles: 577636978 heartbeat IPC: 0.586111 cumulative IPC: 0.56554 (Simulation time: 5 hr 6 min 8 sec) 
Heartbeat CPU 1 instructions: 650000003 cycles: 578932473 heartbeat IPC: 0.960846 cumulative IPC: 0.893264 (Simulation time: 5 hr 6 min 41 sec) 
Heartbeat CPU 0 instructions: 610000002 cycles: 580181539 heartbeat IPC: 0.860695 cumulative IPC: 0.842959 (Simulation time: 5 hr 7 min 14 sec) 
Heartbeat CPU 3 instructions: 640000000 cycles: 582169705 heartbeat IPC: 0.840977 cumulative IPC: 0.828873 (Simulation time: 5 hr 8 min 5 sec) 
Heartbeat CPU 1 instructions: 660000000 cycles: 589129647 heartbeat IPC: 0.980664 cumulative IPC: 0.895087 (Simulation time: 5 hr 11 min 13 sec) 
Heartbeat CPU 0 instructions: 620000000 cycles: 591872501 heartbeat IPC: 0.855361 cumulative IPC: 0.843254 (Simulation time: 5 hr 12 min 24 sec) 
Heartbeat CPU 2 instructions: 480000000 cycles: 593110760 heartbeat IPC: 0.646254 cumulative IPC: 0.568073 (Simulation time: 5 hr 12 min 55 sec) 
Heartbeat CPU 3 instructions: 650000000 cycles: 594072873 heartbeat IPC: 0.840113 cumulative IPC: 0.829144 (Simulation time: 5 hr 13 min 18 sec) 
Heartbeat CPU 1 instructions: 670000002 cycles: 600417548 heartbeat IPC: 0.885904 cumulative IPC: 0.89488 (Simulation time: 5 hr 15 min 39 sec) 
Heartbeat CPU 3 instructions: 660000000 cycles: 605981238 heartbeat IPC: 0.839746 cumulative IPC: 0.829393 (Simulation time: 5 hr 17 min 52 sec) 
Heartbeat CPU 0 instructions: 630000000 cycles: 611583481 heartbeat IPC: 0.507331 cumulative IPC: 0.830306 (Simulation time: 5 hr 20 min 18 sec) 
Heartbeat CPU 1 instructions: 680000000 cycles: 611627724 heartbeat IPC: 0.892046 cumulative IPC: 0.894817 (Simulation time: 5 hr 20 min 20 sec) 
Heartbeat CPU 2 instructions: 490000000 cycles: 613627433 heartbeat IPC: 0.487408 cumulative IPC: 0.56485 (Simulation time: 5 hr 21 min 14 sec) 
Heartbeat CPU 3 instructions: 670000000 cycles: 617893943 heartbeat IPC: 0.83944 cumulative IPC: 0.829624 (Simulation time: 5 hr 23 min 11 sec) 
Heartbeat CPU 1 instructions: 690000001 cycles: 623691660 heartbeat IPC: 0.828917 cumulative IPC: 0.893299 (Simulation time: 5 hr 25 min 46 sec) 
Heartbeat CPU 0 instructions: 640000000 cycles: 627161877 heartbeat IPC: 0.641915 cumulative IPC: 0.824736 (Simulation time: 5 hr 27 min 12 sec) 
Heartbeat CPU 2 instructions: 500000000 cycles: 628046542 heartbeat IPC: 0.693524 cumulative IPC: 0.568365 (Simulation time: 5 hr 27 min 34 sec) 
Heartbeat CPU 3 instructions: 680000000 cycles: 629903828 heartbeat IPC: 0.832647 cumulative IPC: 0.829693 (Simulation time: 5 hr 28 min 20 sec) 
Heartbeat CPU 1 instructions: 700000000 cycles: 636696439 heartbeat IPC: 0.768948 cumulative IPC: 0.890284 (Simulation time: 5 hr 31 min 21 sec) 
Heartbeat CPU 3 instructions: 690000000 cycles: 641932573 heartbeat IPC: 0.831342 cumulative IPC: 0.82973 (Simulation time: 5 hr 33 min 32 sec) 
Heartbeat CPU 0 instructions: 650000002 cycles: 642834782 heartbeat IPC: 0.638044 cumulative IPC: 0.819344 (Simulation time: 5 hr 33 min 54 sec) 
Heartbeat CPU 2 instructions: 510000001 cycles: 646363754 heartbeat IPC: 0.545935 cumulative IPC: 0.567613 (Simulation time: 5 hr 35 min 22 sec) 
Heartbeat CPU 1 instructions: 710000002 cycles: 652133016 heartbeat IPC: 0.647812 cumulative IPC: 0.883503 (Simulation time: 5 hr 37 min 56 sec) 
Heartbeat CPU 3 instructions: 700000000 cycles: 653975645 heartbeat IPC: 0.830353 cumulative IPC: 0.829743 (Simulation time: 5 hr 38 min 48 sec) 
Heartbeat CPU 0 instructions: 660000000 cycles: 658448078 heartbeat IPC: 0.64048 cumulative IPC: 0.814341 (Simulation time: 5 hr 40 min 55 sec) 
Heartbeat CPU 2 instructions: 520000000 cycles: 664426384 heartbeat IPC: 0.553629 cumulative IPC: 0.567165 (Simulation time: 5 hr 43 min 37 sec) 
Heartbeat CPU 3 instructions: 710000000 cycles: 665988360 heartbeat IPC: 0.832451 cumulative IPC: 0.829801 (Simulation time: 5 hr 44 min 21 sec) 
Heartbeat CPU 1 instructions: 720000000 cycles: 669316549 heartbeat IPC: 0.581952 cumulative IPC: 0.874398 (Simulation time: 5 hr 45 min 54 sec) 
Heartbeat CPU 0 instructions: 670000001 cycles: 674133427 heartbeat IPC: 0.637538 cumulative IPC: 0.809509 (Simulation time: 5 hr 48 min 7 sec) 
Heartbeat CPU 3 instructions: 720000000 cycles: 678013643 heartbeat IPC: 0.831581 cumulative IPC: 0.829838 (Simulation time: 5 hr 49 min 50 sec) 
Heartbeat CPU 2 instructions: 530000000 cycles: 680258936 heartbeat IPC: 0.63161 cumulative IPC: 0.568924 (Simulation time: 5 hr 50 min 54 sec) 
Heartbeat CPU 0 instructions: 680000000 cycles: 689841118 heartbeat IPC: 0.636631 cumulative IPC: 0.804903 (Simulation time: 5 hr 55 min 17 sec) 
Heartbeat CPU 3 instructions: 730000001 cycles: 690037373 heartbeat IPC: 0.831689 cumulative IPC: 0.829876 (Simulation time: 5 hr 55 min 23 sec) 
Heartbeat CPU 1 instructions: 730000002 cycles: 691251192 heartbeat IPC: 0.4559 cumulative IPC: 0.858866 (Simulation time: 5 hr 55 min 57 sec) 
Heartbeat CPU 2 instructions: 540000000 cycles: 701720476 heartbeat IPC: 0.46595 cumulative IPC: 0.56525 (Simulation time: 6 hr 0 min 23 sec) 
Heartbeat CPU 3 instructions: 740000000 cycles: 702031969 heartbeat IPC: 0.833709 cumulative IPC: 0.829952 (Simulation time: 6 hr 0 min 32 sec) 
Heartbeat CPU 0 instructions: 690000001 cycles: 705331879 heartbeat IPC: 0.645546 cumulative IPC: 0.800824 (Simulation time: 6 hr 1 min 57 sec) 
Heartbeat CPU 3 instructions: 750000000 cycles: 714044994 heartbeat IPC: 0.83243 cumulative IPC: 0.83 (Simulation time: 6 hr 5 min 58 sec) 
Heartbeat CPU 1 instructions: 740000000 cycles: 715318251 heartbeat IPC: 0.415506 cumulative IPC: 0.841519 (Simulation time: 6 hr 6 min 35 sec) 
Heartbeat CPU 2 instructions: 550000000 cycles: 717687603 heartbeat IPC: 0.626287 cumulative IPC: 0.566828 (Simulation time: 6 hr 7 min 36 sec) 
Heartbeat CPU 0 instructions: 700000000 cycles: 721005641 heartbeat IPC: 0.638009 cumulative IPC: 0.796713 (Simulation time: 6 hr 8 min 55 sec) 
Heartbeat CPU 3 instructions: 760000000 cycles: 726030084 heartbeat IPC: 0.83437 cumulative IPC: 0.830084 (Simulation time: 6 hr 10 min 57 sec) 
Heartbeat CPU 2 instructions: 560000000 cycles: 736192409 heartbeat IPC: 0.5404 cumulative IPC: 0.566059 (Simulation time: 6 hr 14 min 57 sec) 
Heartbeat CPU 0 instructions: 710000001 cycles: 736606334 heartbeat IPC: 0.640997 cumulative IPC: 0.792896 (Simulation time: 6 hr 15 min 7 sec) 
Heartbeat CPU 3 instructions: 770000001 cycles: 738035307 heartbeat IPC: 0.832971 cumulative IPC: 0.830138 (Simulation time: 6 hr 15 min 40 sec) 
Heartbeat CPU 1 instructions: 750000000 cycles: 739977162 heartbeat IPC: 0.405533 cumulative IPC: 0.824714 (Simulation time: 6 hr 16 min 25 sec) 
Heartbeat CPU 3 instructions: 780000000 cycles: 750046687 heartbeat IPC: 0.832544 cumulative IPC: 0.830183 (Simulation time: 6 hr 20 min 45 sec) 
Heartbeat CPU 0 instructions: 720000000 cycles: 752264508 heartbeat IPC: 0.638644 cumulative IPC: 0.789192 (Simulation time: 6 hr 21 min 39 sec) 
Heartbeat CPU 2 instructions: 570000000 cycles: 755575154 heartbeat IPC: 0.515923 cumulative IPC: 0.564577 (Simulation time: 6 hr 22 min 59 sec) 
Heartbeat CPU 3 instructions: 790000002 cycles: 762051620 heartbeat IPC: 0.832991 cumulative IPC: 0.830234 (Simulation time: 6 hr 25 min 37 sec) 
Heartbeat CPU 1 instructions: 760000000 cycles: 763208921 heartbeat IPC: 0.430445 cumulative IPC: 0.810899 (Simulation time: 6 hr 26 min 7 sec) 
Heartbeat CPU 0 instructions: 730000000 cycles: 767749682 heartbeat IPC: 0.645779 cumulative IPC: 0.785865 (Simulation time: 6 hr 27 min 58 sec) 
Heartbeat CPU 2 instructions: 580000000 cycles: 771870575 heartbeat IPC: 0.613669 cumulative IPC: 0.565768 (Simulation time: 6 hr 29 min 40 sec) 
Heartbeat CPU 3 instructions: 800000000 cycles: 774020926 heartbeat IPC: 0.83547 cumulative IPC: 0.830327 (Simulation time: 6 hr 30 min 32 sec) 
Heartbeat CPU 0 instructions: 740000000 cycles: 783415302 heartbeat IPC: 0.638341 cumulative IPC: 0.782482 (Simulation time: 6 hr 34 min 7 sec) 
Heartbeat CPU 1 instructions: 770000000 cycles: 785497803 heartbeat IPC: 0.448654 cumulative IPC: 0.799117 (Simulation time: 6 hr 34 min 56 sec) 
Heartbeat CPU 3 instructions: 810000000 cycles: 786010435 heartbeat IPC: 0.834063 cumulative IPC: 0.830392 (Simulation time: 6 hr 35 min 8 sec) 
Heartbeat CPU 2 instructions: 590000001 cycles: 793141632 heartbeat IPC: 0.470122 cumulative IPC: 0.562832 (Simulation time: 6 hr 37 min 57 sec) 
Heartbeat CPU 3 instructions: 820000000 cycles: 797983740 heartbeat IPC: 0.835191 cumulative IPC: 0.830474 (Simulation time: 6 hr 39 min 50 sec) 
Heartbeat CPU 0 instructions: 750000000 cycles: 799095007 heartbeat IPC: 0.637767 cumulative IPC: 0.779235 (Simulation time: 6 hr 40 min 16 sec) 
Heartbeat CPU 1 instructions: 780000000 cycles: 806121661 heartbeat IPC: 0.484875 cumulative IPC: 0.789936 (Simulation time: 6 hr 43 min 28 sec) 
Heartbeat CPU 2 instructions: 600000000 cycles: 808962593 heartbeat IPC: 0.632073 cumulative IPC: 0.564377 (Simulation time: 6 hr 44 min 39 sec) 
Heartbeat CPU 3 instructions: 830000000 cycles: 809929742 heartbeat IPC: 0.8371 cumulative IPC: 0.830586 (Simulation time: 6 hr 45 min 3 sec) 
Heartbeat CPU 0 instructions: 760000000 cycles: 814704310 heartbeat IPC: 0.640644 cumulative IPC: 0.776208 (Simulation time: 6 hr 47 min 2 sec) 
Heartbeat CPU 3 instructions: 840000000 cycles: 821877709 heartbeat IPC: 0.836962 cumulative IPC: 0.830692 (Simulation time: 6 hr 50 min 2 sec) 
Heartbeat CPU 1 instructions: 790000003 cycles: 826226443 heartbeat IPC: 0.497394 cumulative IPC: 0.781835 (Simulation time: 6 hr 51 min 46 sec) 
Heartbeat CPU 2 instructions: 610000002 cycles: 826685327 heartbeat IPC: 0.564247 cumulative IPC: 0.564374 (Simulation time: 6 hr 51 min 56 sec) 
Heartbeat CPU 0 instructions: 770000000 cycles: 830413534 heartbeat IPC: 0.636569 cumulative IPC: 0.773203 (Simulation time: 6 hr 53 min 26 sec) 
Heartbeat CPU 3 instructions: 850000000 cycles: 833852145 heartbeat IPC: 0.835112 cumulative IPC: 0.830764 (Simulation time: 6 hr 54 min 49 sec) 
Heartbeat CPU 1 instructions: 800000000 cycles: 845324310 heartbeat IPC: 0.523619 cumulative IPC: 0.775216 (Simulation time: 6 hr 59 min 30 sec) 
Heartbeat CPU 3 instructions: 860000000 cycles: 845805848 heartbeat IPC: 0.836561 cumulative IPC: 0.830857 (Simulation time: 6 hr 59 min 42 sec) 
Heartbeat CPU 0 instructions: 780000000 cycles: 846026889 heartbeat IPC: 0.640477 cumulative IPC: 0.770425 (Simulation time: 6 hr 59 min 47 sec) 
Heartbeat CPU 2 instructions: 620000000 cycles: 846353932 heartbeat IPC: 0.508424 cumulative IPC: 0.562899 (Simulation time: 6 hr 59 min 55 sec) 
Heartbeat CPU 3 instructions: 870000001 cycles: 857753738 heartbeat IPC: 0.836968 cumulative IPC: 0.830953 (Simulation time: 7 hr 4 min 40 sec) 
Heartbeat CPU 0 instructions: 790000002 cycles: 861713853 heartbeat IPC: 0.637472 cumulative IPC: 0.767686 (Simulation time: 7 hr 6 min 19 sec) 
Heartbeat CPU 2 instructions: 630000002 cycles: 862665175 heartbeat IPC: 0.613074 cumulative IPC: 0.563973 (Simulation time: 7 hr 6 min 43 sec) 
Heartbeat CPU 1 instructions: 810000001 cycles: 863859430 heartbeat IPC: 0.539516 cumulative IPC: 0.769495 (Simulation time: 7 hr 7 min 13 sec) 
Heartbeat CPU 3 instructions: 880000000 cycles: 869693358 heartbeat IPC: 0.837547 cumulative IPC: 0.831055 (Simulation time: 7 hr 9 min 36 sec) 
Heartbeat CPU 0 instructions: 800000000 cycles: 877300968 heartbeat IPC: 0.641555 cumulative IPC: 0.765156 (Simulation time: 7 hr 12 min 40 sec) 
Heartbeat CPU 3 instructions: 890000001 cycles: 881660249 heartbeat IPC: 0.835639 cumulative IPC: 0.831126 (Simulation time: 7 hr 14 min 16 sec) 
Heartbeat CPU 1 instructions: 820000000 cycles: 883056277 heartbeat IPC: 0.520919 cumulative IPC: 0.7634 (Simulation time: 7 hr 14 min 48 sec) 
Heartbeat CPU 2 instructions: 640000000 cycles: 883276374 heartbeat IPC: 0.485173 cumulative IPC: 0.561898 (Simulation time: 7 hr 14 min 53 sec) 
Heartbeat CPU 0 instructions: 810000003 cycles: 893006153 heartbeat IPC: 0.636733 cumulative IPC: 0.762612 (Simulation time: 7 hr 18 min 32 sec) 
Heartbeat CPU 3 instructions: 900000000 cycles: 893630198 heartbeat IPC: 0.835425 cumulative IPC: 0.83119 (Simulation time: 7 hr 18 min 46 sec) 
Heartbeat CPU 2 instructions: 650000002 cycles: 900698045 heartbeat IPC: 0.573998 cumulative IPC: 0.562162 (Simulation time: 7 hr 21 min 33 sec) 
Heartbeat CPU 1 instructions: 830000000 cycles: 901455006 heartbeat IPC: 0.543516 cumulative IPC: 0.758351 (Simulation time: 7 hr 21 min 52 sec) 
Heartbeat CPU 3 instructions: 910000002 cycles: 905597818 heartbeat IPC: 0.835588 cumulative IPC: 0.831256 (Simulation time: 7 hr 23 min 36 sec) 
Heartbeat CPU 0 instructions: 820000000 cycles: 908694079 heartbeat IPC: 0.637433 cumulative IPC: 0.760183 (Simulation time: 7 hr 24 min 54 sec) 
Heartbeat CPU 3 instructions: 920000000 cycles: 917536032 heartbeat IPC: 0.837646 cumulative IPC: 0.831349 (Simulation time: 7 hr 28 min 32 sec) 
Heartbeat CPU 2 instructions: 660000000 cycles: 918309389 heartbeat IPC: 0.567816 cumulative IPC: 0.562284 (Simulation time: 7 hr 28 min 50 sec) 
Heartbeat CPU 1 instructions: 840000000 cycles: 920043680 heartbeat IPC: 0.537962 cumulative IPC: 0.753353 (Simulation time: 7 hr 29 min 32 sec) 
Heartbeat CPU 0 instructions: 830000000 cycles: 924294403 heartbeat IPC: 0.641012 cumulative IPC: 0.757927 (Simulation time: 7 hr 31 min 14 sec) 
Heartbeat CPU 3 instructions: 930000001 cycles: 929498216 heartbeat IPC: 0.835968 cumulative IPC: 0.831416 (Simulation time: 7 hr 33 min 30 sec) 
Heartbeat CPU 1 instructions: 850000003 cycles: 938627150 heartbeat IPC: 0.538113 cumulative IPC: 0.748583 (Simulation time: 7 hr 37 min 19 sec) 
Heartbeat CPU 2 instructions: 670000002 cycles: 938715682 heartbeat IPC: 0.490045 cumulative IPC: 0.560525 (Simulation time: 7 hr 37 min 21 sec) 
Heartbeat CPU 0 instructions: 840000000 cycles: 939973751 heartbeat IPC: 0.637782 cumulative IPC: 0.755684 (Simulation time: 7 hr 37 min 53 sec) 
Heartbeat CPU 3 instructions: 940000000 cycles: 941450652 heartbeat IPC: 0.836649 cumulative IPC: 0.83149 (Simulation time: 7 hr 38 min 29 sec) 
Heartbeat CPU 3 instructions: 950000002 cycles: 953411381 heartbeat IPC: 0.83607 cumulative IPC: 0.831554 (Simulation time: 7 hr 43 min 24 sec) 
Heartbeat CPU 2 instructions: 680000000 cycles: 955378111 heartbeat IPC: 0.600152 cumulative IPC: 0.561298 (Simulation time: 7 hr 44 min 13 sec) 
Heartbeat CPU 0 instructions: 850000001 cycles: 955574469 heartbeat IPC: 0.640996 cumulative IPC: 0.753592 (Simulation time: 7 hr 44 min 18 sec) 
Heartbeat CPU 1 instructions: 860000000 cycles: 956863313 heartbeat IPC: 0.548361 cumulative IPC: 0.74432 (Simulation time: 7 hr 44 min 49 sec) 
Heartbeat CPU 3 instructions: 960000000 cycles: 965377404 heartbeat IPC: 0.835699 cumulative IPC: 0.831612 (Simulation time: 7 hr 48 min 15 sec) 
Heartbeat CPU 0 instructions: 860000000 cycles: 971276620 heartbeat IPC: 0.636855 cumulative IPC: 0.751488 (Simulation time: 7 hr 50 min 36 sec) 
Heartbeat CPU 2 instructions: 690000001 cycles: 975475451 heartbeat IPC: 0.497578 cumulative IPC: 0.559834 (Simulation time: 7 hr 52 min 14 sec) 
Heartbeat CPU 1 instructions: 870000003 cycles: 976722309 heartbeat IPC: 0.50355 cumulative IPC: 0.738865 (Simulation time: 7 hr 52 min 41 sec) 
Heartbeat CPU 3 instructions: 970000000 cycles: 977330306 heartbeat IPC: 0.836617 cumulative IPC: 0.83168 (Simulation time: 7 hr 52 min 55 sec) 
Heartbeat CPU 0 instructions: 870000001 cycles: 986891489 heartbeat IPC: 0.640415 cumulative IPC: 0.749532 (Simulation time: 7 hr 56 min 29 sec) 
Heartbeat CPU 3 instructions: 980000000 cycles: 989277768 heartbeat IPC: 0.836998 cumulative IPC: 0.831751 (Simulation time: 7 hr 57 min 23 sec) 
Heartbeat CPU 2 instructions: 700000000 cycles: 993323768 heartbeat IPC: 0.560277 cumulative IPC: 0.559843 (Simulation time: 7 hr 58 min 55 sec) 
Heartbeat CPU 1 instructions: 880000000 cycles: 996131102 heartbeat IPC: 0.51523 cumulative IPC: 0.73402 (Simulation time: 7 hr 59 min 59 sec) 
Heartbeat CPU 3 instructions: 990000002 cycles: 1001251863 heartbeat IPC: 0.835136 cumulative IPC: 0.831796 (Simulation time: 8 hr 1 min 56 sec) 
Heartbeat CPU 0 instructions: 880000000 cycles: 1002562965 heartbeat IPC: 0.638102 cumulative IPC: 0.747596 (Simulation time: 8 hr 2 min 25 sec) 
Heartbeat CPU 2 instructions: 710000002 cycles: 1010112114 heartbeat IPC: 0.595651 cumulative IPC: 0.560504 (Simulation time: 8 hr 5 min 16 sec) 
Heartbeat CPU 3 instructions: 1000000000 cycles: 1013196071 heartbeat IPC: 0.837226 cumulative IPC: 0.831867 (Simulation time: 8 hr 6 min 24 sec) 
Heartbeat CPU 1 instructions: 890000002 cycles: 1015681594 heartbeat IPC: 0.511496 cumulative IPC: 0.729268 (Simulation time: 8 hr 7 min 19 sec) 
Heartbeat CPU 0 instructions: 890000003 cycles: 1018223434 heartbeat IPC: 0.638551 cumulative IPC: 0.745736 (Simulation time: 8 hr 8 min 14 sec) 
Heartbeat CPU 3 instructions: 1010000003 cycles: 1025154136 heartbeat IPC: 0.836256 cumulative IPC: 0.831924 (Simulation time: 8 hr 10 min 51 sec) 
Heartbeat CPU 2 instructions: 720000000 cycles: 1031199012 heartbeat IPC: 0.474228 cumulative IPC: 0.55855 (Simulation time: 8 hr 13 min 16 sec) 
Heartbeat CPU 0 instructions: 900000000 cycles: 1033848508 heartbeat IPC: 0.639997 cumulative IPC: 0.743966 (Simulation time: 8 hr 14 min 21 sec) 
Heartbeat CPU 1 instructions: 900000000 cycles: 1035413383 heartbeat IPC: 0.506796 cumulative IPC: 0.724574 (Simulation time: 8 hr 14 min 59 sec) 
Heartbeat CPU 3 instructions: 1020000000 cycles: 1037083857 heartbeat IPC: 0.838242 cumulative IPC: 0.832005 (Simulation time: 8 hr 15 min 40 sec) 
Heartbeat CPU 2 instructions: 730000002 cycles: 1047604771 heartbeat IPC: 0.609542 cumulative IPC: 0.559433 (Simulation time: 8 hr 19 min 58 sec) 
Heartbeat CPU 3 instructions: 1030000003 cycles: 1049039532 heartbeat IPC: 0.836423 cumulative IPC: 0.83206 (Simulation time: 8 hr 20 min 32 sec) 
Heartbeat CPU 0 instructions: 910000001 cycles: 1049505409 heartbeat IPC: 0.638696 cumulative IPC: 0.74223 (Simulation time: 8 hr 20 min 43 sec) 
Heartbeat CPU 1 instructions: 910000003 cycles: 1053872937 heartbeat IPC: 0.541725 cumulative IPC: 0.721035 (Simulation time: 8 hr 22 min 31 sec) 
Heartbeat CPU 3 instructions: 1040000000 cycles: 1060962887 heartbeat IPC: 0.83869 cumulative IPC: 0.832142 (Simulation time: 8 hr 25 min 28 sec) 
Heartbeat CPU 0 instructions: 920000000 cycles: 1065065836 heartbeat IPC: 0.642656 cumulative IPC: 0.740624 (Simulation time: 8 hr 27 min 5 sec) 
Heartbeat CPU 2 instructions: 740000000 cycles: 1067003617 heartbeat IPC: 0.515494 cumulative IPC: 0.558551 (Simulation time: 8 hr 27 min 51 sec) 
Heartbeat CPU 3 instructions: 1050000003 cycles: 1072905377 heartbeat IPC: 0.837347 cumulative IPC: 0.832206 (Simulation time: 8 hr 30 min 11 sec) 
Heartbeat CPU 1 instructions: 920000000 cycles: 1073691427 heartbeat IPC: 0.504579 cumulative IPC: 0.716628 (Simulation time: 8 hr 30 min 30 sec) 
Heartbeat CPU 0 instructions: 930000000 cycles: 1080719500 heartbeat IPC: 0.638828 cumulative IPC: 0.738999 (Simulation time: 8 hr 33 min 19 sec) 
Heartbeat CPU 3 instructions: 1060000000 cycles: 1084852453 heartbeat IPC: 0.837025 cumulative IPC: 0.832265 (Simulation time: 8 hr 34 min 57 sec) 
Heartbeat CPU 2 instructions: 750000000 cycles: 1085671383 heartbeat IPC: 0.535683 cumulative IPC: 0.558118 (Simulation time: 8 hr 35 min 16 sec) 
Heartbeat CPU 1 instructions: 930000000 cycles: 1092705473 heartbeat IPC: 0.525927 cumulative IPC: 0.712975 (Simulation time: 8 hr 38 min 4 sec) 
Heartbeat CPU 0 instructions: 940000000 cycles: 1096297337 heartbeat IPC: 0.641938 cumulative IPC: 0.737481 (Simulation time: 8 hr 39 min 29 sec) 
Heartbeat CPU 3 instructions: 1070000000 cycles: 1096819549 heartbeat IPC: 0.835625 cumulative IPC: 0.832305 (Simulation time: 8 hr 39 min 41 sec) 
Heartbeat CPU 2 instructions: 760000000 cycles: 1102156282 heartbeat IPC: 0.606616 cumulative IPC: 0.558916 (Simulation time: 8 hr 41 min 52 sec) 
Heartbeat CPU 3 instructions: 1080000000 cycles: 1108728420 heartbeat IPC: 0.83971 cumulative IPC: 0.832393 (Simulation time: 8 hr 44 min 26 sec) 
Heartbeat CPU 0 instructions: 950000002 cycles: 1112024261 heartbeat IPC: 0.635852 cumulative IPC: 0.735902 (Simulation time: 8 hr 45 min 43 sec) 
Heartbeat CPU 1 instructions: 940000000 cycles: 1112088993 heartbeat IPC: 0.515902 cumulative IPC: 0.7092 (Simulation time: 8 hr 45 min 44 sec) 
Heartbeat CPU 3 instructions: 1090000002 cycles: 1120645869 heartbeat IPC: 0.839106 cumulative IPC: 0.832471 (Simulation time: 8 hr 49 min 4 sec) 
Heartbeat CPU 2 instructions: 770000002 cycles: 1123637508 heartbeat IPC: 0.465523 cumulative IPC: 0.556956 (Simulation time: 8 hr 50 min 18 sec) 
Heartbeat CPU 0 instructions: 960000000 cycles: 1127614597 heartbeat IPC: 0.641423 cumulative IPC: 0.734468 (Simulation time: 8 hr 52 min 10 sec) 
Heartbeat CPU 1 instructions: 950000001 cycles: 1131233220 heartbeat IPC: 0.522351 cumulative IPC: 0.70573 (Simulation time: 8 hr 53 min 58 sec) 
Heartbeat CPU 3 instructions: 1100000000 cycles: 1132569346 heartbeat IPC: 0.838681 cumulative IPC: 0.832543 (Simulation time: 8 hr 54 min 32 sec) 
Heartbeat CPU 2 instructions: 780000000 cycles: 1139743109 heartbeat IPC: 0.620902 cumulative IPC: 0.557946 (Simulation time: 8 hr 57 min 29 sec) 
Heartbeat CPU 0 instructions: 970000000 cycles: 1143289635 heartbeat IPC: 0.637957 cumulative IPC: 0.733018 (Simulation time: 8 hr 59 min 8 sec) 
Heartbeat CPU 3 instructions: 1110000003 cycles: 1144493310 heartbeat IPC: 0.838648 cumulative IPC: 0.832612 (Simulation time: 8 hr 59 min 36 sec) 
Heartbeat CPU 1 instructions: 960000000 cycles: 1149902430 heartbeat IPC: 0.535641 cumulative IPC: 0.702705 (Simulation time: 9 hr 1 min 40 sec) 
Heartbeat CPU 3 instructions: 1120000000 cycles: 1156427851 heartbeat IPC: 0.837904 cumulative IPC: 0.832672 (Simulation time: 9 hr 4 min 0 sec) 
Heartbeat CPU 2 instructions: 790000002 cycles: 1158528496 heartbeat IPC: 0.532329 cumulative IPC: 0.557492 (Simulation time: 9 hr 4 min 50 sec) 
Heartbeat CPU 0 instructions: 980000000 cycles: 1159020424 heartbeat IPC: 0.635696 cumulative IPC: 0.731572 (Simulation time: 9 hr 5 min 1 sec) 
Heartbeat CPU 3 instructions: 1130000000 cycles: 1168359558 heartbeat IPC: 0.838103 cumulative IPC: 0.832733 (Simulation time: 9 hr 8 min 45 sec) 
Heartbeat CPU 1 instructions: 970000001 cycles: 1169442897 heartbeat IPC: 0.511759 cumulative IPC: 0.699215 (Simulation time: 9 hr 9 min 11 sec) 
Heartbeat CPU 0 instructions: 990000000 cycles: 1174623097 heartbeat IPC: 0.640916 cumulative IPC: 0.730255 (Simulation time: 9 hr 11 min 20 sec) 
Heartbeat CPU 2 instructions: 800000000 cycles: 1177491309 heartbeat IPC: 0.527348 cumulative IPC: 0.556961 (Simulation time: 9 hr 12 min 28 sec) 
Heartbeat CPU 3 instructions: 1140000000 cycles: 1180259214 heartbeat IPC: 0.84036 cumulative IPC: 0.832817 (Simulation time: 9 hr 13 min 36 sec) 
Heartbeat CPU 1 instructions: 980000000 cycles: 1188463266 heartbeat IPC: 0.525752 cumulative IPC: 0.696184 (Simulation time: 9 hr 17 min 11 sec) 
Heartbeat CPU 0 instructions: 1000000000 cycles: 1190342870 heartbeat IPC: 0.636141 cumulative IPC: 0.728898 (Simulation time: 9 hr 17 min 58 sec) 
Heartbeat CPU 3 instructions: 1150000001 cycles: 1192186062 heartbeat IPC: 0.838445 cumulative IPC: 0.832878 (Simulation time: 9 hr 18 min 43 sec) 
Heartbeat CPU 2 instructions: 810000001 cycles: 1193381409 heartbeat IPC: 0.629323 cumulative IPC: 0.558013 (Simulation time: 9 hr 19 min 13 sec) 
Heartbeat CPU 3 instructions: 1160000000 cycles: 1204108686 heartbeat IPC: 0.838741 cumulative IPC: 0.832942 (Simulation time: 9 hr 23 min 18 sec) 
Heartbeat CPU 0 instructions: 1010000001 cycles: 1205928059 heartbeat IPC: 0.641635 cumulative IPC: 0.727668 (Simulation time: 9 hr 23 min 56 sec) 
Heartbeat CPU 1 instructions: 990000002 cycles: 1208383593 heartbeat IPC: 0.502 cumulative IPC: 0.692693 (Simulation time: 9 hr 24 min 47 sec) 
Heartbeat CPU 2 instructions: 820000000 cycles: 1214495464 heartbeat IPC: 0.473618 cumulative IPC: 0.556414 (Simulation time: 9 hr 26 min 54 sec) 
Heartbeat CPU 3 instructions: 1170000000 cycles: 1216008863 heartbeat IPC: 0.840324 cumulative IPC: 0.833021 (Simulation time: 9 hr 27 min 25 sec) 
Heartbeat CPU 0 instructions: 1020000000 cycles: 1221289605 heartbeat IPC: 0.650976 cumulative IPC: 0.726617 (Simulation time: 9 hr 29 min 21 sec) 
Heartbeat CPU 1 instructions: 1000000000 cycles: 1227737456 heartbeat IPC: 0.516693 cumulative IPC: 0.689672 (Simulation time: 9 hr 31 min 53 sec) 
Heartbeat CPU 3 instructions: 1180000000 cycles: 1227946175 heartbeat IPC: 0.83771 cumulative IPC: 0.83307 (Simulation time: 9 hr 31 min 58 sec) 
Heartbeat CPU 2 instructions: 830000002 cycles: 1230779637 heartbeat IPC: 0.614093 cumulative IPC: 0.557245 (Simulation time: 9 hr 33 min 12 sec) 
Heartbeat CPU 0 instructions: 1030000001 cycles: 1236486164 heartbeat IPC: 0.658044 cumulative IPC: 0.7257 (Simulation time: 9 hr 36 min 28 sec) 
Heartbeat CPU 3 instructions: 1190000001 cycles: 1239883371 heartbeat IPC: 0.837718 cumulative IPC: 0.833119 (Simulation time: 9 hr 37 min 53 sec) 
Heartbeat CPU 1 instructions: 1010000001 cycles: 1247090814 heartbeat IPC: 0.516706 cumulative IPC: 0.686753 (Simulation time: 9 hr 41 min 6 sec) 
Heartbeat CPU 2 instructions: 840000000 cycles: 1248774644 heartbeat IPC: 0.55571 cumulative IPC: 0.557221 (Simulation time: 9 hr 41 min 46 sec) 
Heartbeat CPU 0 instructions: 1040000000 cycles: 1251773374 heartbeat IPC: 0.654142 cumulative IPC: 0.72475 (Simulation time: 9 hr 43 min 0 sec) 
Heartbeat CPU 3 instructions: 1200000000 cycles: 1251809701 heartbeat IPC: 0.838481 cumulative IPC: 0.833174 (Simulation time: 9 hr 43 min 1 sec) 
Heartbeat CPU 3 instructions: 1210000003 cycles: 1263722427 heartbeat IPC: 0.839439 cumulative IPC: 0.833238 (Simulation time: 9 hr 47 min 49 sec) 
Heartbeat CPU 1 instructions: 1020000000 cycles: 1266220241 heartbeat IPC: 0.522755 cumulative IPC: 0.684063 (Simulation time: 9 hr 48 min 52 sec) 
Heartbeat CPU 0 instructions: 1050000000 cycles: 1267072803 heartbeat IPC: 0.653619 cumulative IPC: 0.723817 (Simulation time: 9 hr 49 min 13 sec) 
Heartbeat CPU 2 instructions: 850000000 cycles: 1268483127 heartbeat IPC: 0.507396 cumulative IPC: 0.55638 (Simulation time: 9 hr 49 min 49 sec) 
Heartbeat CPU 3 instructions: 1220000000 cycles: 1275586437 heartbeat IPC: 0.842885 cumulative IPC: 0.833336 (Simulation time: 9 hr 52 min 45 sec) 
Heartbeat CPU 0 instructions: 1060000000 cycles: 1282294487 heartbeat IPC: 0.656958 cumulative IPC: 0.722956 (Simulation time: 9 hr 55 min 32 sec) 
Heartbeat CPU 1 instructions: 1030000002 cycles: 1284872534 heartbeat IPC: 0.536127 cumulative IPC: 0.681733 (Simulation time: 9 hr 56 min 36 sec) 
Heartbeat CPU 2 instructions: 860000000 cycles: 1285035884 heartbeat IPC: 0.604129 cumulative IPC: 0.557047 (Simulation time: 9 hr 56 min 40 sec) 
Heartbeat CPU 3 instructions: 1230000000 cycles: 1287491264 heartbeat IPC: 0.839995 cumulative IPC: 0.833403 (Simulation time: 9 hr 57 min 42 sec) 
Heartbeat CPU 0 instructions: 1070000001 cycles: 1297583885 heartbeat IPC: 0.654048 cumulative IPC: 0.722077 (Simulation time: 10 hr 1 min 39 sec) 
Heartbeat CPU 3 instructions: 1240000000 cycles: 1299501139 heartbeat IPC: 0.832648 cumulative IPC: 0.833395 (Simulation time: 10 hr 2 min 26 sec) 
Finished CPU 3 instructions: 1000000001 cycles: 1199913357 cumulative IPC: 0.833394 (Simulation time: 10 hr 2 min 41 sec) 
Heartbeat CPU 1 instructions: 1040000000 cycles: 1304352245 heartbeat IPC: 0.513355 cumulative IPC: 0.679009 (Simulation time: 10 hr 4 min 23 sec) 
Heartbeat CPU 2 instructions: 870000000 cycles: 1305674472 heartbeat IPC: 0.484529 cumulative IPC: 0.555806 (Simulation time: 10 hr 4 min 55 sec) 
Heartbeat CPU 3 instructions: 1250000003 cycles: 1311504603 heartbeat IPC: 0.833093 cumulative IPC: 0.833392 (Simulation time: 10 hr 7 min 18 sec) 
Heartbeat CPU 0 instructions: 1080000000 cycles: 1312791711 heartbeat IPC: 0.657556 cumulative IPC: 0.721267 (Simulation time: 10 hr 7 min 50 sec) 
Heartbeat CPU 2 instructions: 880000000 cycles: 1322725841 heartbeat IPC: 0.586463 cumulative IPC: 0.556233 (Simulation time: 10 hr 12 min 5 sec) 
Heartbeat CPU 3 instructions: 1260000000 cycles: 1323497823 heartbeat IPC: 0.833804 cumulative IPC: 0.833396 (Simulation time: 10 hr 12 min 24 sec) 
Heartbeat CPU 1 instructions: 1050000002 cycles: 1323595125 heartbeat IPC: 0.519673 cumulative IPC: 0.676503 (Simulation time: 10 hr 12 min 26 sec) 
Heartbeat CPU 0 instructions: 1090000000 cycles: 1328057986 heartbeat IPC: 0.655039 cumulative IPC: 0.720444 (Simulation time: 10 hr 14 min 12 sec) 
Heartbeat CPU 3 instructions: 1270000002 cycles: 1335486440 heartbeat IPC: 0.834125 cumulative IPC: 0.833403 (Simulation time: 10 hr 17 min 5 sec) 
Heartbeat CPU 2 instructions: 890000000 cycles: 1340153466 heartbeat IPC: 0.573802 cumulative IPC: 0.55648 (Simulation time: 10 hr 18 min 50 sec) 
Heartbeat CPU 1 instructions: 1060000000 cycles: 1343119453 heartbeat IPC: 0.512181 cumulative IPC: 0.673922 (Simulation time: 10 hr 19 min 55 sec) 
Heartbeat CPU 0 instructions: 1100000000 cycles: 1343346601 heartbeat IPC: 0.654081 cumulative IPC: 0.719628 (Simulation time: 10 hr 20 min 0 sec) 
Heartbeat CPU 3 instructions: 1280000000 cycles: 1347522672 heartbeat IPC: 0.830825 cumulative IPC: 0.833378 (Simulation time: 10 hr 21 min 34 sec) 
Heartbeat CPU 0 instructions: 1110000000 cycles: 1358617336 heartbeat IPC: 0.654847 cumulative IPC: 0.718842 (Simulation time: 10 hr 25 min 49 sec) 
Heartbeat CPU 3 instructions: 1290000000 cycles: 1359498722 heartbeat IPC: 0.835 cumulative IPC: 0.833394 (Simulation time: 10 hr 26 min 10 sec) 
Heartbeat CPU 2 instructions: 900000000 cycles: 1360271328 heartbeat IPC: 0.497071 cumulative IPC: 0.555532 (Simulation time: 10 hr 26 min 28 sec) 
Heartbeat CPU 1 instructions: 1070000003 cycles: 1362354644 heartbeat IPC: 0.519881 cumulative IPC: 0.671574 (Simulation time: 10 hr 27 min 18 sec) 
Heartbeat CPU 3 instructions: 1300000000 cycles: 1371503019 heartbeat IPC: 0.833035 cumulative IPC: 0.83339 (Simulation time: 10 hr 30 min 53 sec) 
Heartbeat CPU 0 instructions: 1120000000 cycles: 1373969499 heartbeat IPC: 0.651374 cumulative IPC: 0.718028 (Simulation time: 10 hr 31 min 52 sec) 
Heartbeat CPU 2 instructions: 910000002 cycles: 1376094015 heartbeat IPC: 0.632004 cumulative IPC: 0.55648 (Simulation time: 10 hr 32 min 56 sec) 
Heartbeat CPU 1 instructions: 1080000000 cycles: 1381011012 heartbeat IPC: 0.53601 cumulative IPC: 0.6696 (Simulation time: 10 hr 34 min 52 sec) 
Heartbeat CPU 3 instructions: 1310000003 cycles: 1383500634 heartbeat IPC: 0.833499 cumulative IPC: 0.833391 (Simulation time: 10 hr 35 min 58 sec) 
Heartbeat CPU 0 instructions: 1130000000 cycles: 1389270791 heartbeat IPC: 0.65354 cumulative IPC: 0.717263 (Simulation time: 10 hr 38 min 25 sec) 
Heartbeat CPU 3 instructions: 1320000000 cycles: 1395512918 heartbeat IPC: 0.832481 cumulative IPC: 0.833383 (Simulation time: 10 hr 40 min 50 sec) 
Heartbeat CPU 2 instructions: 920000000 cycles: 1395956768 heartbeat IPC: 0.503455 cumulative IPC: 0.555667 (Simulation time: 10 hr 41 min 1 sec) 
Heartbeat CPU 1 instructions: 1090000000 cycles: 1401133406 heartbeat IPC: 0.496959 cumulative IPC: 0.666929 (Simulation time: 10 hr 43 min 5 sec) 
Heartbeat CPU 0 instructions: 1140000000 cycles: 1404609079 heartbeat IPC: 0.651963 cumulative IPC: 0.716495 (Simulation time: 10 hr 44 min 23 sec) 
Heartbeat CPU 3 instructions: 1330000000 cycles: 1407505927 heartbeat IPC: 0.833819 cumulative IPC: 0.833387 (Simulation time: 10 hr 45 min 26 sec) 
Heartbeat CPU 2 instructions: 930000002 cycles: 1413699341 heartbeat IPC: 0.563616 cumulative IPC: 0.555774 (Simulation time: 10 hr 47 min 54 sec) 
Heartbeat CPU 3 instructions: 1340000000 cycles: 1419487077 heartbeat IPC: 0.834644 cumulative IPC: 0.833398 (Simulation time: 10 hr 50 min 12 sec) 
Heartbeat CPU 0 instructions: 1150000003 cycles: 1419968797 heartbeat IPC: 0.651054 cumulative IPC: 0.715733 (Simulation time: 10 hr 50 min 23 sec) 
Heartbeat CPU 1 instructions: 1100000000 cycles: 1420130379 heartbeat IPC: 0.5264 cumulative IPC: 0.664907 (Simulation time: 10 hr 50 min 27 sec) 
Heartbeat CPU 2 instructions: 940000000 cycles: 1430563748 heartbeat IPC: 0.592965 cumulative IPC: 0.556246 (Simulation time: 10 hr 54 min 32 sec) 
Heartbeat CPU 3 instructions: 1350000001 cycles: 1431488382 heartbeat IPC: 0.833243 cumulative IPC: 0.833397 (Simulation time: 10 hr 54 min 53 sec) 
Heartbeat CPU 0 instructions: 1160000000 cycles: 1435265953 heartbeat IPC: 0.653716 cumulative IPC: 0.715023 (Simulation time: 10 hr 56 min 18 sec) 
Heartbeat CPU 1 instructions: 1110000001 cycles: 1440045238 heartbeat IPC: 0.502138 cumulative IPC: 0.662487 (Simulation time: 10 hr 58 min 8 sec) 
Heartbeat CPU 3 instructions: 1360000000 cycles: 1443479599 heartbeat IPC: 0.833944 cumulative IPC: 0.833402 (Simulation time: 10 hr 59 min 27 sec) 
Heartbeat CPU 0 instructions: 1170000002 cycles: 1450587865 heartbeat IPC: 0.65266 cumulative IPC: 0.714315 (Simulation time: 11 hr 2 min 11 sec) 
Heartbeat CPU 2 instructions: 950000000 cycles: 1451546770 heartbeat IPC: 0.476576 cumulative IPC: 0.555009 (Simulation time: 11 hr 2 min 33 sec) 
Heartbeat CPU 3 instructions: 1370000001 cycles: 1455455192 heartbeat IPC: 0.835032 cumulative IPC: 0.833416 (Simulation time: 11 hr 4 min 4 sec) 
Heartbeat CPU 1 instructions: 1120000000 cycles: 1459377659 heartbeat IPC: 0.517266 cumulative IPC: 0.660422 (Simulation time: 11 hr 5 min 36 sec) 
Heartbeat CPU 0 instructions: 1180000000 cycles: 1465745473 heartbeat IPC: 0.659735 cumulative IPC: 0.713709 (Simulation time: 11 hr 8 min 3 sec) 
Heartbeat CPU 3 instructions: 1380000000 cycles: 1467455548 heartbeat IPC: 0.833309 cumulative IPC: 0.833415 (Simulation time: 11 hr 8 min 43 sec) 
Heartbeat CPU 2 instructions: 960000000 cycles: 1468246338 heartbeat IPC: 0.598818 cumulative IPC: 0.555544 (Simulation time: 11 hr 9 min 2 sec) 
Heartbeat CPU 1 instructions: 1130000002 cycles: 1478326829 heartbeat IPC: 0.527728 cumulative IPC: 0.658597 (Simulation time: 11 hr 12 min 52 sec) 
Heartbeat CPU 3 instructions: 1390000002 cycles: 1479465452 heartbeat IPC: 0.832646 cumulative IPC: 0.833409 (Simulation time: 11 hr 13 min 18 sec) 
Heartbeat CPU 0 instructions: 1190000001 cycles: 1480879014 heartbeat IPC: 0.660784 cumulative IPC: 0.713129 (Simulation time: 11 hr 13 min 50 sec) 
Heartbeat CPU 2 instructions: 970000000 cycles: 1487873989 heartbeat IPC: 0.509485 cumulative IPC: 0.554892 (Simulation time: 11 hr 16 min 28 sec) 
Heartbeat CPU 3 instructions: 1400000000 cycles: 1491485547 heartbeat IPC: 0.83194 cumulative IPC: 0.833396 (Simulation time: 11 hr 17 min 50 sec) 
Heartbeat CPU 0 instructions: 1200000000 cycles: 1495999090 heartbeat IPC: 0.661372 cumulative IPC: 0.712569 (Simulation time: 11 hr 19 min 33 sec) 
Heartbeat CPU 1 instructions: 1140000000 cycles: 1498270392 heartbeat IPC: 0.501415 cumulative IPC: 0.656355 (Simulation time: 11 hr 20 min 26 sec) 
Heartbeat CPU 3 instructions: 1410000000 cycles: 1503482978 heartbeat IPC: 0.833512 cumulative IPC: 0.833397 (Simulation time: 11 hr 22 min 20 sec) 
Finished CPU 0 instructions: 1000000000 cycles: 1403912505 cumulative IPC: 0.712295 (Simulation time: 11 hr 22 min 34 sec) 
Heartbeat CPU 2 instructions: 980000000 cycles: 1506479441 heartbeat IPC: 0.537477 cumulative IPC: 0.554662 (Simulation time: 11 hr 23 min 25 sec) 
Heartbeat CPU 0 instructions: 1210000002 cycles: 1511067752 heartbeat IPC: 0.663629 cumulative IPC: 0.712046 (Simulation time: 11 hr 25 min 7 sec) 
Heartbeat CPU 3 instructions: 1420000000 cycles: 1515505775 heartbeat IPC: 0.831753 cumulative IPC: 0.833383 (Simulation time: 11 hr 26 min 51 sec) 
Heartbeat CPU 1 instructions: 1150000000 cycles: 1517360602 heartbeat IPC: 0.523829 cumulative IPC: 0.65457 (Simulation time: 11 hr 27 min 34 sec) 
Heartbeat CPU 2 instructions: 990000002 cycles: 1523032184 heartbeat IPC: 0.60413 cumulative IPC: 0.555237 (Simulation time: 11 hr 29 min 45 sec) 
Heartbeat CPU 0 instructions: 1220000000 cycles: 1526237315 heartbeat IPC: 0.659215 cumulative IPC: 0.711484 (Simulation time: 11 hr 31 min 3 sec) 
Heartbeat CPU 3 instructions: 1430000000 cycles: 1527474413 heartbeat IPC: 0.835517 cumulative IPC: 0.833401 (Simulation time: 11 hr 31 min 31 sec) 
Heartbeat CPU 1 instructions: 1160000000 cycles: 1536961739 heartbeat IPC: 0.510175 cumulative IPC: 0.6526 (Simulation time: 11 hr 37 min 48 sec) 
Heartbeat CPU 3 instructions: 1440000000 cycles: 1539491890 heartbeat IPC: 0.832121 cumulative IPC: 0.83339 (Simulation time: 11 hr 38 min 45 sec) 
Heartbeat CPU 0 instructions: 1230000000 cycles: 1541344736 heartbeat IPC: 0.661926 cumulative IPC: 0.710964 (Simulation time: 11 hr 39 min 28 sec) 
Heartbeat CPU 2 instructions: 1000000000 cycles: 1544487175 heartbeat IPC: 0.466092 cumulative IPC: 0.553913 (Simulation time: 11 hr 40 min 41 sec) 
Heartbeat CPU 3 instructions: 1450000000 cycles: 1551503576 heartbeat IPC: 0.832523 cumulative IPC: 0.833383 (Simulation time: 11 hr 43 min 29 sec) 
Heartbeat CPU 1 instructions: 1170000000 cycles: 1556053684 heartbeat IPC: 0.523781 cumulative IPC: 0.65091 (Simulation time: 11 hr 45 min 19 sec) 
Heartbeat CPU 0 instructions: 1240000000 cycles: 1556559597 heartbeat IPC: 0.657252 cumulative IPC: 0.710403 (Simulation time: 11 hr 45 min 31 sec) 
Heartbeat CPU 2 instructions: 1010000000 cycles: 1560027767 heartbeat IPC: 0.643476 cumulative IPC: 0.554866 (Simulation time: 11 hr 46 min 55 sec) 
Heartbeat CPU 3 instructions: 1460000000 cycles: 1563498325 heartbeat IPC: 0.833698 cumulative IPC: 0.833386 (Simulation time: 11 hr 48 min 18 sec) 
Heartbeat CPU 0 instructions: 1250000001 cycles: 1571937805 heartbeat IPC: 0.650271 cumulative IPC: 0.709775 (Simulation time: 11 hr 51 min 43 sec) 
Heartbeat CPU 1 instructions: 1180000000 cycles: 1574779074 heartbeat IPC: 0.534034 cumulative IPC: 0.649426 (Simulation time: 11 hr 53 min 50 sec) 
Heartbeat CPU 3 instructions: 1470000000 cycles: 1575564371 heartbeat IPC: 0.828772 cumulative IPC: 0.833348 (Simulation time: 11 hr 54 min 8 sec) 
Heartbeat CPU 2 instructions: 1020000000 cycles: 1578614201 heartbeat IPC: 0.538027 cumulative IPC: 0.554655 (Simulation time: 11 hr 55 min 17 sec) 
Heartbeat CPU 0 instructions: 1260000000 cycles: 1587239616 heartbeat IPC: 0.653517 cumulative IPC: 0.709196 (Simulation time: 11 hr 58 min 33 sec) 
Heartbeat CPU 3 instructions: 1480000000 cycles: 1587551978 heartbeat IPC: 0.834195 cumulative IPC: 0.833355 (Simulation time: 11 hr 58 min 40 sec) 
Heartbeat CPU 1 instructions: 1190000002 cycles: 1594307331 heartbeat IPC: 0.512079 cumulative IPC: 0.647631 (Simulation time: 12 hr 1 min 20 sec) 
Heartbeat CPU 2 instructions: 1030000000 cycles: 1597597802 heartbeat IPC: 0.52677 cumulative IPC: 0.554301 (Simulation time: 12 hr 2 min 42 sec) 
Heartbeat CPU 3 instructions: 1490000003 cycles: 1599580695 heartbeat IPC: 0.831344 cumulative IPC: 0.833338 (Simulation time: 12 hr 3 min 32 sec) 
Heartbeat CPU 0 instructions: 1270000001 cycles: 1602569266 heartbeat IPC: 0.652331 cumulative IPC: 0.708616 (Simulation time: 12 hr 4 min 50 sec) 
Heartbeat CPU 3 instructions: 1500000000 cycles: 1611573227 heartbeat IPC: 0.833852 cumulative IPC: 0.833343 (Simulation time: 12 hr 8 min 36 sec) 
Heartbeat CPU 1 instructions: 1200000000 cycles: 1612965603 heartbeat IPC: 0.535955 cumulative IPC: 0.646254 (Simulation time: 12 hr 9 min 11 sec) 
Heartbeat CPU 2 instructions: 1040000000 cycles: 1613774563 heartbeat IPC: 0.618171 cumulative IPC: 0.554984 (Simulation time: 12 hr 9 min 32 sec) 
Heartbeat CPU 0 instructions: 1280000000 cycles: 1617851945 heartbeat IPC: 0.654335 cumulative IPC: 0.708069 (Simulation time: 12 hr 11 min 12 sec) 
Heartbeat CPU 3 instructions: 1510000000 cycles: 1623591792 heartbeat IPC: 0.832046 cumulative IPC: 0.833332 (Simulation time: 12 hr 13 min 35 sec) 
Heartbeat CPU 1 instructions: 1210000001 cycles: 1632587006 heartbeat IPC: 0.509648 cumulative IPC: 0.644504 (Simulation time: 12 hr 17 min 56 sec) 
Heartbeat CPU 0 instructions: 1290000001 cycles: 1633147720 heartbeat IPC: 0.653775 cumulative IPC: 0.707527 (Simulation time: 12 hr 18 min 9 sec) 
Heartbeat CPU 2 instructions: 1050000000 cycles: 1635151425 heartbeat IPC: 0.467796 cumulative IPC: 0.55377 (Simulation time: 12 hr 18 min 57 sec) 
Heartbeat CPU 3 instructions: 1520000000 cycles: 1635554306 heartbeat IPC: 0.835945 cumulative IPC: 0.833353 (Simulation time: 12 hr 19 min 6 sec) 
Heartbeat CPU 3 instructions: 1530000000 cycles: 1647592598 heartbeat IPC: 0.830683 cumulative IPC: 0.833332 (Simulation time: 12 hr 23 min 57 sec) 
Heartbeat CPU 0 instructions: 1300000000 cycles: 1648414126 heartbeat IPC: 0.655033 cumulative IPC: 0.70701 (Simulation time: 12 hr 24 min 16 sec) 
Heartbeat CPU 1 instructions: 1220000000 cycles: 1652045237 heartbeat IPC: 0.513921 cumulative IPC: 0.642867 (Simulation time: 12 hr 25 min 40 sec) 
Heartbeat CPU 2 instructions: 1060000000 cycles: 1652300572 heartbeat IPC: 0.583119 cumulative IPC: 0.554094 (Simulation time: 12 hr 25 min 46 sec) 
Finished CPU 1 instructions: 1000000001 cycles: 1556205920 cumulative IPC: 0.642588 (Simulation time: 12 hr 27 min 28 sec) 
Heartbeat CPU 3 instructions: 1540000000 cycles: 1659672136 heartbeat IPC: 0.827846 cumulative IPC: 0.833289 (Simulation time: 12 hr 28 min 48 sec) 
Heartbeat CPU 0 instructions: 1310000003 cycles: 1663617410 heartbeat IPC: 0.657753 cumulative IPC: 0.706531 (Simulation time: 12 hr 30 min 17 sec) 
Heartbeat CPU 2 instructions: 1070000000 cycles: 1671111358 heartbeat IPC: 0.53161 cumulative IPC: 0.553825 (Simulation time: 12 hr 33 min 4 sec) 
Heartbeat CPU 3 instructions: 1550000001 cycles: 1671821003 heartbeat IPC: 0.823122 cumulative IPC: 0.833211 (Simulation time: 12 hr 33 min 20 sec) 
Heartbeat CPU 1 instructions: 1230000001 cycles: 1672025731 heartbeat IPC: 0.500488 cumulative IPC: 0.641057 (Simulation time: 12 hr 33 min 25 sec) 
Heartbeat CPU 0 instructions: 1320000000 cycles: 1678888796 heartbeat IPC: 0.654819 cumulative IPC: 0.706031 (Simulation time: 12 hr 36 min 19 sec) 
Heartbeat CPU 3 instructions: 1560000000 cycles: 1683873096 heartbeat IPC: 0.829731 cumulative IPC: 0.833184 (Simulation time: 12 hr 38 min 18 sec) 
Heartbeat CPU 2 instructions: 1080000000 cycles: 1691083265 heartbeat IPC: 0.500703 cumulative IPC: 0.553158 (Simulation time: 12 hr 41 min 19 sec) 
Heartbeat CPU 1 instructions: 1240000000 cycles: 1692450513 heartbeat IPC: 0.489601 cumulative IPC: 0.639114 (Simulation time: 12 hr 41 min 52 sec) 
Heartbeat CPU 0 instructions: 1330000000 cycles: 1694117315 heartbeat IPC: 0.656663 cumulative IPC: 0.705559 (Simulation time: 12 hr 42 min 33 sec) 
Heartbeat CPU 3 instructions: 1570000002 cycles: 1695897334 heartbeat IPC: 0.831654 cumulative IPC: 0.833173 (Simulation time: 12 hr 43 min 17 sec) 
Heartbeat CPU 2 instructions: 1090000002 cycles: 1707857080 heartbeat IPC: 0.596167 cumulative IPC: 0.553606 (Simulation time: 12 hr 48 min 24 sec) 
Heartbeat CPU 3 instructions: 1580000000 cycles: 1707996968 heartbeat IPC: 0.826471 cumulative IPC: 0.833122 (Simulation time: 12 hr 48 min 28 sec) 
Heartbeat CPU 0 instructions: 1340000000 cycles: 1709440639 heartbeat IPC: 0.6526 cumulative IPC: 0.705055 (Simulation time: 12 hr 49 min 5 sec) 
Heartbeat CPU 1 instructions: 1250000003 cycles: 1712023801 heartbeat IPC: 0.5109 cumulative IPC: 0.637557 (Simulation time: 12 hr 50 min 13 sec) 
Heartbeat CPU 3 instructions: 1590000002 cycles: 1720079576 heartbeat IPC: 0.827636 cumulative IPC: 0.833081 (Simulation time: 12 hr 53 min 41 sec) 
Heartbeat CPU 0 instructions: 1350000002 cycles: 1724773911 heartbeat IPC: 0.652177 cumulative IPC: 0.704556 (Simulation time: 12 hr 55 min 25 sec) 
Heartbeat CPU 2 instructions: 1100000000 cycles: 1728882213 heartbeat IPC: 0.475621 cumulative IPC: 0.5526 (Simulation time: 12 hr 56 min 56 sec) 
Heartbeat CPU 3 instructions: 1600000000 cycles: 1732131669 heartbeat IPC: 0.829731 cumulative IPC: 0.833057 (Simulation time: 12 hr 58 min 10 sec) 
Heartbeat CPU 1 instructions: 1260000000 cycles: 1732687387 heartbeat IPC: 0.483943 cumulative IPC: 0.635613 (Simulation time: 12 hr 58 min 23 sec) 
Heartbeat CPU 0 instructions: 1360000000 cycles: 1740071042 heartbeat IPC: 0.653717 cumulative IPC: 0.704081 (Simulation time: 13 hr 1 min 23 sec) 
Heartbeat CPU 3 instructions: 1610000000 cycles: 1744204362 heartbeat IPC: 0.828316 cumulative IPC: 0.833022 (Simulation time: 13 hr 3 min 7 sec) 
Heartbeat CPU 2 instructions: 1110000000 cycles: 1745167691 heartbeat IPC: 0.614044 cumulative IPC: 0.553208 (Simulation time: 13 hr 3 min 30 sec) 
Heartbeat CPU 1 instructions: 1270000000 cycles: 1752035514 heartbeat IPC: 0.516846 cumulative IPC: 0.634222 (Simulation time: 13 hr 6 min 11 sec) 
Heartbeat CPU 0 instructions: 1370000001 cycles: 1755462341 heartbeat IPC: 0.649718 cumulative IPC: 0.703576 (Simulation time: 13 hr 7 min 31 sec) 
Heartbeat CPU 3 instructions: 1620000000 cycles: 1756349212 heartbeat IPC: 0.823394 cumulative IPC: 0.832951 (Simulation time: 13 hr 7 min 52 sec) 
Heartbeat CPU 2 instructions: 1120000000 cycles: 1762330870 heartbeat IPC: 0.582643 cumulative IPC: 0.553512 (Simulation time: 13 hr 10 min 6 sec) 
Heartbeat CPU 3 instructions: 1630000001 cycles: 1768554683 heartbeat IPC: 0.819305 cumulative IPC: 0.832851 (Simulation time: 13 hr 12 min 26 sec) 
Heartbeat CPU 0 instructions: 1380000000 cycles: 1770792627 heartbeat IPC: 0.652303 cumulative IPC: 0.703105 (Simulation time: 13 hr 13 min 17 sec) 
Heartbeat CPU 1 instructions: 1280000000 cycles: 1771770311 heartbeat IPC: 0.506719 cumulative IPC: 0.632716 (Simulation time: 13 hr 13 min 40 sec) 
Heartbeat CPU 3 instructions: 1640000000 cycles: 1780556644 heartbeat IPC: 0.833197 cumulative IPC: 0.832854 (Simulation time: 13 hr 16 min 58 sec) 
Heartbeat CPU 2 instructions: 1130000002 cycles: 1782218730 heartbeat IPC: 0.502819 cumulative IPC: 0.552913 (Simulation time: 13 hr 17 min 38 sec) 
Heartbeat CPU 0 instructions: 1390000001 cycles: 1786174509 heartbeat IPC: 0.650116 cumulative IPC: 0.702622 (Simulation time: 13 hr 19 min 12 sec) 
Heartbeat CPU 1 instructions: 1290000000 cycles: 1790873928 heartbeat IPC: 0.523461 cumulative IPC: 0.631482 (Simulation time: 13 hr 21 min 2 sec) 
Heartbeat CPU 3 instructions: 1650000001 cycles: 1792601061 heartbeat IPC: 0.83026 cumulative IPC: 0.832835 (Simulation time: 13 hr 21 min 42 sec) 
Heartbeat CPU 2 instructions: 1140000000 cycles: 1797568237 heartbeat IPC: 0.651487 cumulative IPC: 0.553804 (Simulation time: 13 hr 23 min 38 sec) 
Heartbeat CPU 0 instructions: 1400000000 cycles: 1801503897 heartbeat IPC: 0.652342 cumulative IPC: 0.702169 (Simulation time: 13 hr 25 min 12 sec) 
Heartbeat CPU 3 instructions: 1660000000 cycles: 1804692123 heartbeat IPC: 0.827057 cumulative IPC: 0.832794 (Simulation time: 13 hr 26 min 24 sec) 
Heartbeat CPU 1 instructions: 1300000000 cycles: 1810172519 heartbeat IPC: 0.518173 cumulative IPC: 0.630203 (Simulation time: 13 hr 28 min 28 sec) 
Heartbeat CPU 3 instructions: 1670000000 cycles: 1816716469 heartbeat IPC: 0.831646 cumulative IPC: 0.832786 (Simulation time: 13 hr 30 min 55 sec) 
Heartbeat CPU 0 instructions: 1410000000 cycles: 1816753972 heartbeat IPC: 0.655734 cumulative IPC: 0.701756 (Simulation time: 13 hr 30 min 56 sec) 
Heartbeat CPU 2 instructions: 1150000000 cycles: 1817550496 heartbeat IPC: 0.500444 cumulative IPC: 0.553183 (Simulation time: 13 hr 31 min 14 sec) 
Heartbeat CPU 3 instructions: 1680000000 cycles: 1828716605 heartbeat IPC: 0.833324 cumulative IPC: 0.83279 (Simulation time: 13 hr 35 min 30 sec) 
Heartbeat CPU 1 instructions: 1310000003 cycles: 1829460742 heartbeat IPC: 0.518451 cumulative IPC: 0.628957 (Simulation time: 13 hr 35 min 47 sec) 
Heartbeat CPU 0 instructions: 1420000000 cycles: 1832065729 heartbeat IPC: 0.653093 cumulative IPC: 0.701326 (Simulation time: 13 hr 36 min 49 sec) 
Heartbeat CPU 2 instructions: 1160000000 cycles: 1834910049 heartbeat IPC: 0.576052 cumulative IPC: 0.553412 (Simulation time: 13 hr 38 min 1 sec) 
Heartbeat CPU 3 instructions: 1690000003 cycles: 1840706478 heartbeat IPC: 0.834037 cumulative IPC: 0.832799 (Simulation time: 13 hr 40 min 25 sec) 
Heartbeat CPU 0 instructions: 1430000001 cycles: 1847306038 heartbeat IPC: 0.656155 cumulative IPC: 0.700932 (Simulation time: 13 hr 43 min 8 sec) 
Heartbeat CPU 1 instructions: 1320000000 cycles: 1847686057 heartbeat IPC: 0.548687 cumulative IPC: 0.628119 (Simulation time: 13 hr 43 min 18 sec) 
Heartbeat CPU 2 instructions: 1170000000 cycles: 1851306849 heartbeat IPC: 0.609875 cumulative IPC: 0.553941 (Simulation time: 13 hr 44 min 46 sec) 
Heartbeat CPU 3 instructions: 1700000000 cycles: 1852738946 heartbeat IPC: 0.831084 cumulative IPC: 0.832787 (Simulation time: 13 hr 45 min 21 sec) 
Heartbeat CPU 0 instructions: 1440000000 cycles: 1862635772 heartbeat IPC: 0.652327 cumulative IPC: 0.700509 (Simulation time: 13 hr 49 min 17 sec) 
Heartbeat CPU 3 instructions: 1710000000 cycles: 1864781146 heartbeat IPC: 0.830413 cumulative IPC: 0.832771 (Simulation time: 13 hr 50 min 6 sec) 
Heartbeat CPU 1 instructions: 1330000001 cycles: 1866840519 heartbeat IPC: 0.522072 cumulative IPC: 0.62697 (Simulation time: 13 hr 50 min 55 sec) 
Heartbeat CPU 2 instructions: 1180000000 cycles: 1872184784 heartbeat IPC: 0.478975 cumulative IPC: 0.553057 (Simulation time: 13 hr 52 min 59 sec) 
Heartbeat CPU 3 instructions: 1720000000 cycles: 1876875977 heartbeat IPC: 0.826799 cumulative IPC: 0.83273 (Simulation time: 13 hr 54 min 51 sec) 
Heartbeat CPU 0 instructions: 1450000000 cycles: 1877957921 heartbeat IPC: 0.65265 cumulative IPC: 0.700097 (Simulation time: 13 hr 55 min 17 sec) 
Heartbeat CPU 1 instructions: 1340000000 cycles: 1885303375 heartbeat IPC: 0.541628 cumulative IPC: 0.626087 (Simulation time: 13 hr 58 min 11 sec) 
Heartbeat CPU 2 instructions: 1190000000 cycles: 1887484433 heartbeat IPC: 0.65361 cumulative IPC: 0.553918 (Simulation time: 13 hr 59 min 2 sec) 
Heartbeat CPU 3 instructions: 1730000001 cycles: 1888962389 heartbeat IPC: 0.827375 cumulative IPC: 0.832694 (Simulation time: 13 hr 59 min 37 sec) 
Heartbeat CPU 0 instructions: 1460000000 cycles: 1893262390 heartbeat IPC: 0.653404 cumulative IPC: 0.699698 (Simulation time: 14 hr 1 min 19 sec) 
Heartbeat CPU 3 instructions: 1740000000 cycles: 1901111408 heartbeat IPC: 0.823112 cumulative IPC: 0.832629 (Simulation time: 14 hr 4 min 18 sec) 
Heartbeat CPU 1 instructions: 1350000000 cycles: 1904610512 heartbeat IPC: 0.517943 cumulative IPC: 0.62493 (Simulation time: 14 hr 5 min 45 sec) 
Heartbeat CPU 2 instructions: 1200000000 cycles: 1906780892 heartbeat IPC: 0.51823 cumulative IPC: 0.553537 (Simulation time: 14 hr 6 min 36 sec) 
Finished CPU 2 instructions: 1000000002 cycles: 1806564152 cumulative IPC: 0.553537 (Simulation time: 14 hr 6 min 36 sec) 

CPU 0 Branch Prediction Accuracy: 99.9505% MPKI: 0.0398517

CPU 1 Branch Prediction Accuracy: 97.9243% MPKI: 0.313882

CPU 2 Branch Prediction Accuracy: 99.8838% MPKI: 0.060741

CPU 3 Branch Prediction Accuracy: 99.9478% MPKI: 0.131119

ChampSim completed all CPUs

Total Simulation Statistics (not including warmup)

CPU 0 cumulative IPC: 0.699336 instructions: 1263395251 cycles: 1806564152
L1D TOTAL     ACCESS:  370631292  HIT:  360841973  MISS:    9789319
L1D LOAD      ACCESS:  265946172  HIT:  256702803  MISS:    9243369
L1D RFO       ACCESS:  104685120  HIT:  104139170  MISS:     545950
L1D PREFETCH  ACCESS:          0  HIT:          0  MISS:          0
L1D WRITEBACK ACCESS:          0  HIT:          0  MISS:          0
L1I TOTAL     ACCESS:  447529149  HIT:  447527709  MISS:       1440
L1I LOAD      ACCESS:  447529149  HIT:  447527709  MISS:       1440
L1I RFO       ACCESS:          0  HIT:          0  MISS:          0
L1I PREFETCH  ACCESS:          0  HIT:          0  MISS:          0
L1I WRITEBACK ACCESS:          0  HIT:          0  MISS:          0
L2C TOTAL     ACCESS:   16981169  HIT:   11085871  MISS:    5895298
L2C LOAD      ACCESS:    9244226  HIT:    8391939  MISS:     852287
L2C RFO       ACCESS:     545431  HIT:     382330  MISS:     163101
L2C PREFETCH  ACCESS:    4885688  HIT:       8337  MISS:    4877351
L2C WRITEBACK ACCESS:    2305824  HIT:    2303265  MISS:       2559

L2C Best-offset prefetcher final stats
LLC TOTAL     ACCESS:    6074519  HIT:     993834  MISS:    5080685
LLC LOAD      ACCESS:     223913  HIT:      39542  MISS:     184371
LLC RFO       ACCESS:     163100  HIT:      30617  MISS:     132483
LLC PREFETCH  ACCESS:    5509061  HIT:     863081  MISS:    4645980
LLC WRITEBACK ACCESS:     178445  HIT:      60594  MISS:     117851

CPU 1 cumulative IPC: 0.62483 instructions: 1128796009 cycles: 1806564152
L1D TOTAL     ACCESS:  303549736  HIT:  233230002  MISS:   70319734
L1D LOAD      ACCESS:  111573516  HIT:  100912087  MISS:   10661429
L1D RFO       ACCESS:  191976220  HIT:  132317915  MISS:   59658305
L1D PREFETCH  ACCESS:          0  HIT:          0  MISS:          0
L1D WRITEBACK ACCESS:          0  HIT:          0  MISS:          0
L1I TOTAL     ACCESS:  267468581  HIT:  267468578  MISS:          3
L1I LOAD      ACCESS:  267468581  HIT:  267468578  MISS:          3
L1I RFO       ACCESS:          0  HIT:          0  MISS:          0
L1I PREFETCH  ACCESS:          0  HIT:          0  MISS:          0
L1I WRITEBACK ACCESS:          0  HIT:          0  MISS:          0
L2C TOTAL     ACCESS:  138974627  HIT:   85774898  MISS:   53199729
L2C LOAD      ACCESS:   10661432  HIT:    8995081  MISS:    1666351
L2C RFO       ACCESS:   59658265  HIT:   17131434  MISS:   42526831
L2C PREFETCH  ACCESS:    8996621  HIT:        389  MISS:    8996232
L2C WRITEBACK ACCESS:   59658309  HIT:   59647994  MISS:      10315

L2C Best-offset prefetcher final stats
LLC TOTAL     ACCESS:   95810966  HIT:   53207325  MISS:   42603641
LLC LOAD      ACCESS:    1609416  HIT:     111595  MISS:    1497821
LLC RFO       ACCESS:   42506489  HIT:   10554883  MISS:   31951606
LLC PREFETCH  ACCESS:    9158502  HIT:       6035  MISS:    9152467
LLC WRITEBACK ACCESS:   42536559  HIT:   42534812  MISS:       1747

CPU 2 cumulative IPC: 0.553537 instructions: 1000000002 cycles: 1806564152
L1D TOTAL     ACCESS:  263241987  HIT:  234286986  MISS:   28955001
L1D LOAD      ACCESS:  244993911  HIT:  222564584  MISS:   22429327
L1D RFO       ACCESS:   18248076  HIT:   11722402  MISS:    6525674
L1D PREFETCH  ACCESS:          0  HIT:          0  MISS:          0
L1D WRITEBACK ACCESS:          0  HIT:          0  MISS:          0
L1I TOTAL     ACCESS:  251142702  HIT:  251142680  MISS:         22
L1I LOAD      ACCESS:  251142702  HIT:  251142680  MISS:         22
L1I RFO       ACCESS:          0  HIT:          0  MISS:          0
L1I PREFETCH  ACCESS:          0  HIT:          0  MISS:          0
L1I WRITEBACK ACCESS:          0  HIT:          0  MISS:          0
L2C TOTAL     ACCESS:   46040892  HIT:   23926849  MISS:   22114043
L2C LOAD      ACCESS:   22429178  HIT:   17357735  MISS:    5071443
L2C RFO       ACCESS:    6525674  HIT:          0  MISS:    6525674
L2C PREFETCH  ACCESS:   10519498  HIT:       2877  MISS:   10516621
L2C WRITEBACK ACCESS:    6566542  HIT:    6566237  MISS:        305

L2C Best-offset prefetcher final stats
LLC TOTAL     ACCESS:   29082906  HIT:    6854856  MISS:   22228050
LLC LOAD      ACCESS:    5064701  HIT:     327970  MISS:    4736731
LLC RFO       ACCESS:    6525674  HIT:          0  MISS:    6525674
LLC PREFETCH  ACCESS:   10966387  HIT:        966  MISS:   10965421
LLC WRITEBACK ACCESS:    6526144  HIT:    6525920  MISS:        224

CPU 3 cumulative IPC: 0.832639 instructions: 1504215987 cycles: 1806564153
L1D TOTAL     ACCESS:  321458699  HIT:  283434249  MISS:   38024450
L1D LOAD      ACCESS:  293678057  HIT:  255688394  MISS:   37989663
L1D RFO       ACCESS:   27780642  HIT:   27745855  MISS:      34787
L1D PREFETCH  ACCESS:          0  HIT:          0  MISS:          0
L1D WRITEBACK ACCESS:          0  HIT:          0  MISS:          0
L1I TOTAL     ACCESS:  524531766  HIT:  524531764  MISS:          2
L1I LOAD      ACCESS:  524531766  HIT:  524531764  MISS:          2
L1I RFO       ACCESS:          0  HIT:          0  MISS:          0
L1I PREFETCH  ACCESS:          0  HIT:          0  MISS:          0
L1I WRITEBACK ACCESS:          0  HIT:          0  MISS:          0
L2C TOTAL     ACCESS:   71144013  HIT:   33673500  MISS:   37470513
L2C LOAD      ACCESS:   37989665  HIT:   33401239  MISS:    4588426
L2C RFO       ACCESS:      34787  HIT:      14575  MISS:      20212
L2C PREFETCH  ACCESS:   33068938  HIT:     207072  MISS:   32861866
L2C WRITEBACK ACCESS:      50623  HIT:      50614  MISS:          9

L2C Best-offset prefetcher final stats
LLC TOTAL     ACCESS:   37522629  HIT:   37319233  MISS:     203396
LLC LOAD      ACCESS:    4513979  HIT:    4484655  MISS:      29324
LLC RFO       ACCESS:      20145  HIT:      13208  MISS:       6937
LLC PREFETCH  ACCESS:   32936693  HIT:   32773411  MISS:     163282
LLC WRITEBACK ACCESS:      51812  HIT:      47959  MISS:       3853

Region of Interest Statistics

CPU 0 cumulative IPC: 0.712295 instructions: 1000000000 cycles: 1403912505
L1D TOTAL     ACCESS:  295231481  HIT:  286012599  MISS:    9218882
L1D LOAD      ACCESS:  218580718  HIT:  209751682  MISS:    8829036
L1D RFO       ACCESS:   76650763  HIT:   76260917  MISS:     389846
L1D PREFETCH  ACCESS:          0  HIT:          0  MISS:          0
L1D WRITEBACK ACCESS:          0  HIT:          0  MISS:          0
L1D PREFETCH  REQUESTED:          0  ISSUED:          0  USEFUL:          0  USELESS:          0
L1I TOTAL     ACCESS:  340947695  HIT:  340946255  MISS:       1440
L1I LOAD      ACCESS:  340947695  HIT:  340946255  MISS:       1440
L1I RFO       ACCESS:          0  HIT:          0  MISS:          0
L1I PREFETCH  ACCESS:          0  HIT:          0  MISS:          0
L1I WRITEBACK ACCESS:          0  HIT:          0  MISS:          0
L1I PREFETCH  REQUESTED:          0  ISSUED:          0  USEFUL:          0  USELESS:          0
L2C TOTAL     ACCESS:   16154565  HIT:   10349097  MISS:    5805468
L2C LOAD      ACCESS:    8829893  HIT:    7982276  MISS:     847617
L2C RFO       ACCESS:     389515  HIT:     262340  MISS:     127175
L2C PREFETCH  ACCESS:    4834980  HIT:       6796  MISS:    4828184
L2C WRITEBACK ACCESS:    2100177  HIT:    2097685  MISS:       2492
L2C PREFETCH  REQUESTED:    8106582  ISSUED:    8106582  USEFUL:    7308541  USELESS:     139304
LLC TOTAL     ACCESS:    5943216  HIT:     973998  MISS:    4969218
LLC LOAD      ACCESS:     219260  HIT:      38622  MISS:     180638
LLC RFO       ACCESS:     127174  HIT:      21583  MISS:     105591
LLC PREFETCH  ACCESS:    5459858  HIT:     858373  MISS:    4601485
LLC WRITEBACK ACCESS:     136924  HIT:      55420  MISS:      81504
LLC PREFETCH  REQUESTED:          0  ISSUED:          0  USEFUL:     497457  USELESS:   33444935
Major fault: 0 Minor fault: 210652

CPU 1 cumulative IPC: 0.642588 instructions: 1000000001 cycles: 1556205920
L1D TOTAL     ACCESS:  267504875  HIT:  207341666  MISS:   60163209
L1D LOAD      ACCESS:   99106808  HIT:   89985641  MISS:    9121167
L1D RFO       ACCESS:  168398067  HIT:  117356025  MISS:   51042042
L1D PREFETCH  ACCESS:          0  HIT:          0  MISS:          0
L1D WRITEBACK ACCESS:          0  HIT:          0  MISS:          0
L1D PREFETCH  REQUESTED:          0  ISSUED:          0  USEFUL:          0  USELESS:          0
L1I TOTAL     ACCESS:  236671298  HIT:  236671295  MISS:          3
L1I LOAD      ACCESS:  236671298  HIT:  236671295  MISS:          3
L1I RFO       ACCESS:          0  HIT:          0  MISS:          0
L1I PREFETCH  ACCESS:          0  HIT:          0  MISS:          0
L1I WRITEBACK ACCESS:          0  HIT:          0  MISS:          0
L1I PREFETCH  REQUESTED:          0  ISSUED:          0  USEFUL:          0  USELESS:          0
L2C TOTAL     ACCESS:  118909498  HIT:   73488358  MISS:   45421140
L2C LOAD      ACCESS:    9121170  HIT:    7702840  MISS:    1418330
L2C RFO       ACCESS:   51042007  HIT:   14751518  MISS:   36290489
L2C PREFETCH  ACCESS:    7704274  HIT:        322  MISS:    7703952
L2C WRITEBACK ACCESS:   51042047  HIT:   51033678  MISS:       8369
L2C PREFETCH  REQUESTED:   10750352  ISSUED:   10750352  USEFUL:   10456008  USELESS:       6344
LLC TOTAL     ACCESS:   81779482  HIT:   45328026  MISS:   36451456
LLC LOAD      ACCESS:    1372104  HIT:      90574  MISS:    1281530
LLC RFO       ACCESS:   36273191  HIT:    8935471  MISS:   27337720
LLC PREFETCH  ACCESS:    7835676  HIT:       4890  MISS:    7830786
LLC WRITEBACK ACCESS:   36298511  HIT:   36297091  MISS:       1420
LLC PREFETCH  REQUESTED:          0  ISSUED:          0  USEFUL:     497457  USELESS:   33444935
Major fault: 0 Minor fault: 392413

CPU 2 cumulative IPC: 0.553537 instructions: 1000000002 cycles: 1806564152
L1D TOTAL     ACCESS:  263241987  HIT:  234286986  MISS:   28955001
L1D LOAD      ACCESS:  244993911  HIT:  222564584  MISS:   22429327
L1D RFO       ACCESS:   18248076  HIT:   11722402  MISS:    6525674
L1D PREFETCH  ACCESS:          0  HIT:          0  MISS:          0
L1D WRITEBACK ACCESS:          0  HIT:          0  MISS:          0
L1D PREFETCH  REQUESTED:          0  ISSUED:          0  USEFUL:          0  USELESS:          0
L1I TOTAL     ACCESS:  251142702  HIT:  251142680  MISS:         22
L1I LOAD      ACCESS:  251142702  HIT:  251142680  MISS:         22
L1I RFO       ACCESS:          0  HIT:          0  MISS:          0
L1I PREFETCH  ACCESS:          0  HIT:          0  MISS:          0
L1I WRITEBACK ACCESS:          0  HIT:          0  MISS:          0
L1I PREFETCH  REQUESTED:          0  ISSUED:          0  USEFUL:          0  USELESS:          0
L2C TOTAL     ACCESS:   46040892  HIT:   23926849  MISS:   22114043
L2C LOAD      ACCESS:   22429178  HIT:   17357735  MISS:    5071443
L2C RFO       ACCESS:    6525674  HIT:          0  MISS:    6525674
L2C PREFETCH  ACCESS:   10519498  HIT:       2877  MISS:   10516621
L2C WRITEBACK ACCESS:    6566542  HIT:    6566237  MISS:        305
L2C PREFETCH  REQUESTED:   13695820  ISSUED:   13695820  USEFUL:   11844896  USELESS:    1396217
LLC TOTAL     ACCESS:   29082906  HIT:    6854856  MISS:   22228050
LLC LOAD      ACCESS:    5064701  HIT:     327970  MISS:    4736731
LLC RFO       ACCESS:    6525674  HIT:          0  MISS:    6525674
LLC PREFETCH  ACCESS:   10966387  HIT:        966  MISS:   10965421
LLC WRITEBACK ACCESS:    6526144  HIT:    6525920  MISS:        224
LLC PREFETCH  REQUESTED:          0  ISSUED:          0  USEFUL:     497457  USELESS:   33444935
Major fault: 0 Minor fault: 196339

CPU 3 cumulative IPC: 0.833394 instructions: 1000000001 cycles: 1199913357
L1D TOTAL     ACCESS:  214102595  HIT:  188730060  MISS:   25372535
L1D LOAD      ACCESS:  195517461  HIT:  170172176  MISS:   25345285
L1D RFO       ACCESS:   18585134  HIT:   18557884  MISS:      27250
L1D PREFETCH  ACCESS:          0  HIT:          0  MISS:          0
L1D WRITEBACK ACCESS:          0  HIT:          0  MISS:          0
L1D PREFETCH  REQUESTED:          0  ISSUED:          0  USEFUL:          0  USELESS:          0
L1I TOTAL     ACCESS:  347394976  HIT:  347394974  MISS:          2
L1I LOAD      ACCESS:  347394976  HIT:  347394974  MISS:          2
L1I RFO       ACCESS:          0  HIT:          0  MISS:          0
L1I PREFETCH  ACCESS:          0  HIT:          0  MISS:          0
L1I WRITEBACK ACCESS:          0  HIT:          0  MISS:          0
L1I PREFETCH  REQUESTED:          0  ISSUED:          0  USEFUL:          0  USELESS:          0
L2C TOTAL     ACCESS:   47173422  HIT:   22490549  MISS:   24682873
L2C LOAD      ACCESS:   25345287  HIT:   22273695  MISS:    3071592
L2C RFO       ACCESS:      27250  HIT:      11420  MISS:      15830
L2C PREFETCH  ACCESS:   21761080  HIT:     165635  MISS:   21595445
L2C WRITEBACK ACCESS:      39805  HIT:      39799  MISS:          6
L2C PREFETCH  REQUESTED:   36886547  ISSUED:   36886547  USEFUL:   35922425  USELESS:     663593
LLC TOTAL     ACCESS:   24724095  HIT:   24612628  MISS:     111467
LLC LOAD      ACCESS:    3026558  HIT:    3006664  MISS:      19894
LLC RFO       ACCESS:      15788  HIT:      10452  MISS:       5336
LLC PREFETCH  ACCESS:   21640751  HIT:   21558364  MISS:      82387
LLC WRITEBACK ACCESS:      40998  HIT:      37148  MISS:       3850
LLC PREFETCH  REQUESTED:          0  ISSUED:          0  USEFUL:     497457  USELESS:   33444935
Major fault: 0 Minor fault: 4574

L2C Best-offset prefetcher final stats

L2C Best-offset prefetcher final stats

L2C Best-offset prefetcher final stats

L2C Best-offset prefetcher final stats

DRAM Statistics
 CHANNEL 0
 RQ ROW_BUFFER_HIT:   11055607  ROW_BUFFER_MISS:   23921164
 DBUS_CONGESTED:   71273144
 WQ ROW_BUFFER_HIT:    2090902  ROW_BUFFER_MISS:   17234097  FULL:          0

 CHANNEL 1
 RQ ROW_BUFFER_HIT:   10963406  ROW_BUFFER_MISS:   24051878
 DBUS_CONGESTED:   71273144
 WQ ROW_BUFFER_HIT:    2118806  ROW_BUFFER_MISS:   17205743  FULL:          0

 AVG_CONGESTED_CYCLE: 13
