
*** ChampSim Multicore Out-of-Order Simulator ***

Warmup Instructions: 200000000
Simulation Instructions: 1000000000
Number of CPUs: 4
LLC sets: 8192
LLC ways: 16
Off-chip DRAM Size: 8192 MB Channels: 2 Width: 64-bit Data Rate: 1600 MT/s

CPU 0 runs /scratch/user/djimenez/champsim-traces/speccpu2017/xz/605.mcf_s/605.mcf_s-782B.champsimtrace.xz
CPU 1 runs /scratch/user/djimenez/champsim-traces/speccpu2017/xz/602.gcc_s/602.gcc_s-2226B.champsimtrace.xz
CPU 2 runs /scratch/user/djimenez/champsim-traces/speccpu2017/xz/657.xz_s/657.xz_s-2302B.champsimtrace.xz
CPU 3 runs /scratch/user/djimenez/champsim-traces/speccpu2017/xz/654.roms_s/654.roms_s-1007B.champsimtrace.xz
L2C Best-offset prefetcher
L2C Best-offset prefetcher
L2C Best-offset prefetcher
L2C Best-offset prefetcher
Heartbeat CPU 2 instructions: 10000002 cycles: 4459078 heartbeat IPC: 2.24262 cumulative IPC: 2.24262 (Simulation time: 0 hr 1 min 35 sec) 
Heartbeat CPU 1 instructions: 10000000 cycles: 4874059 heartbeat IPC: 2.05168 cumulative IPC: 2.05168 (Simulation time: 0 hr 1 min 44 sec) 
Heartbeat CPU 3 instructions: 10000002 cycles: 5109109 heartbeat IPC: 1.95729 cumulative IPC: 1.95729 (Simulation time: 0 hr 1 min 49 sec) 
Heartbeat CPU 0 instructions: 10000001 cycles: 6202594 heartbeat IPC: 1.61223 cumulative IPC: 1.61223 (Simulation time: 0 hr 2 min 13 sec) 
Heartbeat CPU 2 instructions: 20000000 cycles: 8886406 heartbeat IPC: 2.2587 cumulative IPC: 2.25063 (Simulation time: 0 hr 3 min 10 sec) 
Heartbeat CPU 1 instructions: 20000000 cycles: 9746347 heartbeat IPC: 2.05242 cumulative IPC: 2.05205 (Simulation time: 0 hr 3 min 29 sec) 
Heartbeat CPU 3 instructions: 20000000 cycles: 10217933 heartbeat IPC: 1.9574 cumulative IPC: 1.95734 (Simulation time: 0 hr 3 min 39 sec) 
Heartbeat CPU 0 instructions: 20000000 cycles: 12324063 heartbeat IPC: 1.63359 cumulative IPC: 1.62284 (Simulation time: 0 hr 4 min 24 sec) 
Heartbeat CPU 2 instructions: 30000003 cycles: 13406592 heartbeat IPC: 2.2123 cumulative IPC: 2.23771 (Simulation time: 0 hr 4 min 48 sec) 
Heartbeat CPU 1 instructions: 30000000 cycles: 14610193 heartbeat IPC: 2.05599 cumulative IPC: 2.05336 (Simulation time: 0 hr 5 min 13 sec) 
Heartbeat CPU 3 instructions: 30000000 cycles: 15326882 heartbeat IPC: 1.95735 cumulative IPC: 1.95735 (Simulation time: 0 hr 5 min 29 sec) 
Heartbeat CPU 2 instructions: 40000000 cycles: 17896951 heartbeat IPC: 2.22699 cumulative IPC: 2.23502 (Simulation time: 0 hr 6 min 24 sec) 
Heartbeat CPU 0 instructions: 30000000 cycles: 18585728 heartbeat IPC: 1.59702 cumulative IPC: 1.61414 (Simulation time: 0 hr 6 min 38 sec) 
Heartbeat CPU 1 instructions: 40000000 cycles: 19474474 heartbeat IPC: 2.0558 cumulative IPC: 2.05397 (Simulation time: 0 hr 7 min 1 sec) 
Heartbeat CPU 3 instructions: 40000000 cycles: 20435899 heartbeat IPC: 1.95732 cumulative IPC: 1.95734 (Simulation time: 0 hr 7 min 23 sec) 
Heartbeat CPU 2 instructions: 50000003 cycles: 22425963 heartbeat IPC: 2.20799 cumulative IPC: 2.22956 (Simulation time: 0 hr 8 min 7 sec) 
Heartbeat CPU 1 instructions: 50000003 cycles: 24353096 heartbeat IPC: 2.04976 cumulative IPC: 2.05313 (Simulation time: 0 hr 8 min 56 sec) 
Heartbeat CPU 0 instructions: 40000000 cycles: 24807735 heartbeat IPC: 1.6072 cumulative IPC: 1.6124 (Simulation time: 0 hr 9 min 5 sec) 
Heartbeat CPU 3 instructions: 50000003 cycles: 25393641 heartbeat IPC: 2.01705 cumulative IPC: 1.969 (Simulation time: 0 hr 9 min 18 sec) 
Heartbeat CPU 2 instructions: 60000000 cycles: 26885450 heartbeat IPC: 2.24241 cumulative IPC: 2.23169 (Simulation time: 0 hr 9 min 51 sec) 
Heartbeat CPU 1 instructions: 60000000 cycles: 29224997 heartbeat IPC: 2.05259 cumulative IPC: 2.05304 (Simulation time: 0 hr 10 min 42 sec) 
Heartbeat CPU 3 instructions: 60000000 cycles: 30211634 heartbeat IPC: 2.07555 cumulative IPC: 1.98599 (Simulation time: 0 hr 11 min 4 sec) 
Heartbeat CPU 0 instructions: 50000000 cycles: 31011480 heartbeat IPC: 1.61193 cumulative IPC: 1.61231 (Simulation time: 0 hr 11 min 21 sec) 
Heartbeat CPU 2 instructions: 70000002 cycles: 31299822 heartbeat IPC: 2.26533 cumulative IPC: 2.23643 (Simulation time: 0 hr 11 min 28 sec) 
Heartbeat CPU 1 instructions: 70000000 cycles: 34091420 heartbeat IPC: 2.0549 cumulative IPC: 2.0533 (Simulation time: 0 hr 12 min 38 sec) 
Heartbeat CPU 3 instructions: 70000003 cycles: 35319990 heartbeat IPC: 1.95758 cumulative IPC: 1.98188 (Simulation time: 0 hr 13 min 5 sec) 
Heartbeat CPU 2 instructions: 80000000 cycles: 35722976 heartbeat IPC: 2.26083 cumulative IPC: 2.23945 (Simulation time: 0 hr 13 min 15 sec) 
Heartbeat CPU 0 instructions: 60000000 cycles: 37179023 heartbeat IPC: 1.62139 cumulative IPC: 1.61381 (Simulation time: 0 hr 13 min 46 sec) 
Heartbeat CPU 1 instructions: 80000000 cycles: 38962217 heartbeat IPC: 2.05305 cumulative IPC: 2.05327 (Simulation time: 0 hr 14 min 25 sec) 
Heartbeat CPU 2 instructions: 90000000 cycles: 40174566 heartbeat IPC: 2.24639 cumulative IPC: 2.24022 (Simulation time: 0 hr 14 min 51 sec) 
Heartbeat CPU 3 instructions: 80000000 cycles: 40428930 heartbeat IPC: 1.95735 cumulative IPC: 1.97878 (Simulation time: 0 hr 14 min 56 sec) 
Heartbeat CPU 0 instructions: 70000001 cycles: 43357698 heartbeat IPC: 1.61847 cumulative IPC: 1.61448 (Simulation time: 0 hr 15 min 59 sec) 
Heartbeat CPU 1 instructions: 90000000 cycles: 43831948 heartbeat IPC: 2.0535 cumulative IPC: 2.0533 (Simulation time: 0 hr 16 min 9 sec) 
Heartbeat CPU 2 instructions: 100000000 cycles: 44579240 heartbeat IPC: 2.27032 cumulative IPC: 2.2432 (Simulation time: 0 hr 16 min 25 sec) 
Heartbeat CPU 3 instructions: 90000003 cycles: 45537903 heartbeat IPC: 1.95734 cumulative IPC: 1.97638 (Simulation time: 0 hr 16 min 46 sec) 
Heartbeat CPU 1 instructions: 100000000 cycles: 48698369 heartbeat IPC: 2.0549 cumulative IPC: 2.05346 (Simulation time: 0 hr 17 min 54 sec) 
Heartbeat CPU 2 instructions: 110000003 cycles: 48934297 heartbeat IPC: 2.29618 cumulative IPC: 2.24791 (Simulation time: 0 hr 17 min 59 sec) 
Heartbeat CPU 0 instructions: 80000000 cycles: 49538116 heartbeat IPC: 1.61801 cumulative IPC: 1.61492 (Simulation time: 0 hr 18 min 12 sec) 
Heartbeat CPU 3 instructions: 100000000 cycles: 50646735 heartbeat IPC: 1.95739 cumulative IPC: 1.97446 (Simulation time: 0 hr 18 min 39 sec) 
Heartbeat CPU 2 instructions: 120000000 cycles: 53400724 heartbeat IPC: 2.23893 cumulative IPC: 2.24716 (Simulation time: 0 hr 19 min 41 sec) 
Heartbeat CPU 1 instructions: 110000001 cycles: 53563397 heartbeat IPC: 2.05549 cumulative IPC: 2.05364 (Simulation time: 0 hr 19 min 45 sec) 
Heartbeat CPU 3 instructions: 110000002 cycles: 55755704 heartbeat IPC: 1.95734 cumulative IPC: 1.97289 (Simulation time: 0 hr 20 min 32 sec) 
Heartbeat CPU 0 instructions: 90000003 cycles: 55809820 heartbeat IPC: 1.59446 cumulative IPC: 1.61262 (Simulation time: 0 hr 20 min 33 sec) 
Heartbeat CPU 2 instructions: 130000000 cycles: 57621707 heartbeat IPC: 2.36912 cumulative IPC: 2.25609 (Simulation time: 0 hr 21 min 12 sec) 
Heartbeat CPU 1 instructions: 120000000 cycles: 58450955 heartbeat IPC: 2.04601 cumulative IPC: 2.053 (Simulation time: 0 hr 21 min 29 sec) 
Heartbeat CPU 3 instructions: 120000000 cycles: 60799598 heartbeat IPC: 1.98259 cumulative IPC: 1.9737 (Simulation time: 0 hr 22 min 22 sec) 
Heartbeat CPU 2 instructions: 140000000 cycles: 61794773 heartbeat IPC: 2.39632 cumulative IPC: 2.26556 (Simulation time: 0 hr 22 min 46 sec) 
Heartbeat CPU 0 instructions: 100000000 cycles: 62091716 heartbeat IPC: 1.59188 cumulative IPC: 1.61052 (Simulation time: 0 hr 22 min 52 sec) 
Heartbeat CPU 1 instructions: 130000000 cycles: 63322492 heartbeat IPC: 2.05274 cumulative IPC: 2.05298 (Simulation time: 0 hr 23 min 24 sec) 
Heartbeat CPU 3 instructions: 130000003 cycles: 65517624 heartbeat IPC: 2.11953 cumulative IPC: 1.9842 (Simulation time: 0 hr 24 min 14 sec) 
Heartbeat CPU 2 instructions: 150000000 cycles: 66026804 heartbeat IPC: 2.36293 cumulative IPC: 2.2718 (Simulation time: 0 hr 24 min 25 sec) 
Heartbeat CPU 1 instructions: 140000000 cycles: 68188548 heartbeat IPC: 2.05505 cumulative IPC: 2.05313 (Simulation time: 0 hr 25 min 21 sec) 
Heartbeat CPU 0 instructions: 110000002 cycles: 68409872 heartbeat IPC: 1.58274 cumulative IPC: 1.60796 (Simulation time: 0 hr 25 min 26 sec) 
Heartbeat CPU 2 instructions: 160000000 cycles: 70393026 heartbeat IPC: 2.29031 cumulative IPC: 2.27295 (Simulation time: 0 hr 26 min 10 sec) 
Heartbeat CPU 3 instructions: 140000000 cycles: 70626265 heartbeat IPC: 1.95747 cumulative IPC: 1.98227 (Simulation time: 0 hr 26 min 16 sec) 
Heartbeat CPU 1 instructions: 150000000 cycles: 73053408 heartbeat IPC: 2.05556 cumulative IPC: 2.05329 (Simulation time: 0 hr 27 min 22 sec) 
Heartbeat CPU 0 instructions: 120000000 cycles: 74695615 heartbeat IPC: 1.5909 cumulative IPC: 1.60652 (Simulation time: 0 hr 28 min 3 sec) 
Heartbeat CPU 2 instructions: 170000003 cycles: 74947586 heartbeat IPC: 2.1956 cumulative IPC: 2.26825 (Simulation time: 0 hr 28 min 9 sec) 
Heartbeat CPU 3 instructions: 150000000 cycles: 75735205 heartbeat IPC: 1.95735 cumulative IPC: 1.98058 (Simulation time: 0 hr 28 min 27 sec) 
Heartbeat CPU 1 instructions: 160000000 cycles: 77928273 heartbeat IPC: 2.05134 cumulative IPC: 2.05317 (Simulation time: 0 hr 29 min 18 sec) 
Heartbeat CPU 2 instructions: 180000000 cycles: 79483587 heartbeat IPC: 2.20458 cumulative IPC: 2.26462 (Simulation time: 0 hr 29 min 54 sec) 
Heartbeat CPU 3 instructions: 160000000 cycles: 80844158 heartbeat IPC: 1.95735 cumulative IPC: 1.97912 (Simulation time: 0 hr 30 min 24 sec) 
Heartbeat CPU 0 instructions: 130000000 cycles: 80878644 heartbeat IPC: 1.61733 cumulative IPC: 1.60735 (Simulation time: 0 hr 30 min 25 sec) 
Heartbeat CPU 1 instructions: 170000000 cycles: 82799030 heartbeat IPC: 2.05307 cumulative IPC: 2.05316 (Simulation time: 0 hr 31 min 9 sec) 
Heartbeat CPU 2 instructions: 190000001 cycles: 84027360 heartbeat IPC: 2.20081 cumulative IPC: 2.26117 (Simulation time: 0 hr 31 min 35 sec) 
Heartbeat CPU 3 instructions: 170000000 cycles: 85953000 heartbeat IPC: 1.95739 cumulative IPC: 1.97783 (Simulation time: 0 hr 32 min 17 sec) 
Heartbeat CPU 0 instructions: 140000000 cycles: 87043420 heartbeat IPC: 1.62212 cumulative IPC: 1.60839 (Simulation time: 0 hr 32 min 41 sec) 
Heartbeat CPU 1 instructions: 180000000 cycles: 87661437 heartbeat IPC: 2.05659 cumulative IPC: 2.05335 (Simulation time: 0 hr 32 min 54 sec) 
Heartbeat CPU 2 instructions: 200000000 cycles: 88569951 heartbeat IPC: 2.20139 cumulative IPC: 2.2581 (Simulation time: 0 hr 33 min 14 sec) 
Heartbeat CPU 3 instructions: 180000000 cycles: 91061897 heartbeat IPC: 1.95737 cumulative IPC: 1.97668 (Simulation time: 0 hr 34 min 8 sec) 
Heartbeat CPU 1 instructions: 190000001 cycles: 92547857 heartbeat IPC: 2.04649 cumulative IPC: 2.05299 (Simulation time: 0 hr 34 min 40 sec) 
Heartbeat CPU 2 instructions: 210000000 cycles: 93103220 heartbeat IPC: 2.20591 cumulative IPC: 0.107408 (Simulation time: 0 hr 34 min 52 sec) 
Heartbeat CPU 0 instructions: 150000003 cycles: 93215824 heartbeat IPC: 1.62011 cumulative IPC: 1.60917 (Simulation time: 0 hr 34 min 55 sec) 
Heartbeat CPU 3 instructions: 190000000 cycles: 96170875 heartbeat IPC: 1.95734 cumulative IPC: 1.97565 (Simulation time: 0 hr 35 min 59 sec) 
Heartbeat CPU 1 instructions: 200000000 cycles: 97419149 heartbeat IPC: 2.05284 cumulative IPC: 2.05298 (Simulation time: 0 hr 36 min 26 sec) 
Heartbeat CPU 2 instructions: 220000000 cycles: 97654628 heartbeat IPC: 2.19712 cumulative IPC: 0.204803 (Simulation time: 0 hr 36 min 31 sec) 
Heartbeat CPU 0 instructions: 160000000 cycles: 99444212 heartbeat IPC: 1.60555 cumulative IPC: 1.60894 (Simulation time: 0 hr 37 min 10 sec) 
Heartbeat CPU 3 instructions: 200000000 cycles: 101041367 heartbeat IPC: 2.05318 cumulative IPC: 1.97939 (Simulation time: 0 hr 37 min 45 sec) 
Heartbeat CPU 2 instructions: 230000001 cycles: 102214847 heartbeat IPC: 2.19288 cumulative IPC: 0.293499 (Simulation time: 0 hr 38 min 11 sec) 
Heartbeat CPU 1 instructions: 210000002 cycles: 102287295 heartbeat IPC: 2.05417 cumulative IPC: 0.0977639 (Simulation time: 0 hr 38 min 13 sec) 
Heartbeat CPU 0 instructions: 170000000 cycles: 105653604 heartbeat IPC: 1.61046 cumulative IPC: 1.60903 (Simulation time: 0 hr 39 min 26 sec) 
Heartbeat CPU 3 instructions: 210000000 cycles: 105924330 heartbeat IPC: 2.04794 cumulative IPC: 0.094407 (Simulation time: 0 hr 39 min 31 sec) 
Heartbeat CPU 2 instructions: 240000000 cycles: 106781087 heartbeat IPC: 2.18999 cumulative IPC: 0.374598 (Simulation time: 0 hr 39 min 50 sec) 
Heartbeat CPU 1 instructions: 220000000 cycles: 107149840 heartbeat IPC: 2.05654 cumulative IPC: 0.186655 (Simulation time: 0 hr 39 min 58 sec) 
Heartbeat CPU 3 instructions: 220000000 cycles: 111033158 heartbeat IPC: 1.9574 cumulative IPC: 0.180126 (Simulation time: 0 hr 41 min 22 sec) 
Heartbeat CPU 2 instructions: 250000002 cycles: 111329344 heartbeat IPC: 2.19864 cumulative IPC: 0.449118 (Simulation time: 0 hr 41 min 28 sec) 
Heartbeat CPU 0 instructions: 180000000 cycles: 111848246 heartbeat IPC: 1.6143 cumulative IPC: 1.60932 (Simulation time: 0 hr 41 min 40 sec) 
Heartbeat CPU 1 instructions: 230000000 cycles: 112022981 heartbeat IPC: 2.05206 cumulative IPC: 0.267802 (Simulation time: 0 hr 41 min 43 sec) 
Heartbeat CPU 2 instructions: 260000000 cycles: 115873261 heartbeat IPC: 2.20074 cumulative IPC: 0.517807 (Simulation time: 0 hr 43 min 6 sec) 
Heartbeat CPU 3 instructions: 230000003 cycles: 116142144 heartbeat IPC: 1.95734 cumulative IPC: 0.258304 (Simulation time: 0 hr 43 min 12 sec) 
Heartbeat CPU 1 instructions: 240000000 cycles: 116892708 heartbeat IPC: 2.0535 cumulative IPC: 0.342194 (Simulation time: 0 hr 43 min 28 sec) 
Heartbeat CPU 0 instructions: 190000002 cycles: 118125091 heartbeat IPC: 1.59316 cumulative IPC: 1.60846 (Simulation time: 0 hr 43 min 55 sec) 
Heartbeat CPU 2 instructions: 270000003 cycles: 120433459 heartbeat IPC: 2.19289 cumulative IPC: 0.581234 (Simulation time: 0 hr 44 min 44 sec) 
Heartbeat CPU 3 instructions: 240000000 cycles: 121251092 heartbeat IPC: 1.95735 cumulative IPC: 0.329894 (Simulation time: 0 hr 45 min 2 sec) 
Heartbeat CPU 1 instructions: 250000003 cycles: 121759751 heartbeat IPC: 2.05464 cumulative IPC: 0.410645 (Simulation time: 0 hr 45 min 13 sec) 
Heartbeat CPU 0 instructions: 200000000 cycles: 124421327 heartbeat IPC: 1.58825 cumulative IPC: 1.60744 (Simulation time: 0 hr 46 min 9 sec) 

Warmup complete CPU 0 instructions: 200000001 cycles: 124421328 (Simulation time: 0 hr 46 min 9 sec) 
Warmup complete CPU 1 instructions: 255471450 cycles: 124421327 (Simulation time: 0 hr 46 min 9 sec) 
Warmup complete CPU 2 instructions: 278725151 cycles: 124421327 (Simulation time: 0 hr 46 min 9 sec) 
Warmup complete CPU 3 instructions: 246205410 cycles: 124421327 (Simulation time: 0 hr 46 min 9 sec) 

Heartbeat CPU 2 instructions: 280000000 cycles: 126189784 heartbeat IPC: 1.73722 cumulative IPC: 0.720882 (Simulation time: 0 hr 46 min 29 sec) 
Heartbeat CPU 3 instructions: 250000001 cycles: 130920447 heartbeat IPC: 1.0342 cumulative IPC: 0.583862 (Simulation time: 0 hr 47 min 13 sec) 
Heartbeat CPU 2 instructions: 290000000 cycles: 140018512 heartbeat IPC: 0.723132 cumulative IPC: 0.722877 (Simulation time: 0 hr 48 min 26 sec) 
Heartbeat CPU 1 instructions: 260000000 cycles: 144872845 heartbeat IPC: 0.432655 cumulative IPC: 0.221429 (Simulation time: 0 hr 49 min 8 sec) 
Heartbeat CPU 3 instructions: 260000000 cycles: 148031546 heartbeat IPC: 0.584416 cumulative IPC: 0.584264 (Simulation time: 0 hr 49 min 32 sec) 
Heartbeat CPU 2 instructions: 300000000 cycles: 154298495 heartbeat IPC: 0.700281 cumulative IPC: 0.712077 (Simulation time: 0 hr 50 min 32 sec) 
Heartbeat CPU 3 instructions: 270000002 cycles: 162716754 heartbeat IPC: 0.680957 cumulative IPC: 0.621343 (Simulation time: 0 hr 51 min 37 sec) 
Heartbeat CPU 2 instructions: 310000001 cycles: 168627406 heartbeat IPC: 0.69789 cumulative IPC: 0.707478 (Simulation time: 0 hr 52 min 21 sec) 
Heartbeat CPU 3 instructions: 280000000 cycles: 178642934 heartbeat IPC: 0.627897 cumulative IPC: 0.623268 (Simulation time: 0 hr 53 min 41 sec) 
Heartbeat CPU 2 instructions: 320000000 cycles: 180734699 heartbeat IPC: 0.825948 cumulative IPC: 0.732949 (Simulation time: 0 hr 53 min 58 sec) 
Heartbeat CPU 0 instructions: 210000002 cycles: 181667911 heartbeat IPC: 0.174683 cumulative IPC: 0.174683 (Simulation time: 0 hr 54 min 6 sec) 
Heartbeat CPU 1 instructions: 270000000 cycles: 189857718 heartbeat IPC: 0.222297 cumulative IPC: 0.222026 (Simulation time: 0 hr 55 min 16 sec) 
Heartbeat CPU 2 instructions: 330000001 cycles: 191635409 heartbeat IPC: 0.917372 cumulative IPC: 0.762859 (Simulation time: 0 hr 55 min 31 sec) 
Heartbeat CPU 3 instructions: 290000000 cycles: 195807478 heartbeat IPC: 0.582596 cumulative IPC: 0.613489 (Simulation time: 0 hr 56 min 3 sec) 
Heartbeat CPU 2 instructions: 340000000 cycles: 204918679 heartbeat IPC: 0.752827 cumulative IPC: 0.761203 (Simulation time: 0 hr 57 min 11 sec) 
Heartbeat CPU 3 instructions: 300000000 cycles: 212947533 heartbeat IPC: 0.583429 cumulative IPC: 0.607669 (Simulation time: 0 hr 58 min 18 sec) 
Heartbeat CPU 2 instructions: 350000000 cycles: 216673249 heartbeat IPC: 0.850733 cumulative IPC: 0.772611 (Simulation time: 0 hr 58 min 45 sec) 
Heartbeat CPU 2 instructions: 360000000 cycles: 230055973 heartbeat IPC: 0.747232 cumulative IPC: 0.769396 (Simulation time: 1 hr 0 min 22 sec) 
Heartbeat CPU 3 instructions: 310000000 cycles: 230108817 heartbeat IPC: 0.582707 cumulative IPC: 0.603615 (Simulation time: 1 hr 0 min 23 sec) 
Heartbeat CPU 1 instructions: 280000000 cycles: 232524912 heartbeat IPC: 0.234372 cumulative IPC: 0.226899 (Simulation time: 1 hr 0 min 40 sec) 
Heartbeat CPU 0 instructions: 220000000 cycles: 234700321 heartbeat IPC: 0.188564 cumulative IPC: 0.181358 (Simulation time: 1 hr 0 min 56 sec) 
Heartbeat CPU 2 instructions: 370000000 cycles: 241605670 heartbeat IPC: 0.865824 cumulative IPC: 0.7789 (Simulation time: 1 hr 1 min 48 sec) 
Heartbeat CPU 3 instructions: 320000000 cycles: 247232921 heartbeat IPC: 0.583972 cumulative IPC: 0.600876 (Simulation time: 1 hr 2 min 30 sec) 
Heartbeat CPU 2 instructions: 380000000 cycles: 252611671 heartbeat IPC: 0.908595 cumulative IPC: 0.790035 (Simulation time: 1 hr 3 min 11 sec) 
Heartbeat CPU 2 instructions: 390000002 cycles: 263696834 heartbeat IPC: 0.902107 cumulative IPC: 0.798955 (Simulation time: 1 hr 4 min 34 sec) 
Heartbeat CPU 3 instructions: 330000001 cycles: 264395255 heartbeat IPC: 0.582671 cumulative IPC: 0.598644 (Simulation time: 1 hr 4 min 39 sec) 
Heartbeat CPU 1 instructions: 290000002 cycles: 273089706 heartbeat IPC: 0.246519 cumulative IPC: 0.232252 (Simulation time: 1 hr 5 min 44 sec) 
Heartbeat CPU 2 instructions: 400000000 cycles: 274527294 heartbeat IPC: 0.923322 cumulative IPC: 0.807928 (Simulation time: 1 hr 5 min 55 sec) 
Heartbeat CPU 3 instructions: 340000000 cycles: 280706980 heartbeat IPC: 0.613056 cumulative IPC: 0.600148 (Simulation time: 1 hr 6 min 41 sec) 
Heartbeat CPU 0 instructions: 230000000 cycles: 284393013 heartbeat IPC: 0.201237 cumulative IPC: 0.187533 (Simulation time: 1 hr 7 min 7 sec) 
Heartbeat CPU 2 instructions: 410000002 cycles: 288051435 heartbeat IPC: 0.739419 cumulative IPC: 0.802266 (Simulation time: 1 hr 7 min 33 sec) 
Heartbeat CPU 3 instructions: 350000003 cycles: 294147384 heartbeat IPC: 0.744025 cumulative IPC: 0.611542 (Simulation time: 1 hr 8 min 13 sec) 
Heartbeat CPU 2 instructions: 420000000 cycles: 300526737 heartbeat IPC: 0.801584 cumulative IPC: 0.802218 (Simulation time: 1 hr 8 min 57 sec) 
Heartbeat CPU 2 instructions: 430000000 cycles: 310668044 heartbeat IPC: 0.986066 cumulative IPC: 0.812228 (Simulation time: 1 hr 10 min 10 sec) 
Heartbeat CPU 3 instructions: 360000000 cycles: 315297048 heartbeat IPC: 0.472821 cumulative IPC: 0.596171 (Simulation time: 1 hr 10 min 41 sec) 
Heartbeat CPU 1 instructions: 300000000 cycles: 317263434 heartbeat IPC: 0.226379 cumulative IPC: 0.230907 (Simulation time: 1 hr 10 min 55 sec) 
Heartbeat CPU 2 instructions: 440000000 cycles: 322971986 heartbeat IPC: 0.812748 cumulative IPC: 0.81226 (Simulation time: 1 hr 11 min 35 sec) 
Heartbeat CPU 2 instructions: 450000001 cycles: 332645338 heartbeat IPC: 1.03377 cumulative IPC: 0.822551 (Simulation time: 1 hr 12 min 46 sec) 
Heartbeat CPU 0 instructions: 240000000 cycles: 336403254 heartbeat IPC: 0.19227 cumulative IPC: 0.188695 (Simulation time: 1 hr 13 min 13 sec) 
Heartbeat CPU 3 instructions: 370000002 cycles: 336444620 heartbeat IPC: 0.472868 cumulative IPC: 0.583873 (Simulation time: 1 hr 13 min 14 sec) 
Heartbeat CPU 2 instructions: 460000000 cycles: 342173351 heartbeat IPC: 1.04954 cumulative IPC: 0.832483 (Simulation time: 1 hr 13 min 53 sec) 
Heartbeat CPU 2 instructions: 470000002 cycles: 351505663 heartbeat IPC: 1.07155 cumulative IPC: 0.842308 (Simulation time: 1 hr 14 min 57 sec) 
Heartbeat CPU 3 instructions: 380000000 cycles: 357597708 heartbeat IPC: 0.472744 cumulative IPC: 0.573791 (Simulation time: 1 hr 15 min 39 sec) 
Heartbeat CPU 1 instructions: 310000003 cycles: 357836824 heartbeat IPC: 0.246467 cumulative IPC: 0.233612 (Simulation time: 1 hr 15 min 41 sec) 
Heartbeat CPU 2 instructions: 480000000 cycles: 361425427 heartbeat IPC: 1.00809 cumulative IPC: 0.849246 (Simulation time: 1 hr 16 min 7 sec) 
Heartbeat CPU 2 instructions: 490000000 cycles: 371488272 heartbeat IPC: 0.993755 cumulative IPC: 0.855132 (Simulation time: 1 hr 17 min 19 sec) 
Heartbeat CPU 3 instructions: 390000001 cycles: 376010583 heartbeat IPC: 0.543098 cumulative IPC: 0.571545 (Simulation time: 1 hr 17 min 54 sec) 
Heartbeat CPU 2 instructions: 500000000 cycles: 381347830 heartbeat IPC: 1.01424 cumulative IPC: 0.861238 (Simulation time: 1 hr 18 min 34 sec) 
Heartbeat CPU 0 instructions: 250000002 cycles: 387831626 heartbeat IPC: 0.194445 cumulative IPC: 0.189818 (Simulation time: 1 hr 19 min 26 sec) 
Heartbeat CPU 3 instructions: 400000000 cycles: 388926427 heartbeat IPC: 0.774243 cumulative IPC: 0.581443 (Simulation time: 1 hr 19 min 35 sec) 
Heartbeat CPU 2 instructions: 510000001 cycles: 391198150 heartbeat IPC: 1.0152 cumulative IPC: 0.866923 (Simulation time: 1 hr 19 min 53 sec) 
Heartbeat CPU 2 instructions: 520000000 cycles: 401844914 heartbeat IPC: 0.939252 cumulative IPC: 0.869698 (Simulation time: 1 hr 21 min 18 sec) 
Heartbeat CPU 3 instructions: 410000000 cycles: 401968353 heartbeat IPC: 0.766758 cumulative IPC: 0.590151 (Simulation time: 1 hr 21 min 19 sec) 
Heartbeat CPU 1 instructions: 320000000 cycles: 402359709 heartbeat IPC: 0.224604 cumulative IPC: 0.232169 (Simulation time: 1 hr 21 min 22 sec) 
Heartbeat CPU 2 instructions: 530000002 cycles: 411924758 heartbeat IPC: 0.992079 cumulative IPC: 0.873989 (Simulation time: 1 hr 22 min 35 sec) 
Heartbeat CPU 3 instructions: 420000000 cycles: 414460780 heartbeat IPC: 0.800485 cumulative IPC: 0.59921 (Simulation time: 1 hr 22 min 56 sec) 
Heartbeat CPU 2 instructions: 540000000 cycles: 424423939 heartbeat IPC: 0.800052 cumulative IPC: 0.870909 (Simulation time: 1 hr 24 min 12 sec) 
Heartbeat CPU 3 instructions: 430000000 cycles: 425490116 heartbeat IPC: 0.906673 cumulative IPC: 0.610474 (Simulation time: 1 hr 24 min 20 sec) 
Heartbeat CPU 3 instructions: 440000000 cycles: 436499339 heartbeat IPC: 0.908329 cumulative IPC: 0.620981 (Simulation time: 1 hr 25 min 46 sec) 
Heartbeat CPU 2 instructions: 550000000 cycles: 437102528 heartbeat IPC: 0.788731 cumulative IPC: 0.867576 (Simulation time: 1 hr 25 min 51 sec) 
Heartbeat CPU 0 instructions: 260000000 cycles: 440206359 heartbeat IPC: 0.190932 cumulative IPC: 0.190003 (Simulation time: 1 hr 26 min 16 sec) 
Heartbeat CPU 1 instructions: 330000003 cycles: 444084728 heartbeat IPC: 0.239664 cumulative IPC: 0.233147 (Simulation time: 1 hr 26 min 47 sec) 
Heartbeat CPU 3 instructions: 450000001 cycles: 447235593 heartbeat IPC: 0.931424 cumulative IPC: 0.631306 (Simulation time: 1 hr 27 min 12 sec) 
Heartbeat CPU 2 instructions: 560000000 cycles: 448458801 heartbeat IPC: 0.880571 cumulative IPC: 0.868032 (Simulation time: 1 hr 27 min 22 sec) 
Heartbeat CPU 3 instructions: 460000000 cycles: 458147139 heartbeat IPC: 0.91646 cumulative IPC: 0.640629 (Simulation time: 1 hr 28 min 40 sec) 
Heartbeat CPU 2 instructions: 570000000 cycles: 460056857 heartbeat IPC: 0.862213 cumulative IPC: 0.867831 (Simulation time: 1 hr 28 min 56 sec) 
Heartbeat CPU 3 instructions: 470000000 cycles: 469139840 heartbeat IPC: 0.909695 cumulative IPC: 0.64921 (Simulation time: 1 hr 30 min 16 sec) 
Heartbeat CPU 2 instructions: 580000000 cycles: 471510600 heartbeat IPC: 0.873077 cumulative IPC: 0.868004 (Simulation time: 1 hr 30 min 37 sec) 
Heartbeat CPU 3 instructions: 480000000 cycles: 480298176 heartbeat IPC: 0.896191 cumulative IPC: 0.656954 (Simulation time: 1 hr 31 min 59 sec) 
Heartbeat CPU 2 instructions: 590000000 cycles: 482883277 heartbeat IPC: 0.8793 cumulative IPC: 0.868362 (Simulation time: 1 hr 32 min 23 sec) 
Heartbeat CPU 1 instructions: 340000000 cycles: 486769718 heartbeat IPC: 0.234274 cumulative IPC: 0.23328 (Simulation time: 1 hr 32 min 58 sec) 
Heartbeat CPU 0 instructions: 270000001 cycles: 489681511 heartbeat IPC: 0.202122 cumulative IPC: 0.191644 (Simulation time: 1 hr 33 min 23 sec) 
Heartbeat CPU 3 instructions: 490000000 cycles: 491144540 heartbeat IPC: 0.921968 cumulative IPC: 0.664792 (Simulation time: 1 hr 33 min 36 sec) 
Heartbeat CPU 2 instructions: 600000000 cycles: 494208298 heartbeat IPC: 0.883001 cumulative IPC: 0.868811 (Simulation time: 1 hr 34 min 4 sec) 
Heartbeat CPU 3 instructions: 500000000 cycles: 501989445 heartbeat IPC: 0.922092 cumulative IPC: 0.672182 (Simulation time: 1 hr 35 min 11 sec) 
Heartbeat CPU 2 instructions: 610000001 cycles: 507536924 heartbeat IPC: 0.750265 cumulative IPC: 0.864686 (Simulation time: 1 hr 35 min 59 sec) 
Heartbeat CPU 3 instructions: 510000000 cycles: 512853037 heartbeat IPC: 0.920506 cumulative IPC: 0.679127 (Simulation time: 1 hr 36 min 47 sec) 
Heartbeat CPU 2 instructions: 620000000 cycles: 519362095 heartbeat IPC: 0.845654 cumulative IPC: 0.864117 (Simulation time: 1 hr 37 min 47 sec) 
Heartbeat CPU 3 instructions: 520000000 cycles: 523750067 heartbeat IPC: 0.917681 cumulative IPC: 0.685637 (Simulation time: 1 hr 38 min 27 sec) 
Heartbeat CPU 1 instructions: 350000003 cycles: 529991965 heartbeat IPC: 0.231362 cumulative IPC: 0.233075 (Simulation time: 1 hr 39 min 23 sec) 
Heartbeat CPU 2 instructions: 630000001 cycles: 530906754 heartbeat IPC: 0.866202 cumulative IPC: 0.864176 (Simulation time: 1 hr 39 min 31 sec) 
Heartbeat CPU 3 instructions: 530000000 cycles: 534712394 heartbeat IPC: 0.912215 cumulative IPC: 0.691691 (Simulation time: 1 hr 40 min 4 sec) 
Heartbeat CPU 0 instructions: 280000000 cycles: 542136718 heartbeat IPC: 0.190639 cumulative IPC: 0.191518 (Simulation time: 1 hr 41 min 19 sec) 
Heartbeat CPU 2 instructions: 640000000 cycles: 542859751 heartbeat IPC: 0.83661 cumulative IPC: 0.863388 (Simulation time: 1 hr 41 min 26 sec) 
Heartbeat CPU 3 instructions: 540000000 cycles: 545904015 heartbeat IPC: 0.893526 cumulative IPC: 0.69705 (Simulation time: 1 hr 41 min 54 sec) 
Heartbeat CPU 2 instructions: 650000001 cycles: 554292363 heartbeat IPC: 0.874691 cumulative IPC: 0.863689 (Simulation time: 1 hr 43 min 13 sec) 
Heartbeat CPU 3 instructions: 550000002 cycles: 557178037 heartbeat IPC: 0.886995 cumulative IPC: 0.701999 (Simulation time: 1 hr 43 min 39 sec) 
Heartbeat CPU 2 instructions: 660000000 cycles: 565527964 heartbeat IPC: 0.890028 cumulative IPC: 0.86436 (Simulation time: 1 hr 44 min 54 sec) 
Heartbeat CPU 3 instructions: 560000000 cycles: 567985292 heartbeat IPC: 0.925304 cumulative IPC: 0.707439 (Simulation time: 1 hr 45 min 15 sec) 
Heartbeat CPU 1 instructions: 360000000 cycles: 573019086 heartbeat IPC: 0.232411 cumulative IPC: 0.233012 (Simulation time: 1 hr 45 min 56 sec) 
Heartbeat CPU 2 instructions: 670000001 cycles: 577030087 heartbeat IPC: 0.869405 cumulative IPC: 0.864488 (Simulation time: 1 hr 46 min 30 sec) 
Heartbeat CPU 3 instructions: 570000000 cycles: 578847896 heartbeat IPC: 0.92059 cumulative IPC: 0.712534 (Simulation time: 1 hr 46 min 49 sec) 
Heartbeat CPU 2 instructions: 680000000 cycles: 589366765 heartbeat IPC: 0.810591 cumulative IPC: 0.863058 (Simulation time: 1 hr 48 min 26 sec) 
Heartbeat CPU 3 instructions: 580000000 cycles: 589803218 heartbeat IPC: 0.912798 cumulative IPC: 0.717249 (Simulation time: 1 hr 48 min 30 sec) 
Heartbeat CPU 0 instructions: 290000001 cycles: 592027805 heartbeat IPC: 0.200437 cumulative IPC: 0.19247 (Simulation time: 1 hr 48 min 50 sec) 
Heartbeat CPU 3 instructions: 590000003 cycles: 600858561 heartbeat IPC: 0.90454 cumulative IPC: 0.721595 (Simulation time: 1 hr 50 min 6 sec) 
Heartbeat CPU 2 instructions: 690000003 cycles: 600998299 heartbeat IPC: 0.859732 cumulative IPC: 0.862977 (Simulation time: 1 hr 50 min 7 sec) 
Heartbeat CPU 3 instructions: 600000000 cycles: 612244431 heartbeat IPC: 0.878281 cumulative IPC: 0.725252 (Simulation time: 1 hr 51 min 43 sec) 
Heartbeat CPU 2 instructions: 700000000 cycles: 613345688 heartbeat IPC: 0.809888 cumulative IPC: 0.861636 (Simulation time: 1 hr 51 min 52 sec) 
Heartbeat CPU 1 instructions: 370000003 cycles: 616286197 heartbeat IPC: 0.231123 cumulative IPC: 0.232846 (Simulation time: 1 hr 52 min 17 sec) 
Heartbeat CPU 2 instructions: 710000000 cycles: 624790109 heartbeat IPC: 0.873788 cumulative IPC: 0.861914 (Simulation time: 1 hr 53 min 26 sec) 
Heartbeat CPU 3 instructions: 610000002 cycles: 625527575 heartbeat IPC: 0.752834 cumulative IPC: 0.725983 (Simulation time: 1 hr 53 min 32 sec) 
Heartbeat CPU 2 instructions: 720000000 cycles: 636794937 heartbeat IPC: 0.832998 cumulative IPC: 0.861237 (Simulation time: 1 hr 55 min 6 sec) 
Heartbeat CPU 3 instructions: 620000000 cycles: 638951388 heartbeat IPC: 0.744945 cumulative IPC: 0.726478 (Simulation time: 1 hr 55 min 24 sec) 
Heartbeat CPU 0 instructions: 300000000 cycles: 641319380 heartbeat IPC: 0.202874 cumulative IPC: 0.193462 (Simulation time: 1 hr 55 min 42 sec) 
Heartbeat CPU 2 instructions: 730000001 cycles: 648550176 heartbeat IPC: 0.850685 cumulative IPC: 0.861 (Simulation time: 1 hr 56 min 43 sec) 
Heartbeat CPU 3 instructions: 630000000 cycles: 652098798 heartbeat IPC: 0.760606 cumulative IPC: 0.727328 (Simulation time: 1 hr 57 min 10 sec) 
Heartbeat CPU 1 instructions: 380000000 cycles: 658195820 heartbeat IPC: 0.238609 cumulative IPC: 0.233298 (Simulation time: 1 hr 58 min 5 sec) 
Heartbeat CPU 2 instructions: 740000000 cycles: 663142083 heartbeat IPC: 0.685311 cumulative IPC: 0.856241 (Simulation time: 1 hr 58 min 47 sec) 
Heartbeat CPU 3 instructions: 640000000 cycles: 665121081 heartbeat IPC: 0.767915 cumulative IPC: 0.728305 (Simulation time: 1 hr 59 min 6 sec) 
Heartbeat CPU 3 instructions: 650000000 cycles: 678048449 heartbeat IPC: 0.773553 cumulative IPC: 0.729362 (Simulation time: 2 hr 0 min 42 sec) 
Heartbeat CPU 2 instructions: 750000001 cycles: 680048912 heartbeat IPC: 0.591477 cumulative IPC: 0.848185 (Simulation time: 2 hr 0 min 56 sec) 
Heartbeat CPU 3 instructions: 660000000 cycles: 690836817 heartbeat IPC: 0.781961 cumulative IPC: 0.73055 (Simulation time: 2 hr 2 min 13 sec) 
Heartbeat CPU 0 instructions: 310000001 cycles: 690876693 heartbeat IPC: 0.201787 cumulative IPC: 0.19419 (Simulation time: 2 hr 2 min 14 sec) 
Heartbeat CPU 2 instructions: 760000000 cycles: 698397982 heartbeat IPC: 0.544987 cumulative IPC: 0.838492 (Simulation time: 2 hr 3 min 8 sec) 
Heartbeat CPU 1 instructions: 390000001 cycles: 701216578 heartbeat IPC: 0.232446 cumulative IPC: 0.233234 (Simulation time: 2 hr 3 min 29 sec) 
Heartbeat CPU 3 instructions: 670000000 cycles: 703397814 heartbeat IPC: 0.796115 cumulative IPC: 0.731972 (Simulation time: 2 hr 3 min 45 sec) 
Heartbeat CPU 3 instructions: 680000000 cycles: 715259206 heartbeat IPC: 0.843071 cumulative IPC: 0.734202 (Simulation time: 2 hr 5 min 13 sec) 
Heartbeat CPU 2 instructions: 770000001 cycles: 716448261 heartbeat IPC: 0.554008 cumulative IPC: 0.829818 (Simulation time: 2 hr 5 min 23 sec) 
Heartbeat CPU 3 instructions: 690000002 cycles: 727395497 heartbeat IPC: 0.823975 cumulative IPC: 0.736009 (Simulation time: 2 hr 6 min 43 sec) 
Heartbeat CPU 2 instructions: 780000000 cycles: 734089489 heartbeat IPC: 0.566854 cumulative IPC: 0.822209 (Simulation time: 2 hr 7 min 32 sec) 
Heartbeat CPU 0 instructions: 320000000 cycles: 739169375 heartbeat IPC: 0.207071 cumulative IPC: 0.195202 (Simulation time: 2 hr 8 min 9 sec) 
Heartbeat CPU 3 instructions: 700000000 cycles: 740149877 heartbeat IPC: 0.784044 cumulative IPC: 0.737004 (Simulation time: 2 hr 8 min 16 sec) 
Heartbeat CPU 1 instructions: 400000000 cycles: 743659413 heartbeat IPC: 0.235611 cumulative IPC: 0.233397 (Simulation time: 2 hr 8 min 41 sec) 
Heartbeat CPU 3 instructions: 710000001 cycles: 752373619 heartbeat IPC: 0.81808 cumulative IPC: 0.738583 (Simulation time: 2 hr 9 min 45 sec) 
Heartbeat CPU 2 instructions: 790000000 cycles: 752685954 heartbeat IPC: 0.537737 cumulative IPC: 0.813789 (Simulation time: 2 hr 9 min 48 sec) 
Heartbeat CPU 3 instructions: 720000000 cycles: 763520313 heartbeat IPC: 0.897127 cumulative IPC: 0.741348 (Simulation time: 2 hr 11 min 10 sec) 
Heartbeat CPU 2 instructions: 800000000 cycles: 770399512 heartbeat IPC: 0.564539 cumulative IPC: 0.806954 (Simulation time: 2 hr 12 min 1 sec) 
Heartbeat CPU 3 instructions: 730000002 cycles: 774330644 heartbeat IPC: 0.925041 cumulative IPC: 0.744403 (Simulation time: 2 hr 12 min 29 sec) 
Heartbeat CPU 3 instructions: 740000000 cycles: 785324715 heartbeat IPC: 0.909581 cumulative IPC: 0.747151 (Simulation time: 2 hr 13 min 49 sec) 
Heartbeat CPU 1 instructions: 410000001 cycles: 787946135 heartbeat IPC: 0.225801 cumulative IPC: 0.23289 (Simulation time: 2 hr 14 min 8 sec) 
Heartbeat CPU 2 instructions: 810000000 cycles: 788820310 heartbeat IPC: 0.542865 cumulative IPC: 0.799632 (Simulation time: 2 hr 14 min 14 sec) 
Heartbeat CPU 0 instructions: 330000001 cycles: 789080947 heartbeat IPC: 0.200354 cumulative IPC: 0.195589 (Simulation time: 2 hr 14 min 16 sec) 
Heartbeat CPU 3 instructions: 750000003 cycles: 796153691 heartbeat IPC: 0.923449 cumulative IPC: 0.749993 (Simulation time: 2 hr 15 min 7 sec) 
Heartbeat CPU 3 instructions: 760000000 cycles: 807056108 heartbeat IPC: 0.917228 cumulative IPC: 0.752664 (Simulation time: 2 hr 16 min 25 sec) 
Heartbeat CPU 2 instructions: 820000000 cycles: 807653889 heartbeat IPC: 0.530967 cumulative IPC: 0.792226 (Simulation time: 2 hr 16 min 29 sec) 
Heartbeat CPU 3 instructions: 770000001 cycles: 817961603 heartbeat IPC: 0.916969 cumulative IPC: 0.755248 (Simulation time: 2 hr 17 min 40 sec) 
Heartbeat CPU 2 instructions: 830000000 cycles: 825851256 heartbeat IPC: 0.54953 cumulative IPC: 0.78593 (Simulation time: 2 hr 18 min 38 sec) 
Heartbeat CPU 3 instructions: 780000000 cycles: 828700992 heartbeat IPC: 0.931152 cumulative IPC: 0.75793 (Simulation time: 2 hr 18 min 59 sec) 
Heartbeat CPU 1 instructions: 420000000 cycles: 832923635 heartbeat IPC: 0.222333 cumulative IPC: 0.23222 (Simulation time: 2 hr 19 min 30 sec) 
Heartbeat CPU 3 instructions: 790000001 cycles: 839808436 heartbeat IPC: 0.900297 cumulative IPC: 0.76014 (Simulation time: 2 hr 20 min 20 sec) 
Heartbeat CPU 2 instructions: 840000000 cycles: 842967938 heartbeat IPC: 0.584225 cumulative IPC: 0.781125 (Simulation time: 2 hr 20 min 42 sec) 
Heartbeat CPU 0 instructions: 340000000 cycles: 844597982 heartbeat IPC: 0.180125 cumulative IPC: 0.194397 (Simulation time: 2 hr 20 min 54 sec) 
Heartbeat CPU 3 instructions: 800000000 cycles: 850918375 heartbeat IPC: 0.900095 cumulative IPC: 0.762281 (Simulation time: 2 hr 21 min 40 sec) 
Heartbeat CPU 2 instructions: 850000000 cycles: 861419669 heartbeat IPC: 0.541955 cumulative IPC: 0.775137 (Simulation time: 2 hr 22 min 55 sec) 
Heartbeat CPU 3 instructions: 810000001 cycles: 861938311 heartbeat IPC: 0.907446 cumulative IPC: 0.76445 (Simulation time: 2 hr 22 min 59 sec) 
Heartbeat CPU 3 instructions: 820000000 cycles: 873033581 heartbeat IPC: 0.901285 cumulative IPC: 0.766478 (Simulation time: 2 hr 24 min 21 sec) 
Heartbeat CPU 1 instructions: 430000000 cycles: 877598833 heartbeat IPC: 0.223838 cumulative IPC: 0.231723 (Simulation time: 2 hr 24 min 55 sec) 
Heartbeat CPU 2 instructions: 860000000 cycles: 878186601 heartbeat IPC: 0.596412 cumulative IPC: 0.771162 (Simulation time: 2 hr 24 min 59 sec) 
Heartbeat CPU 3 instructions: 830000001 cycles: 883991779 heartbeat IPC: 0.912559 cumulative IPC: 0.768585 (Simulation time: 2 hr 25 min 42 sec) 
Heartbeat CPU 0 instructions: 350000000 cycles: 895515198 heartbeat IPC: 0.196397 cumulative IPC: 0.194529 (Simulation time: 2 hr 27 min 4 sec) 
Heartbeat CPU 3 instructions: 840000000 cycles: 895529168 heartbeat IPC: 0.866747 cumulative IPC: 0.770054 (Simulation time: 2 hr 27 min 4 sec) 
Heartbeat CPU 2 instructions: 870000001 cycles: 895750780 heartbeat IPC: 0.569341 cumulative IPC: 0.766566 (Simulation time: 2 hr 27 min 6 sec) 
Heartbeat CPU 3 instructions: 850000000 cycles: 906456989 heartbeat IPC: 0.915096 cumulative IPC: 0.772081 (Simulation time: 2 hr 28 min 24 sec) 
Heartbeat CPU 2 instructions: 880000000 cycles: 910740899 heartbeat IPC: 0.667106 cumulative IPC: 0.76467 (Simulation time: 2 hr 28 min 57 sec) 
Heartbeat CPU 3 instructions: 860000000 cycles: 917342075 heartbeat IPC: 0.918688 cumulative IPC: 0.774093 (Simulation time: 2 hr 29 min 48 sec) 
Heartbeat CPU 1 instructions: 440000000 cycles: 922004973 heartbeat IPC: 0.225194 cumulative IPC: 0.231359 (Simulation time: 2 hr 30 min 22 sec) 
Heartbeat CPU 2 instructions: 890000000 cycles: 926018894 heartbeat IPC: 0.654536 cumulative IPC: 0.762571 (Simulation time: 2 hr 30 min 51 sec) 
Heartbeat CPU 3 instructions: 870000002 cycles: 928493718 heartbeat IPC: 0.896729 cumulative IPC: 0.775794 (Simulation time: 2 hr 31 min 8 sec) 
Heartbeat CPU 3 instructions: 880000000 cycles: 939342776 heartbeat IPC: 0.921739 cumulative IPC: 0.777737 (Simulation time: 2 hr 32 min 27 sec) 
Heartbeat CPU 2 instructions: 900000000 cycles: 943807784 heartbeat IPC: 0.562149 cumulative IPC: 0.75822 (Simulation time: 2 hr 33 min 0 sec) 
Heartbeat CPU 0 instructions: 360000000 cycles: 945714714 heartbeat IPC: 0.199205 cumulative IPC: 0.194815 (Simulation time: 2 hr 33 min 14 sec) 
Heartbeat CPU 3 instructions: 890000001 cycles: 950195430 heartbeat IPC: 0.921434 cumulative IPC: 0.779626 (Simulation time: 2 hr 33 min 46 sec) 
Heartbeat CPU 3 instructions: 900000000 cycles: 961350195 heartbeat IPC: 0.896478 cumulative IPC: 0.781183 (Simulation time: 2 hr 35 min 6 sec) 
Heartbeat CPU 2 instructions: 910000000 cycles: 962516172 heartbeat IPC: 0.53452 cumulative IPC: 0.753226 (Simulation time: 2 hr 35 min 14 sec) 
Heartbeat CPU 1 instructions: 450000003 cycles: 965698613 heartbeat IPC: 0.228866 cumulative IPC: 0.23123 (Simulation time: 2 hr 35 min 37 sec) 
Heartbeat CPU 3 instructions: 910000003 cycles: 972504003 heartbeat IPC: 0.896555 cumulative IPC: 0.7827 (Simulation time: 2 hr 36 min 26 sec) 
Heartbeat CPU 2 instructions: 920000000 cycles: 981129536 heartbeat IPC: 0.537248 cumulative IPC: 0.748534 (Simulation time: 2 hr 37 min 28 sec) 
Heartbeat CPU 3 instructions: 920000000 cycles: 983613203 heartbeat IPC: 0.900155 cumulative IPC: 0.784219 (Simulation time: 2 hr 37 min 46 sec) 
Heartbeat CPU 3 instructions: 930000003 cycles: 994597422 heartbeat IPC: 0.910397 cumulative IPC: 0.785812 (Simulation time: 2 hr 39 min 6 sec) 
Heartbeat CPU 0 instructions: 370000001 cycles: 996714072 heartbeat IPC: 0.196081 cumulative IPC: 0.194889 (Simulation time: 2 hr 39 min 22 sec) 
Heartbeat CPU 2 instructions: 930000002 cycles: 998059472 heartbeat IPC: 0.59067 cumulative IPC: 0.745474 (Simulation time: 2 hr 39 min 32 sec) 
Heartbeat CPU 3 instructions: 940000000 cycles: 1005454085 heartbeat IPC: 0.921093 cumulative IPC: 0.787479 (Simulation time: 2 hr 40 min 28 sec) 
Heartbeat CPU 1 instructions: 460000000 cycles: 1009760238 heartbeat IPC: 0.226955 cumulative IPC: 0.231017 (Simulation time: 2 hr 41 min 0 sec) 
Heartbeat CPU 2 instructions: 940000000 cycles: 1012944540 heartbeat IPC: 0.671814 cumulative IPC: 0.74424 (Simulation time: 2 hr 41 min 23 sec) 
Heartbeat CPU 3 instructions: 950000000 cycles: 1016489140 heartbeat IPC: 0.906203 cumulative IPC: 0.788947 (Simulation time: 2 hr 41 min 50 sec) 
Heartbeat CPU 3 instructions: 960000000 cycles: 1027396344 heartbeat IPC: 0.916825 cumulative IPC: 0.790492 (Simulation time: 2 hr 43 min 9 sec) 
Heartbeat CPU 2 instructions: 950000003 cycles: 1029793241 heartbeat IPC: 0.593518 cumulative IPC: 0.741435 (Simulation time: 2 hr 43 min 27 sec) 
Heartbeat CPU 3 instructions: 970000000 cycles: 1038346552 heartbeat IPC: 0.913225 cumulative IPC: 0.791963 (Simulation time: 2 hr 44 min 26 sec) 
Heartbeat CPU 2 instructions: 960000000 cycles: 1048978112 heartbeat IPC: 0.521244 cumulative IPC: 0.736866 (Simulation time: 2 hr 45 min 42 sec) 
Heartbeat CPU 3 instructions: 980000000 cycles: 1049449683 heartbeat IPC: 0.900647 cumulative IPC: 0.793267 (Simulation time: 2 hr 45 min 46 sec) 
Heartbeat CPU 0 instructions: 380000000 cycles: 1050389724 heartbeat IPC: 0.186304 cumulative IPC: 0.194391 (Simulation time: 2 hr 45 min 52 sec) 
Heartbeat CPU 1 instructions: 470000000 cycles: 1053760744 heartbeat IPC: 0.22727 cumulative IPC: 0.23084 (Simulation time: 2 hr 46 min 16 sec) 
Heartbeat CPU 3 instructions: 990000001 cycles: 1060436077 heartbeat IPC: 0.910217 cumulative IPC: 0.79464 (Simulation time: 2 hr 47 min 4 sec) 
Heartbeat CPU 2 instructions: 970000003 cycles: 1067111147 heartbeat IPC: 0.55148 cumulative IPC: 0.7333 (Simulation time: 2 hr 47 min 53 sec) 
Heartbeat CPU 3 instructions: 1000000000 cycles: 1071408110 heartbeat IPC: 0.911408 cumulative IPC: 0.795993 (Simulation time: 2 hr 48 min 23 sec) 
Heartbeat CPU 3 instructions: 1010000000 cycles: 1082527786 heartbeat IPC: 0.899307 cumulative IPC: 0.797192 (Simulation time: 2 hr 49 min 44 sec) 
Heartbeat CPU 2 instructions: 980000000 cycles: 1084973858 heartbeat IPC: 0.559825 cumulative IPC: 0.730074 (Simulation time: 2 hr 50 min 1 sec) 
Heartbeat CPU 3 instructions: 1020000000 cycles: 1093429185 heartbeat IPC: 0.917313 cumulative IPC: 0.798543 (Simulation time: 2 hr 51 min 3 sec) 
Heartbeat CPU 1 instructions: 480000000 cycles: 1096942530 heartbeat IPC: 0.231579 cumulative IPC: 0.230873 (Simulation time: 2 hr 51 min 29 sec) 
Heartbeat CPU 2 instructions: 990000002 cycles: 1102454215 heartbeat IPC: 0.572071 cumulative IPC: 0.72725 (Simulation time: 2 hr 52 min 9 sec) 
Heartbeat CPU 3 instructions: 1030000003 cycles: 1104354374 heartbeat IPC: 0.915316 cumulative IPC: 0.799845 (Simulation time: 2 hr 52 min 23 sec) 
Heartbeat CPU 0 instructions: 390000001 cycles: 1104844178 heartbeat IPC: 0.18364 cumulative IPC: 0.193794 (Simulation time: 2 hr 52 min 27 sec) 
Heartbeat CPU 3 instructions: 1040000000 cycles: 1115557911 heartbeat IPC: 0.892575 cumulative IPC: 0.800893 (Simulation time: 2 hr 53 min 48 sec) 
Heartbeat CPU 2 instructions: 1000000000 cycles: 1120809774 heartbeat IPC: 0.544794 cumulative IPC: 0.723889 (Simulation time: 2 hr 54 min 29 sec) 
Heartbeat CPU 3 instructions: 1050000003 cycles: 1126435756 heartbeat IPC: 0.9193 cumulative IPC: 0.802179 (Simulation time: 2 hr 55 min 18 sec) 
Heartbeat CPU 3 instructions: 1060000000 cycles: 1137438965 heartbeat IPC: 0.908826 cumulative IPC: 0.803337 (Simulation time: 2 hr 56 min 53 sec) 
Heartbeat CPU 2 instructions: 1010000000 cycles: 1139058389 heartbeat IPC: 0.547987 cumulative IPC: 0.720726 (Simulation time: 2 hr 57 min 7 sec) 
Heartbeat CPU 1 instructions: 490000000 cycles: 1140424372 heartbeat IPC: 0.229981 cumulative IPC: 0.230834 (Simulation time: 2 hr 57 min 20 sec) 
Heartbeat CPU 3 instructions: 1070000001 cycles: 1148357072 heartbeat IPC: 0.91591 cumulative IPC: 0.804537 (Simulation time: 2 hr 58 min 26 sec) 
Heartbeat CPU 0 instructions: 400000000 cycles: 1153421000 heartbeat IPC: 0.205859 cumulative IPC: 0.194364 (Simulation time: 2 hr 59 min 5 sec) 
Heartbeat CPU 2 instructions: 1020000000 cycles: 1157267710 heartbeat IPC: 0.549169 cumulative IPC: 0.717701 (Simulation time: 2 hr 59 min 35 sec) 
Heartbeat CPU 3 instructions: 1080000000 cycles: 1159269659 heartbeat IPC: 0.916373 cumulative IPC: 0.805717 (Simulation time: 2 hr 59 min 50 sec) 
Heartbeat CPU 3 instructions: 1090000003 cycles: 1170160809 heartbeat IPC: 0.918177 cumulative IPC: 0.806888 (Simulation time: 3 hr 1 min 14 sec) 
Heartbeat CPU 2 instructions: 1030000000 cycles: 1175638910 heartbeat IPC: 0.54433 cumulative IPC: 0.714671 (Simulation time: 3 hr 1 min 55 sec) 
Heartbeat CPU 3 instructions: 1100000000 cycles: 1180912185 heartbeat IPC: 0.930113 cumulative IPC: 0.808142 (Simulation time: 3 hr 2 min 35 sec) 
Heartbeat CPU 1 instructions: 500000000 cycles: 1185103713 heartbeat IPC: 0.223817 cumulative IPC: 0.230539 (Simulation time: 3 hr 3 min 6 sec) 
Heartbeat CPU 3 instructions: 1110000002 cycles: 1192102304 heartbeat IPC: 0.893646 cumulative IPC: 0.809038 (Simulation time: 3 hr 4 min 1 sec) 
Heartbeat CPU 2 instructions: 1040000000 cycles: 1194412576 heartbeat IPC: 0.532661 cumulative IPC: 0.711478 (Simulation time: 3 hr 4 min 19 sec) 
Heartbeat CPU 3 instructions: 1120000000 cycles: 1203309982 heartbeat IPC: 0.892245 cumulative IPC: 0.809902 (Simulation time: 3 hr 5 min 27 sec) 
Heartbeat CPU 0 instructions: 410000002 cycles: 1203749837 heartbeat IPC: 0.198693 cumulative IPC: 0.194565 (Simulation time: 3 hr 5 min 30 sec) 
Heartbeat CPU 2 instructions: 1050000002 cycles: 1212704543 heartbeat IPC: 0.546688 cumulative IPC: 0.708708 (Simulation time: 3 hr 6 min 39 sec) 
Heartbeat CPU 3 instructions: 1130000001 cycles: 1214193575 heartbeat IPC: 0.918814 cumulative IPC: 0.81099 (Simulation time: 3 hr 6 min 50 sec) 
Heartbeat CPU 3 instructions: 1140000000 cycles: 1224948367 heartbeat IPC: 0.929818 cumulative IPC: 0.812151 (Simulation time: 3 hr 8 min 16 sec) 
Heartbeat CPU 1 instructions: 510000000 cycles: 1228697632 heartbeat IPC: 0.22939 cumulative IPC: 0.230494 (Simulation time: 3 hr 8 min 47 sec) 
Heartbeat CPU 2 instructions: 1060000000 cycles: 1230650885 heartbeat IPC: 0.557217 cumulative IPC: 0.70625 (Simulation time: 3 hr 9 min 4 sec) 
Heartbeat CPU 3 instructions: 1150000000 cycles: 1235779096 heartbeat IPC: 0.923299 cumulative IPC: 0.813235 (Simulation time: 3 hr 9 min 48 sec) 
Heartbeat CPU 3 instructions: 1160000000 cycles: 1247097390 heartbeat IPC: 0.883525 cumulative IPC: 0.813943 (Simulation time: 3 hr 11 min 23 sec) 
Heartbeat CPU 2 instructions: 1070000000 cycles: 1248833605 heartbeat IPC: 0.549973 cumulative IPC: 0.703723 (Simulation time: 3 hr 11 min 38 sec) 
Heartbeat CPU 0 instructions: 420000000 cycles: 1253322638 heartbeat IPC: 0.201723 cumulative IPC: 0.19488 (Simulation time: 3 hr 12 min 16 sec) 
Heartbeat CPU 3 instructions: 1170000000 cycles: 1258521530 heartbeat IPC: 0.875339 cumulative IPC: 0.814562 (Simulation time: 3 hr 12 min 56 sec) 
Heartbeat CPU 2 instructions: 1080000000 cycles: 1267542175 heartbeat IPC: 0.534514 cumulative IPC: 0.700954 (Simulation time: 3 hr 14 min 4 sec) 
Heartbeat CPU 3 instructions: 1180000000 cycles: 1269584495 heartbeat IPC: 0.903917 cumulative IPC: 0.815425 (Simulation time: 3 hr 14 min 20 sec) 
Heartbeat CPU 1 instructions: 520000000 cycles: 1273779930 heartbeat IPC: 0.221817 cumulative IPC: 0.230153 (Simulation time: 3 hr 14 min 52 sec) 
Heartbeat CPU 3 instructions: 1190000001 cycles: 1280325419 heartbeat IPC: 0.931019 cumulative IPC: 0.816499 (Simulation time: 3 hr 15 min 41 sec) 
Heartbeat CPU 2 instructions: 1090000003 cycles: 1285633381 heartbeat IPC: 0.552755 cumulative IPC: 0.698645 (Simulation time: 3 hr 16 min 19 sec) 
Heartbeat CPU 3 instructions: 1200000000 cycles: 1291663940 heartbeat IPC: 0.881949 cumulative IPC: 0.817135 (Simulation time: 3 hr 17 min 2 sec) 
Heartbeat CPU 3 instructions: 1210000001 cycles: 1302631437 heartbeat IPC: 0.911785 cumulative IPC: 0.818016 (Simulation time: 3 hr 18 min 29 sec) 
Heartbeat CPU 2 instructions: 1100000000 cycles: 1304239443 heartbeat IPC: 0.537459 cumulative IPC: 0.696103 (Simulation time: 3 hr 18 min 42 sec) 
Heartbeat CPU 0 instructions: 430000000 cycles: 1304643795 heartbeat IPC: 0.194851 cumulative IPC: 0.194879 (Simulation time: 3 hr 18 min 46 sec) 
Heartbeat CPU 3 instructions: 1220000000 cycles: 1313777566 heartbeat IPC: 0.897172 cumulative IPC: 0.818758 (Simulation time: 3 hr 20 min 2 sec) 
Heartbeat CPU 1 instructions: 530000000 cycles: 1317348192 heartbeat IPC: 0.229525 cumulative IPC: 0.23013 (Simulation time: 3 hr 20 min 29 sec) 
Heartbeat CPU 2 instructions: 1110000001 cycles: 1322632253 heartbeat IPC: 0.543691 cumulative IPC: 0.693763 (Simulation time: 3 hr 21 min 9 sec) 
Heartbeat CPU 3 instructions: 1230000000 cycles: 1324581984 heartbeat IPC: 0.925547 cumulative IPC: 0.819719 (Simulation time: 3 hr 21 min 27 sec) 
Heartbeat CPU 3 instructions: 1240000000 cycles: 1335415539 heartbeat IPC: 0.923058 cumulative IPC: 0.820644 (Simulation time: 3 hr 22 min 56 sec) 
Heartbeat CPU 2 instructions: 1120000000 cycles: 1340574820 heartbeat IPC: 0.557334 cumulative IPC: 0.691751 (Simulation time: 3 hr 23 min 36 sec) 
Finished CPU 3 instructions: 1000000001 cycles: 1217746922 cumulative IPC: 0.821189 (Simulation time: 3 hr 23 min 48 sec) 
Heartbeat CPU 3 instructions: 1250000001 cycles: 1346319827 heartbeat IPC: 0.917071 cumulative IPC: 0.821504 (Simulation time: 3 hr 24 min 19 sec) 
Heartbeat CPU 3 instructions: 1260000000 cycles: 1357418874 heartbeat IPC: 0.900978 cumulative IPC: 0.822219 (Simulation time: 3 hr 25 min 46 sec) 
Heartbeat CPU 2 instructions: 1130000002 cycles: 1359401089 heartbeat IPC: 0.531173 cumulative IPC: 0.689303 (Simulation time: 3 hr 26 min 2 sec) 
Heartbeat CPU 0 instructions: 440000000 cycles: 1359757529 heartbeat IPC: 0.181443 cumulative IPC: 0.194279 (Simulation time: 3 hr 26 min 5 sec) 
Heartbeat CPU 1 instructions: 540000000 cycles: 1361448116 heartbeat IPC: 0.226758 cumulative IPC: 0.23001 (Simulation time: 3 hr 26 min 19 sec) 
Heartbeat CPU 3 instructions: 1270000002 cycles: 1368983767 heartbeat IPC: 0.864686 cumulative IPC: 0.822614 (Simulation time: 3 hr 27 min 22 sec) 
Heartbeat CPU 2 instructions: 1140000000 cycles: 1377619581 heartbeat IPC: 0.548893 cumulative IPC: 0.687261 (Simulation time: 3 hr 28 min 37 sec) 
Heartbeat CPU 3 instructions: 1280000000 cycles: 1379953864 heartbeat IPC: 0.911569 cumulative IPC: 0.823391 (Simulation time: 3 hr 28 min 58 sec) 
Heartbeat CPU 3 instructions: 1290000002 cycles: 1391220633 heartbeat IPC: 0.887566 cumulative IPC: 0.823962 (Simulation time: 3 hr 30 min 39 sec) 
Heartbeat CPU 2 instructions: 1150000001 cycles: 1395643684 heartbeat IPC: 0.554813 cumulative IPC: 0.685383 (Simulation time: 3 hr 31 min 17 sec) 
Heartbeat CPU 3 instructions: 1300000000 cycles: 1402078527 heartbeat IPC: 0.920989 cumulative IPC: 0.824787 (Simulation time: 3 hr 32 min 6 sec) 
Heartbeat CPU 1 instructions: 550000000 cycles: 1405482831 heartbeat IPC: 0.227094 cumulative IPC: 0.22991 (Simulation time: 3 hr 32 min 31 sec) 
Heartbeat CPU 0 instructions: 450000003 cycles: 1410903601 heartbeat IPC: 0.195518 cumulative IPC: 0.194328 (Simulation time: 3 hr 33 min 13 sec) 
Heartbeat CPU 3 instructions: 1310000003 cycles: 1413036245 heartbeat IPC: 0.912599 cumulative IPC: 0.825533 (Simulation time: 3 hr 33 min 28 sec) 
Heartbeat CPU 2 instructions: 1160000000 cycles: 1413962344 heartbeat IPC: 0.545891 cumulative IPC: 0.683402 (Simulation time: 3 hr 33 min 35 sec) 
Heartbeat CPU 3 instructions: 1320000000 cycles: 1423906302 heartbeat IPC: 0.919958 cumulative IPC: 0.826323 (Simulation time: 3 hr 34 min 51 sec) 
Heartbeat CPU 2 instructions: 1170000001 cycles: 1432226872 heartbeat IPC: 0.547509 cumulative IPC: 0.681504 (Simulation time: 3 hr 35 min 55 sec) 
Heartbeat CPU 3 instructions: 1330000001 cycles: 1434888542 heartbeat IPC: 0.910561 cumulative IPC: 0.827029 (Simulation time: 3 hr 36 min 15 sec) 
Heartbeat CPU 3 instructions: 1340000000 cycles: 1445707178 heartbeat IPC: 0.924331 cumulative IPC: 0.827826 (Simulation time: 3 hr 37 min 34 sec) 
Heartbeat CPU 1 instructions: 560000000 cycles: 1448105006 heartbeat IPC: 0.23462 cumulative IPC: 0.230061 (Simulation time: 3 hr 37 min 52 sec) 
Heartbeat CPU 2 instructions: 1180000000 cycles: 1451090220 heartbeat IPC: 0.530129 cumulative IPC: 0.679352 (Simulation time: 3 hr 38 min 14 sec) 
Heartbeat CPU 3 instructions: 1350000000 cycles: 1456662809 heartbeat IPC: 0.912773 cumulative IPC: 0.828524 (Simulation time: 3 hr 38 min 54 sec) 
Heartbeat CPU 0 instructions: 460000000 cycles: 1460591706 heartbeat IPC: 0.201255 cumulative IPC: 0.194586 (Simulation time: 3 hr 39 min 22 sec) 
Heartbeat CPU 3 instructions: 1360000000 cycles: 1467662595 heartbeat IPC: 0.909109 cumulative IPC: 0.829184 (Simulation time: 3 hr 40 min 13 sec) 
Heartbeat CPU 2 instructions: 1190000003 cycles: 1469284873 heartbeat IPC: 0.549612 cumulative IPC: 0.677597 (Simulation time: 3 hr 40 min 25 sec) 
Heartbeat CPU 3 instructions: 1370000000 cycles: 1478593878 heartbeat IPC: 0.914806 cumulative IPC: 0.829875 (Simulation time: 3 hr 41 min 31 sec) 
Heartbeat CPU 2 instructions: 1200000000 cycles: 1488028521 heartbeat IPC: 0.533514 cumulative IPC: 0.675616 (Simulation time: 3 hr 42 min 37 sec) 
Heartbeat CPU 3 instructions: 1380000000 cycles: 1489760677 heartbeat IPC: 0.895512 cumulative IPC: 0.830412 (Simulation time: 3 hr 42 min 50 sec) 
Heartbeat CPU 1 instructions: 570000000 cycles: 1493503637 heartbeat IPC: 0.220271 cumulative IPC: 0.229737 (Simulation time: 3 hr 43 min 17 sec) 
Heartbeat CPU 3 instructions: 1390000000 cycles: 1500741109 heartbeat IPC: 0.910711 cumulative IPC: 0.831053 (Simulation time: 3 hr 44 min 9 sec) 
Heartbeat CPU 2 instructions: 1210000000 cycles: 1505862070 heartbeat IPC: 0.560741 cumulative IPC: 0.674133 (Simulation time: 3 hr 44 min 44 sec) 
Heartbeat CPU 3 instructions: 1400000000 cycles: 1512282323 heartbeat IPC: 0.86646 cumulative IPC: 0.831347 (Simulation time: 3 hr 45 min 29 sec) 
Heartbeat CPU 0 instructions: 470000000 cycles: 1515996906 heartbeat IPC: 0.180488 cumulative IPC: 0.194025 (Simulation time: 3 hr 45 min 55 sec) 
Heartbeat CPU 3 instructions: 1410000003 cycles: 1523355806 heartbeat IPC: 0.903059 cumulative IPC: 0.831915 (Simulation time: 3 hr 46 min 48 sec) 
Heartbeat CPU 2 instructions: 1220000000 cycles: 1524079637 heartbeat IPC: 0.548921 cumulative IPC: 0.672503 (Simulation time: 3 hr 46 min 53 sec) 
Heartbeat CPU 3 instructions: 1420000000 cycles: 1534720688 heartbeat IPC: 0.879903 cumulative IPC: 0.832302 (Simulation time: 3 hr 48 min 10 sec) 
Heartbeat CPU 1 instructions: 580000000 cycles: 1538101014 heartbeat IPC: 0.224228 cumulative IPC: 0.229563 (Simulation time: 3 hr 48 min 34 sec) 
Heartbeat CPU 2 instructions: 1230000002 cycles: 1541938798 heartbeat IPC: 0.559937 cumulative IPC: 0.671085 (Simulation time: 3 hr 49 min 2 sec) 
Heartbeat CPU 3 instructions: 1430000002 cycles: 1545863922 heartbeat IPC: 0.897406 cumulative IPC: 0.832812 (Simulation time: 3 hr 49 min 30 sec) 
Heartbeat CPU 3 instructions: 1440000000 cycles: 1556922281 heartbeat IPC: 0.904293 cumulative IPC: 0.833364 (Simulation time: 3 hr 50 min 49 sec) 
Heartbeat CPU 2 instructions: 1240000000 cycles: 1560630357 heartbeat IPC: 0.535001 cumulative IPC: 0.669314 (Simulation time: 3 hr 51 min 16 sec) 
Heartbeat CPU 0 instructions: 480000000 cycles: 1564982973 heartbeat IPC: 0.20414 cumulative IPC: 0.194369 (Simulation time: 3 hr 51 min 45 sec) 
Heartbeat CPU 3 instructions: 1450000001 cycles: 1569445720 heartbeat IPC: 0.798503 cumulative IPC: 0.833062 (Simulation time: 3 hr 52 min 15 sec) 
Heartbeat CPU 2 instructions: 1250000000 cycles: 1579517555 heartbeat IPC: 0.529459 cumulative IPC: 0.667499 (Simulation time: 3 hr 53 min 24 sec) 
Heartbeat CPU 1 instructions: 590000001 cycles: 1581970752 heartbeat IPC: 0.227948 cumulative IPC: 0.229514 (Simulation time: 3 hr 53 min 41 sec) 
Heartbeat CPU 3 instructions: 1460000000 cycles: 1581974799 heartbeat IPC: 0.798143 cumulative IPC: 0.832762 (Simulation time: 3 hr 53 min 41 sec) 
Heartbeat CPU 3 instructions: 1470000000 cycles: 1594427271 heartbeat IPC: 0.803053 cumulative IPC: 0.83251 (Simulation time: 3 hr 55 min 7 sec) 
Heartbeat CPU 2 instructions: 1260000000 cycles: 1596750514 heartbeat IPC: 0.580283 cumulative IPC: 0.666478 (Simulation time: 3 hr 55 min 23 sec) 
Heartbeat CPU 3 instructions: 1480000000 cycles: 1606975980 heartbeat IPC: 0.796895 cumulative IPC: 0.832209 (Simulation time: 3 hr 56 min 33 sec) 
Heartbeat CPU 0 instructions: 490000003 cycles: 1611270682 heartbeat IPC: 0.21604 cumulative IPC: 0.195043 (Simulation time: 3 hr 57 min 2 sec) 
Heartbeat CPU 2 instructions: 1270000000 cycles: 1614772815 heartbeat IPC: 0.554868 cumulative IPC: 0.665128 (Simulation time: 3 hr 57 min 26 sec) 
Heartbeat CPU 3 instructions: 1490000000 cycles: 1619555662 heartbeat IPC: 0.794933 cumulative IPC: 0.831895 (Simulation time: 3 hr 57 min 58 sec) 
Heartbeat CPU 1 instructions: 600000000 cycles: 1625210368 heartbeat IPC: 0.231269 cumulative IPC: 0.229565 (Simulation time: 3 hr 58 min 36 sec) 
Finished CPU 2 instructions: 1000000000 cycles: 1505230529 cumulative IPC: 0.66435 (Simulation time: 3 hr 59 min 7 sec) 
Heartbeat CPU 2 instructions: 1280000000 cycles: 1631847005 heartbeat IPC: 0.585679 cumulative IPC: 0.664228 (Simulation time: 3 hr 59 min 21 sec) 
Heartbeat CPU 3 instructions: 1500000000 cycles: 1632171378 heartbeat IPC: 0.792662 cumulative IPC: 0.831567 (Simulation time: 3 hr 59 min 24 sec) 
Heartbeat CPU 3 instructions: 1510000000 cycles: 1644945834 heartbeat IPC: 0.782812 cumulative IPC: 0.831157 (Simulation time: 4 hr 0 min 50 sec) 
Heartbeat CPU 2 instructions: 1290000001 cycles: 1650098718 heartbeat IPC: 0.547894 cumulative IPC: 0.662837 (Simulation time: 4 hr 1 min 25 sec) 
Heartbeat CPU 3 instructions: 1520000000 cycles: 1657600350 heartbeat IPC: 0.790232 cumulative IPC: 0.830819 (Simulation time: 4 hr 2 min 16 sec) 
Heartbeat CPU 0 instructions: 500000000 cycles: 1659576661 heartbeat IPC: 0.207014 cumulative IPC: 0.19542 (Simulation time: 4 hr 2 min 29 sec) 
Heartbeat CPU 1 instructions: 610000001 cycles: 1668386169 heartbeat IPC: 0.231611 cumulative IPC: 0.229622 (Simulation time: 4 hr 3 min 29 sec) 
Heartbeat CPU 2 instructions: 1300000000 cycles: 1668552255 heartbeat IPC: 0.541901 cumulative IPC: 0.661391 (Simulation time: 4 hr 3 min 30 sec) 
Heartbeat CPU 3 instructions: 1530000000 cycles: 1670325965 heartbeat IPC: 0.785817 cumulative IPC: 0.830449 (Simulation time: 4 hr 3 min 42 sec) 
Heartbeat CPU 3 instructions: 1540000000 cycles: 1683157943 heartbeat IPC: 0.779303 cumulative IPC: 0.830028 (Simulation time: 4 hr 5 min 9 sec) 
Heartbeat CPU 2 instructions: 1310000001 cycles: 1685964373 heartbeat IPC: 0.574313 cumulative IPC: 0.66042 (Simulation time: 4 hr 5 min 28 sec) 
Heartbeat CPU 3 instructions: 1550000002 cycles: 1695652478 heartbeat IPC: 0.80035 cumulative IPC: 0.829792 (Simulation time: 4 hr 6 min 38 sec) 
Heartbeat CPU 2 instructions: 1320000000 cycles: 1703731820 heartbeat IPC: 0.562827 cumulative IPC: 0.659322 (Simulation time: 4 hr 7 min 36 sec) 
Heartbeat CPU 3 instructions: 1560000000 cycles: 1708098333 heartbeat IPC: 0.80348 cumulative IPC: 0.829585 (Simulation time: 4 hr 8 min 9 sec) 
Heartbeat CPU 0 instructions: 510000000 cycles: 1710144810 heartbeat IPC: 0.197753 cumulative IPC: 0.195494 (Simulation time: 4 hr 8 min 23 sec) 
Heartbeat CPU 1 instructions: 620000000 cycles: 1711428423 heartbeat IPC: 0.23233 cumulative IPC: 0.229696 (Simulation time: 4 hr 8 min 32 sec) 
Heartbeat CPU 3 instructions: 1570000002 cycles: 1720852447 heartbeat IPC: 0.784061 cumulative IPC: 0.829221 (Simulation time: 4 hr 9 min 40 sec) 
Heartbeat CPU 2 instructions: 1330000003 cycles: 1721974765 heartbeat IPC: 0.548157 cumulative IPC: 0.658053 (Simulation time: 4 hr 9 min 49 sec) 
Heartbeat CPU 3 instructions: 1580000000 cycles: 1733401431 heartbeat IPC: 0.796877 cumulative IPC: 0.828969 (Simulation time: 4 hr 11 min 10 sec) 
Heartbeat CPU 2 instructions: 1340000000 cycles: 1739824585 heartbeat IPC: 0.56023 cumulative IPC: 0.656972 (Simulation time: 4 hr 11 min 56 sec) 
Heartbeat CPU 3 instructions: 1590000000 cycles: 1746157678 heartbeat IPC: 0.78393 cumulative IPC: 0.828615 (Simulation time: 4 hr 12 min 40 sec) 
Heartbeat CPU 1 instructions: 630000001 cycles: 1754187128 heartbeat IPC: 0.233871 cumulative IPC: 0.229805 (Simulation time: 4 hr 13 min 37 sec) 
Heartbeat CPU 2 instructions: 1350000001 cycles: 1757863036 heartbeat IPC: 0.554371 cumulative IPC: 0.655839 (Simulation time: 4 hr 14 min 3 sec) 
Heartbeat CPU 3 instructions: 1600000000 cycles: 1758761090 heartbeat IPC: 0.793436 cumulative IPC: 0.828343 (Simulation time: 4 hr 14 min 9 sec) 
Heartbeat CPU 0 instructions: 520000000 cycles: 1761566069 heartbeat IPC: 0.194472 cumulative IPC: 0.195462 (Simulation time: 4 hr 14 min 30 sec) 
Heartbeat CPU 3 instructions: 1610000001 cycles: 1771453692 heartbeat IPC: 0.787861 cumulative IPC: 0.828031 (Simulation time: 4 hr 15 min 41 sec) 
Heartbeat CPU 2 instructions: 1360000000 cycles: 1774894828 heartbeat IPC: 0.587137 cumulative IPC: 0.65513 (Simulation time: 4 hr 16 min 5 sec) 
Heartbeat CPU 3 instructions: 1620000000 cycles: 1784091804 heartbeat IPC: 0.791257 cumulative IPC: 0.827751 (Simulation time: 4 hr 17 min 9 sec) 
Heartbeat CPU 2 instructions: 1370000001 cycles: 1792531657 heartbeat IPC: 0.566995 cumulative IPC: 0.654198 (Simulation time: 4 hr 18 min 12 sec) 
Heartbeat CPU 3 instructions: 1630000000 cycles: 1796567228 heartbeat IPC: 0.801576 cumulative IPC: 0.827556 (Simulation time: 4 hr 18 min 43 sec) 
Heartbeat CPU 1 instructions: 640000000 cycles: 1797411037 heartbeat IPC: 0.231353 cumulative IPC: 0.229845 (Simulation time: 4 hr 18 min 48 sec) 
Heartbeat CPU 3 instructions: 1640000000 cycles: 1809186605 heartbeat IPC: 0.792432 cumulative IPC: 0.827293 (Simulation time: 4 hr 20 min 19 sec) 
Heartbeat CPU 2 instructions: 1380000000 cycles: 1810645321 heartbeat IPC: 0.552069 cumulative IPC: 0.653101 (Simulation time: 4 hr 20 min 30 sec) 
Heartbeat CPU 0 instructions: 530000001 cycles: 1815700090 heartbeat IPC: 0.184727 cumulative IPC: 0.195119 (Simulation time: 4 hr 21 min 7 sec) 
Heartbeat CPU 3 instructions: 1650000002 cycles: 1821903760 heartbeat IPC: 0.78634 cumulative IPC: 0.826986 (Simulation time: 4 hr 21 min 53 sec) 
Heartbeat CPU 2 instructions: 1390000001 cycles: 1828812919 heartbeat IPC: 0.550431 cumulative IPC: 0.652007 (Simulation time: 4 hr 22 min 45 sec) 
Heartbeat CPU 3 instructions: 1660000000 cycles: 1834388370 heartbeat IPC: 0.800986 cumulative IPC: 0.826796 (Simulation time: 4 hr 23 min 32 sec) 
Heartbeat CPU 1 instructions: 650000000 cycles: 1840400020 heartbeat IPC: 0.232618 cumulative IPC: 0.229915 (Simulation time: 4 hr 24 min 17 sec) 
Heartbeat CPU 3 instructions: 1670000002 cycles: 1846862414 heartbeat IPC: 0.801665 cumulative IPC: 0.826614 (Simulation time: 4 hr 25 min 3 sec) 
Heartbeat CPU 2 instructions: 1400000000 cycles: 1846998104 heartbeat IPC: 0.549898 cumulative IPC: 0.650929 (Simulation time: 4 hr 25 min 4 sec) 
Heartbeat CPU 3 instructions: 1680000000 cycles: 1859434126 heartbeat IPC: 0.795436 cumulative IPC: 0.826388 (Simulation time: 4 hr 26 min 35 sec) 
Heartbeat CPU 2 instructions: 1410000003 cycles: 1863951815 heartbeat IPC: 0.589842 cumulative IPC: 0.650333 (Simulation time: 4 hr 27 min 11 sec) 
Heartbeat CPU 0 instructions: 540000000 cycles: 1866758666 heartbeat IPC: 0.195853 cumulative IPC: 0.19514 (Simulation time: 4 hr 27 min 34 sec) 
Heartbeat CPU 3 instructions: 1690000000 cycles: 1871985031 heartbeat IPC: 0.796755 cumulative IPC: 0.826176 (Simulation time: 4 hr 28 min 16 sec) 
Heartbeat CPU 1 instructions: 660000000 cycles: 1882246687 heartbeat IPC: 0.238968 cumulative IPC: 0.23013 (Simulation time: 4 hr 29 min 36 sec) 
Heartbeat CPU 2 instructions: 1420000000 cycles: 1882767562 heartbeat IPC: 0.53147 cumulative IPC: 0.649062 (Simulation time: 4 hr 29 min 40 sec) 
Heartbeat CPU 3 instructions: 1700000000 cycles: 1884505704 heartbeat IPC: 0.798679 cumulative IPC: 0.82598 (Simulation time: 4 hr 29 min 55 sec) 
Heartbeat CPU 3 instructions: 1710000002 cycles: 1897035469 heartbeat IPC: 0.7981 cumulative IPC: 0.825783 (Simulation time: 4 hr 31 min 31 sec) 
Heartbeat CPU 2 instructions: 1430000001 cycles: 1902099767 heartbeat IPC: 0.517272 cumulative IPC: 0.647628 (Simulation time: 4 hr 32 min 7 sec) 
Heartbeat CPU 3 instructions: 1720000000 cycles: 1909695638 heartbeat IPC: 0.789879 cumulative IPC: 0.825528 (Simulation time: 4 hr 33 min 1 sec) 
Heartbeat CPU 0 instructions: 550000000 cycles: 1918403157 heartbeat IPC: 0.193632 cumulative IPC: 0.195097 (Simulation time: 4 hr 34 min 3 sec) 
Heartbeat CPU 2 instructions: 1440000000 cycles: 1921391007 heartbeat IPC: 0.51837 cumulative IPC: 0.646241 (Simulation time: 4 hr 34 min 23 sec) 
Heartbeat CPU 3 instructions: 1730000003 cycles: 1922297006 heartbeat IPC: 0.793565 cumulative IPC: 0.825304 (Simulation time: 4 hr 34 min 29 sec) 
Heartbeat CPU 1 instructions: 670000001 cycles: 1925525631 heartbeat IPC: 0.231059 cumulative IPC: 0.230152 (Simulation time: 4 hr 34 min 52 sec) 
Heartbeat CPU 3 instructions: 1740000000 cycles: 1934781994 heartbeat IPC: 0.800962 cumulative IPC: 0.825136 (Simulation time: 4 hr 35 min 52 sec) 
Heartbeat CPU 2 instructions: 1450000001 cycles: 1939935095 heartbeat IPC: 0.539255 cumulative IPC: 0.645148 (Simulation time: 4 hr 36 min 27 sec) 
Heartbeat CPU 3 instructions: 1750000000 cycles: 1947346226 heartbeat IPC: 0.79591 cumulative IPC: 0.824935 (Simulation time: 4 hr 37 min 16 sec) 
Heartbeat CPU 2 instructions: 1460000000 cycles: 1959153486 heartbeat IPC: 0.520335 cumulative IPC: 0.64384 (Simulation time: 4 hr 38 min 34 sec) 
Heartbeat CPU 3 instructions: 1760000000 cycles: 1959985676 heartbeat IPC: 0.791174 cumulative IPC: 0.824703 (Simulation time: 4 hr 38 min 40 sec) 
Heartbeat CPU 1 instructions: 680000000 cycles: 1965621309 heartbeat IPC: 0.249403 cumulative IPC: 0.230572 (Simulation time: 4 hr 39 min 17 sec) 
Heartbeat CPU 0 instructions: 560000000 cycles: 1968113206 heartbeat IPC: 0.201167 cumulative IPC: 0.19526 (Simulation time: 4 hr 39 min 34 sec) 
Heartbeat CPU 3 instructions: 1770000001 cycles: 1972677278 heartbeat IPC: 0.787923 cumulative IPC: 0.82445 (Simulation time: 4 hr 40 min 4 sec) 
Heartbeat CPU 2 instructions: 1470000000 cycles: 1977809395 heartbeat IPC: 0.536023 cumulative IPC: 0.642755 (Simulation time: 4 hr 40 min 39 sec) 
Heartbeat CPU 3 instructions: 1780000000 cycles: 1985299032 heartbeat IPC: 0.792283 cumulative IPC: 0.824232 (Simulation time: 4 hr 41 min 28 sec) 
Heartbeat CPU 2 instructions: 1480000000 cycles: 1996595672 heartbeat IPC: 0.532303 cumulative IPC: 0.641647 (Simulation time: 4 hr 42 min 49 sec) 
Heartbeat CPU 3 instructions: 1790000003 cycles: 1997955153 heartbeat IPC: 0.790132 cumulative IPC: 0.824001 (Simulation time: 4 hr 42 min 58 sec) 
Heartbeat CPU 1 instructions: 690000000 cycles: 2008558677 heartbeat IPC: 0.232897 cumulative IPC: 0.230625 (Simulation time: 4 hr 44 min 13 sec) 
Heartbeat CPU 3 instructions: 1800000000 cycles: 2010642286 heartbeat IPC: 0.7882 cumulative IPC: 0.823761 (Simulation time: 4 hr 44 min 28 sec) 
Heartbeat CPU 2 instructions: 1490000003 cycles: 2015638303 heartbeat IPC: 0.525138 cumulative IPC: 0.640474 (Simulation time: 4 hr 45 min 3 sec) 
Heartbeat CPU 0 instructions: 570000000 cycles: 2018864852 heartbeat IPC: 0.197038 cumulative IPC: 0.195308 (Simulation time: 4 hr 45 min 27 sec) 
Heartbeat CPU 3 instructions: 1810000000 cycles: 2023132746 heartbeat IPC: 0.800611 cumulative IPC: 0.823608 (Simulation time: 4 hr 45 min 57 sec) 
Heartbeat CPU 2 instructions: 1500000000 cycles: 2034704703 heartbeat IPC: 0.524483 cumulative IPC: 0.639316 (Simulation time: 4 hr 47 min 20 sec) 
Heartbeat CPU 3 instructions: 1820000000 cycles: 2035711559 heartbeat IPC: 0.794988 cumulative IPC: 0.82342 (Simulation time: 4 hr 47 min 27 sec) 
Heartbeat CPU 3 instructions: 1830000001 cycles: 2048262707 heartbeat IPC: 0.79674 cumulative IPC: 0.823246 (Simulation time: 4 hr 48 min 55 sec) 
Heartbeat CPU 1 instructions: 700000000 cycles: 2052936851 heartbeat IPC: 0.225336 cumulative IPC: 0.230503 (Simulation time: 4 hr 49 min 27 sec) 
Heartbeat CPU 2 instructions: 1510000001 cycles: 2053478059 heartbeat IPC: 0.53267 cumulative IPC: 0.638278 (Simulation time: 4 hr 49 min 30 sec) 
Heartbeat CPU 3 instructions: 1840000000 cycles: 2060820536 heartbeat IPC: 0.796316 cumulative IPC: 0.823071 (Simulation time: 4 hr 50 min 22 sec) 
Heartbeat CPU 2 instructions: 1520000000 cycles: 2071967038 heartbeat IPC: 0.540863 cumulative IPC: 0.637353 (Simulation time: 4 hr 51 min 39 sec) 
Heartbeat CPU 3 instructions: 1850000002 cycles: 2073512636 heartbeat IPC: 0.787892 cumulative IPC: 0.822842 (Simulation time: 4 hr 51 min 51 sec) 
Heartbeat CPU 0 instructions: 580000000 cycles: 2075299136 heartbeat IPC: 0.177197 cumulative IPC: 0.194784 (Simulation time: 4 hr 52 min 3 sec) 
Heartbeat CPU 3 instructions: 1860000000 cycles: 2086161226 heartbeat IPC: 0.790602 cumulative IPC: 0.822634 (Simulation time: 4 hr 53 min 20 sec) 
Heartbeat CPU 2 instructions: 1530000002 cycles: 2090237524 heartbeat IPC: 0.547331 cumulative IPC: 0.636517 (Simulation time: 4 hr 53 min 49 sec) 
Heartbeat CPU 1 instructions: 710000001 cycles: 2094487998 heartbeat IPC: 0.240667 cumulative IPC: 0.230717 (Simulation time: 4 hr 54 min 18 sec) 
Heartbeat CPU 3 instructions: 1870000000 cycles: 2099117044 heartbeat IPC: 0.771854 cumulative IPC: 0.822301 (Simulation time: 4 hr 54 min 50 sec) 
Heartbeat CPU 2 instructions: 1540000000 cycles: 2109176750 heartbeat IPC: 0.528005 cumulative IPC: 0.635481 (Simulation time: 4 hr 56 min 0 sec) 
Heartbeat CPU 3 instructions: 1880000000 cycles: 2111705112 heartbeat IPC: 0.794403 cumulative IPC: 0.822124 (Simulation time: 4 hr 56 min 18 sec) 
Heartbeat CPU 3 instructions: 1890000000 cycles: 2124273318 heartbeat IPC: 0.795659 cumulative IPC: 0.821958 (Simulation time: 4 hr 57 min 47 sec) 
Heartbeat CPU 2 instructions: 1550000001 cycles: 2127727195 heartbeat IPC: 0.539071 cumulative IPC: 0.634588 (Simulation time: 4 hr 58 min 13 sec) 
Heartbeat CPU 0 instructions: 590000002 cycles: 2131189538 heartbeat IPC: 0.178922 cumulative IPC: 0.194342 (Simulation time: 4 hr 58 min 37 sec) 
Heartbeat CPU 3 instructions: 1900000000 cycles: 2136907839 heartbeat IPC: 0.791482 cumulative IPC: 0.821767 (Simulation time: 4 hr 59 min 18 sec) 
Heartbeat CPU 1 instructions: 720000000 cycles: 2137431673 heartbeat IPC: 0.232863 cumulative IPC: 0.230763 (Simulation time: 4 hr 59 min 22 sec) 
Heartbeat CPU 2 instructions: 1560000000 cycles: 2146173958 heartbeat IPC: 0.5421 cumulative IPC: 0.633745 (Simulation time: 5 hr 0 min 25 sec) 
Heartbeat CPU 3 instructions: 1910000000 cycles: 2149453116 heartbeat IPC: 0.797113 cumulative IPC: 0.821614 (Simulation time: 5 hr 0 min 48 sec) 
Heartbeat CPU 3 instructions: 1920000000 cycles: 2161918332 heartbeat IPC: 0.802232 cumulative IPC: 0.821495 (Simulation time: 5 hr 2 min 18 sec) 
Heartbeat CPU 2 instructions: 1570000003 cycles: 2164784588 heartbeat IPC: 0.537327 cumulative IPC: 0.632865 (Simulation time: 5 hr 2 min 39 sec) 
Heartbeat CPU 3 instructions: 1930000000 cycles: 2174491025 heartbeat IPC: 0.795375 cumulative IPC: 0.821335 (Simulation time: 5 hr 3 min 47 sec) 
Heartbeat CPU 0 instructions: 600000000 cycles: 2179830162 heartbeat IPC: 0.205589 cumulative IPC: 0.194608 (Simulation time: 5 hr 4 min 24 sec) 
Heartbeat CPU 1 instructions: 730000000 cycles: 2179935582 heartbeat IPC: 0.235272 cumulative IPC: 0.230856 (Simulation time: 5 hr 4 min 25 sec) 
Heartbeat CPU 2 instructions: 1580000000 cycles: 2184729866 heartbeat IPC: 0.501372 cumulative IPC: 0.631592 (Simulation time: 5 hr 4 min 58 sec) 
Heartbeat CPU 3 instructions: 1940000000 cycles: 2187196548 heartbeat IPC: 0.787059 cumulative IPC: 0.821124 (Simulation time: 5 hr 5 min 15 sec) 
Heartbeat CPU 3 instructions: 1950000002 cycles: 2199960973 heartbeat IPC: 0.783428 cumulative IPC: 0.820892 (Simulation time: 5 hr 6 min 45 sec) 
Heartbeat CPU 2 instructions: 1590000003 cycles: 2206546090 heartbeat IPC: 0.458375 cumulative IPC: 0.629777 (Simulation time: 5 hr 7 min 29 sec) 
Heartbeat CPU 3 instructions: 1960000000 cycles: 2212701308 heartbeat IPC: 0.784909 cumulative IPC: 0.820673 (Simulation time: 5 hr 8 min 11 sec) 
Heartbeat CPU 1 instructions: 740000000 cycles: 2222686010 heartbeat IPC: 0.233916 cumulative IPC: 0.230919 (Simulation time: 5 hr 9 min 17 sec) 
Heartbeat CPU 3 instructions: 1970000002 cycles: 2225220685 heartbeat IPC: 0.798762 cumulative IPC: 0.820542 (Simulation time: 5 hr 9 min 34 sec) 
Heartbeat CPU 2 instructions: 1600000000 cycles: 2229131580 heartbeat IPC: 0.442762 cumulative IPC: 0.62777 (Simulation time: 5 hr 10 min 1 sec) 
Heartbeat CPU 0 instructions: 610000000 cycles: 2231501886 heartbeat IPC: 0.193529 cumulative IPC: 0.194582 (Simulation time: 5 hr 10 min 17 sec) 
Heartbeat CPU 3 instructions: 1980000000 cycles: 2237667275 heartbeat IPC: 0.803433 cumulative IPC: 0.820441 (Simulation time: 5 hr 11 min 0 sec) 
Heartbeat CPU 2 instructions: 1610000000 cycles: 2247035799 heartbeat IPC: 0.558528 cumulative IPC: 0.627186 (Simulation time: 5 hr 12 min 11 sec) 
Heartbeat CPU 3 instructions: 1990000002 cycles: 2250186540 heartbeat IPC: 0.798769 cumulative IPC: 0.820314 (Simulation time: 5 hr 12 min 36 sec) 
Heartbeat CPU 2 instructions: 1620000000 cycles: 2262434658 heartbeat IPC: 0.649399 cumulative IPC: 0.627346 (Simulation time: 5 hr 14 min 10 sec) 
*** Reached end of trace for Core: 3 Repeating trace: /scratch/user/djimenez/champsim-traces/speccpu2017/xz/654.roms_s/654.roms_s-1007B.champsimtrace.xz
Heartbeat CPU 3 instructions: 2000000000 cycles: 2263091571 heartbeat IPC: 0.774891 cumulative IPC: 0.82004 (Simulation time: 5 hr 14 min 16 sec) 
Heartbeat CPU 1 instructions: 750000000 cycles: 2265876929 heartbeat IPC: 0.23153 cumulative IPC: 0.230931 (Simulation time: 5 hr 14 min 36 sec) 
Heartbeat CPU 2 instructions: 1630000001 cycles: 2277847022 heartbeat IPC: 0.64883 cumulative IPC: 0.6275 (Simulation time: 5 hr 16 min 3 sec) 
Heartbeat CPU 0 instructions: 620000000 cycles: 2279553594 heartbeat IPC: 0.208109 cumulative IPC: 0.194884 (Simulation time: 5 hr 16 min 15 sec) 
Heartbeat CPU 3 instructions: 2010000002 cycles: 2280230632 heartbeat IPC: 0.583463 cumulative IPC: 0.818159 (Simulation time: 5 hr 16 min 20 sec) 
Heartbeat CPU 2 instructions: 1640000000 cycles: 2294900172 heartbeat IPC: 0.586402 cumulative IPC: 0.627177 (Simulation time: 5 hr 17 min 59 sec) 
Heartbeat CPU 3 instructions: 2020000000 cycles: 2297340879 heartbeat IPC: 0.584445 cumulative IPC: 0.816319 (Simulation time: 5 hr 18 min 15 sec) 
Heartbeat CPU 1 instructions: 760000000 cycles: 2308705615 heartbeat IPC: 0.233488 cumulative IPC: 0.230981 (Simulation time: 5 hr 19 min 24 sec) 
Heartbeat CPU 3 instructions: 2030000000 cycles: 2314477143 heartbeat IPC: 0.583558 cumulative IPC: 0.814497 (Simulation time: 5 hr 20 min 2 sec) 
Heartbeat CPU 2 instructions: 1650000002 cycles: 2314644454 heartbeat IPC: 0.506476 cumulative IPC: 0.626089 (Simulation time: 5 hr 20 min 3 sec) 
Heartbeat CPU 0 instructions: 630000000 cycles: 2330554455 heartbeat IPC: 0.196075 cumulative IPC: 0.194911 (Simulation time: 5 hr 21 min 43 sec) 
Heartbeat CPU 3 instructions: 2040000000 cycles: 2331590713 heartbeat IPC: 0.584332 cumulative IPC: 0.812713 (Simulation time: 5 hr 21 min 49 sec) 
Heartbeat CPU 2 instructions: 1660000000 cycles: 2334493149 heartbeat IPC: 0.503811 cumulative IPC: 0.624991 (Simulation time: 5 hr 22 min 6 sec) 
Heartbeat CPU 3 instructions: 2050000003 cycles: 2345895849 heartbeat IPC: 0.69905 cumulative IPC: 0.811981 (Simulation time: 5 hr 23 min 15 sec) 
Heartbeat CPU 2 instructions: 1670000003 cycles: 2354193405 heartbeat IPC: 0.507608 cumulative IPC: 0.623954 (Simulation time: 5 hr 24 min 1 sec) 
Heartbeat CPU 1 instructions: 770000003 cycles: 2354314586 heartbeat IPC: 0.219255 cumulative IPC: 0.230741 (Simulation time: 5 hr 24 min 2 sec) 
Heartbeat CPU 3 instructions: 2060000000 cycles: 2362713625 heartbeat IPC: 0.594609 cumulative IPC: 0.810347 (Simulation time: 5 hr 24 min 54 sec) 
Heartbeat CPU 2 instructions: 1680000000 cycles: 2372194885 heartbeat IPC: 0.55551 cumulative IPC: 0.623406 (Simulation time: 5 hr 25 min 51 sec) 
Heartbeat CPU 3 instructions: 2070000003 cycles: 2379828476 heartbeat IPC: 0.584288 cumulative IPC: 0.808632 (Simulation time: 5 hr 26 min 37 sec) 
Heartbeat CPU 0 instructions: 640000000 cycles: 2386023278 heartbeat IPC: 0.180281 cumulative IPC: 0.194552 (Simulation time: 5 hr 27 min 15 sec) 
Heartbeat CPU 2 instructions: 1690000000 cycles: 2393744053 heartbeat IPC: 0.464055 cumulative IPC: 0.621893 (Simulation time: 5 hr 28 min 1 sec) 
Heartbeat CPU 1 instructions: 780000000 cycles: 2396838386 heartbeat IPC: 0.235162 cumulative IPC: 0.230824 (Simulation time: 5 hr 28 min 20 sec) 
Heartbeat CPU 3 instructions: 2080000000 cycles: 2396953895 heartbeat IPC: 0.583927 cumulative IPC: 0.806939 (Simulation time: 5 hr 28 min 21 sec) 
Heartbeat CPU 3 instructions: 2090000003 cycles: 2414083567 heartbeat IPC: 0.583782 cumulative IPC: 0.805269 (Simulation time: 5 hr 30 min 5 sec) 
Heartbeat CPU 2 instructions: 1700000000 cycles: 2415671144 heartbeat IPC: 0.456057 cumulative IPC: 0.620305 (Simulation time: 5 hr 30 min 16 sec) 
Heartbeat CPU 3 instructions: 2100000000 cycles: 2431191562 heartbeat IPC: 0.584522 cumulative IPC: 0.803632 (Simulation time: 5 hr 31 min 54 sec) 
Heartbeat CPU 2 instructions: 1710000003 cycles: 2437464176 heartbeat IPC: 0.458862 cumulative IPC: 0.618784 (Simulation time: 5 hr 32 min 33 sec) 
Heartbeat CPU 0 instructions: 650000001 cycles: 2439259561 heartbeat IPC: 0.187842 cumulative IPC: 0.194398 (Simulation time: 5 hr 32 min 43 sec) 
Heartbeat CPU 1 instructions: 790000003 cycles: 2440706196 heartbeat IPC: 0.227958 cumulative IPC: 0.23077 (Simulation time: 5 hr 32 min 52 sec) 
Heartbeat CPU 3 instructions: 2110000002 cycles: 2448322932 heartbeat IPC: 0.583725 cumulative IPC: 0.802011 (Simulation time: 5 hr 33 min 40 sec) 
Heartbeat CPU 2 instructions: 1720000000 cycles: 2459524526 heartbeat IPC: 0.453302 cumulative IPC: 0.617221 (Simulation time: 5 hr 34 min 51 sec) 
Heartbeat CPU 3 instructions: 2120000000 cycles: 2464293202 heartbeat IPC: 0.626163 cumulative IPC: 0.800811 (Simulation time: 5 hr 35 min 21 sec) 
Heartbeat CPU 3 instructions: 2130000003 cycles: 2479574725 heartbeat IPC: 0.654385 cumulative IPC: 0.799861 (Simulation time: 5 hr 36 min 51 sec) 
Heartbeat CPU 2 instructions: 1730000001 cycles: 2482645505 heartbeat IPC: 0.432508 cumulative IPC: 0.61541 (Simulation time: 5 hr 37 min 10 sec) 
Heartbeat CPU 1 instructions: 800000000 cycles: 2489634284 heartbeat IPC: 0.204382 cumulative IPC: 0.230224 (Simulation time: 5 hr 37 min 54 sec) 
Heartbeat CPU 0 instructions: 660000000 cycles: 2495569329 heartbeat IPC: 0.177589 cumulative IPC: 0.193999 (Simulation time: 5 hr 38 min 31 sec) 
Heartbeat CPU 3 instructions: 2140000000 cycles: 2496853139 heartbeat IPC: 0.578757 cumulative IPC: 0.79825 (Simulation time: 5 hr 38 min 38 sec) 
Heartbeat CPU 2 instructions: 1740000000 cycles: 2503310660 heartbeat IPC: 0.483906 cumulative IPC: 0.614268 (Simulation time: 5 hr 39 min 18 sec) 
Heartbeat CPU 3 instructions: 2150000000 cycles: 2514041976 heartbeat IPC: 0.581773 cumulative IPC: 0.796693 (Simulation time: 5 hr 40 min 31 sec) 
Heartbeat CPU 2 instructions: 1750000001 cycles: 2518421445 heartbeat IPC: 0.661779 cumulative IPC: 0.614568 (Simulation time: 5 hr 40 min 59 sec) 
Heartbeat CPU 3 instructions: 2160000000 cycles: 2531329656 heartbeat IPC: 0.578447 cumulative IPC: 0.795126 (Simulation time: 5 hr 42 min 20 sec) 
Heartbeat CPU 1 instructions: 810000002 cycles: 2532478678 heartbeat IPC: 0.233403 cumulative IPC: 0.23028 (Simulation time: 5 hr 42 min 27 sec) 
[...]
Heartbeat CPU 2 instructions: 3360000000 cycles: 5090173227 heartbeat IPC: 0.583065 cumulative IPC: 0.620505 (Simulation time: 10 hr 31 min 2 sec) 
Heartbeat CPU 3 instructions: 4170000003 cycles: 5096899991 heartbeat IPC: 0.583429 cumulative IPC: 0.789102 (Simulation time: 10 hr 31 min 41 sec) 
Heartbeat CPU 0 instructions: 1160000000 cycles: 5099933741 heartbeat IPC: 0.202156 cumulative IPC: 0.192945 (Simulation time: 10 hr 31 min 59 sec) 
Heartbeat CPU 2 instructions: 3370000001 cycles: 5107747803 heartbeat IPC: 0.569004 cumulative IPC: 0.620324 (Simulation time: 10 hr 32 min 46 sec) 
Heartbeat CPU 3 instructions: 4180000000 cycles: 5114144107 heartbeat IPC: 0.579908 cumulative IPC: 0.788379 (Simulation time: 10 hr 33 min 22 sec) 
Heartbeat CPU 2 instructions: 3380000000 cycles: 5125855407 heartbeat IPC: 0.552254 cumulative IPC: 0.620077 (Simulation time: 10 hr 34 min 31 sec) 
Heartbeat CPU 1 instructions: 1410000000 cycles: 5127950002 heartbeat IPC: 0.243937 cumulative IPC: 0.230743 (Simulation time: 10 hr 34 min 43 sec) 
Heartbeat CPU 3 instructions: 4190000003 cycles: 5131291216 heartbeat IPC: 0.583189 cumulative IPC: 0.787677 (Simulation time: 10 hr 35 min 4 sec) 
Heartbeat CPU 3 instructions: 4200000000 cycles: 5144720748 heartbeat IPC: 0.744627 cumulative IPC: 0.787562 (Simulation time: 10 hr 36 min 21 sec) 
Heartbeat CPU 2 instructions: 3390000001 cycles: 5145329964 heartbeat IPC: 0.513491 cumulative IPC: 0.619664 (Simulation time: 10 hr 36 min 24 sec) 
Heartbeat CPU 0 instructions: 1170000002 cycles: 5156689386 heartbeat IPC: 0.176194 cumulative IPC: 0.192756 (Simulation time: 10 hr 37 min 27 sec) 
Heartbeat CPU 3 instructions: 4210000000 cycles: 5162109105 heartbeat IPC: 0.575097 cumulative IPC: 0.786828 (Simulation time: 10 hr 37 min 59 sec) 
Heartbeat CPU 2 instructions: 3400000000 cycles: 5163903891 heartbeat IPC: 0.538389 cumulative IPC: 0.619364 (Simulation time: 10 hr 38 min 10 sec) 
Heartbeat CPU 1 instructions: 1420000000 cycles: 5173182755 heartbeat IPC: 0.221079 cumulative IPC: 0.230656 (Simulation time: 10 hr 39 min 4 sec) 
Heartbeat CPU 3 instructions: 4220000000 cycles: 5179204743 heartbeat IPC: 0.584945 cumulative IPC: 0.786145 (Simulation time: 10 hr 39 min 40 sec) 
Heartbeat CPU 2 instructions: 3410000003 cycles: 5180904025 heartbeat IPC: 0.588231 cumulative IPC: 0.619259 (Simulation time: 10 hr 39 min 50 sec) 
Heartbeat CPU 3 instructions: 4230000003 cycles: 5196331527 heartbeat IPC: 0.583881 cumulative IPC: 0.785462 (Simulation time: 10 hr 41 min 21 sec) 
Heartbeat CPU 2 instructions: 3420000000 cycles: 5199904886 heartbeat IPC: 0.526292 cumulative IPC: 0.618911 (Simulation time: 10 hr 41 min 42 sec) 
Heartbeat CPU 0 instructions: 1180000000 cycles: 5207372987 heartbeat IPC: 0.197302 cumulative IPC: 0.192801 (Simulation time: 10 hr 42 min 25 sec) 
Heartbeat CPU 3 instructions: 4240000000 cycles: 5213436565 heartbeat IPC: 0.584623 cumulative IPC: 0.784787 (Simulation time: 10 hr 43 min 0 sec) 
Heartbeat CPU 1 instructions: 1430000000 cycles: 5215010640 heartbeat IPC: 0.239075 cumulative IPC: 0.230725 (Simulation time: 10 hr 43 min 10 sec) 
Heartbeat CPU 2 instructions: 3430000001 cycles: 5219081335 heartbeat IPC: 0.521473 cumulative IPC: 0.618545 (Simulation time: 10 hr 43 min 34 sec) 
Heartbeat CPU 3 instructions: 4250000001 cycles: 5230549431 heartbeat IPC: 0.584356 cumulative IPC: 0.784116 (Simulation time: 10 hr 44 min 40 sec) 
Heartbeat CPU 2 instructions: 3440000000 cycles: 5238266895 heartbeat IPC: 0.521225 cumulative IPC: 0.61818 (Simulation time: 10 hr 45 min 25 sec) 
Heartbeat CPU 3 instructions: 4260000000 cycles: 5247655099 heartbeat IPC: 0.584601 cumulative IPC: 0.783449 (Simulation time: 10 hr 46 min 20 sec) 
Heartbeat CPU 1 instructions: 1440000000 cycles: 5255485574 heartbeat IPC: 0.247066 cumulative IPC: 0.230854 (Simulation time: 10 hr 47 min 5 sec) 
Heartbeat CPU 2 instructions: 3450000002 cycles: 5256956040 heartbeat IPC: 0.53507 cumulative IPC: 0.617877 (Simulation time: 10 hr 47 min 13 sec) 
Heartbeat CPU 0 instructions: 1190000002 cycles: 5260652623 heartbeat IPC: 0.187689 cumulative IPC: 0.192748 (Simulation time: 10 hr 47 min 35 sec) 
Heartbeat CPU 3 instructions: 4270000002 cycles: 5262435063 heartbeat IPC: 0.676592 cumulative IPC: 0.783142 (Simulation time: 10 hr 47 min 45 sec) 
Heartbeat CPU 2 instructions: 3460000000 cycles: 5277886042 heartbeat IPC: 0.477783 cumulative IPC: 0.617308 (Simulation time: 10 hr 49 min 6 sec) 
Heartbeat CPU 3 instructions: 4280000000 cycles: 5278695037 heartbeat IPC: 0.615007 cumulative IPC: 0.782612 (Simulation time: 10 hr 49 min 11 sec) 
Heartbeat CPU 3 instructions: 4290000000 cycles: 5295777032 heartbeat IPC: 0.585412 cumulative IPC: 0.78196 (Simulation time: 10 hr 50 min 50 sec) 
Heartbeat CPU 2 instructions: 3470000001 cycles: 5296544791 heartbeat IPC: 0.535942 cumulative IPC: 0.617014 (Simulation time: 10 hr 50 min 55 sec) 
Heartbeat CPU 1 instructions: 1450000003 cycles: 5302301140 heartbeat IPC: 0.213604 cumulative IPC: 0.230698 (Simulation time: 10 hr 51 min 28 sec) 
Heartbeat CPU 3 instructions: 4300000000 cycles: 5312839290 heartbeat IPC: 0.586089 cumulative IPC: 0.781316 (Simulation time: 10 hr 52 min 29 sec) 
Heartbeat CPU 2 instructions: 3480000000 cycles: 5315275721 heartbeat IPC: 0.533876 cumulative IPC: 0.616714 (Simulation time: 10 hr 52 min 44 sec) 
Heartbeat CPU 0 instructions: 1200000000 cycles: 5317226591 heartbeat IPC: 0.17676 cumulative IPC: 0.192574 (Simulation time: 10 hr 52 min 55 sec) 
Finished CPU 0 instructions: 1000000000 cycles: 5192805276 cumulative IPC: 0.192574 (Simulation time: 10 hr 52 min 55 sec) 

CPU 0 Branch Prediction Accuracy: 96.8196% MPKI: 9.50327

CPU 1 Branch Prediction Accuracy: 99.5328% MPKI: 1.56968

CPU 2 Branch Prediction Accuracy: 90.5137% MPKI: 12.4045

CPU 3 Branch Prediction Accuracy: 99.8566% MPKI: 0.0916477

ChampSim completed all CPUs

Total Simulation Statistics (not including warmup)

CPU 0 cumulative IPC: 0.192574 instructions: 1000000000 cycles: 5192805276
L1D TOTAL     ACCESS:  225880069  HIT:   68998262  MISS:  156881807
L1D LOAD      ACCESS:  209791650  HIT:   53229206  MISS:  156562444
L1D RFO       ACCESS:   16088419  HIT:   15769056  MISS:     319363
L1D PREFETCH  ACCESS:          0  HIT:          0  MISS:          0
L1D WRITEBACK ACCESS:          0  HIT:          0  MISS:          0
L1I TOTAL     ACCESS:  215007294  HIT:  215007294  MISS:          0
L1I LOAD      ACCESS:  215007294  HIT:  215007294  MISS:          0
L1I RFO       ACCESS:          0  HIT:          0  MISS:          0
L1I PREFETCH  ACCESS:          0  HIT:          0  MISS:          0
L1I WRITEBACK ACCESS:          0  HIT:          0  MISS:          0
L2C TOTAL     ACCESS:  259626619  HIT:   53177414  MISS:  206449205
L2C LOAD      ACCESS:  156562128  HIT:   48529600  MISS:  108032528
L2C RFO       ACCESS:     319363  HIT:       7839  MISS:     311524
L2C PREFETCH  ACCESS:  100451098  HIT:    2348573  MISS:   98102525
L2C WRITEBACK ACCESS:    2294030  HIT:    2291402  MISS:       2628

L2C Best-offset prefetcher final stats
LLC TOTAL     ACCESS:  218813464  HIT:  135377058  MISS:   83436406
LLC LOAD      ACCESS:  107242537  HIT:   80154586  MISS:   27087951
LLC RFO       ACCESS:     311522  HIT:     282687  MISS:      28835
LLC PREFETCH  ACCESS:  109061343  HIT:   52741724  MISS:   56319619
LLC WRITEBACK ACCESS:    2198062  HIT:    2198061  MISS:          1

CPU 1 cumulative IPC: 0.230736 instructions: 1198168415 cycles: 5192805277
L1D TOTAL     ACCESS:  213876329  HIT:  127783753  MISS:   86092576
L1D LOAD      ACCESS:  195272842  HIT:  109234639  MISS:   86038203
L1D RFO       ACCESS:   18603487  HIT:   18549114  MISS:      54373
L1D PREFETCH  ACCESS:          0  HIT:          0  MISS:          0
L1D WRITEBACK ACCESS:          0  HIT:          0  MISS:          0
L1I TOTAL     ACCESS:  435528142  HIT:  435528078  MISS:         64
L1I LOAD      ACCESS:  435528142  HIT:  435528078  MISS:         64
L1I RFO       ACCESS:          0  HIT:          0  MISS:          0
L1I PREFETCH  ACCESS:          0  HIT:          0  MISS:          0
L1I WRITEBACK ACCESS:          0  HIT:          0  MISS:          0
L2C TOTAL     ACCESS:  148936669  HIT:   64356172  MISS:   84580497
L2C LOAD      ACCESS:   86038267  HIT:   63892357  MISS:   22145910
L2C RFO       ACCESS:      54373  HIT:       9237  MISS:      45136
L2C PREFETCH  ACCESS:   62519908  HIT:     130523  MISS:   62389385
L2C WRITEBACK ACCESS:     324121  HIT:     324055  MISS:         66

L2C Best-offset prefetcher final stats
LLC TOTAL     ACCESS:   84733319  HIT:     305829  MISS:   84427490
LLC LOAD      ACCESS:    8709213  HIT:      85140  MISS:    8624073
LLC RFO       ACCESS:      45136  HIT:       9342  MISS:      35794
LLC PREFETCH  ACCESS:   75827283  HIT:      59931  MISS:   75767352
LLC WRITEBACK ACCESS:     151687  HIT:     151416  MISS:        271

CPU 2 cumulative IPC: 0.616677 instructions: 3202281503 cycles: 5192805277
L1D TOTAL     ACCESS:  684594429  HIT:  662020639  MISS:   22573790
L1D LOAD      ACCESS:  452026604  HIT:  432806327  MISS:   19220277
L1D RFO       ACCESS:  232567825  HIT:  229214312  MISS:    3353513
L1D PREFETCH  ACCESS:          0  HIT:          0  MISS:          0
L1D WRITEBACK ACCESS:          0  HIT:          0  MISS:          0
L1I TOTAL     ACCESS:  613057860  HIT:  613050883  MISS:       6977
L1I LOAD      ACCESS:  613057860  HIT:  613050883  MISS:       6977
L1I RFO       ACCESS:          0  HIT:          0  MISS:          0
L1I PREFETCH  ACCESS:          0  HIT:          0  MISS:          0
L1I WRITEBACK ACCESS:          0  HIT:          0  MISS:          0
L2C TOTAL     ACCESS:   48264552  HIT:   25066449  MISS:   23198103
L2C LOAD      ACCESS:   19226619  HIT:    7537149  MISS:   11689470
L2C RFO       ACCESS:    3351625  HIT:    1720921  MISS:    1630704
L2C PREFETCH  ACCESS:   10862011  HIT:    1073785  MISS:    9788226
L2C WRITEBACK ACCESS:   14824297  HIT:   14734594  MISS:      89703

L2C Best-offset prefetcher final stats
LLC TOTAL     ACCESS:   32796215  HIT:   15073658  MISS:   17722557
LLC LOAD      ACCESS:   11671599  HIT:    3193973  MISS:    8477626
LLC RFO       ACCESS:    1630524  HIT:     516743  MISS:    1113781
LLC PREFETCH  ACCESS:    9823893  HIT:    2263198  MISS:    7560695
LLC WRITEBACK ACCESS:    9670199  HIT:    9099744  MISS:     570455

CPU 3 cumulative IPC: 0.78115 instructions: 4056361339 cycles: 5192805277
L1D TOTAL     ACCESS: 1529744533  HIT: 1418290507  MISS:  111454026
L1D LOAD      ACCESS: 1176246823  HIT: 1078807882  MISS:   97438941
L1D RFO       ACCESS:  353497710  HIT:  339482625  MISS:   14015085
L1D PREFETCH  ACCESS:          0  HIT:          0  MISS:          0
L1D WRITEBACK ACCESS:          0  HIT:          0  MISS:          0
L1I TOTAL     ACCESS: 1325874294  HIT: 1325873896  MISS:        398
L1I LOAD      ACCESS: 1325874294  HIT: 1325873896  MISS:        398
L1I RFO       ACCESS:          0  HIT:          0  MISS:          0
L1I PREFETCH  ACCESS:          0  HIT:          0  MISS:          0
L1I WRITEBACK ACCESS:          0  HIT:          0  MISS:          0
L2C TOTAL     ACCESS:  159477636  HIT:  115952897  MISS:   43524739
L2C LOAD      ACCESS:   97432546  HIT:   92783370  MISS:    4649176
L2C RFO       ACCESS:   14012163  HIT:    4661194  MISS:    9350969
L2C PREFETCH  ACCESS:   29741515  HIT:     227182  MISS:   29514333
L2C WRITEBACK ACCESS:   18291412  HIT:   18281151  MISS:      10261

L2C Best-offset prefetcher final stats
LLC TOTAL     ACCESS:   56568826  HIT:   29439056  MISS:   27129770
LLC LOAD      ACCESS:    4103164  HIT:    2932074  MISS:    1171090
LLC RFO       ACCESS:    9350967  HIT:    3413860  MISS:    5937107
LLC PREFETCH  ACCESS:   30266596  HIT:   10621564  MISS:   19645032
LLC WRITEBACK ACCESS:   12848099  HIT:   12471558  MISS:     376541

Region of Interest Statistics

CPU 0 cumulative IPC: 0.192574 instructions: 1000000000 cycles: 5192805276
L1D TOTAL     ACCESS:  225880069  HIT:   68998262  MISS:  156881807
L1D LOAD      ACCESS:  209791650  HIT:   53229206  MISS:  156562444
L1D RFO       ACCESS:   16088419  HIT:   15769056  MISS:     319363
L1D PREFETCH  ACCESS:          0  HIT:          0  MISS:          0
L1D WRITEBACK ACCESS:          0  HIT:          0  MISS:          0
L1D PREFETCH  REQUESTED:          0  ISSUED:          0  USEFUL:          0  USELESS:          0
L1I TOTAL     ACCESS:  215007294  HIT:  215007294  MISS:          0
L1I LOAD      ACCESS:  215007294  HIT:  215007294  MISS:          0
L1I RFO       ACCESS:          0  HIT:          0  MISS:          0
L1I PREFETCH  ACCESS:          0  HIT:          0  MISS:          0
L1I WRITEBACK ACCESS:          0  HIT:          0  MISS:          0
L1I PREFETCH  REQUESTED:          0  ISSUED:          0  USEFUL:          0  USELESS:          0
L2C TOTAL     ACCESS:  259626619  HIT:   53177414  MISS:  206449205
L2C LOAD      ACCESS:  156562128  HIT:   48529600  MISS:  108032528
L2C RFO       ACCESS:     319363  HIT:       7839  MISS:     311524
L2C PREFETCH  ACCESS:  100451098  HIT:    2348573  MISS:   98102525
L2C WRITEBACK ACCESS:    2294030  HIT:    2291402  MISS:       2628
L2C PREFETCH  REQUESTED:  135892013  ISSUED:  135892013  USEFUL:   51326825  USELESS:   70379738
LLC TOTAL     ACCESS:  218813464  HIT:  135377058  MISS:   83436406
LLC LOAD      ACCESS:  107242537  HIT:   80154586  MISS:   27087951
LLC RFO       ACCESS:     311522  HIT:     282687  MISS:      28835
LLC PREFETCH  ACCESS:  109061343  HIT:   52741724  MISS:   56319619
LLC WRITEBACK ACCESS:    2198062  HIT:    2198061  MISS:          1
LLC PREFETCH  REQUESTED:          0  ISSUED:          0  USEFUL:    6936485  USELESS:  182952981
Major fault: 0 Minor fault: 443600

CPU 1 cumulative IPC: 0.230168 instructions: 1000000001 cycles: 4344658156
L1D TOTAL     ACCESS:  178602230  HIT:  106864909  MISS:   71737321
L1D LOAD      ACCESS:  162920332  HIT:   91231860  MISS:   71688472
L1D RFO       ACCESS:   15681898  HIT:   15633049  MISS:      48849
L1D PREFETCH  ACCESS:          0  HIT:          0  MISS:          0
L1D WRITEBACK ACCESS:          0  HIT:          0  MISS:          0
L1D PREFETCH  REQUESTED:          0  ISSUED:          0  USEFUL:          0  USELESS:          0
L1I TOTAL     ACCESS:  363384149  HIT:  363384085  MISS:         64
L1I LOAD      ACCESS:  363384149  HIT:  363384085  MISS:         64
L1I RFO       ACCESS:          0  HIT:          0  MISS:          0
L1I PREFETCH  ACCESS:          0  HIT:          0  MISS:          0
L1I WRITEBACK ACCESS:          0  HIT:          0  MISS:          0
L1I PREFETCH  REQUESTED:          0  ISSUED:          0  USEFUL:          0  USELESS:          0
L2C TOTAL     ACCESS:  124032669  HIT:   53543211  MISS:   70489458
L2C LOAD      ACCESS:   71688536  HIT:   53151494  MISS:   18537042
L2C RFO       ACCESS:      48849  HIT:       8482  MISS:      40367
L2C PREFETCH  ACCESS:   52021630  HIT:     109646  MISS:   51911984
L2C WRITEBACK ACCESS:     273654  HIT:     273589  MISS:         65
L2C PREFETCH  REQUESTED:   92725084  ISSUED:   92725084  USEFUL:   77442194  USELESS:    1626711
LLC TOTAL     ACCESS:   70619903  HIT:     270464  MISS:   70349439
LLC LOAD      ACCESS:    7263320  HIT:      75620  MISS:    7187700
LLC RFO       ACCESS:      40367  HIT:       9253  MISS:      31114
LLC PREFETCH  ACCESS:   63186725  HIT:      56355  MISS:   63130370
LLC WRITEBACK ACCESS:     129491  HIT:     129236  MISS:        255
LLC PREFETCH  REQUESTED:          0  ISSUED:          0  USEFUL:    6936485  USELESS:  182952981
Major fault: 0 Minor fault: 56940

CPU 2 cumulative IPC: 0.66435 instructions: 1000000000 cycles: 1505230529
L1D TOTAL     ACCESS:  216196410  HIT:  210007919  MISS:    6188491
L1D LOAD      ACCESS:  142798721  HIT:  137534600  MISS:    5264121
L1D RFO       ACCESS:   73397689  HIT:   72473319  MISS:     924370
L1D PREFETCH  ACCESS:          0  HIT:          0  MISS:          0
L1D WRITEBACK ACCESS:          0  HIT:          0  MISS:          0
L1D PREFETCH  REQUESTED:          0  ISSUED:          0  USEFUL:          0  USELESS:          0
L1I TOTAL     ACCESS:  192582220  HIT:  192579998  MISS:       2222
L1I LOAD      ACCESS:  192582220  HIT:  192579998  MISS:       2222
L1I RFO       ACCESS:          0  HIT:          0  MISS:          0
L1I PREFETCH  ACCESS:          0  HIT:          0  MISS:          0
L1I WRITEBACK ACCESS:          0  HIT:          0  MISS:          0
L1I PREFETCH  REQUESTED:          0  ISSUED:          0  USEFUL:          0  USELESS:          0
L2C TOTAL     ACCESS:   13290455  HIT:    7255547  MISS:    6034908
L2C LOAD      ACCESS:    5266147  HIT:    2353824  MISS:    2912323
L2C RFO       ACCESS:     923926  HIT:     497334  MISS:     426592
L2C PREFETCH  ACCESS:    3021972  HIT:     353170  MISS:    2668802
L2C WRITEBACK ACCESS:    4078410  HIT:    4051219  MISS:      27191
L2C PREFETCH  REQUESTED:   11885574  ISSUED:   11885574  USEFUL:    1001596  USELESS:    9618982
LLC TOTAL     ACCESS:    8483258  HIT:    3718638  MISS:    4764620
LLC LOAD      ACCESS:    2904439  HIT:     772687  MISS:    2131752
LLC RFO       ACCESS:     426550  HIT:     104304  MISS:     322246
LLC PREFETCH  ACCESS:    2683555  HIT:     571698  MISS:    2111857
LLC WRITEBACK ACCESS:    2468714  HIT:    2269949  MISS:     198765
LLC PREFETCH  REQUESTED:          0  ISSUED:          0  USEFUL:    6936485  USELESS:  182952981
Major fault: 0 Minor fault: 12493

CPU 3 cumulative IPC: 0.821189 instructions: 1000000001 cycles: 1217746922
L1D TOTAL     ACCESS:  413622525  HIT:  378830356  MISS:   34792169
L1D LOAD      ACCESS:  329351744  HIT:  298807822  MISS:   30543922
L1D RFO       ACCESS:   84270781  HIT:   80022534  MISS:    4248247
L1D PREFETCH  ACCESS:          0  HIT:          0  MISS:          0
L1D WRITEBACK ACCESS:          0  HIT:          0  MISS:          0
L1D PREFETCH  REQUESTED:          0  ISSUED:          0  USEFUL:          0  USELESS:          0
L1I TOTAL     ACCESS:  302331336  HIT:  302331003  MISS:        333
L1I LOAD      ACCESS:  302331336  HIT:  302331003  MISS:        333
L1I RFO       ACCESS:          0  HIT:          0  MISS:          0
L1I PREFETCH  ACCESS:          0  HIT:          0  MISS:          0
L1I WRITEBACK ACCESS:          0  HIT:          0  MISS:          0
L1I PREFETCH  REQUESTED:          0  ISSUED:          0  USEFUL:          0  USELESS:          0
L2C TOTAL     ACCESS:   49692527  HIT:   36258732  MISS:   13433795
L2C LOAD      ACCESS:   30542023  HIT:   29110354  MISS:    1431669
L2C RFO       ACCESS:    4247058  HIT:    1454765  MISS:    2792293
L2C PREFETCH  ACCESS:    9279279  HIT:      72392  MISS:    9206887
L2C WRITEBACK ACCESS:    5624167  HIT:    5621221  MISS:       2946
L2C PREFETCH  REQUESTED:   31478754  ISSUED:   31478754  USEFUL:   27904479  USELESS:    2561073
LLC TOTAL     ACCESS:   17402587  HIT:    9849709  MISS:    7552878
LLC LOAD      ACCESS:    1326511  HIT:     987538  MISS:     338973
LLC RFO       ACCESS:    2792291  HIT:    1265674  MISS:    1526617
LLC PREFETCH  ACCESS:    9359326  HIT:    3737819  MISS:    5621507
LLC WRITEBACK ACCESS:    3924459  HIT:    3858678  MISS:      65781
LLC PREFETCH  REQUESTED:          0  ISSUED:          0  USEFUL:    6936485  USELESS:  182952981
Major fault: 0 Minor fault: 165677

L2C Best-offset prefetcher final stats

L2C Best-offset prefetcher final stats

L2C Best-offset prefetcher final stats

L2C Best-offset prefetcher final stats

DRAM Statistics
 CHANNEL 0
 RQ ROW_BUFFER_HIT:   57871528  ROW_BUFFER_MISS:   47919029
 DBUS_CONGESTED:  102991575
 WQ ROW_BUFFER_HIT:     363743  ROW_BUFFER_MISS:    7254589  FULL:          0

 CHANNEL 1
 RQ ROW_BUFFER_HIT:   57850323  ROW_BUFFER_MISS:   48063659
 DBUS_CONGESTED:  102991575
 WQ ROW_BUFFER_HIT:     361078  ROW_BUFFER_MISS:    7204837  FULL:          0

 AVG_CONGESTED_CYCLE: 12
