
*** ChampSim Multicore Out-of-Order Simulator ***

Warmup Instructions: 200000000
Simulation Instructions: 1000000000
Number of CPUs: 4
LLC sets: 8192
LLC ways: 16
Off-chip DRAM Size: 8192 MB Channels: 2 Width: 64-bit Data Rate: 1600 MT/s

CPU 0 runs /scratch/user/djimenez/champsim-traces/speccpu2017/xz/649.fotonik3d_s/649.fotonik3d_s-10881B.champsimtrace.xz
CPU 1 runs /scratch/user/djimenez/champsim-traces/speccpu2017/xz/623.xalancbmk_s/623.xalancbmk_s-325B.champsimtrace.xz
CPU 2 runs /scratch/user/djimenez/champsim-traces/speccpu2017/xz/607.cactuBSSN_s/607.cactuBSSN_s-4004B.champsimtrace.xz
CPU 3 runs /scratch/user/djimenez/champsim-traces/speccpu2017/xz/649.fotonik3d_s/649.fotonik3d_s-8225B.champsimtrace.xz
L2C Best-offset prefetcher
L2C Best-offset prefetcher
L2C Best-offset prefetcher
L2C Best-offset prefetcher
Heartbeat CPU 3 instructions: 10000001 cycles: 4401162 heartbeat IPC: 2.27213 cumulative IPC: 2.27213 (Simulation time: 0 hr 3 min 39 sec) 
Heartbeat CPU 2 instructions: 10000000 cycles: 5802274 heartbeat IPC: 1.72346 cumulative IPC: 1.72346 (Simulation time: 0 hr 4 min 47 sec) 
Heartbeat CPU 1 instructions: 10000000 cycles: 6126733 heartbeat IPC: 1.63219 cumulative IPC: 1.63219 (Simulation time: 0 hr 5 min 3 sec) 
Heartbeat CPU 0 instructions: 10000001 cycles: 8411582 heartbeat IPC: 1.18884 cumulative IPC: 1.18884 (Simulation time: 0 hr 6 min 55 sec) 
Heartbeat CPU 3 instructions: 20000000 cycles: 8801905 heartbeat IPC: 2.27234 cumulative IPC: 2.27224 (Simulation time: 0 hr 7 min 14 sec) 
Heartbeat CPU 2 instructions: 20000000 cycles: 11605123 heartbeat IPC: 1.72329 cumulative IPC: 1.72338 (Simulation time: 0 hr 9 min 33 sec) 
Heartbeat CPU 1 instructions: 20000000 cycles: 12340333 heartbeat IPC: 1.60937 cumulative IPC: 1.6207 (Simulation time: 0 hr 10 min 6 sec) 
Heartbeat CPU 3 instructions: 30000003 cycles: 13203069 heartbeat IPC: 2.27213 cumulative IPC: 2.2722 (Simulation time: 0 hr 10 min 46 sec) 
Heartbeat CPU 0 instructions: 20000000 cycles: 16787199 heartbeat IPC: 1.19394 cumulative IPC: 1.19138 (Simulation time: 0 hr 13 min 44 sec) 
Heartbeat CPU 2 instructions: 30000001 cycles: 17407634 heartbeat IPC: 1.72339 cumulative IPC: 1.72338 (Simulation time: 0 hr 14 min 14 sec) 
Heartbeat CPU 3 instructions: 40000000 cycles: 17603580 heartbeat IPC: 2.27246 cumulative IPC: 2.27226 (Simulation time: 0 hr 14 min 24 sec) 
Heartbeat CPU 1 instructions: 30000001 cycles: 18699222 heartbeat IPC: 1.5726 cumulative IPC: 1.60434 (Simulation time: 0 hr 15 min 18 sec) 
Heartbeat CPU 3 instructions: 50000002 cycles: 22004448 heartbeat IPC: 2.27228 cumulative IPC: 2.27227 (Simulation time: 0 hr 18 min 3 sec) 
Heartbeat CPU 2 instructions: 40000000 cycles: 23209563 heartbeat IPC: 1.72356 cumulative IPC: 1.72343 (Simulation time: 0 hr 19 min 8 sec) 
Heartbeat CPU 1 instructions: 40000000 cycles: 24931139 heartbeat IPC: 1.60464 cumulative IPC: 1.60442 (Simulation time: 0 hr 20 min 43 sec) 
Heartbeat CPU 0 instructions: 30000000 cycles: 25158606 heartbeat IPC: 1.19454 cumulative IPC: 1.19243 (Simulation time: 0 hr 20 min 55 sec) 
Heartbeat CPU 3 instructions: 60000000 cycles: 26405479 heartbeat IPC: 2.27219 cumulative IPC: 2.27226 (Simulation time: 0 hr 22 min 1 sec) 
Heartbeat CPU 2 instructions: 50000001 cycles: 29012478 heartbeat IPC: 1.72327 cumulative IPC: 1.7234 (Simulation time: 0 hr 24 min 29 sec) 
Heartbeat CPU 1 instructions: 50000001 cycles: 30101192 heartbeat IPC: 1.93422 cumulative IPC: 1.66106 (Simulation time: 0 hr 25 min 23 sec) 
Heartbeat CPU 3 instructions: 70000001 cycles: 30807075 heartbeat IPC: 2.2719 cumulative IPC: 2.27221 (Simulation time: 0 hr 25 min 58 sec) 
Heartbeat CPU 0 instructions: 40000000 cycles: 33537225 heartbeat IPC: 1.19351 cumulative IPC: 1.1927 (Simulation time: 0 hr 28 min 15 sec) 
Heartbeat CPU 2 instructions: 60000000 cycles: 34815241 heartbeat IPC: 1.72332 cumulative IPC: 1.72338 (Simulation time: 0 hr 29 min 19 sec) 
Heartbeat CPU 1 instructions: 60000000 cycles: 34984099 heartbeat IPC: 2.04796 cumulative IPC: 1.71506 (Simulation time: 0 hr 29 min 27 sec) 
Heartbeat CPU 3 instructions: 80000000 cycles: 35207167 heartbeat IPC: 2.27268 cumulative IPC: 2.27226 (Simulation time: 0 hr 29 min 40 sec) 
Heartbeat CPU 3 instructions: 90000002 cycles: 39607093 heartbeat IPC: 2.27277 cumulative IPC: 2.27232 (Simulation time: 0 hr 33 min 28 sec) 
Heartbeat CPU 2 instructions: 70000002 cycles: 40617528 heartbeat IPC: 1.72346 cumulative IPC: 1.72339 (Simulation time: 0 hr 34 min 21 sec) 
Heartbeat CPU 1 instructions: 70000001 cycles: 41023651 heartbeat IPC: 1.65575 cumulative IPC: 1.70633 (Simulation time: 0 hr 34 min 42 sec) 
Heartbeat CPU 0 instructions: 50000001 cycles: 41957395 heartbeat IPC: 1.18762 cumulative IPC: 1.19169 (Simulation time: 0 hr 35 min 29 sec) 
Heartbeat CPU 3 instructions: 100000000 cycles: 44007555 heartbeat IPC: 2.27249 cumulative IPC: 2.27234 (Simulation time: 0 hr 37 min 15 sec) 
Heartbeat CPU 2 instructions: 80000000 cycles: 46419614 heartbeat IPC: 1.72352 cumulative IPC: 1.72341 (Simulation time: 0 hr 39 min 17 sec) 
Heartbeat CPU 1 instructions: 80000000 cycles: 47428694 heartbeat IPC: 1.56127 cumulative IPC: 1.68674 (Simulation time: 0 hr 40 min 7 sec) 
Heartbeat CPU 3 instructions: 110000000 cycles: 48408719 heartbeat IPC: 2.27213 cumulative IPC: 2.27232 (Simulation time: 0 hr 41 min 14 sec) 
Heartbeat CPU 0 instructions: 60000000 cycles: 50340511 heartbeat IPC: 1.19287 cumulative IPC: 1.19188 (Simulation time: 0 hr 43 min 10 sec) 
Heartbeat CPU 2 instructions: 90000000 cycles: 52222929 heartbeat IPC: 1.72315 cumulative IPC: 1.72338 (Simulation time: 0 hr 45 min 3 sec) 
Heartbeat CPU 3 instructions: 120000000 cycles: 52810656 heartbeat IPC: 2.27173 cumulative IPC: 2.27227 (Simulation time: 0 hr 45 min 32 sec) 
Heartbeat CPU 1 instructions: 90000002 cycles: 54044476 heartbeat IPC: 1.51154 cumulative IPC: 1.6653 (Simulation time: 0 hr 46 min 34 sec) 
Heartbeat CPU 3 instructions: 130000002 cycles: 57211259 heartbeat IPC: 2.27242 cumulative IPC: 2.27228 (Simulation time: 0 hr 49 min 12 sec) 
Heartbeat CPU 2 instructions: 100000000 cycles: 58025198 heartbeat IPC: 1.72346 cumulative IPC: 1.72339 (Simulation time: 0 hr 49 min 52 sec) 
Heartbeat CPU 0 instructions: 70000003 cycles: 58711502 heartbeat IPC: 1.1946 cumulative IPC: 1.19227 (Simulation time: 0 hr 50 min 27 sec) 
Heartbeat CPU 1 instructions: 100000000 cycles: 60356714 heartbeat IPC: 1.58422 cumulative IPC: 1.65682 (Simulation time: 0 hr 51 min 49 sec) 
Heartbeat CPU 3 instructions: 140000000 cycles: 61611708 heartbeat IPC: 2.2725 cumulative IPC: 2.2723 (Simulation time: 0 hr 52 min 52 sec) 
Heartbeat CPU 2 instructions: 110000002 cycles: 63827206 heartbeat IPC: 1.72354 cumulative IPC: 1.7234 (Simulation time: 0 hr 54 min 59 sec) 
Heartbeat CPU 3 instructions: 150000000 cycles: 66012223 heartbeat IPC: 2.27246 cumulative IPC: 2.27231 (Simulation time: 0 hr 57 min 2 sec) 
Heartbeat CPU 1 instructions: 110000000 cycles: 66436622 heartbeat IPC: 1.64476 cumulative IPC: 1.65571 (Simulation time: 0 hr 57 min 28 sec) 
Heartbeat CPU 0 instructions: 80000000 cycles: 67101821 heartbeat IPC: 1.19185 cumulative IPC: 1.19222 (Simulation time: 0 hr 58 min 9 sec) 
Heartbeat CPU 2 instructions: 120000000 cycles: 69629351 heartbeat IPC: 1.7235 cumulative IPC: 1.72341 (Simulation time: 1 hr 0 min 40 sec) 
Heartbeat CPU 3 instructions: 160000000 cycles: 70412753 heartbeat IPC: 2.27245 cumulative IPC: 2.27232 (Simulation time: 1 hr 1 min 20 sec) 
Heartbeat CPU 1 instructions: 120000000 cycles: 71339679 heartbeat IPC: 2.03954 cumulative IPC: 1.68209 (Simulation time: 1 hr 2 min 10 sec) 
Heartbeat CPU 3 instructions: 170000002 cycles: 74813383 heartbeat IPC: 2.2724 cumulative IPC: 2.27232 (Simulation time: 1 hr 5 min 9 sec) 
Heartbeat CPU 2 instructions: 130000003 cycles: 75432677 heartbeat IPC: 1.72315 cumulative IPC: 1.72339 (Simulation time: 1 hr 5 min 40 sec) 
Heartbeat CPU 0 instructions: 90000001 cycles: 75508608 heartbeat IPC: 1.18952 cumulative IPC: 1.19192 (Simulation time: 1 hr 5 min 44 sec) 
Heartbeat CPU 1 instructions: 130000003 cycles: 76437485 heartbeat IPC: 1.96163 cumulative IPC: 1.70074 (Simulation time: 1 hr 6 min 29 sec) 
Heartbeat CPU 3 instructions: 180000000 cycles: 79215037 heartbeat IPC: 2.27187 cumulative IPC: 2.2723 (Simulation time: 1 hr 8 min 46 sec) 
Heartbeat CPU 2 instructions: 140000000 cycles: 81234924 heartbeat IPC: 1.72347 cumulative IPC: 1.7234 (Simulation time: 1 hr 10 min 33 sec) 
Heartbeat CPU 1 instructions: 140000000 cycles: 83019497 heartbeat IPC: 1.51929 cumulative IPC: 1.68635 (Simulation time: 1 hr 12 min 23 sec) 
Heartbeat CPU 3 instructions: 190000000 cycles: 83616084 heartbeat IPC: 2.27219 cumulative IPC: 2.27229 (Simulation time: 1 hr 12 min 53 sec) 
Heartbeat CPU 0 instructions: 100000000 cycles: 83887298 heartbeat IPC: 1.1935 cumulative IPC: 1.19208 (Simulation time: 1 hr 13 min 6 sec) 
Heartbeat CPU 2 instructions: 150000001 cycles: 87037711 heartbeat IPC: 1.72331 cumulative IPC: 1.72339 (Simulation time: 1 hr 15 min 44 sec) 
Heartbeat CPU 3 instructions: 200000000 cycles: 88016484 heartbeat IPC: 2.27252 cumulative IPC: 2.2723 (Simulation time: 1 hr 16 min 33 sec) 
Heartbeat CPU 1 instructions: 150000000 cycles: 89309617 heartbeat IPC: 1.58979 cumulative IPC: 1.67955 (Simulation time: 1 hr 17 min 38 sec) 
Heartbeat CPU 0 instructions: 110000002 cycles: 92269218 heartbeat IPC: 1.19304 cumulative IPC: 1.19216 (Simulation time: 1 hr 20 min 4 sec) 
Heartbeat CPU 3 instructions: 210000002 cycles: 92417012 heartbeat IPC: 2.27245 cumulative IPC: 0.108205 (Simulation time: 1 hr 20 min 12 sec) 
Heartbeat CPU 2 instructions: 160000000 cycles: 92839753 heartbeat IPC: 1.72353 cumulative IPC: 1.7234 (Simulation time: 1 hr 20 min 35 sec) 
Heartbeat CPU 1 instructions: 160000000 cycles: 94549767 heartbeat IPC: 1.90834 cumulative IPC: 1.69223 (Simulation time: 1 hr 22 min 4 sec) 
Heartbeat CPU 3 instructions: 220000000 cycles: 96817731 heartbeat IPC: 2.27236 cumulative IPC: 0.206574 (Simulation time: 1 hr 24 min 0 sec) 
Heartbeat CPU 2 instructions: 170000000 cycles: 98642323 heartbeat IPC: 1.72337 cumulative IPC: 1.7234 (Simulation time: 1 hr 25 min 28 sec) 
Heartbeat CPU 1 instructions: 170000000 cycles: 100022012 heartbeat IPC: 1.8274 cumulative IPC: 1.69963 (Simulation time: 1 hr 26 min 33 sec) 
Heartbeat CPU 0 instructions: 120000000 cycles: 100659633 heartbeat IPC: 1.19184 cumulative IPC: 1.19214 (Simulation time: 1 hr 27 min 4 sec) 
Heartbeat CPU 3 instructions: 230000001 cycles: 101218694 heartbeat IPC: 2.27223 cumulative IPC: 0.296388 (Simulation time: 1 hr 27 min 31 sec) 
Heartbeat CPU 2 instructions: 180000000 cycles: 104444619 heartbeat IPC: 1.72346 cumulative IPC: 1.7234 (Simulation time: 1 hr 30 min 5 sec) 
Heartbeat CPU 3 instructions: 240000000 cycles: 105619940 heartbeat IPC: 2.27208 cumulative IPC: 0.378716 (Simulation time: 1 hr 31 min 2 sec) 
Heartbeat CPU 1 instructions: 180000000 cycles: 106497402 heartbeat IPC: 1.54431 cumulative IPC: 1.69018 (Simulation time: 1 hr 31 min 46 sec) 
Heartbeat CPU 0 instructions: 130000001 cycles: 109063448 heartbeat IPC: 1.18994 cumulative IPC: 1.19197 (Simulation time: 1 hr 33 min 58 sec) 
Heartbeat CPU 3 instructions: 250000000 cycles: 110020864 heartbeat IPC: 2.27225 cumulative IPC: 0.454459 (Simulation time: 1 hr 34 min 48 sec) 
Heartbeat CPU 2 instructions: 190000002 cycles: 110247644 heartbeat IPC: 1.72324 cumulative IPC: 1.72339 (Simulation time: 1 hr 35 min 0 sec) 
Heartbeat CPU 1 instructions: 190000001 cycles: 111851638 heartbeat IPC: 1.86768 cumulative IPC: 1.69868 (Simulation time: 1 hr 36 min 20 sec) 
Heartbeat CPU 3 instructions: 260000000 cycles: 114420984 heartbeat IPC: 2.27267 cumulative IPC: 0.524379 (Simulation time: 1 hr 38 min 29 sec) 
Heartbeat CPU 2 instructions: 200000000 cycles: 116049560 heartbeat IPC: 1.72357 cumulative IPC: 1.7234 (Simulation time: 1 hr 39 min 51 sec) 
Heartbeat CPU 0 instructions: 140000000 cycles: 117442671 heartbeat IPC: 1.19343 cumulative IPC: 1.19207 (Simulation time: 1 hr 41 min 0 sec) 
Heartbeat CPU 1 instructions: 200000000 cycles: 118397976 heartbeat IPC: 1.52757 cumulative IPC: 1.68922 (Simulation time: 1 hr 41 min 51 sec) 
Heartbeat CPU 3 instructions: 270000001 cycles: 118820675 heartbeat IPC: 2.27289 cumulative IPC: 0.589123 (Simulation time: 1 hr 42 min 15 sec) 
Heartbeat CPU 2 instructions: 210000000 cycles: 121852062 heartbeat IPC: 1.72339 cumulative IPC: 0.0820667 (Simulation time: 1 hr 44 min 32 sec) 
Heartbeat CPU 3 instructions: 280000000 cycles: 123220994 heartbeat IPC: 2.27256 cumulative IPC: 0.64924 (Simulation time: 1 hr 45 min 30 sec) 
Heartbeat CPU 1 instructions: 210000003 cycles: 124696496 heartbeat IPC: 1.58768 cumulative IPC: 0.0801947 (Simulation time: 1 hr 46 min 32 sec) 
Heartbeat CPU 0 instructions: 150000002 cycles: 125813364 heartbeat IPC: 1.19464 cumulative IPC: 1.19224 (Simulation time: 1 hr 47 min 19 sec) 
Heartbeat CPU 3 instructions: 290000003 cycles: 127622291 heartbeat IPC: 2.27206 cumulative IPC: 0.705206 (Simulation time: 1 hr 48 min 40 sec) 
Heartbeat CPU 2 instructions: 220000000 cycles: 127654756 heartbeat IPC: 1.72334 cumulative IPC: 0.156673 (Simulation time: 1 hr 48 min 42 sec) 
Heartbeat CPU 1 instructions: 220000000 cycles: 130905751 heartbeat IPC: 1.6105 cumulative IPC: 0.152782 (Simulation time: 1 hr 51 min 9 sec) 
Heartbeat CPU 3 instructions: 300000000 cycles: 132022913 heartbeat IPC: 2.27241 cumulative IPC: 0.757444 (Simulation time: 1 hr 51 min 55 sec) 
Heartbeat CPU 2 instructions: 230000000 cycles: 133457466 heartbeat IPC: 1.72333 cumulative IPC: 0.224791 (Simulation time: 1 hr 52 min 58 sec) 
Heartbeat CPU 0 instructions: 160000000 cycles: 134212334 heartbeat IPC: 1.19062 cumulative IPC: 1.19214 (Simulation time: 1 hr 53 min 32 sec) 
Heartbeat CPU 1 instructions: 230000001 cycles: 136308958 heartbeat IPC: 1.85075 cumulative IPC: 0.220088 (Simulation time: 1 hr 55 min 8 sec) 
Heartbeat CPU 3 instructions: 310000001 cycles: 136424515 heartbeat IPC: 2.2719 cumulative IPC: 0.806307 (Simulation time: 1 hr 55 min 14 sec) 
Heartbeat CPU 2 instructions: 240000000 cycles: 139259581 heartbeat IPC: 1.72351 cumulative IPC: 0.287233 (Simulation time: 1 hr 57 min 30 sec) 
Heartbeat CPU 3 instructions: 320000000 cycles: 140824626 heartbeat IPC: 2.27267 cumulative IPC: 0.852124 (Simulation time: 1 hr 58 min 39 sec) 
Heartbeat CPU 1 instructions: 240000000 cycles: 141245553 heartbeat IPC: 2.02569 cumulative IPC: 0.283195 (Simulation time: 1 hr 58 min 57 sec) 
Heartbeat CPU 0 instructions: 170000000 cycles: 142614430 heartbeat IPC: 1.19018 cumulative IPC: 1.19203 (Simulation time: 1 hr 59 min 56 sec) 
Heartbeat CPU 2 instructions: 250000003 cycles: 145061797 heartbeat IPC: 1.72348 cumulative IPC: 0.344681 (Simulation time: 2 hr 1 min 50 sec) 
Heartbeat CPU 3 instructions: 330000003 cycles: 145225048 heartbeat IPC: 2.27251 cumulative IPC: 0.895162 (Simulation time: 2 hr 1 min 57 sec) 
Heartbeat CPU 1 instructions: 250000001 cycles: 146281541 heartbeat IPC: 1.98571 cumulative IPC: 0.341807 (Simulation time: 2 hr 2 min 46 sec) 
Heartbeat CPU 3 instructions: 340000000 cycles: 149625981 heartbeat IPC: 2.27224 cumulative IPC: 0.935666 (Simulation time: 2 hr 5 min 35 sec) 
Heartbeat CPU 2 instructions: 260000000 cycles: 150864388 heartbeat IPC: 1.72337 cumulative IPC: 0.397708 (Simulation time: 2 hr 6 min 37 sec) 
Heartbeat CPU 0 instructions: 180000000 cycles: 150987765 heartbeat IPC: 1.19427 cumulative IPC: 1.19215 (Simulation time: 2 hr 6 min 43 sec) 
Heartbeat CPU 1 instructions: 260000000 cycles: 152844434 heartbeat IPC: 1.52372 cumulative IPC: 0.392556 (Simulation time: 2 hr 8 min 13 sec) 
Heartbeat CPU 3 instructions: 350000001 cycles: 154027810 heartbeat IPC: 2.27178 cumulative IPC: 0.97385 (Simulation time: 2 hr 9 min 22 sec) 
Heartbeat CPU 2 instructions: 270000000 cycles: 156667126 heartbeat IPC: 1.72332 cumulative IPC: 0.446807 (Simulation time: 2 hr 11 min 32 sec) 
Heartbeat CPU 3 instructions: 360000000 cycles: 158428645 heartbeat IPC: 2.2723 cumulative IPC: 1.00992 (Simulation time: 2 hr 12 min 52 sec) 
Heartbeat CPU 1 instructions: 270000001 cycles: 158760758 heartbeat IPC: 1.69024 cumulative IPC: 0.440915 (Simulation time: 2 hr 13 min 6 sec) 
Heartbeat CPU 0 instructions: 190000001 cycles: 159369689 heartbeat IPC: 1.19304 cumulative IPC: 1.1922 (Simulation time: 2 hr 13 min 34 sec) 
Heartbeat CPU 2 instructions: 280000000 cycles: 162468525 heartbeat IPC: 1.72372 cumulative IPC: 0.492403 (Simulation time: 2 hr 15 min 52 sec) 
Heartbeat CPU 3 instructions: 370000003 cycles: 162829672 heartbeat IPC: 2.2722 cumulative IPC: 1.04404 (Simulation time: 2 hr 16 min 8 sec) 
Heartbeat CPU 1 instructions: 280000000 cycles: 165276795 heartbeat IPC: 1.53468 cumulative IPC: 0.484037 (Simulation time: 2 hr 17 min 57 sec) 
Heartbeat CPU 3 instructions: 380000000 cycles: 167229908 heartbeat IPC: 2.2726 cumulative IPC: 1.07636 (Simulation time: 2 hr 19 min 27 sec) 
Heartbeat CPU 0 instructions: 200000000 cycles: 167759112 heartbeat IPC: 1.19198 cumulative IPC: 1.19219 (Simulation time: 2 hr 19 min 51 sec) 

Warmup complete CPU 0 instructions: 200000001 cycles: 167759131 (Simulation time: 2 hr 19 min 51 sec) 
Warmup complete CPU 1 instructions: 284804353 cycles: 167759130 (Simulation time: 2 hr 19 min 51 sec) 
Warmup complete CPU 2 instructions: 289116716 cycles: 167759130 (Simulation time: 2 hr 19 min 51 sec) 
Warmup complete CPU 3 instructions: 381202437 cycles: 167759130 (Simulation time: 2 hr 19 min 51 sec) 

Heartbeat CPU 2 instructions: 290000001 cycles: 168599742 heartbeat IPC: 1.631 cumulative IPC: 1.05076 (Simulation time: 2 hr 20 min 12 sec) 
Heartbeat CPU 3 instructions: 390000003 cycles: 177780243 heartbeat IPC: 0.947837 cumulative IPC: 0.877903 (Simulation time: 2 hr 23 min 52 sec) 
Heartbeat CPU 2 instructions: 300000000 cycles: 178100852 heartbeat IPC: 1.05251 cumulative IPC: 1.05237 (Simulation time: 2 hr 24 min 0 sec) 
Heartbeat CPU 1 instructions: 290000000 cycles: 181114150 heartbeat IPC: 0.631419 cumulative IPC: 0.389041 (Simulation time: 2 hr 25 min 30 sec) 
Heartbeat CPU 0 instructions: 210000002 cycles: 186052946 heartbeat IPC: 0.546632 cumulative IPC: 0.546633 (Simulation time: 2 hr 27 min 35 sec) 
Heartbeat CPU 2 instructions: 310000003 cycles: 187605908 heartbeat IPC: 1.05207 cumulative IPC: 1.05223 (Simulation time: 2 hr 28 min 14 sec) 
Heartbeat CPU 3 instructions: 400000000 cycles: 189068360 heartbeat IPC: 0.885887 cumulative IPC: 0.882132 (Simulation time: 2 hr 28 min 51 sec) 
Heartbeat CPU 2 instructions: 320000000 cycles: 197121832 heartbeat IPC: 1.05087 cumulative IPC: 1.05179 (Simulation time: 2 hr 32 min 17 sec) 
Heartbeat CPU 3 instructions: 410000000 cycles: 200514514 heartbeat IPC: 0.873656 cumulative IPC: 0.87917 (Simulation time: 2 hr 33 min 43 sec) 
Heartbeat CPU 0 instructions: 220000000 cycles: 204255066 heartbeat IPC: 0.549386 cumulative IPC: 0.548006 (Simulation time: 2 hr 35 min 12 sec) 
Heartbeat CPU 2 instructions: 330000000 cycles: 206654072 heartbeat IPC: 1.04907 cumulative IPC: 1.05112 (Simulation time: 2 hr 36 min 10 sec) 
Heartbeat CPU 1 instructions: 300000000 cycles: 208577805 heartbeat IPC: 0.364118 cumulative IPC: 0.372272 (Simulation time: 2 hr 36 min 54 sec) 
Heartbeat CPU 3 instructions: 420000000 cycles: 211908319 heartbeat IPC: 0.87767 cumulative IPC: 0.878783 (Simulation time: 2 hr 38 min 12 sec) 
Heartbeat CPU 2 instructions: 340000000 cycles: 216171282 heartbeat IPC: 1.05073 cumulative IPC: 1.05104 (Simulation time: 2 hr 39 min 48 sec) 
Heartbeat CPU 0 instructions: 230000002 cycles: 222429824 heartbeat IPC: 0.550214 cumulative IPC: 0.54874 (Simulation time: 2 hr 42 min 14 sec) 
Heartbeat CPU 3 instructions: 430000003 cycles: 223276869 heartbeat IPC: 0.87962 cumulative IPC: 0.878954 (Simulation time: 2 hr 42 min 34 sec) 
Heartbeat CPU 2 instructions: 350000002 cycles: 225686113 heartbeat IPC: 1.05099 cumulative IPC: 1.05104 (Simulation time: 2 hr 43 min 33 sec) 
Heartbeat CPU 1 instructions: 310000002 cycles: 233469826 heartbeat IPC: 0.401735 cumulative IPC: 0.383433 (Simulation time: 2 hr 46 min 54 sec) 
Heartbeat CPU 3 instructions: 440000000 cycles: 234510721 heartbeat IPC: 0.890166 cumulative IPC: 0.880841 (Simulation time: 2 hr 47 min 21 sec) 
Heartbeat CPU 2 instructions: 360000000 cycles: 235204916 heartbeat IPC: 1.05055 cumulative IPC: 1.05097 (Simulation time: 2 hr 47 min 39 sec) 
Heartbeat CPU 0 instructions: 240000000 cycles: 240659910 heartbeat IPC: 0.548544 cumulative IPC: 0.548691 (Simulation time: 2 hr 49 min 58 sec) 
Heartbeat CPU 2 instructions: 370000001 cycles: 244716349 heartbeat IPC: 1.05137 cumulative IPC: 1.05102 (Simulation time: 2 hr 51 min 35 sec) 
Heartbeat CPU 3 instructions: 450000000 cycles: 246156871 heartbeat IPC: 0.858653 cumulative IPC: 0.877545 (Simulation time: 2 hr 52 min 7 sec) 
Heartbeat CPU 2 instructions: 380000000 cycles: 254227702 heartbeat IPC: 1.05138 cumulative IPC: 1.05106 (Simulation time: 2 hr 55 min 14 sec) 
Heartbeat CPU 1 instructions: 320000000 cycles: 255847504 heartbeat IPC: 0.446874 cumulative IPC: 0.399549 (Simulation time: 2 hr 55 min 53 sec) 
Heartbeat CPU 3 instructions: 460000000 cycles: 257377150 heartbeat IPC: 0.891243 cumulative IPC: 0.87926 (Simulation time: 2 hr 56 min 29 sec) 
Heartbeat CPU 0 instructions: 250000001 cycles: 258868718 heartbeat IPC: 0.549185 cumulative IPC: 0.54879 (Simulation time: 2 hr 57 min 12 sec) 
Heartbeat CPU 2 instructions: 390000001 cycles: 263792495 heartbeat IPC: 1.0455 cumulative IPC: 1.0505 (Simulation time: 2 hr 59 min 23 sec) 
Heartbeat CPU 3 instructions: 470000000 cycles: 268475331 heartbeat IPC: 0.901049 cumulative IPC: 0.881661 (Simulation time: 3 hr 1 min 34 sec) 
Heartbeat CPU 1 instructions: 330000000 cycles: 270203503 heartbeat IPC: 0.696573 cumulative IPC: 0.441173 (Simulation time: 3 hr 2 min 21 sec) 
Heartbeat CPU 2 instructions: 400000000 cycles: 273309105 heartbeat IPC: 1.05079 cumulative IPC: 1.05053 (Simulation time: 3 hr 3 min 43 sec) 
Heartbeat CPU 0 instructions: 260000000 cycles: 276961809 heartbeat IPC: 0.552697 cumulative IPC: 0.549437 (Simulation time: 3 hr 5 min 15 sec) 
Heartbeat CPU 3 instructions: 480000000 cycles: 279770680 heartbeat IPC: 0.88532 cumulative IPC: 0.88203 (Simulation time: 3 hr 6 min 25 sec) 
Heartbeat CPU 2 instructions: 410000002 cycles: 282796070 heartbeat IPC: 1.05408 cumulative IPC: 1.05082 (Simulation time: 3 hr 7 min 40 sec) 
Heartbeat CPU 1 instructions: 340000000 cycles: 288362132 heartbeat IPC: 0.550702 cumulative IPC: 0.457664 (Simulation time: 3 hr 9 min 56 sec) 
Heartbeat CPU 3 instructions: 490000001 cycles: 291067850 heartbeat IPC: 0.885178 cumulative IPC: 0.882318 (Simulation time: 3 hr 11 min 0 sec) 
Heartbeat CPU 2 instructions: 420000000 cycles: 292263790 heartbeat IPC: 1.05622 cumulative IPC: 1.05123 (Simulation time: 3 hr 11 min 29 sec) 
Heartbeat CPU 0 instructions: 270000001 cycles: 295085800 heartbeat IPC: 0.551755 cumulative IPC: 0.549767 (Simulation time: 3 hr 12 min 34 sec) 
Heartbeat CPU 2 instructions: 430000000 cycles: 301772991 heartbeat IPC: 1.05161 cumulative IPC: 1.05126 (Simulation time: 3 hr 15 min 14 sec) 
Heartbeat CPU 3 instructions: 500000000 cycles: 302489627 heartbeat IPC: 0.87552 cumulative IPC: 0.881742 (Simulation time: 3 hr 15 min 32 sec) 
Heartbeat CPU 2 instructions: 440000000 cycles: 311320340 heartbeat IPC: 1.04741 cumulative IPC: 1.051 (Simulation time: 3 hr 18 min 43 sec) 
Heartbeat CPU 3 instructions: 510000000 cycles: 313955025 heartbeat IPC: 0.87219 cumulative IPC: 0.880993 (Simulation time: 3 hr 19 min 34 sec) 
Heartbeat CPU 1 instructions: 350000000 cycles: 316455416 heartbeat IPC: 0.355957 cumulative IPC: 0.438448 (Simulation time: 3 hr 20 min 23 sec) 
Heartbeat CPU 2 instructions: 450000001 cycles: 320815337 heartbeat IPC: 1.05319 cumulative IPC: 1.05114 (Simulation time: 3 hr 21 min 44 sec) 
Heartbeat CPU 3 instructions: 520000000 cycles: 325703575 heartbeat IPC: 0.851169 cumulative IPC: 0.878775 (Simulation time: 3 hr 23 min 12 sec) 
Heartbeat CPU 2 instructions: 460000000 cycles: 330332669 heartbeat IPC: 1.05071 cumulative IPC: 1.05111 (Simulation time: 3 hr 24 min 44 sec) 
Heartbeat CPU 3 instructions: 530000002 cycles: 337563427 heartbeat IPC: 0.843181 cumulative IPC: 0.876289 (Simulation time: 3 hr 27 min 1 sec) 
Heartbeat CPU 2 instructions: 470000002 cycles: 339838028 heartbeat IPC: 1.05204 cumulative IPC: 1.05116 (Simulation time: 3 hr 27 min 46 sec) 
Heartbeat CPU 0 instructions: 280000000 cycles: 343297624 heartbeat IPC: 0.207418 cumulative IPC: 0.45574 (Simulation time: 3 hr 28 min 54 sec) 
Heartbeat CPU 1 instructions: 360000000 cycles: 343938478 heartbeat IPC: 0.36386 cumulative IPC: 0.426813 (Simulation time: 3 hr 29 min 7 sec) 
Heartbeat CPU 2 instructions: 480000000 cycles: 349312807 heartbeat IPC: 1.05543 cumulative IPC: 1.05139 (Simulation time: 3 hr 30 min 52 sec) 
Heartbeat CPU 3 instructions: 540000000 cycles: 349402525 heartbeat IPC: 0.844659 cumulative IPC: 0.874227 (Simulation time: 3 hr 30 min 54 sec) 
Heartbeat CPU 2 instructions: 490000000 cycles: 358811526 heartbeat IPC: 1.05277 cumulative IPC: 1.05146 (Simulation time: 3 hr 34 min 6 sec) 
Heartbeat CPU 3 instructions: 550000003 cycles: 361189565 heartbeat IPC: 0.84839 cumulative IPC: 0.872653 (Simulation time: 3 hr 35 min 1 sec) 
Heartbeat CPU 2 instructions: 500000000 cycles: 368307226 heartbeat IPC: 1.05311 cumulative IPC: 1.05153 (Simulation time: 3 hr 37 min 43 sec) 
Heartbeat CPU 1 instructions: 370000001 cycles: 368936094 heartbeat IPC: 0.400038 cumulative IPC: 0.423486 (Simulation time: 3 hr 37 min 57 sec) 
Heartbeat CPU 3 instructions: 560000000 cycles: 372879587 heartbeat IPC: 0.85543 cumulative IPC: 0.871671 (Simulation time: 3 hr 39 min 26 sec) 
Heartbeat CPU 2 instructions: 510000002 cycles: 377827703 heartbeat IPC: 1.05037 cumulative IPC: 1.05148 (Simulation time: 3 hr 41 min 23 sec) 
Heartbeat CPU 3 instructions: 570000003 cycles: 384563303 heartbeat IPC: 0.855892 cumulative IPC: 0.870821 (Simulation time: 3 hr 44 min 4 sec) 
Heartbeat CPU 1 instructions: 380000000 cycles: 385253656 heartbeat IPC: 0.612837 cumulative IPC: 0.437692 (Simulation time: 3 hr 44 min 20 sec) 
Heartbeat CPU 2 instructions: 520000000 cycles: 387319452 heartbeat IPC: 1.05355 cumulative IPC: 1.05157 (Simulation time: 3 hr 45 min 6 sec) 
Heartbeat CPU 3 instructions: 580000000 cycles: 395608911 heartbeat IPC: 0.905337 cumulative IPC: 0.872494 (Simulation time: 3 hr 48 min 43 sec) 
Heartbeat CPU 2 instructions: 530000000 cycles: 396803117 heartbeat IPC: 1.05444 cumulative IPC: 1.05169 (Simulation time: 3 hr 49 min 13 sec) 
Heartbeat CPU 0 instructions: 290000000 cycles: 399250998 heartbeat IPC: 0.17872 cumulative IPC: 0.388783 (Simulation time: 3 hr 50 min 16 sec) 
Heartbeat CPU 2 instructions: 540000000 cycles: 406357358 heartbeat IPC: 1.04666 cumulative IPC: 1.05149 (Simulation time: 3 hr 53 min 21 sec) 
Heartbeat CPU 3 instructions: 590000001 cycles: 406922860 heartbeat IPC: 0.883865 cumulative IPC: 0.873032 (Simulation time: 3 hr 53 min 36 sec) 
Heartbeat CPU 1 instructions: 390000001 cycles: 410154271 heartbeat IPC: 0.401597 cumulative IPC: 0.433984 (Simulation time: 3 hr 54 min 59 sec) 
Heartbeat CPU 2 instructions: 550000000 cycles: 415847630 heartbeat IPC: 1.05371 cumulative IPC: 1.05157 (Simulation time: 3 hr 57 min 18 sec) 
Heartbeat CPU 0 instructions: 300000000 cycles: 417335611 heartbeat IPC: 0.552956 cumulative IPC: 0.400679 (Simulation time: 3 hr 57 min 57 sec) 
Heartbeat CPU 3 instructions: 600000000 cycles: 418165055 heartbeat IPC: 0.889506 cumulative IPC: 0.873771 (Simulation time: 3 hr 58 min 17 sec) 
Heartbeat CPU 2 instructions: 560000000 cycles: 425349695 heartbeat IPC: 1.0524 cumulative IPC: 1.0516 (Simulation time: 4 hr 1 min 11 sec) 
Heartbeat CPU 3 instructions: 610000003 cycles: 429606215 heartbeat IPC: 0.874038 cumulative IPC: 0.873783 (Simulation time: 4 hr 2 min 55 sec) 
Heartbeat CPU 2 instructions: 570000000 cycles: 434846893 heartbeat IPC: 1.05294 cumulative IPC: 1.05165 (Simulation time: 4 hr 5 min 2 sec) 
Heartbeat CPU 0 instructions: 310000002 cycles: 435484826 heartbeat IPC: 0.550988 cumulative IPC: 0.410868 (Simulation time: 4 hr 5 min 17 sec) 
Heartbeat CPU 1 instructions: 400000000 cycles: 437817606 heartbeat IPC: 0.361489 cumulative IPC: 0.426558 (Simulation time: 4 hr 6 min 14 sec) 
Heartbeat CPU 3 instructions: 620000000 cycles: 441234205 heartbeat IPC: 0.859994 cumulative IPC: 0.873197 (Simulation time: 4 hr 7 min 36 sec) 
Heartbeat CPU 2 instructions: 580000000 cycles: 444357488 heartbeat IPC: 1.05146 cumulative IPC: 1.05165 (Simulation time: 4 hr 8 min 55 sec) 
Heartbeat CPU 3 instructions: 630000001 cycles: 452704430 heartbeat IPC: 0.871823 cumulative IPC: 0.873141 (Simulation time: 4 hr 13 min 0 sec) 
Heartbeat CPU 0 instructions: 320000000 cycles: 453701177 heartbeat IPC: 0.548957 cumulative IPC: 0.419665 (Simulation time: 4 hr 13 min 29 sec) 
Heartbeat CPU 2 instructions: 590000003 cycles: 453858061 heartbeat IPC: 1.05257 cumulative IPC: 1.05168 (Simulation time: 4 hr 13 min 33 sec) 
Heartbeat CPU 2 instructions: 600000000 cycles: 463392702 heartbeat IPC: 1.04881 cumulative IPC: 1.05158 (Simulation time: 4 hr 17 min 43 sec) 
Heartbeat CPU 3 instructions: 640000000 cycles: 464176322 heartbeat IPC: 0.871696 cumulative IPC: 0.873086 (Simulation time: 4 hr 18 min 4 sec) 
Heartbeat CPU 1 instructions: 410000001 cycles: 464181123 heartbeat IPC: 0.379312 cumulative IPC: 0.422356 (Simulation time: 4 hr 18 min 4 sec) 
Heartbeat CPU 0 instructions: 330000002 cycles: 471942506 heartbeat IPC: 0.548206 cumulative IPC: 0.427374 (Simulation time: 4 hr 21 min 26 sec) 
Heartbeat CPU 2 instructions: 610000000 cycles: 472908500 heartbeat IPC: 1.05088 cumulative IPC: 1.05156 (Simulation time: 4 hr 21 min 51 sec) 
Heartbeat CPU 3 instructions: 650000003 cycles: 475578676 heartbeat IPC: 0.877012 cumulative IPC: 0.873231 (Simulation time: 4 hr 23 min 2 sec) 
Heartbeat CPU 2 instructions: 620000000 cycles: 482394500 heartbeat IPC: 1.05419 cumulative IPC: 1.05164 (Simulation time: 4 hr 25 min 49 sec) 
Heartbeat CPU 3 instructions: 660000000 cycles: 487272320 heartbeat IPC: 0.855165 cumulative IPC: 0.87257 (Simulation time: 4 hr 27 min 48 sec) 
Heartbeat CPU 1 instructions: 420000000 cycles: 488485081 heartbeat IPC: 0.411456 cumulative IPC: 0.42153 (Simulation time: 4 hr 28 min 20 sec) 
Heartbeat CPU 0 instructions: 340000000 cycles: 490186283 heartbeat IPC: 0.548132 cumulative IPC: 0.434207 (Simulation time: 4 hr 29 min 5 sec) 
Heartbeat CPU 2 instructions: 630000003 cycles: 491890731 heartbeat IPC: 1.05305 cumulative IPC: 1.05168 (Simulation time: 4 hr 29 min 50 sec) 
Heartbeat CPU 3 instructions: 670000001 cycles: 499004961 heartbeat IPC: 0.852323 cumulative IPC: 0.871853 (Simulation time: 4 hr 33 min 7 sec) 
Heartbeat CPU 2 instructions: 640000000 cycles: 501410467 heartbeat IPC: 1.05045 cumulative IPC: 1.05165 (Simulation time: 4 hr 34 min 17 sec) 
Heartbeat CPU 0 instructions: 350000003 cycles: 508386157 heartbeat IPC: 0.549455 cumulative IPC: 0.440364 (Simulation time: 4 hr 37 min 46 sec) 
Heartbeat CPU 1 instructions: 430000003 cycles: 508789148 heartbeat IPC: 0.492512 cumulative IPC: 0.425756 (Simulation time: 4 hr 37 min 57 sec) 
Heartbeat CPU 3 instructions: 680000000 cycles: 510428978 heartbeat IPC: 0.875349 cumulative IPC: 0.871969 (Simulation time: 4 hr 38 min 44 sec) 
Heartbeat CPU 2 instructions: 650000002 cycles: 510930989 heartbeat IPC: 1.05036 cumulative IPC: 1.05161 (Simulation time: 4 hr 38 min 57 sec) 
Heartbeat CPU 2 instructions: 660000000 cycles: 520419671 heartbeat IPC: 1.05389 cumulative IPC: 1.05167 (Simulation time: 4 hr 43 min 23 sec) 
Heartbeat CPU 3 instructions: 690000001 cycles: 521729776 heartbeat IPC: 0.884893 cumulative IPC: 0.872382 (Simulation time: 4 hr 44 min 0 sec) 
Heartbeat CPU 1 instructions: 440000000 cycles: 523225724 heartbeat IPC: 0.692685 cumulative IPC: 0.436597 (Simulation time: 4 hr 44 min 42 sec) 
Heartbeat CPU 0 instructions: 360000000 cycles: 526540360 heartbeat IPC: 0.550836 cumulative IPC: 0.445954 (Simulation time: 4 hr 46 min 13 sec) 
Heartbeat CPU 2 instructions: 670000003 cycles: 529911427 heartbeat IPC: 1.05355 cumulative IPC: 1.05172 (Simulation time: 4 hr 47 min 44 sec) 
Heartbeat CPU 3 instructions: 700000000 cycles: 533192986 heartbeat IPC: 0.872356 cumulative IPC: 0.872381 (Simulation time: 4 hr 49 min 13 sec) 
Heartbeat CPU 2 instructions: 680000000 cycles: 539414983 heartbeat IPC: 1.05224 cumulative IPC: 1.05173 (Simulation time: 4 hr 52 min 3 sec) 
Heartbeat CPU 1 instructions: 450000000 cycles: 541638757 heartbeat IPC: 0.543094 cumulative IPC: 0.441842 (Simulation time: 4 hr 53 min 5 sec) 
Heartbeat CPU 3 instructions: 710000002 cycles: 544477753 heartbeat IPC: 0.88615 cumulative IPC: 0.872793 (Simulation time: 4 hr 54 min 23 sec) 
Heartbeat CPU 0 instructions: 370000000 cycles: 544755252 heartbeat IPC: 0.549001 cumulative IPC: 0.450933 (Simulation time: 4 hr 54 min 30 sec) 
Heartbeat CPU 2 instructions: 690000000 cycles: 548978374 heartbeat IPC: 1.04565 cumulative IPC: 1.05158 (Simulation time: 4 hr 56 min 30 sec) 
Heartbeat CPU 3 instructions: 720000000 cycles: 555820478 heartbeat IPC: 0.881622 cumulative IPC: 0.873052 (Simulation time: 4 hr 59 min 43 sec) 
Heartbeat CPU 2 instructions: 700000000 cycles: 558497604 heartbeat IPC: 1.05051 cumulative IPC: 1.05156 (Simulation time: 5 hr 0 min 58 sec) 
Heartbeat CPU 0 instructions: 380000000 cycles: 562910680 heartbeat IPC: 0.550799 cumulative IPC: 0.455521 (Simulation time: 5 hr 2 min 52 sec) 
Heartbeat CPU 3 instructions: 730000000 cycles: 567005487 heartbeat IPC: 0.894054 cumulative IPC: 0.87364 (Simulation time: 5 hr 4 min 40 sec) 
Heartbeat CPU 2 instructions: 710000000 cycles: 568007187 heartbeat IPC: 1.05157 cumulative IPC: 1.05156 (Simulation time: 5 hr 5 min 18 sec) 
Heartbeat CPU 1 instructions: 460000000 cycles: 570913977 heartbeat IPC: 0.341586 cumulative IPC: 0.434562 (Simulation time: 5 hr 6 min 30 sec) 
Heartbeat CPU 2 instructions: 720000000 cycles: 577500032 heartbeat IPC: 1.05342 cumulative IPC: 1.0516 (Simulation time: 5 hr 10 min 42 sec) 
Heartbeat CPU 3 instructions: 740000000 cycles: 578170438 heartbeat IPC: 0.89566 cumulative IPC: 0.874239 (Simulation time: 5 hr 10 min 58 sec) 
Heartbeat CPU 0 instructions: 390000001 cycles: 581117767 heartbeat IPC: 0.549237 cumulative IPC: 0.459649 (Simulation time: 5 hr 13 min 11 sec) 
Heartbeat CPU 2 instructions: 730000003 cycles: 587003686 heartbeat IPC: 1.05223 cumulative IPC: 1.05161 (Simulation time: 5 hr 16 min 11 sec) 
Heartbeat CPU 3 instructions: 750000002 cycles: 589635072 heartbeat IPC: 0.872248 cumulative IPC: 0.874185 (Simulation time: 5 hr 17 min 21 sec) 
Heartbeat CPU 2 instructions: 740000000 cycles: 596513851 heartbeat IPC: 1.05151 cumulative IPC: 1.05161 (Simulation time: 5 hr 20 min 21 sec) 
Heartbeat CPU 1 instructions: 470000002 cycles: 598597617 heartbeat IPC: 0.361224 cumulative IPC: 0.429849 (Simulation time: 5 hr 21 min 15 sec) 
Heartbeat CPU 0 instructions: 400000000 cycles: 599290532 heartbeat IPC: 0.550274 cumulative IPC: 0.463466 (Simulation time: 5 hr 21 min 33 sec) 
Heartbeat CPU 3 instructions: 760000000 cycles: 601379144 heartbeat IPC: 0.851493 cumulative IPC: 0.87357 (Simulation time: 5 hr 22 min 28 sec) 
Heartbeat CPU 2 instructions: 750000003 cycles: 606019664 heartbeat IPC: 1.05199 cumulative IPC: 1.05162 (Simulation time: 5 hr 24 min 36 sec) 
Heartbeat CPU 3 instructions: 770000000 cycles: 612805193 heartbeat IPC: 0.875193 cumulative IPC: 0.873612 (Simulation time: 5 hr 27 min 29 sec) 
Heartbeat CPU 2 instructions: 760000000 cycles: 615530225 heartbeat IPC: 1.05146 cumulative IPC: 1.05162 (Simulation time: 5 hr 28 min 37 sec) 
Heartbeat CPU 0 instructions: 410000003 cycles: 617438938 heartbeat IPC: 0.551013 cumulative IPC: 0.466999 (Simulation time: 5 hr 29 min 31 sec) 
Heartbeat CPU 1 instructions: 480000000 cycles: 621041445 heartbeat IPC: 0.445557 cumulative IPC: 0.430627 (Simulation time: 5 hr 31 min 7 sec) 
Heartbeat CPU 3 instructions: 780000000 cycles: 624171868 heartbeat IPC: 0.879765 cumulative IPC: 0.873765 (Simulation time: 5 hr 32 min 28 sec) 
Heartbeat CPU 2 instructions: 770000002 cycles: 625014472 heartbeat IPC: 1.05438 cumulative IPC: 1.05167 (Simulation time: 5 hr 32 min 50 sec) 
Heartbeat CPU 2 instructions: 780000000 cycles: 634523947 heartbeat IPC: 1.05158 cumulative IPC: 1.05167 (Simulation time: 5 hr 36 min 59 sec) 
Heartbeat CPU 0 instructions: 420000000 cycles: 635549087 heartbeat IPC: 0.552176 cumulative IPC: 0.470297 (Simulation time: 5 hr 37 min 27 sec) 
Heartbeat CPU 3 instructions: 790000000 cycles: 635743812 heartbeat IPC: 0.864159 cumulative IPC: 0.873528 (Simulation time: 5 hr 37 min 32 sec) 
Heartbeat CPU 2 instructions: 790000001 cycles: 644018792 heartbeat IPC: 1.0532 cumulative IPC: 1.0517 (Simulation time: 5 hr 40 min 42 sec) 
Heartbeat CPU 1 instructions: 490000000 cycles: 646985631 heartbeat IPC: 0.385443 cumulative IPC: 0.428181 (Simulation time: 5 hr 41 min 51 sec) 
Heartbeat CPU 3 instructions: 800000000 cycles: 647331882 heartbeat IPC: 0.862956 cumulative IPC: 0.873272 (Simulation time: 5 hr 41 min 59 sec) 
Heartbeat CPU 2 instructions: 800000000 cycles: 653501452 heartbeat IPC: 1.05456 cumulative IPC: 1.05176 (Simulation time: 5 hr 44 min 26 sec) 
Heartbeat CPU 0 instructions: 430000003 cycles: 653703998 heartbeat IPC: 0.550815 cumulative IPC: 0.473305 (Simulation time: 5 hr 44 min 30 sec) 
Heartbeat CPU 3 instructions: 810000001 cycles: 658680827 heartbeat IPC: 0.881139 cumulative IPC: 0.873454 (Simulation time: 5 hr 46 min 20 sec) 
Heartbeat CPU 2 instructions: 810000000 cycles: 662990507 heartbeat IPC: 1.05385 cumulative IPC: 1.0518 (Simulation time: 5 hr 47 min 58 sec) 
Heartbeat CPU 3 instructions: 820000000 cycles: 669986238 heartbeat IPC: 0.884532 cumulative IPC: 0.873703 (Simulation time: 5 hr 50 min 36 sec) 
Heartbeat CPU 0 instructions: 440000000 cycles: 671916465 heartbeat IPC: 0.549074 cumulative IPC: 0.476042 (Simulation time: 5 hr 51 min 19 sec) 
Heartbeat CPU 2 instructions: 820000000 cycles: 672497267 heartbeat IPC: 1.05188 cumulative IPC: 1.0518 (Simulation time: 5 hr 51 min 32 sec) 
Heartbeat CPU 1 instructions: 500000000 cycles: 674025228 heartbeat IPC: 0.369828 cumulative IPC: 0.425064 (Simulation time: 5 hr 52 min 6 sec) 
Heartbeat CPU 3 instructions: 830000003 cycles: 681465502 heartbeat IPC: 0.871136 cumulative IPC: 0.873646 (Simulation time: 5 hr 55 min 16 sec) 
Heartbeat CPU 2 instructions: 830000000 cycles: 681975815 heartbeat IPC: 1.05501 cumulative IPC: 1.05186 (Simulation time: 5 hr 55 min 32 sec) 
Heartbeat CPU 0 instructions: 450000002 cycles: 690101339 heartbeat IPC: 0.549908 cumulative IPC: 0.478613 (Simulation time: 5 hr 59 min 31 sec) 
Heartbeat CPU 2 instructions: 840000000 cycles: 691575529 heartbeat IPC: 1.0417 cumulative IPC: 1.05167 (Simulation time: 6 hr 0 min 14 sec) 
Heartbeat CPU 3 instructions: 840000000 cycles: 692791445 heartbeat IPC: 0.882928 cumulative IPC: 0.873846 (Simulation time: 6 hr 0 min 51 sec) 
Heartbeat CPU 1 instructions: 510000002 cycles: 696411181 heartbeat IPC: 0.446709 cumulative IPC: 0.425981 (Simulation time: 6 hr 2 min 43 sec) 
Heartbeat CPU 2 instructions: 850000003 cycles: 701092020 heartbeat IPC: 1.05081 cumulative IPC: 1.05166 (Simulation time: 6 hr 5 min 2 sec) 
Heartbeat CPU 3 instructions: 850000001 cycles: 704286238 heartbeat IPC: 0.869959 cumulative IPC: 0.873763 (Simulation time: 6 hr 6 min 35 sec) 
Heartbeat CPU 0 instructions: 460000000 cycles: 708254680 heartbeat IPC: 0.550863 cumulative IPC: 0.48104 (Simulation time: 6 hr 8 min 20 sec) 
Heartbeat CPU 2 instructions: 860000000 cycles: 710610043 heartbeat IPC: 1.05064 cumulative IPC: 1.05164 (Simulation time: 6 hr 9 min 21 sec) 
Heartbeat CPU 3 instructions: 860000000 cycles: 715667759 heartbeat IPC: 0.878617 cumulative IPC: 0.873864 (Simulation time: 6 hr 11 min 34 sec) 
Heartbeat CPU 2 instructions: 870000000 cycles: 720112471 heartbeat IPC: 1.05236 cumulative IPC: 1.05165 (Simulation time: 6 hr 13 min 31 sec) 
Heartbeat CPU 1 instructions: 520000000 cycles: 724338586 heartbeat IPC: 0.358071 cumulative IPC: 0.422573 (Simulation time: 6 hr 15 min 22 sec) 
Heartbeat CPU 0 instructions: 470000003 cycles: 726486235 heartbeat IPC: 0.5485 cumulative IPC: 0.483241 (Simulation time: 6 hr 16 min 18 sec) 
Heartbeat CPU 3 instructions: 870000000 cycles: 727054415 heartbeat IPC: 0.878221 cumulative IPC: 0.873953 (Simulation time: 6 hr 16 min 36 sec) 
Heartbeat CPU 2 instructions: 880000000 cycles: 729628178 heartbeat IPC: 1.05089 cumulative IPC: 1.05164 (Simulation time: 6 hr 17 min 58 sec) 
Heartbeat CPU 3 instructions: 880000000 cycles: 738437127 heartbeat IPC: 0.878525 cumulative IPC: 0.874044 (Simulation time: 6 hr 21 min 55 sec) 
Heartbeat CPU 2 instructions: 890000002 cycles: 739126951 heartbeat IPC: 1.05277 cumulative IPC: 1.05166 (Simulation time: 6 hr 22 min 14 sec) 
Heartbeat CPU 0 instructions: 480000000 cycles: 744713640 heartbeat IPC: 0.548624 cumulative IPC: 0.485307 (Simulation time: 6 hr 24 min 40 sec) 
Heartbeat CPU 2 instructions: 900000000 cycles: 748612671 heartbeat IPC: 1.05422 cumulative IPC: 1.0517 (Simulation time: 6 hr 26 min 26 sec) 
Heartbeat CPU 1 instructions: 530000000 cycles: 749054027 heartbeat IPC: 0.404605 cumulative IPC: 0.421809 (Simulation time: 6 hr 26 min 38 sec) 
Heartbeat CPU 3 instructions: 890000003 cycles: 749758679 heartbeat IPC: 0.883271 cumulative IPC: 0.874223 (Simulation time: 6 hr 26 min 58 sec) 
Heartbeat CPU 2 instructions: 910000001 cycles: 758096420 heartbeat IPC: 1.05444 cumulative IPC: 1.05174 (Simulation time: 6 hr 30 min 50 sec) 
Heartbeat CPU 3 instructions: 900000000 cycles: 760955753 heartbeat IPC: 0.89309 cumulative IPC: 0.874579 (Simulation time: 6 hr 32 min 8 sec) 
Heartbeat CPU 0 instructions: 490000000 cycles: 762883986 heartbeat IPC: 0.550347 cumulative IPC: 0.487293 (Simulation time: 6 hr 32 min 55 sec) 
Heartbeat CPU 2 instructions: 920000000 cycles: 767568056 heartbeat IPC: 1.05578 cumulative IPC: 1.05181 (Simulation time: 6 hr 34 min 49 sec) 
Heartbeat CPU 1 instructions: 540000000 cycles: 768392963 heartbeat IPC: 0.517092 cumulative IPC: 0.424877 (Simulation time: 6 hr 35 min 10 sec) 
Heartbeat CPU 3 instructions: 910000001 cycles: 772793952 heartbeat IPC: 0.844723 cumulative IPC: 0.873995 (Simulation time: 6 hr 37 min 5 sec) 
Heartbeat CPU 2 instructions: 930000003 cycles: 777067205 heartbeat IPC: 1.05273 cumulative IPC: 1.05182 (Simulation time: 6 hr 38 min 55 sec) 
Heartbeat CPU 0 instructions: 500000000 cycles: 781074736 heartbeat IPC: 0.54973 cumulative IPC: 0.489145 (Simulation time: 6 hr 40 min 31 sec) 
Heartbeat CPU 3 instructions: 920000000 cycles: 784352367 heartbeat IPC: 0.86517 cumulative IPC: 0.87383 (Simulation time: 6 hr 42 min 3 sec) 
Heartbeat CPU 2 instructions: 940000000 cycles: 786570473 heartbeat IPC: 1.05227 cumulative IPC: 1.05183 (Simulation time: 6 hr 43 min 11 sec) 
Heartbeat CPU 3 instructions: 930000000 cycles: 795772906 heartbeat IPC: 0.875615 cumulative IPC: 0.873862 (Simulation time: 6 hr 47 min 10 sec) 
Heartbeat CPU 2 instructions: 950000002 cycles: 796072268 heartbeat IPC: 1.05243 cumulative IPC: 1.05184 (Simulation time: 6 hr 47 min 18 sec) 
Heartbeat CPU 1 instructions: 550000001 cycles: 796576894 heartbeat IPC: 0.354812 cumulative IPC: 0.421737 (Simulation time: 6 hr 47 min 31 sec) 
Heartbeat CPU 0 instructions: 510000000 cycles: 799316104 heartbeat IPC: 0.548204 cumulative IPC: 0.49085 (Simulation time: 6 hr 48 min 54 sec) 
Heartbeat CPU 2 instructions: 960000000 cycles: 805583610 heartbeat IPC: 1.05138 cumulative IPC: 1.05183 (Simulation time: 6 hr 51 min 39 sec) 
Heartbeat CPU 3 instructions: 940000000 cycles: 807517904 heartbeat IPC: 0.851426 cumulative IPC: 0.87345 (Simulation time: 6 hr 52 min 29 sec) 
Heartbeat CPU 2 instructions: 970000001 cycles: 815065704 heartbeat IPC: 1.05462 cumulative IPC: 1.05187 (Simulation time: 6 hr 55 min 46 sec) 
Heartbeat CPU 0 instructions: 520000000 cycles: 817515608 heartbeat IPC: 0.549466 cumulative IPC: 0.492492 (Simulation time: 6 hr 56 min 51 sec) 
Heartbeat CPU 3 instructions: 950000002 cycles: 819429153 heartbeat IPC: 0.839543 cumulative IPC: 0.872831 (Simulation time: 6 hr 57 min 41 sec) 
Heartbeat CPU 1 instructions: 560000000 cycles: 821813371 heartbeat IPC: 0.396252 cumulative IPC: 0.420754 (Simulation time: 6 hr 58 min 43 sec) 
Heartbeat CPU 2 instructions: 980000000 cycles: 824550909 heartbeat IPC: 1.05427 cumulative IPC: 1.05191 (Simulation time: 6 hr 59 min 56 sec) 
Heartbeat CPU 3 instructions: 960000000 cycles: 830861725 heartbeat IPC: 0.874694 cumulative IPC: 0.872863 (Simulation time: 7 hr 2 min 43 sec) 
Heartbeat CPU 2 instructions: 990000003 cycles: 834103385 heartbeat IPC: 1.04685 cumulative IPC: 1.05183 (Simulation time: 7 hr 4 min 8 sec) 
Heartbeat CPU 0 instructions: 530000002 cycles: 835776234 heartbeat IPC: 0.547626 cumulative IPC: 0.493999 (Simulation time: 7 hr 4 min 53 sec) 
Heartbeat CPU 3 instructions: 970000000 cycles: 842555115 heartbeat IPC: 0.855184 cumulative IPC: 0.872556 (Simulation time: 7 hr 7 min 51 sec) 
Heartbeat CPU 2 instructions: 1000000000 cycles: 843593145 heartbeat IPC: 1.05377 cumulative IPC: 1.05186 (Simulation time: 7 hr 8 min 19 sec) 
Heartbeat CPU 1 instructions: 570000002 cycles: 845394333 heartbeat IPC: 0.424071 cumulative IPC: 0.420869 (Simulation time: 7 hr 9 min 7 sec) 
Heartbeat CPU 2 instructions: 1010000002 cycles: 853074215 heartbeat IPC: 1.05473 cumulative IPC: 1.0519 (Simulation time: 7 hr 12 min 31 sec) 
Heartbeat CPU 0 instructions: 540000000 cycles: 853984634 heartbeat IPC: 0.549197 cumulative IPC: 0.495464 (Simulation time: 7 hr 13 min 1 sec) 
Heartbeat CPU 3 instructions: 980000000 cycles: 853994630 heartbeat IPC: 0.874163 cumulative IPC: 0.872583 (Simulation time: 7 hr 13 min 2 sec) 
Heartbeat CPU 2 instructions: 1020000000 cycles: 862573830 heartbeat IPC: 1.05267 cumulative IPC: 1.05191 (Simulation time: 7 hr 17 min 24 sec) 
Heartbeat CPU 1 instructions: 580000000 cycles: 864285857 heartbeat IPC: 0.529338 cumulative IPC: 0.423811 (Simulation time: 7 hr 18 min 10 sec) 
Heartbeat CPU 3 instructions: 990000000 cycles: 865268208 heartbeat IPC: 0.88703 cumulative IPC: 0.872817 (Simulation time: 7 hr 18 min 36 sec) 
Heartbeat CPU 2 instructions: 1030000002 cycles: 872060226 heartbeat IPC: 1.05414 cumulative IPC: 1.05194 (Simulation time: 7 hr 22 min 34 sec) 
Heartbeat CPU 0 instructions: 550000000 cycles: 872138003 heartbeat IPC: 0.550862 cumulative IPC: 0.496892 (Simulation time: 7 hr 22 min 36 sec) 
Heartbeat CPU 3 instructions: 1000000000 cycles: 876457477 heartbeat IPC: 0.893713 cumulative IPC: 0.873147 (Simulation time: 7 hr 24 min 32 sec) 
Heartbeat CPU 1 instructions: 590000000 cycles: 878503668 heartbeat IPC: 0.703343 cumulative IPC: 0.429403 (Simulation time: 7 hr 25 min 26 sec) 
Heartbeat CPU 2 instructions: 1040000000 cycles: 881550412 heartbeat IPC: 1.05372 cumulative IPC: 1.05196 (Simulation time: 7 hr 26 min 46 sec) 
Heartbeat CPU 3 instructions: 1010000001 cycles: 887804839 heartbeat IPC: 0.881262 cumulative IPC: 0.873275 (Simulation time: 7 hr 29 min 27 sec) 
Heartbeat CPU 0 instructions: 560000000 cycles: 890263110 heartbeat IPC: 0.551721 cumulative IPC: 0.498267 (Simulation time: 7 hr 30 min 32 sec) 
Heartbeat CPU 2 instructions: 1050000001 cycles: 891045405 heartbeat IPC: 1.05319 cumulative IPC: 1.05198 (Simulation time: 7 hr 30 min 51 sec) 
Heartbeat CPU 1 instructions: 600000000 cycles: 895552727 heartbeat IPC: 0.586543 cumulative IPC: 0.433084 (Simulation time: 7 hr 32 min 36 sec) 
Heartbeat CPU 3 instructions: 1020000000 cycles: 899108550 heartbeat IPC: 0.884665 cumulative IPC: 0.873451 (Simulation time: 7 hr 33 min 56 sec) 
Heartbeat CPU 2 instructions: 1060000000 cycles: 900550339 heartbeat IPC: 1.05209 cumulative IPC: 1.05198 (Simulation time: 7 hr 34 min 28 sec) 
Heartbeat CPU 0 instructions: 570000001 cycles: 908425479 heartbeat IPC: 0.550589 cumulative IPC: 0.49955 (Simulation time: 7 hr 37 min 35 sec) 
Heartbeat CPU 2 instructions: 1070000003 cycles: 910029989 heartbeat IPC: 1.05489 cumulative IPC: 1.05202 (Simulation time: 7 hr 38 min 14 sec) 
Heartbeat CPU 3 instructions: 1030000003 cycles: 910730859 heartbeat IPC: 0.860415 cumulative IPC: 0.873247 (Simulation time: 7 hr 38 min 31 sec) 
Heartbeat CPU 2 instructions: 1080000000 cycles: 919533557 heartbeat IPC: 1.05224 cumulative IPC: 1.05202 (Simulation time: 7 hr 42 min 8 sec) 
Heartbeat CPU 3 instructions: 1040000000 cycles: 922239121 heartbeat IPC: 0.868941 cumulative IPC: 0.873181 (Simulation time: 7 hr 43 min 14 sec) 
Heartbeat CPU 1 instructions: 610000000 cycles: 922420597 heartbeat IPC: 0.372192 cumulative IPC: 0.430916 (Simulation time: 7 hr 43 min 18 sec) 
Heartbeat CPU 0 instructions: 580000000 cycles: 926546237 heartbeat IPC: 0.551853 cumulative IPC: 0.500799 (Simulation time: 7 hr 44 min 59 sec) 
Heartbeat CPU 2 instructions: 1090000000 cycles: 929021031 heartbeat IPC: 1.05402 cumulative IPC: 1.05205 (Simulation time: 7 hr 46 min 1 sec) 
Heartbeat CPU 3 instructions: 1050000000 cycles: 933601558 heartbeat IPC: 0.880093 cumulative IPC: 0.873284 (Simulation time: 7 hr 47 min 54 sec) 
Heartbeat CPU 2 instructions: 1100000000 cycles: 938505666 heartbeat IPC: 1.05434 cumulative IPC: 1.05208 (Simulation time: 7 hr 49 min 58 sec) 
Heartbeat CPU 0 instructions: 590000003 cycles: 944735203 heartbeat IPC: 0.549784 cumulative IPC: 0.501946 (Simulation time: 7 hr 52 min 42 sec) 
Heartbeat CPU 3 instructions: 1060000000 cycles: 945110425 heartbeat IPC: 0.868895 cumulative IPC: 0.873219 (Simulation time: 7 hr 52 min 51 sec) 
Heartbeat CPU 1 instructions: 620000000 cycles: 945792956 heartbeat IPC: 0.427856 cumulative IPC: 0.430824 (Simulation time: 7 hr 53 min 7 sec) 
Heartbeat CPU 2 instructions: 1110000001 cycles: 948028623 heartbeat IPC: 1.05009 cumulative IPC: 1.05205 (Simulation time: 7 hr 54 min 7 sec) 
Heartbeat CPU 3 instructions: 1070000002 cycles: 956446506 heartbeat IPC: 0.882139 cumulative IPC: 0.873347 (Simulation time: 7 hr 58 min 2 sec) 
Heartbeat CPU 2 instructions: 1120000000 cycles: 957514965 heartbeat IPC: 1.05415 cumulative IPC: 1.05208 (Simulation time: 7 hr 58 min 30 sec) 
Heartbeat CPU 0 instructions: 600000000 cycles: 962937809 heartbeat IPC: 0.549372 cumulative IPC: 0.503032 (Simulation time: 8 hr 0 min 52 sec) 
Heartbeat CPU 2 instructions: 1130000003 cycles: 967001933 heartbeat IPC: 1.05408 cumulative IPC: 1.0521 (Simulation time: 8 hr 2 min 34 sec) 
Heartbeat CPU 3 instructions: 1080000000 cycles: 967966574 heartbeat IPC: 0.86805 cumulative IPC: 0.873271 (Simulation time: 8 hr 2 min 57 sec) 
Heartbeat CPU 1 instructions: 630000002 cycles: 974168346 heartbeat IPC: 0.352418 cumulative IPC: 0.428065 (Simulation time: 8 hr 5 min 41 sec) 
Heartbeat CPU 2 instructions: 1140000000 cycles: 976504397 heartbeat IPC: 1.05236 cumulative IPC: 1.0521 (Simulation time: 8 hr 6 min 45 sec) 
Heartbeat CPU 0 instructions: 610000001 cycles: 979451929 heartbeat IPC: 0.605542 cumulative IPC: 0.505117 (Simulation time: 8 hr 8 min 1 sec) 
Heartbeat CPU 3 instructions: 1090000000 cycles: 980192466 heartbeat IPC: 0.817936 cumulative IPC: 0.872438 (Simulation time: 8 hr 8 min 20 sec) 
Heartbeat CPU 2 instructions: 1150000001 cycles: 986020611 heartbeat IPC: 1.05084 cumulative IPC: 1.05209 (Simulation time: 8 hr 11 min 16 sec) 
Heartbeat CPU 0 instructions: 620000000 cycles: 992876235 heartbeat IPC: 0.744917 cumulative IPC: 0.509019 (Simulation time: 8 hr 14 min 10 sec) 
Heartbeat CPU 3 instructions: 1100000000 cycles: 993957537 heartbeat IPC: 0.726476 cumulative IPC: 0.870006 (Simulation time: 8 hr 14 min 39 sec) 
Heartbeat CPU 2 instructions: 1160000000 cycles: 995497638 heartbeat IPC: 1.05518 cumulative IPC: 1.05212 (Simulation time: 8 hr 15 min 22 sec) 
Heartbeat CPU 1 instructions: 640000000 cycles: 997144831 heartbeat IPC: 0.435227 cumulative IPC: 0.428264 (Simulation time: 8 hr 16 min 7 sec) 
Heartbeat CPU 2 instructions: 1170000001 cycles: 1004979844 heartbeat IPC: 1.05461 cumulative IPC: 1.05215 (Simulation time: 8 hr 19 min 34 sec) 
Heartbeat CPU 0 instructions: 630000002 cycles: 1005839971 heartbeat IPC: 0.771383 cumulative IPC: 0.513077 (Simulation time: 8 hr 20 min 1 sec) 
Heartbeat CPU 3 instructions: 1110000003 cycles: 1008597279 heartbeat IPC: 0.683072 cumulative IPC: 0.866751 (Simulation time: 8 hr 21 min 13 sec) 
Heartbeat CPU 2 instructions: 1180000000 cycles: 1014477052 heartbeat IPC: 1.05294 cumulative IPC: 1.05216 (Simulation time: 8 hr 23 min 33 sec) 
Heartbeat CPU 0 instructions: 640000000 cycles: 1019203776 heartbeat IPC: 0.74829 cumulative IPC: 0.516769 (Simulation time: 8 hr 25 min 27 sec) 
Heartbeat CPU 1 instructions: 650000001 cycles: 1019505097 heartbeat IPC: 0.447222 cumulative IPC: 0.428761 (Simulation time: 8 hr 25 min 35 sec) 
Heartbeat CPU 3 instructions: 1120000000 cycles: 1022395426 heartbeat IPC: 0.724735 cumulative IPC: 0.864458 (Simulation time: 8 hr 26 min 47 sec) 
Heartbeat CPU 2 instructions: 1190000003 cycles: 1023954319 heartbeat IPC: 1.05516 cumulative IPC: 1.05219 (Simulation time: 8 hr 27 min 26 sec) 
Heartbeat CPU 0 instructions: 650000003 cycles: 1032857202 heartbeat IPC: 0.732417 cumulative IPC: 0.520172 (Simulation time: 8 hr 31 min 20 sec) 
Heartbeat CPU 2 instructions: 1200000000 cycles: 1033462713 heartbeat IPC: 1.0517 cumulative IPC: 1.05219 (Simulation time: 8 hr 31 min 35 sec) 
Heartbeat CPU 3 instructions: 1130000001 cycles: 1035266746 heartbeat IPC: 0.776921 cumulative IPC: 0.86316 (Simulation time: 8 hr 32 min 21 sec) 
Heartbeat CPU 2 instructions: 1210000000 cycles: 1042931455 heartbeat IPC: 1.05611 cumulative IPC: 1.05223 (Simulation time: 8 hr 36 min 13 sec) 
Heartbeat CPU 1 instructions: 660000000 cycles: 1044315905 heartbeat IPC: 0.40305 cumulative IPC: 0.428033 (Simulation time: 8 hr 36 min 51 sec) 
Heartbeat CPU 0 instructions: 660000000 cycles: 1047036504 heartbeat IPC: 0.705253 cumulative IPC: 0.523157 (Simulation time: 8 hr 38 min 0 sec) 
Heartbeat CPU 3 instructions: 1140000000 cycles: 1049030299 heartbeat IPC: 0.726556 cumulative IPC: 0.861026 (Simulation time: 8 hr 38 min 53 sec) 
Heartbeat CPU 2 instructions: 1220000000 cycles: 1052417359 heartbeat IPC: 1.0542 cumulative IPC: 1.05225 (Simulation time: 8 hr 40 min 23 sec) 
Heartbeat CPU 0 instructions: 670000000 cycles: 1060109546 heartbeat IPC: 0.764933 cumulative IPC: 0.526699 (Simulation time: 8 hr 43 min 44 sec) 
Heartbeat CPU 2 instructions: 1230000000 cycles: 1061917585 heartbeat IPC: 1.05261 cumulative IPC: 1.05226 (Simulation time: 8 hr 44 min 29 sec) 
Heartbeat CPU 3 instructions: 1150000000 cycles: 1063012563 heartbeat IPC: 0.715192 cumulative IPC: 0.858748 (Simulation time: 8 hr 44 min 58 sec) 
Heartbeat CPU 2 instructions: 1240000000 cycles: 1071422815 heartbeat IPC: 1.05205 cumulative IPC: 1.05225 (Simulation time: 8 hr 48 min 46 sec) 
Heartbeat CPU 1 instructions: 670000000 cycles: 1073609436 heartbeat IPC: 0.341372 cumulative IPC: 0.425231 (Simulation time: 8 hr 49 min 45 sec) 
Heartbeat CPU 0 instructions: 680000000 cycles: 1073610269 heartbeat IPC: 0.740701 cumulative IPC: 0.529888 (Simulation time: 8 hr 49 min 45 sec) 
Heartbeat CPU 3 instructions: 1160000000 cycles: 1077127343 heartbeat IPC: 0.708477 cumulative IPC: 0.856416 (Simulation time: 8 hr 51 min 14 sec) 
Heartbeat CPU 2 instructions: 1250000003 cycles: 1080930181 heartbeat IPC: 1.05182 cumulative IPC: 1.05225 (Simulation time: 8 hr 53 min 10 sec) 
Heartbeat CPU 0 instructions: 690000003 cycles: 1087093316 heartbeat IPC: 0.741672 cumulative IPC: 0.532994 (Simulation time: 8 hr 56 min 19 sec) 
Heartbeat CPU 3 instructions: 1170000002 cycles: 1089344604 heartbeat IPC: 0.818514 cumulative IPC: 0.855914 (Simulation time: 8 hr 57 min 24 sec) 
Heartbeat CPU 2 instructions: 1260000000 cycles: 1090418091 heartbeat IPC: 1.05397 cumulative IPC: 1.05227 (Simulation time: 8 hr 57 min 54 sec) 
Heartbeat CPU 1 instructions: 680000000 cycles: 1099484970 heartbeat IPC: 0.386465 cumulative IPC: 0.424154 (Simulation time: 9 hr 2 min 23 sec) 
Heartbeat CPU 0 instructions: 700000000 cycles: 1099768079 heartbeat IPC: 0.788969 cumulative IPC: 0.536476 (Simulation time: 9 hr 2 min 33 sec) 
Heartbeat CPU 2 instructions: 1270000000 cycles: 1099921837 heartbeat IPC: 1.05222 cumulative IPC: 1.05227 (Simulation time: 9 hr 2 min 37 sec) 
Heartbeat CPU 3 instructions: 1180000000 cycles: 1101799491 heartbeat IPC: 0.802898 cumulative IPC: 0.855207 (Simulation time: 9 hr 3 min 29 sec) 
Heartbeat CPU 2 instructions: 1280000000 cycles: 1109430878 heartbeat IPC: 1.05163 cumulative IPC: 1.05226 (Simulation time: 9 hr 7 min 14 sec) 
Heartbeat CPU 3 instructions: 1190000000 cycles: 1113265952 heartbeat IPC: 0.872109 cumulative IPC: 0.855412 (Simulation time: 9 hr 9 min 6 sec) 
Heartbeat CPU 0 instructions: 710000000 cycles: 1113518933 heartbeat IPC: 0.727228 cumulative IPC: 0.539249 (Simulation time: 9 hr 9 min 14 sec) 
Finished CPU 2 instructions: 1000000002 cycles: 950324337 cumulative IPC: 1.05227 (Simulation time: 9 hr 11 min 28 sec) 
Heartbeat CPU 2 instructions: 1290000001 cycles: 1118918335 heartbeat IPC: 1.05402 cumulative IPC: 1.05228 (Simulation time: 9 hr 11 min 58 sec) 
Heartbeat CPU 1 instructions: 690000003 cycles: 1123485297 heartbeat IPC: 0.416661 cumulative IPC: 0.423966 (Simulation time: 9 hr 14 min 7 sec) 
Heartbeat CPU 3 instructions: 1200000000 cycles: 1124785345 heartbeat IPC: 0.868101 cumulative IPC: 0.855564 (Simulation time: 9 hr 14 min 42 sec) 
Heartbeat CPU 0 instructions: 720000000 cycles: 1127841404 heartbeat IPC: 0.698204 cumulative IPC: 0.54162 (Simulation time: 9 hr 16 min 6 sec) 
Heartbeat CPU 2 instructions: 1300000000 cycles: 1128455810 heartbeat IPC: 1.0485 cumulative IPC: 1.05224 (Simulation time: 9 hr 16 min 23 sec) 
Heartbeat CPU 3 instructions: 1210000002 cycles: 1136177562 heartbeat IPC: 0.877792 cumulative IPC: 0.855826 (Simulation time: 9 hr 19 min 57 sec) 
Heartbeat CPU 2 instructions: 1310000000 cycles: 1137943091 heartbeat IPC: 1.05404 cumulative IPC: 1.05226 (Simulation time: 9 hr 20 min 46 sec) 
Heartbeat CPU 0 instructions: 730000001 cycles: 1142063092 heartbeat IPC: 0.703151 cumulative IPC: 0.543978 (Simulation time: 9 hr 22 min 40 sec) 
Heartbeat CPU 1 instructions: 700000000 cycles: 1143065052 heartbeat IPC: 0.510731 cumulative IPC: 0.425708 (Simulation time: 9 hr 23 min 5 sec) 
Heartbeat CPU 3 instructions: 1220000000 cycles: 1147302500 heartbeat IPC: 0.898881 cumulative IPC: 0.856315 (Simulation time: 9 hr 24 min 53 sec) 
Heartbeat CPU 2 instructions: 1320000000 cycles: 1147427238 heartbeat IPC: 1.05439 cumulative IPC: 1.05228 (Simulation time: 9 hr 24 min 57 sec) 
Heartbeat CPU 0 instructions: 740000000 cycles: 1156242008 heartbeat IPC: 0.705272 cumulative IPC: 0.546292 (Simulation time: 9 hr 28 min 38 sec) 
Heartbeat CPU 2 instructions: 1330000002 cycles: 1156911439 heartbeat IPC: 1.05439 cumulative IPC: 1.0523 (Simulation time: 9 hr 28 min 54 sec) 
Heartbeat CPU 1 instructions: 710000002 cycles: 1157439853 heartbeat IPC: 0.695662 cumulative IPC: 0.429629 (Simulation time: 9 hr 29 min 9 sec) 
Heartbeat CPU 3 instructions: 1230000001 cycles: 1158466586 heartbeat IPC: 0.895729 cumulative IPC: 0.856759 (Simulation time: 9 hr 29 min 37 sec) 
Heartbeat CPU 2 instructions: 1340000000 cycles: 1166384922 heartbeat IPC: 1.05558 cumulative IPC: 1.05233 (Simulation time: 9 hr 33 min 2 sec) 
Heartbeat CPU 3 instructions: 1240000000 cycles: 1169660951 heartbeat IPC: 0.893306 cumulative IPC: 0.857167 (Simulation time: 9 hr 34 min 32 sec) 
Heartbeat CPU 0 instructions: 750000003 cycles: 1170465629 heartbeat IPC: 0.703056 cumulative IPC: 0.548515 (Simulation time: 9 hr 34 min 55 sec) 
Heartbeat CPU 1 instructions: 720000000 cycles: 1175747105 heartbeat IPC: 0.546232 cumulative IPC: 0.431747 (Simulation time: 9 hr 37 min 33 sec) 
Heartbeat CPU 2 instructions: 1350000001 cycles: 1175878371 heartbeat IPC: 1.05336 cumulative IPC: 1.05234 (Simulation time: 9 hr 37 min 41 sec) 
Heartbeat CPU 3 instructions: 1250000003 cycles: 1180588818 heartbeat IPC: 0.915092 cumulative IPC: 0.857792 (Simulation time: 9 hr 40 min 53 sec) 
Heartbeat CPU 0 instructions: 760000000 cycles: 1184688533 heartbeat IPC: 0.703091 cumulative IPC: 0.550677 (Simulation time: 9 hr 42 min 49 sec) 
Heartbeat CPU 2 instructions: 1360000000 cycles: 1185364644 heartbeat IPC: 1.05415 cumulative IPC: 1.05236 (Simulation time: 9 hr 43 min 8 sec) 
Heartbeat CPU 3 instructions: 1260000000 cycles: 1191867571 heartbeat IPC: 0.886623 cumulative IPC: 0.85811 (Simulation time: 9 hr 46 min 4 sec) 
Heartbeat CPU 2 instructions: 1370000003 cycles: 1194856606 heartbeat IPC: 1.05352 cumulative IPC: 1.05237 (Simulation time: 9 hr 47 min 24 sec) 
Heartbeat CPU 0 instructions: 770000000 cycles: 1198553333 heartbeat IPC: 0.721251 cumulative IPC: 0.552972 (Simulation time: 9 hr 49 min 4 sec) 
Heartbeat CPU 2 instructions: 1380000000 cycles: 1204364538 heartbeat IPC: 1.05175 cumulative IPC: 1.05236 (Simulation time: 9 hr 51 min 36 sec) 
Heartbeat CPU 1 instructions: 730000000 cycles: 1204404392 heartbeat IPC: 0.348951 cumulative IPC: 0.429458 (Simulation time: 9 hr 51 min 37 sec) 
Heartbeat CPU 3 instructions: 1270000001 cycles: 1204668931 heartbeat IPC: 0.781167 cumulative IPC: 0.85716 (Simulation time: 9 hr 51 min 44 sec) 
Heartbeat CPU 0 instructions: 780000000 cycles: 1212214463 heartbeat IPC: 0.732004 cumulative IPC: 0.555313 (Simulation time: 9 hr 54 min 58 sec) 
Heartbeat CPU 2 instructions: 1390000003 cycles: 1213847369 heartbeat IPC: 1.05454 cumulative IPC: 1.05238 (Simulation time: 9 hr 55 min 41 sec) 
Heartbeat CPU 3 instructions: 1280000000 cycles: 1220069441 heartbeat IPC: 0.649329 cumulative IPC: 0.854118 (Simulation time: 9 hr 58 min 24 sec) 
Heartbeat CPU 2 instructions: 1400000000 cycles: 1223325080 heartbeat IPC: 1.05511 cumulative IPC: 1.05241 (Simulation time: 9 hr 59 min 50 sec) 
Heartbeat CPU 0 instructions: 790000000 cycles: 1225030968 heartbeat IPC: 0.780244 cumulative IPC: 0.55804 (Simulation time: 10 hr 0 min 32 sec) 
Heartbeat CPU 1 instructions: 740000000 cycles: 1232697930 heartbeat IPC: 0.353438 cumulative IPC: 0.427438 (Simulation time: 10 hr 3 min 49 sec) 
Heartbeat CPU 2 instructions: 1410000000 cycles: 1232794695 heartbeat IPC: 1.05601 cumulative IPC: 1.05244 (Simulation time: 10 hr 3 min 52 sec) 
Heartbeat CPU 3 instructions: 1290000003 cycles: 1235494290 heartbeat IPC: 0.648305 cumulative IPC: 0.851145 (Simulation time: 10 hr 5 min 3 sec) 
Heartbeat CPU 0 instructions: 800000000 cycles: 1238627437 heartbeat IPC: 0.735485 cumulative IPC: 0.560293 (Simulation time: 10 hr 6 min 26 sec) 
Heartbeat CPU 2 instructions: 1420000000 cycles: 1242266180 heartbeat IPC: 1.0558 cumulative IPC: 1.05247 (Simulation time: 10 hr 8 min 4 sec) 
Heartbeat CPU 3 instructions: 1300000000 cycles: 1249423880 heartbeat IPC: 0.717896 cumulative IPC: 0.849429 (Simulation time: 10 hr 11 min 24 sec) 
Heartbeat CPU 2 instructions: 1430000001 cycles: 1251738253 heartbeat IPC: 1.05574 cumulative IPC: 1.0525 (Simulation time: 10 hr 12 min 28 sec) 
Heartbeat CPU 0 instructions: 810000000 cycles: 1252049701 heartbeat IPC: 0.745031 cumulative IPC: 0.56258 (Simulation time: 10 hr 12 min 36 sec) 
Heartbeat CPU 1 instructions: 750000003 cycles: 1254567291 heartbeat IPC: 0.457261 cumulative IPC: 0.428038 (Simulation time: 10 hr 13 min 37 sec) 
Heartbeat CPU 2 instructions: 1440000000 cycles: 1261231799 heartbeat IPC: 1.05335 cumulative IPC: 1.0525 (Simulation time: 10 hr 16 min 19 sec) 
Heartbeat CPU 3 instructions: 1310000001 cycles: 1264011043 heartbeat IPC: 0.685534 cumulative IPC: 0.847248 (Simulation time: 10 hr 17 min 27 sec) 
Heartbeat CPU 0 instructions: 820000000 cycles: 1265152618 heartbeat IPC: 0.763189 cumulative IPC: 0.564975 (Simulation time: 10 hr 17 min 55 sec) 
Heartbeat CPU 2 instructions: 1450000001 cycles: 1270761811 heartbeat IPC: 1.04932 cumulative IPC: 1.05248 (Simulation time: 10 hr 20 min 16 sec) 
Heartbeat CPU 0 instructions: 830000003 cycles: 1278121132 heartbeat IPC: 0.771099 cumulative IPC: 0.567383 (Simulation time: 10 hr 23 min 31 sec) 
Heartbeat CPU 3 instructions: 1320000000 cycles: 1280107709 heartbeat IPC: 0.621247 cumulative IPC: 0.843978 (Simulation time: 10 hr 24 min 55 sec) 
Heartbeat CPU 2 instructions: 1460000000 cycles: 1280234540 heartbeat IPC: 1.05566 cumulative IPC: 1.0525 (Simulation time: 10 hr 24 min 59 sec) 
Heartbeat CPU 1 instructions: 760000000 cycles: 1282928862 heartbeat IPC: 0.35259 cumulative IPC: 0.42612 (Simulation time: 10 hr 26 min 7 sec) 
Heartbeat CPU 2 instructions: 1470000001 cycles: 1289708727 heartbeat IPC: 1.0555 cumulative IPC: 1.05253 (Simulation time: 10 hr 29 min 0 sec) 
Heartbeat CPU 0 instructions: 840000000 cycles: 1291590011 heartbeat IPC: 0.742452 cumulative IPC: 0.569481 (Simulation time: 10 hr 29 min 49 sec) 
Heartbeat CPU 3 instructions: 1330000000 cycles: 1293655602 heartbeat IPC: 0.738122 cumulative IPC: 0.842704 (Simulation time: 10 hr 30 min 43 sec) 
Heartbeat CPU 2 instructions: 1480000000 cycles: 1299208205 heartbeat IPC: 1.05269 cumulative IPC: 1.05253 (Simulation time: 10 hr 33 min 0 sec) 
Heartbeat CPU 0 instructions: 850000003 cycles: 1305563488 heartbeat IPC: 0.715642 cumulative IPC: 0.571276 (Simulation time: 10 hr 35 min 44 sec) 
Heartbeat CPU 1 instructions: 770000000 cycles: 1306690116 heartbeat IPC: 0.420853 cumulative IPC: 0.42601 (Simulation time: 10 hr 36 min 15 sec) 
Heartbeat CPU 3 instructions: 1340000000 cycles: 1307977631 heartbeat IPC: 0.698225 cumulative IPC: 0.840889 (Simulation time: 10 hr 36 min 49 sec) 
Heartbeat CPU 2 instructions: 1490000001 cycles: 1308682179 heartbeat IPC: 1.05552 cumulative IPC: 1.05255 (Simulation time: 10 hr 37 min 8 sec) 
Heartbeat CPU 2 instructions: 1500000000 cycles: 1318151608 heartbeat IPC: 1.05603 cumulative IPC: 1.05258 (Simulation time: 10 hr 41 min 14 sec) 
Heartbeat CPU 0 instructions: 860000000 cycles: 1319535187 heartbeat IPC: 0.715732 cumulative IPC: 0.573028 (Simulation time: 10 hr 41 min 49 sec) 
Heartbeat CPU 3 instructions: 1350000001 cycles: 1322936879 heartbeat IPC: 0.668483 cumulative IPC: 0.838657 (Simulation time: 10 hr 43 min 18 sec) 
Heartbeat CPU 1 instructions: 780000000 cycles: 1327083604 heartbeat IPC: 0.490353 cumulative IPC: 0.427142 (Simulation time: 10 hr 45 min 15 sec) 
Heartbeat CPU 2 instructions: 1510000001 cycles: 1327637844 heartbeat IPC: 1.05416 cumulative IPC: 1.0526 (Simulation time: 10 hr 45 min 30 sec) 
Heartbeat CPU 0 instructions: 870000000 cycles: 1333037245 heartbeat IPC: 0.740628 cumulative IPC: 0.57497 (Simulation time: 10 hr 47 min 57 sec) 
Heartbeat CPU 2 instructions: 1520000000 cycles: 1337118420 heartbeat IPC: 1.05479 cumulative IPC: 1.05261 (Simulation time: 10 hr 49 min 45 sec) 
Heartbeat CPU 3 instructions: 1360000000 cycles: 1338675499 heartbeat IPC: 0.63538 cumulative IPC: 0.835924 (Simulation time: 10 hr 50 min 27 sec) 
Heartbeat CPU 0 instructions: 880000000 cycles: 1346278839 heartbeat IPC: 0.755196 cumulative IPC: 0.576995 (Simulation time: 10 hr 53 min 50 sec) 
Heartbeat CPU 2 instructions: 1530000000 cycles: 1346606004 heartbeat IPC: 1.05401 cumulative IPC: 1.05262 (Simulation time: 10 hr 53 min 58 sec) 
Heartbeat CPU 3 instructions: 1370000001 cycles: 1354092471 heartbeat IPC: 0.648636 cumulative IPC: 0.83349 (Simulation time: 10 hr 57 min 12 sec) 
Heartbeat CPU 1 instructions: 790000000 cycles: 1354723518 heartbeat IPC: 0.361796 cumulative IPC: 0.42562 (Simulation time: 10 hr 57 min 29 sec) 
Heartbeat CPU 2 instructions: 1540000000 cycles: 1356075191 heartbeat IPC: 1.05606 cumulative IPC: 1.05265 (Simulation time: 10 hr 58 min 6 sec) 
Heartbeat CPU 0 instructions: 890000000 cycles: 1360013200 heartbeat IPC: 0.728101 cumulative IPC: 0.578736 (Simulation time: 10 hr 59 min 56 sec) 
Heartbeat CPU 2 instructions: 1550000001 cycles: 1365555644 heartbeat IPC: 1.0548 cumulative IPC: 1.05267 (Simulation time: 11 hr 2 min 19 sec) 
Heartbeat CPU 3 instructions: 1380000000 cycles: 1366998384 heartbeat IPC: 0.774839 cumulative IPC: 0.832859 (Simulation time: 11 hr 2 min 55 sec) 
Finished CPU 3 instructions: 1000000001 cycles: 1200536476 cumulative IPC: 0.832961 (Simulation time: 11 hr 3 min 30 sec) 
Heartbeat CPU 2 instructions: 1560000000 cycles: 1375030254 heartbeat IPC: 1.05545 cumulative IPC: 1.05269 (Simulation time: 11 hr 6 min 29 sec) 
Heartbeat CPU 0 instructions: 900000000 cycles: 1377034450 heartbeat IPC: 0.587501 cumulative IPC: 0.578859 (Simulation time: 11 hr 7 min 23 sec) 
Heartbeat CPU 3 instructions: 1390000002 cycles: 1378242176 heartbeat IPC: 0.88938 cumulative IPC: 0.833384 (Simulation time: 11 hr 7 min 56 sec) 
Heartbeat CPU 1 instructions: 800000000 cycles: 1379668850 heartbeat IPC: 0.400877 cumulative IPC: 0.425111 (Simulation time: 11 hr 8 min 35 sec) 
Heartbeat CPU 2 instructions: 1570000002 cycles: 1384510546 heartbeat IPC: 1.05482 cumulative IPC: 1.05271 (Simulation time: 11 hr 10 min 46 sec) 
Heartbeat CPU 3 instructions: 1400000000 cycles: 1389382583 heartbeat IPC: 0.897633 cumulative IPC: 0.83397 (Simulation time: 11 hr 12 min 58 sec) 
Heartbeat CPU 2 instructions: 1580000000 cycles: 1393997668 heartbeat IPC: 1.05406 cumulative IPC: 1.05272 (Simulation time: 11 hr 15 min 7 sec) 
Heartbeat CPU 0 instructions: 910000002 cycles: 1395242359 heartbeat IPC: 0.549212 cumulative IPC: 0.578419 (Simulation time: 11 hr 15 min 44 sec) 
Heartbeat CPU 1 instructions: 810000000 cycles: 1398999287 heartbeat IPC: 0.517319 cumulative IPC: 0.426558 (Simulation time: 11 hr 17 min 33 sec) 
Heartbeat CPU 3 instructions: 1410000000 cycles: 1400553313 heartbeat IPC: 0.895197 cumulative IPC: 0.834525 (Simulation time: 11 hr 18 min 18 sec) 
Heartbeat CPU 2 instructions: 1590000003 cycles: 1403468492 heartbeat IPC: 1.05587 cumulative IPC: 1.05274 (Simulation time: 11 hr 19 min 42 sec) 
Heartbeat CPU 3 instructions: 1420000000 cycles: 1411916170 heartbeat IPC: 0.88006 cumulative IPC: 0.834941 (Simulation time: 11 hr 23 min 55 sec) 
Heartbeat CPU 2 instructions: 1600000000 cycles: 1413004569 heartbeat IPC: 1.04865 cumulative IPC: 1.05271 (Simulation time: 11 hr 24 min 29 sec) 
Heartbeat CPU 0 instructions: 920000000 cycles: 1413407606 heartbeat IPC: 0.550502 cumulative IPC: 0.578012 (Simulation time: 11 hr 24 min 43 sec) 
Heartbeat CPU 1 instructions: 820000000 cycles: 1415313124 heartbeat IPC: 0.612977 cumulative IPC: 0.428996 (Simulation time: 11 hr 25 min 37 sec) 
Heartbeat CPU 2 instructions: 1610000003 cycles: 1422464886 heartbeat IPC: 1.05705 cumulative IPC: 1.05274 (Simulation time: 11 hr 28 min 54 sec) 
Heartbeat CPU 3 instructions: 1430000002 cycles: 1423022818 heartbeat IPC: 0.900362 cumulative IPC: 0.83552 (Simulation time: 11 hr 29 min 9 sec) 
Heartbeat CPU 0 instructions: 930000001 cycles: 1431587925 heartbeat IPC: 0.550045 cumulative IPC: 0.57761 (Simulation time: 11 hr 32 min 43 sec) 
Heartbeat CPU 2 instructions: 1620000000 cycles: 1431953770 heartbeat IPC: 1.05386 cumulative IPC: 1.05275 (Simulation time: 11 hr 32 min 52 sec) 
Heartbeat CPU 3 instructions: 1440000000 cycles: 1434182385 heartbeat IPC: 0.896092 cumulative IPC: 0.836053 (Simulation time: 11 hr 33 min 47 sec) 
Heartbeat CPU 2 instructions: 1630000001 cycles: 1441423674 heartbeat IPC: 1.05598 cumulative IPC: 1.05278 (Simulation time: 11 hr 36 min 42 sec) 
Heartbeat CPU 1 instructions: 830000000 cycles: 1442467851 heartbeat IPC: 0.36826 cumulative IPC: 0.427702 (Simulation time: 11 hr 37 min 8 sec) 
Heartbeat CPU 3 instructions: 1450000003 cycles: 1445443122 heartbeat IPC: 0.888042 cumulative IPC: 0.836512 (Simulation time: 11 hr 38 min 20 sec) 
Heartbeat CPU 0 instructions: 940000000 cycles: 1449793166 heartbeat IPC: 0.549292 cumulative IPC: 0.577208 (Simulation time: 11 hr 40 min 9 sec) 
Heartbeat CPU 2 instructions: 1640000000 cycles: 1450899635 heartbeat IPC: 1.0553 cumulative IPC: 1.05279 (Simulation time: 11 hr 40 min 38 sec) 
Heartbeat CPU 3 instructions: 1460000000 cycles: 1456472942 heartbeat IPC: 0.906633 cumulative IPC: 0.837112 (Simulation time: 11 hr 43 min 7 sec) 
Heartbeat CPU 2 instructions: 1650000001 cycles: 1460381618 heartbeat IPC: 1.05463 cumulative IPC: 1.05281 (Simulation time: 11 hr 44 min 52 sec) 
Heartbeat CPU 3 instructions: 1470000000 cycles: 1467635257 heartbeat IPC: 0.895872 cumulative IPC: 0.837616 (Simulation time: 11 hr 48 min 11 sec) 
Heartbeat CPU 1 instructions: 840000000 cycles: 1467789269 heartbeat IPC: 0.394923 cumulative IPC: 0.427064 (Simulation time: 11 hr 48 min 15 sec) 
Heartbeat CPU 0 instructions: 950000001 cycles: 1468148942 heartbeat IPC: 0.544788 cumulative IPC: 0.57675 (Simulation time: 11 hr 48 min 25 sec) 
Heartbeat CPU 2 instructions: 1660000000 cycles: 1469846875 heartbeat IPC: 1.0565 cumulative IPC: 1.05283 (Simulation time: 11 hr 49 min 12 sec) 
Heartbeat CPU 3 instructions: 1480000000 cycles: 1478940554 heartbeat IPC: 0.884541 cumulative IPC: 0.838021 (Simulation time: 11 hr 52 min 56 sec) 
Heartbeat CPU 2 instructions: 1670000003 cycles: 1479318221 heartbeat IPC: 1.05582 cumulative IPC: 1.05286 (Simulation time: 11 hr 53 min 6 sec) 
Heartbeat CPU 0 instructions: 960000000 cycles: 1486435382 heartbeat IPC: 0.546853 cumulative IPC: 0.576336 (Simulation time: 11 hr 56 min 13 sec) 
Heartbeat CPU 2 instructions: 1680000000 cycles: 1488784551 heartbeat IPC: 1.05638 cumulative IPC: 1.05288 (Simulation time: 11 hr 57 min 15 sec) 
Heartbeat CPU 3 instructions: 1490000000 cycles: 1490064780 heartbeat IPC: 0.898939 cumulative IPC: 0.838533 (Simulation time: 11 hr 57 min 50 sec) 
Heartbeat CPU 1 instructions: 850000000 cycles: 1494387756 heartbeat IPC: 0.375961 cumulative IPC: 0.426039 (Simulation time: 11 hr 59 min 46 sec) 
Heartbeat CPU 2 instructions: 1690000000 cycles: 1498268905 heartbeat IPC: 1.05437 cumulative IPC: 1.05289 (Simulation time: 12 hr 1 min 31 sec) 
Heartbeat CPU 3 instructions: 1500000000 cycles: 1501281796 heartbeat IPC: 0.891503 cumulative IPC: 0.838979 (Simulation time: 12 hr 2 min 51 sec) 
Heartbeat CPU 0 instructions: 970000003 cycles: 1504853916 heartbeat IPC: 0.542932 cumulative IPC: 0.575875 (Simulation time: 12 hr 4 min 27 sec) 
Heartbeat CPU 2 instructions: 1700000000 cycles: 1507755637 heartbeat IPC: 1.0541 cumulative IPC: 1.0529 (Simulation time: 12 hr 5 min 45 sec) 
Heartbeat CPU 3 instructions: 1510000003 cycles: 1512610625 heartbeat IPC: 0.882704 cumulative IPC: 0.839347 (Simulation time: 12 hr 7 min 59 sec) 
Heartbeat CPU 1 instructions: 860000000 cycles: 1517204056 heartbeat IPC: 0.438283 cumulative IPC: 0.426246 (Simulation time: 12 hr 10 min 9 sec) 
Heartbeat CPU 2 instructions: 1710000002 cycles: 1517235684 heartbeat IPC: 1.05485 cumulative IPC: 1.05291 (Simulation time: 12 hr 10 min 9 sec) 
Heartbeat CPU 0 instructions: 980000000 cycles: 1523162642 heartbeat IPC: 0.546187 cumulative IPC: 0.575474 (Simulation time: 12 hr 12 min 57 sec) 
Heartbeat CPU 3 instructions: 1520000000 cycles: 1523698272 heartbeat IPC: 0.901904 cumulative IPC: 0.839859 (Simulation time: 12 hr 13 min 11 sec) 
Heartbeat CPU 2 instructions: 1720000000 cycles: 1526705332 heartbeat IPC: 1.05601 cumulative IPC: 1.05294 (Simulation time: 12 hr 14 min 31 sec) 
Heartbeat CPU 3 instructions: 1530000001 cycles: 1535009882 heartbeat IPC: 0.884048 cumulative IPC: 0.840225 (Simulation time: 12 hr 18 min 29 sec) 
Heartbeat CPU 2 instructions: 1730000000 cycles: 1536212071 heartbeat IPC: 1.05189 cumulative IPC: 1.05293 (Simulation time: 12 hr 19 min 1 sec) 
Heartbeat CPU 0 instructions: 990000000 cycles: 1541342760 heartbeat IPC: 0.550051 cumulative IPC: 0.575138 (Simulation time: 12 hr 21 min 18 sec) 
Heartbeat CPU 1 instructions: 870000001 cycles: 1544854740 heartbeat IPC: 0.361655 cumulative IPC: 0.424949 (Simulation time: 12 hr 22 min 51 sec) 
Heartbeat CPU 2 instructions: 1740000000 cycles: 1545698647 heartbeat IPC: 1.05412 cumulative IPC: 1.05294 (Simulation time: 12 hr 23 min 12 sec) 
Heartbeat CPU 3 instructions: 1540000000 cycles: 1546123651 heartbeat IPC: 0.899785 cumulative IPC: 0.840705 (Simulation time: 12 hr 23 min 22 sec) 
Heartbeat CPU 2 instructions: 1750000003 cycles: 1555252130 heartbeat IPC: 1.04674 cumulative IPC: 1.05289 (Simulation time: 12 hr 27 min 14 sec) 
Heartbeat CPU 3 instructions: 1550000002 cycles: 1557449946 heartbeat IPC: 0.882901 cumulative IPC: 0.841049 (Simulation time: 12 hr 28 min 13 sec) 
Heartbeat CPU 0 instructions: 1000000000 cycles: 1559672174 heartbeat IPC: 0.545571 cumulative IPC: 0.574749 (Simulation time: 12 hr 29 min 10 sec) 
Heartbeat CPU 2 instructions: 1760000000 cycles: 1564732778 heartbeat IPC: 1.05478 cumulative IPC: 1.05291 (Simulation time: 12 hr 31 min 16 sec) 
Heartbeat CPU 3 instructions: 1560000000 cycles: 1568674364 heartbeat IPC: 0.890915 cumulative IPC: 0.841448 (Simulation time: 12 hr 32 min 54 sec) 
Heartbeat CPU 1 instructions: 880000000 cycles: 1571090157 heartbeat IPC: 0.381164 cumulative IPC: 0.424131 (Simulation time: 12 hr 33 min 58 sec) 
Heartbeat CPU 2 instructions: 1770000001 cycles: 1574198634 heartbeat IPC: 1.05643 cumulative IPC: 1.05293 (Simulation time: 12 hr 35 min 26 sec) 
Heartbeat CPU 0 instructions: 1010000002 cycles: 1578034312 heartbeat IPC: 0.544599 cumulative IPC: 0.574356 (Simulation time: 12 hr 37 min 10 sec) 
Heartbeat CPU 3 instructions: 1570000000 cycles: 1579828382 heartbeat IPC: 0.896538 cumulative IPC: 0.841883 (Simulation time: 12 hr 38 min 2 sec) 
Heartbeat CPU 2 instructions: 1780000000 cycles: 1583671678 heartbeat IPC: 1.05563 cumulative IPC: 1.05295 (Simulation time: 12 hr 39 min 50 sec) 
Heartbeat CPU 1 instructions: 890000000 cycles: 1589783594 heartbeat IPC: 0.534947 cumulative IPC: 0.425587 (Simulation time: 12 hr 42 min 40 sec) 
Heartbeat CPU 3 instructions: 1580000000 cycles: 1591152462 heartbeat IPC: 0.883074 cumulative IPC: 0.842211 (Simulation time: 12 hr 43 min 17 sec) 
Heartbeat CPU 2 instructions: 1790000003 cycles: 1593137423 heartbeat IPC: 1.05644 cumulative IPC: 1.05297 (Simulation time: 12 hr 44 min 11 sec) 
Heartbeat CPU 0 instructions: 1020000000 cycles: 1596347523 heartbeat IPC: 0.546054 cumulative IPC: 0.573993 (Simulation time: 12 hr 45 min 42 sec) 
Heartbeat CPU 3 instructions: 1590000001 cycles: 1602543999 heartbeat IPC: 0.877845 cumulative IPC: 0.842494 (Simulation time: 12 hr 48 min 27 sec) 
Heartbeat CPU 2 instructions: 1800000000 cycles: 1602621870 heartbeat IPC: 1.05436 cumulative IPC: 1.05298 (Simulation time: 12 hr 48 min 29 sec) 
Heartbeat CPU 2 instructions: 1810000001 cycles: 1612120250 heartbeat IPC: 1.05281 cumulative IPC: 1.05298 (Simulation time: 12 hr 52 min 50 sec) 
Heartbeat CPU 3 instructions: 1600000000 cycles: 1613655790 heartbeat IPC: 0.899945 cumulative IPC: 0.842935 (Simulation time: 12 hr 53 min 30 sec) 
Heartbeat CPU 0 instructions: 1030000002 cycles: 1616643256 heartbeat IPC: 0.492714 cumulative IPC: 0.572855 (Simulation time: 12 hr 54 min 43 sec) 
Heartbeat CPU 1 instructions: 900000000 cycles: 1616687735 heartbeat IPC: 0.37169 cumulative IPC: 0.424587 (Simulation time: 12 hr 54 min 44 sec) 
Heartbeat CPU 2 instructions: 1820000000 cycles: 1621601939 heartbeat IPC: 1.05466 cumulative IPC: 1.05299 (Simulation time: 12 hr 56 min 43 sec) 
Heartbeat CPU 3 instructions: 1610000000 cycles: 1624871332 heartbeat IPC: 0.89162 cumulative IPC: 0.84331 (Simulation time: 12 hr 58 min 4 sec) 
Heartbeat CPU 2 instructions: 1830000000 cycles: 1631083444 heartbeat IPC: 1.05468 cumulative IPC: 1.053 (Simulation time: 13 hr 0 min 45 sec) 
Heartbeat CPU 0 instructions: 1040000000 cycles: 1635842422 heartbeat IPC: 0.520856 cumulative IPC: 0.572175 (Simulation time: 13 hr 2 min 51 sec) 
Heartbeat CPU 3 instructions: 1620000000 cycles: 1635907898 heartbeat IPC: 0.906079 cumulative IPC: 0.843782 (Simulation time: 13 hr 2 min 53 sec) 
Heartbeat CPU 2 instructions: 1840000000 cycles: 1640564064 heartbeat IPC: 1.05478 cumulative IPC: 1.05301 (Simulation time: 13 hr 4 min 49 sec) 
[...]
Heartbeat CPU 1 instructions: 1200000000 cycles: 2255274598 heartbeat IPC: 0.625816 cumulative IPC: 0.438414 (Simulation time: 17 hr 13 min 6 sec) 
Heartbeat CPU 0 instructions: 1450000000 cycles: 2255817707 heartbeat IPC: 1.10635 cumulative IPC: 0.598642 (Simulation time: 17 hr 13 min 21 sec) 
Heartbeat CPU 2 instructions: 2490000003 cycles: 2258086122 heartbeat IPC: 1.0538 cumulative IPC: 1.05289 (Simulation time: 17 hr 14 min 25 sec) 
Heartbeat CPU 0 instructions: 1460000000 cycles: 2264494662 heartbeat IPC: 1.15248 cumulative IPC: 0.600934 (Simulation time: 17 hr 17 min 29 sec) 
Heartbeat CPU 1 instructions: 1210000003 cycles: 2266757893 heartbeat IPC: 0.87083 cumulative IPC: 0.44078 (Simulation time: 17 hr 18 min 33 sec) 
Heartbeat CPU 2 instructions: 2500000000 cycles: 2267549650 heartbeat IPC: 1.05669 cumulative IPC: 1.05291 (Simulation time: 17 hr 18 min 55 sec) 
Heartbeat CPU 3 instructions: 2100000000 cycles: 2269936236 heartbeat IPC: 0.614321 cumulative IPC: 0.817627 (Simulation time: 17 hr 20 min 3 sec) 
Heartbeat CPU 0 instructions: 1470000003 cycles: 2273350917 heartbeat IPC: 1.12915 cumulative IPC: 0.603156 (Simulation time: 17 hr 21 min 39 sec) 
Heartbeat CPU 2 instructions: 2510000002 cycles: 2277025444 heartbeat IPC: 1.05532 cumulative IPC: 1.05292 (Simulation time: 17 hr 23 min 23 sec) 
Heartbeat CPU 1 instructions: 1220000000 cycles: 2278384614 heartbeat IPC: 0.860087 cumulative IPC: 0.443089 (Simulation time: 17 hr 24 min 1 sec) 
Heartbeat CPU 0 instructions: 1480000000 cycles: 2282115227 heartbeat IPC: 1.14099 cumulative IPC: 0.605385 (Simulation time: 17 hr 25 min 43 sec) 
Heartbeat CPU 3 instructions: 2110000002 cycles: 2286241560 heartbeat IPC: 0.613297 cumulative IPC: 0.816055 (Simulation time: 17 hr 27 min 32 sec) 
Heartbeat CPU 2 instructions: 2520000000 cycles: 2286496830 heartbeat IPC: 1.05581 cumulative IPC: 1.05293 (Simulation time: 17 hr 27 min 38 sec) 
Heartbeat CPU 1 instructions: 1230000001 cycles: 2290213742 heartbeat IPC: 0.845371 cumulative IPC: 0.445331 (Simulation time: 17 hr 29 min 8 sec) 
Heartbeat CPU 0 instructions: 1490000001 cycles: 2290940281 heartbeat IPC: 1.13314 cumulative IPC: 0.607579 (Simulation time: 17 hr 29 min 25 sec) 
Heartbeat CPU 2 instructions: 2530000000 cycles: 2295969121 heartbeat IPC: 1.05571 cumulative IPC: 1.05294 (Simulation time: 17 hr 31 min 22 sec) 
Heartbeat CPU 0 instructions: 1500000000 cycles: 2299778355 heartbeat IPC: 1.13147 cumulative IPC: 0.609751 (Simulation time: 17 hr 32 min 55 sec) 
Heartbeat CPU 1 instructions: 1240000000 cycles: 2302360009 heartbeat IPC: 0.823298 cumulative IPC: 0.447482 (Simulation time: 17 hr 33 min 59 sec) 
Heartbeat CPU 3 instructions: 2120000000 cycles: 2302519903 heartbeat IPC: 0.614313 cumulative IPC: 0.814516 (Simulation time: 17 hr 34 min 3 sec) 
Heartbeat CPU 2 instructions: 2540000000 cycles: 2305472133 heartbeat IPC: 1.0523 cumulative IPC: 1.05294 (Simulation time: 17 hr 35 min 17 sec) 
Heartbeat CPU 0 instructions: 1510000000 cycles: 2308612567 heartbeat IPC: 1.13196 cumulative IPC: 0.611906 (Simulation time: 17 hr 36 min 36 sec) 
Heartbeat CPU 1 instructions: 1250000001 cycles: 2314704350 heartbeat IPC: 0.810088 cumulative IPC: 0.449567 (Simulation time: 17 hr 39 min 8 sec) 
Heartbeat CPU 2 instructions: 2550000000 cycles: 2314944681 heartbeat IPC: 1.05568 cumulative IPC: 1.05295 (Simulation time: 17 hr 39 min 14 sec) 
Heartbeat CPU 0 instructions: 1520000000 cycles: 2317392544 heartbeat IPC: 1.13896 cumulative IPC: 0.614058 (Simulation time: 17 hr 40 min 20 sec) 
Heartbeat CPU 3 instructions: 2130000000 cycles: 2318612960 heartbeat IPC: 0.621386 cumulative IPC: 0.813071 (Simulation time: 17 hr 40 min 53 sec) 
Heartbeat CPU 2 instructions: 2560000000 cycles: 2324401770 heartbeat IPC: 1.05741 cumulative IPC: 1.05297 (Simulation time: 17 hr 43 min 34 sec) 
Heartbeat CPU 0 instructions: 1530000001 cycles: 2326153638 heartbeat IPC: 1.14141 cumulative IPC: 0.616199 (Simulation time: 17 hr 44 min 23 sec) 
Heartbeat CPU 1 instructions: 1260000000 cycles: 2327333494 heartbeat IPC: 0.791819 cumulative IPC: 0.451568 (Simulation time: 17 hr 44 min 56 sec) 
Heartbeat CPU 2 instructions: 2570000000 cycles: 2333849806 heartbeat IPC: 1.05842 cumulative IPC: 1.053 (Simulation time: 17 hr 47 min 43 sec) 
Heartbeat CPU 3 instructions: 2140000000 cycles: 2334790211 heartbeat IPC: 0.618152 cumulative IPC: 0.811616 (Simulation time: 17 hr 48 min 6 sec) 
Heartbeat CPU 0 instructions: 1540000000 cycles: 2334919883 heartbeat IPC: 1.14074 cumulative IPC: 0.618321 (Simulation time: 17 hr 48 min 9 sec) 
Heartbeat CPU 1 instructions: 1270000001 cycles: 2340234738 heartbeat IPC: 0.775119 cumulative IPC: 0.45349 (Simulation time: 17 hr 50 min 19 sec) 
Heartbeat CPU 2 instructions: 2580000000 cycles: 2343321628 heartbeat IPC: 1.05576 cumulative IPC: 1.05301 (Simulation time: 17 hr 51 min 38 sec) 
Heartbeat CPU 0 instructions: 1550000002 cycles: 2343740321 heartbeat IPC: 1.13373 cumulative IPC: 0.62041 (Simulation time: 17 hr 51 min 49 sec) 
Heartbeat CPU 3 instructions: 2150000003 cycles: 2350917159 heartbeat IPC: 0.62008 cumulative IPC: 0.810201 (Simulation time: 17 hr 54 min 52 sec) 
Heartbeat CPU 0 instructions: 1560000000 cycles: 2352636756 heartbeat IPC: 1.12405 cumulative IPC: 0.62246 (Simulation time: 17 hr 55 min 35 sec) 
Heartbeat CPU 2 instructions: 2590000003 cycles: 2352778208 heartbeat IPC: 1.05747 cumulative IPC: 1.05303 (Simulation time: 17 hr 55 min 38 sec) 
Heartbeat CPU 1 instructions: 1280000000 cycles: 2353498597 heartbeat IPC: 0.753928 cumulative IPC: 0.455313 (Simulation time: 17 hr 55 min 56 sec) 
Finished CPU 1 instructions: 1000000000 cycles: 2192141522 cumulative IPC: 0.456175 (Simulation time: 17 hr 58 min 27 sec) 

CPU 0 Branch Prediction Accuracy: 99.6713% MPKI: 0.0347328

CPU 1 Branch Prediction Accuracy: 99.3302% MPKI: 1.61797

CPU 2 Branch Prediction Accuracy: 99.9792% MPKI: 0.00134516

CPU 3 Branch Prediction Accuracy: 99.975% MPKI: 0.00397583

ChampSim completed all CPUs

Total Simulation Statistics (not including warmup)

CPU 0 cumulative IPC: 0.624093 instructions: 1368099844 cycles: 2192141521
L1D TOTAL     ACCESS:  695061050  HIT:  666790430  MISS:   28270620
L1D LOAD      ACCESS:  611484680  HIT:  583214400  MISS:   28270280
L1D RFO       ACCESS:   83576370  HIT:   83576030  MISS:        340
L1D PREFETCH  ACCESS:          0  HIT:          0  MISS:          0
L1D WRITEBACK ACCESS:          0  HIT:          0  MISS:          0
L1I TOTAL     ACCESS:  375175297  HIT:  375174785  MISS:        512
L1I LOAD      ACCESS:  375175297  HIT:  375174785  MISS:        512
L1I RFO       ACCESS:          0  HIT:          0  MISS:          0
L1I PREFETCH  ACCESS:          0  HIT:          0  MISS:          0
L1I WRITEBACK ACCESS:          0  HIT:          0  MISS:          0
L2C TOTAL     ACCESS:   61455547  HIT:   32139635  MISS:   29315912
L2C LOAD      ACCESS:   28270788  HIT:   20886705  MISS:    7384083
L2C RFO       ACCESS:        330  HIT:        295  MISS:         35
L2C PREFETCH  ACCESS:   22009198  HIT:      78459  MISS:   21930739
L2C WRITEBACK ACCESS:   11175231  HIT:   11174176  MISS:       1055

L2C Best-offset prefetcher final stats
LLC TOTAL     ACCESS:   40831351  HIT:   14833368  MISS:   25997983
LLC LOAD      ACCESS:    7103368  HIT:    1282686  MISS:    5820682
LLC RFO       ACCESS:         34  HIT:         15  MISS:         19
LLC PREFETCH  ACCESS:   22561708  HIT:    2384565  MISS:   20177143
LLC WRITEBACK ACCESS:   11166241  HIT:   11166102  MISS:        139

CPU 1 cumulative IPC: 0.456175 instructions: 1000000000 cycles: 2192141522
L1D TOTAL     ACCESS:  237973149  HIT:  194988292  MISS:   42984857
L1D LOAD      ACCESS:  165820522  HIT:  124991185  MISS:   40829337
L1D RFO       ACCESS:   72152627  HIT:   69997107  MISS:    2155520
L1D PREFETCH  ACCESS:          0  HIT:          0  MISS:          0
L1D WRITEBACK ACCESS:          0  HIT:          0  MISS:          0
L1I TOTAL     ACCESS:  440343523  HIT:  437770977  MISS:    2572546
L1I LOAD      ACCESS:  440343523  HIT:  437770977  MISS:    2572546
L1I RFO       ACCESS:          0  HIT:          0  MISS:          0
L1I PREFETCH  ACCESS:          0  HIT:          0  MISS:          0
L1I WRITEBACK ACCESS:          0  HIT:          0  MISS:          0
L2C TOTAL     ACCESS:   54587059  HIT:   43023437  MISS:   11563622
L2C LOAD      ACCESS:   43401635  HIT:   36786537  MISS:    6615098
L2C RFO       ACCESS:    2155476  HIT:     521866  MISS:    1633610
L2C PREFETCH  ACCESS:    5644050  HIT:    2330689  MISS:    3313361
L2C WRITEBACK ACCESS:    3385898  HIT:    3384345  MISS:       1553

L2C Best-offset prefetcher final stats
LLC TOTAL     ACCESS:   13716653  HIT:   11360615  MISS:    2356038
LLC LOAD      ACCESS:    6141321  HIT:    5745419  MISS:     395902
LLC RFO       ACCESS:    1624130  HIT:      64162  MISS:    1559968
LLC PREFETCH  ACCESS:    3798272  HIT:    3508313  MISS:     289959
LLC WRITEBACK ACCESS:    2152930  HIT:    2042721  MISS:     110209

CPU 2 cumulative IPC: 1.05302 instructions: 2308373919 cycles: 2192141522
L1D TOTAL     ACCESS:  926152632  HIT:  741057582  MISS:  185095050
L1D LOAD      ACCESS:  741272930  HIT:  571342362  MISS:  169930568
L1D RFO       ACCESS:  184879702  HIT:  169715220  MISS:   15164482
L1D PREFETCH  ACCESS:          0  HIT:          0  MISS:          0
L1D WRITEBACK ACCESS:          0  HIT:          0  MISS:          0
L1I TOTAL     ACCESS:  552121306  HIT:  492104100  MISS:   60017206
L1I LOAD      ACCESS:  552121306  HIT:  492104100  MISS:   60017206
L1I RFO       ACCESS:          0  HIT:          0  MISS:          0
L1I PREFETCH  ACCESS:          0  HIT:          0  MISS:          0
L1I WRITEBACK ACCESS:          0  HIT:          0  MISS:          0
L2C TOTAL     ACCESS:  278819709  HIT:  257555844  MISS:   21263865
L2C LOAD      ACCESS:  229934773  HIT:  226263267  MISS:    3671506
L2C RFO       ACCESS:   15150003  HIT:   13179295  MISS:    1970708
L2C PREFETCH  ACCESS:   16714877  HIT:    1126498  MISS:   15588379
L2C WRITEBACK ACCESS:   17020056  HIT:   16986784  MISS:      33272

L2C Best-offset prefetcher final stats
LLC TOTAL     ACCESS:   24878820  HIT:   18703335  MISS:    6175485
LLC LOAD      ACCESS:    3661552  HIT:    3543155  MISS:     118397
LLC RFO       ACCESS:    1811262  HIT:     452530  MISS:    1358732
LLC PREFETCH  ACCESS:   17398567  HIT:   12708754  MISS:    4689813
LLC WRITEBACK ACCESS:    2007439  HIT:    1998896  MISS:       8543

CPU 3 cumulative IPC: 0.80942 instructions: 1774364170 cycles: 2192141522
L1D TOTAL     ACCESS:  376703353  HIT:  353221800  MISS:   23481553
L1D LOAD      ACCESS:  252186416  HIT:  228728253  MISS:   23458163
L1D RFO       ACCESS:  124516937  HIT:  124493547  MISS:      23390
L1D PREFETCH  ACCESS:          0  HIT:          0  MISS:          0
L1D WRITEBACK ACCESS:          0  HIT:          0  MISS:          0
L1I TOTAL     ACCESS:  364928684  HIT:  364928684  MISS:          0
L1I LOAD      ACCESS:  364928684  HIT:  364928684  MISS:          0
L1I RFO       ACCESS:          0  HIT:          0  MISS:          0
L1I PREFETCH  ACCESS:          0  HIT:          0  MISS:          0
L1I WRITEBACK ACCESS:          0  HIT:          0  MISS:          0
L2C TOTAL     ACCESS:   57132314  HIT:   33923751  MISS:   23208563
L2C LOAD      ACCESS:   23458163  HIT:   18267240  MISS:    5190923
L2C RFO       ACCESS:      23390  HIT:       4012  MISS:      19378
L2C PREFETCH  ACCESS:   18059081  HIT:      60819  MISS:   17998262
L2C WRITEBACK ACCESS:   15591680  HIT:   15591680  MISS:          0

L2C Best-offset prefetcher final stats
LLC TOTAL     ACCESS:   38787152  HIT:   23215686  MISS:   15571466
LLC LOAD      ACCESS:    1410122  HIT:     540689  MISS:     869433
LLC RFO       ACCESS:      19378  HIT:      19378  MISS:          0
LLC PREFETCH  ACCESS:   21779299  HIT:    7077490  MISS:   14701809
LLC WRITEBACK ACCESS:   15578353  HIT:   15578129  MISS:        224

Region of Interest Statistics

CPU 0 cumulative IPC: 0.576289 instructions: 1000000000 cycles: 1735239488
L1D TOTAL     ACCESS:  562605799  HIT:  541877951  MISS:   20727848
L1D LOAD      ACCESS:  498261434  HIT:  477533915  MISS:   20727519
L1D RFO       ACCESS:   64344365  HIT:   64344036  MISS:        329
L1D PREFETCH  ACCESS:          0  HIT:          0  MISS:          0
L1D WRITEBACK ACCESS:          0  HIT:          0  MISS:          0
L1D PREFETCH  REQUESTED:          0  ISSUED:          0  USEFUL:          0  USELESS:          0
L1I TOTAL     ACCESS:  288949599  HIT:  288949265  MISS:        334
L1I LOAD      ACCESS:  288949599  HIT:  288949265  MISS:        334
L1I RFO       ACCESS:          0  HIT:          0  MISS:          0
L1I PREFETCH  ACCESS:          0  HIT:          0  MISS:          0
L1I WRITEBACK ACCESS:          0  HIT:          0  MISS:          0
L1I PREFETCH  REQUESTED:          0  ISSUED:          0  USEFUL:          0  USELESS:          0
L2C TOTAL     ACCESS:   45399429  HIT:   24027296  MISS:   21372133
L2C LOAD      ACCESS:   20727849  HIT:   15187124  MISS:    5540725
L2C RFO       ACCESS:        319  HIT:        294  MISS:         25
L2C PREFETCH  ACCESS:   15873806  HIT:      42539  MISS:   15831267
L2C WRITEBACK ACCESS:    8797455  HIT:    8797339  MISS:        116
L2C PREFETCH  REQUESTED:   26473406  ISSUED:   26473406  USEFUL:   19654912  USELESS:    6061901
LLC TOTAL     ACCESS:   30324314  HIT:   12015791  MISS:   18308523
LLC LOAD      ACCESS:    5387774  HIT:    1009006  MISS:    4378768
LLC RFO       ACCESS:         24  HIT:         15  MISS:          9
LLC PREFETCH  ACCESS:   16143354  HIT:    2213627  MISS:   13929727
LLC WRITEBACK ACCESS:    8793162  HIT:    8793143  MISS:         19
LLC PREFETCH  REQUESTED:          0  ISSUED:          0  USEFUL:    1999693  USELESS:   44617240
Major fault: 0 Minor fault: 930240

CPU 1 cumulative IPC: 0.456175 instructions: 1000000000 cycles: 2192141522
L1D TOTAL     ACCESS:  237973149  HIT:  194988292  MISS:   42984857
L1D LOAD      ACCESS:  165820522  HIT:  124991185  MISS:   40829337
L1D RFO       ACCESS:   72152627  HIT:   69997107  MISS:    2155520
L1D PREFETCH  ACCESS:          0  HIT:          0  MISS:          0
L1D WRITEBACK ACCESS:          0  HIT:          0  MISS:          0
L1D PREFETCH  REQUESTED:          0  ISSUED:          0  USEFUL:          0  USELESS:          0
L1I TOTAL     ACCESS:  440343523  HIT:  437770977  MISS:    2572546
L1I LOAD      ACCESS:  440343523  HIT:  437770977  MISS:    2572546
L1I RFO       ACCESS:          0  HIT:          0  MISS:          0
L1I PREFETCH  ACCESS:          0  HIT:          0  MISS:          0
L1I WRITEBACK ACCESS:          0  HIT:          0  MISS:          0
L1I PREFETCH  REQUESTED:          0  ISSUED:          0  USEFUL:          0  USELESS:          0
L2C TOTAL     ACCESS:   54587059  HIT:   43023437  MISS:   11563622
L2C LOAD      ACCESS:   43401635  HIT:   36786537  MISS:    6615098
L2C RFO       ACCESS:    2155476  HIT:     521866  MISS:    1633610
L2C PREFETCH  ACCESS:    5644050  HIT:    2330689  MISS:    3313361
L2C WRITEBACK ACCESS:    3385898  HIT:    3384345  MISS:       1553
L2C PREFETCH  REQUESTED:    9131132  ISSUED:    9131132  USEFUL:    1125343  USELESS:    3234268
LLC TOTAL     ACCESS:   13716653  HIT:   11360615  MISS:    2356038
LLC LOAD      ACCESS:    6141321  HIT:    5745419  MISS:     395902
LLC RFO       ACCESS:    1624130  HIT:      64162  MISS:    1559968
LLC PREFETCH  ACCESS:    3798272  HIT:    3508313  MISS:     289959
LLC WRITEBACK ACCESS:    2152930  HIT:    2042721  MISS:     110209
LLC PREFETCH  REQUESTED:          0  ISSUED:          0  USEFUL:    1999693  USELESS:   44617240
Major fault: 0 Minor fault: 11120

CPU 2 cumulative IPC: 1.05227 instructions: 1000000002 cycles: 950324337
L1D TOTAL     ACCESS:  401199686  HIT:  321021254  MISS:   80178432
L1D LOAD      ACCESS:  321109661  HIT:  247500517  MISS:   73609144
L1D RFO       ACCESS:   80090025  HIT:   73520737  MISS:    6569288
L1D PREFETCH  ACCESS:          0  HIT:          0  MISS:          0
L1D WRITEBACK ACCESS:          0  HIT:          0  MISS:          0
L1D PREFETCH  REQUESTED:          0  ISSUED:          0  USEFUL:          0  USELESS:          0
L1I TOTAL     ACCESS:  239180062  HIT:  213180041  MISS:   26000021
L1I LOAD      ACCESS:  239180062  HIT:  213180041  MISS:   26000021
L1I RFO       ACCESS:          0  HIT:          0  MISS:          0
L1I PREFETCH  ACCESS:          0  HIT:          0  MISS:          0
L1I WRITEBACK ACCESS:          0  HIT:          0  MISS:          0
L1I PREFETCH  REQUESTED:          0  ISSUED:          0  USEFUL:          0  USELESS:          0
L2C TOTAL     ACCESS:  120793960  HIT:  111519866  MISS:    9274094
L2C LOAD      ACCESS:   99603517  HIT:   97953504  MISS:    1650013
L2C RFO       ACCESS:    6563015  HIT:    5695893  MISS:     867122
L2C PREFETCH  ACCESS:    7254253  HIT:     512784  MISS:    6741469
L2C WRITEBACK ACCESS:    7373175  HIT:    7357685  MISS:      15490
L2C PREFETCH  REQUESTED:   20953695  ISSUED:   20947890  USEFUL:   17282886  USELESS:     504826
LLC TOTAL     ACCESS:   10868158  HIT:    8195321  MISS:    2672837
LLC LOAD      ACCESS:    1644832  HIT:    1592526  MISS:      52306
LLC RFO       ACCESS:     795039  HIT:     206349  MISS:     588690
LLC PREFETCH  ACCESS:    7543997  HIT:    5516042  MISS:    2027955
LLC WRITEBACK ACCESS:     884290  HIT:     880404  MISS:       3886
LLC PREFETCH  REQUESTED:          0  ISSUED:          0  USEFUL:    1999693  USELESS:   44617240
Major fault: 0 Minor fault: 41931

CPU 3 cumulative IPC: 0.832961 instructions: 1000000001 cycles: 1200536476
L1D TOTAL     ACCESS:  212483302  HIT:  199249526  MISS:   13233776
L1D LOAD      ACCESS:  142307714  HIT:  129087119  MISS:   13220595
L1D RFO       ACCESS:   70175588  HIT:   70162407  MISS:      13181
L1D PREFETCH  ACCESS:          0  HIT:          0  MISS:          0
L1D WRITEBACK ACCESS:          0  HIT:          0  MISS:          0
L1D PREFETCH  REQUESTED:          0  ISSUED:          0  USEFUL:          0  USELESS:          0
L1I TOTAL     ACCESS:  205932312  HIT:  205932312  MISS:          0
L1I LOAD      ACCESS:  205932312  HIT:  205932312  MISS:          0
L1I RFO       ACCESS:          0  HIT:          0  MISS:          0
L1I PREFETCH  ACCESS:          0  HIT:          0  MISS:          0
L1I WRITEBACK ACCESS:          0  HIT:          0  MISS:          0
L1I PREFETCH  REQUESTED:          0  ISSUED:          0  USEFUL:          0  USELESS:          0
L2C TOTAL     ACCESS:   32464985  HIT:   19400775  MISS:   13064210
L2C LOAD      ACCESS:   13220595  HIT:   10574379  MISS:    2646216
L2C RFO       ACCESS:      13181  HIT:       2263  MISS:      10918
L2C PREFETCH  ACCESS:   10444028  HIT:      36952  MISS:   10407076
L2C WRITEBACK ACCESS:    8787181  HIT:    8787181  MISS:          0
L2C PREFETCH  REQUESTED:   26479658  ISSUED:   26479658  USEFUL:   22502639  USELESS:     102860
LLC TOTAL     ACCESS:   21843973  HIT:   13067516  MISS:    8776457
LLC LOAD      ACCESS:     841588  HIT:     319944  MISS:     521644
LLC RFO       ACCESS:      10918  HIT:      10918  MISS:          0
LLC PREFETCH  ACCESS:   12211856  HIT:    3957154  MISS:    8254702
LLC WRITEBACK ACCESS:    8779611  HIT:    8779500  MISS:        111
LLC PREFETCH  REQUESTED:          0  ISSUED:          0  USEFUL:    1999693  USELESS:   44617240
Major fault: 0 Minor fault: 274488

L2C Best-offset prefetcher final stats

L2C Best-offset prefetcher final stats

L2C Best-offset prefetcher final stats

L2C Best-offset prefetcher final stats

DRAM Statistics
 CHANNEL 0
 RQ ROW_BUFFER_HIT:   11519445  ROW_BUFFER_MISS:   13449270
 DBUS_CONGESTED:   45191649
 WQ ROW_BUFFER_HIT:    2218373  ROW_BUFFER_MISS:   12783415  FULL:          0

 CHANNEL 1
 RQ ROW_BUFFER_HIT:   11529577  ROW_BUFFER_MISS:   13483484
 DBUS_CONGESTED:   45191649
 WQ ROW_BUFFER_HIT:    2219261  ROW_BUFFER_MISS:   12780895  FULL:          0

 AVG_CONGESTED_CYCLE: 14
