
*** ChampSim Multicore Out-of-Order Simulator ***

Warmup Instructions: 200000000
Simulation Instructions: 1000000000
Number of CPUs: 4
LLC sets: 8192
LLC ways: 16
Off-chip DRAM Size: 8192 MB Channels: 2 Width: 64-bit Data Rate: 1600 MT/s

CPU 0 runs /scratch/user/djimenez/champsim-traces/speccpu2017/xz/602.gcc_s/602.gcc_s-734B.champsimtrace.xz
CPU 1 runs /scratch/user/djimenez/champsim-traces/speccpu2017/xz/620.omnetpp_s/620.omnetpp_s-874B.champsimtrace.xz
CPU 2 runs /scratch/user/djimenez/champsim-traces/speccpu2017/xz/644.nab_s/644.nab_s-12459B.champsimtrace.xz
CPU 3 runs /scratch/user/djimenez/champsim-traces/speccpu2017/xz/657.xz_s/657.xz_s-2302B.champsimtrace.xz
L2C Best-offset prefetcher
L2C Best-offset prefetcher
L2C Best-offset prefetcher
L2C Best-offset prefetcher
Heartbeat CPU 3 instructions: 10000002 cycles: 4453244 heartbeat IPC: 2.24555 cumulative IPC: 2.24555 (Simulation time: 0 hr 1 min 25 sec) 
Heartbeat CPU 2 instructions: 10000000 cycles: 4635703 heartbeat IPC: 2.15717 cumulative IPC: 2.15717 (Simulation time: 0 hr 1 min 29 sec) 
Heartbeat CPU 0 instructions: 10000000 cycles: 5379461 heartbeat IPC: 1.85892 cumulative IPC: 1.85892 (Simulation time: 0 hr 1 min 43 sec) 
Heartbeat CPU 1 instructions: 10000000 cycles: 7368965 heartbeat IPC: 1.35704 cumulative IPC: 1.35704 (Simulation time: 0 hr 2 min 21 sec) 
Heartbeat CPU 3 instructions: 20000000 cycles: 8874387 heartbeat IPC: 2.26186 cumulative IPC: 2.25368 (Simulation time: 0 hr 2 min 50 sec) 
Heartbeat CPU 2 instructions: 20000000 cycles: 9297351 heartbeat IPC: 2.14516 cumulative IPC: 2.15115 (Simulation time: 0 hr 2 min 58 sec) 
Heartbeat CPU 0 instructions: 20000000 cycles: 10776007 heartbeat IPC: 1.85304 cumulative IPC: 1.85598 (Simulation time: 0 hr 3 min 25 sec) 
Heartbeat CPU 3 instructions: 30000003 cycles: 13388828 heartbeat IPC: 2.21511 cumulative IPC: 2.24067 (Simulation time: 0 hr 4 min 15 sec) 
Heartbeat CPU 2 instructions: 30000001 cycles: 13991450 heartbeat IPC: 2.13033 cumulative IPC: 2.14417 (Simulation time: 0 hr 4 min 27 sec) 
Heartbeat CPU 1 instructions: 20000000 cycles: 14720080 heartbeat IPC: 1.36034 cumulative IPC: 1.35869 (Simulation time: 0 hr 4 min 40 sec) 
Heartbeat CPU 0 instructions: 30000003 cycles: 16145957 heartbeat IPC: 1.86222 cumulative IPC: 1.85805 (Simulation time: 0 hr 5 min 8 sec) 
Heartbeat CPU 3 instructions: 40000000 cycles: 17873011 heartbeat IPC: 2.23006 cumulative IPC: 2.23801 (Simulation time: 0 hr 5 min 41 sec) 
Heartbeat CPU 2 instructions: 40000000 cycles: 18644084 heartbeat IPC: 2.14932 cumulative IPC: 2.14545 (Simulation time: 0 hr 5 min 56 sec) 
Heartbeat CPU 0 instructions: 40000000 cycles: 21538593 heartbeat IPC: 1.85438 cumulative IPC: 1.85713 (Simulation time: 0 hr 6 min 51 sec) 
Heartbeat CPU 1 instructions: 30000001 cycles: 22072529 heartbeat IPC: 1.36009 cumulative IPC: 1.35916 (Simulation time: 0 hr 7 min 1 sec) 
Heartbeat CPU 3 instructions: 50000003 cycles: 22394619 heartbeat IPC: 2.2116 cumulative IPC: 2.23268 (Simulation time: 0 hr 7 min 8 sec) 
Heartbeat CPU 2 instructions: 50000002 cycles: 23345184 heartbeat IPC: 2.12716 cumulative IPC: 2.14177 (Simulation time: 0 hr 7 min 26 sec) 
Heartbeat CPU 3 instructions: 60000000 cycles: 26846640 heartbeat IPC: 2.24617 cumulative IPC: 2.23492 (Simulation time: 0 hr 8 min 33 sec) 
Heartbeat CPU 0 instructions: 50000000 cycles: 26908240 heartbeat IPC: 1.86232 cumulative IPC: 1.85817 (Simulation time: 0 hr 8 min 35 sec) 
Heartbeat CPU 2 instructions: 60000000 cycles: 28113038 heartbeat IPC: 2.09738 cumulative IPC: 2.13424 (Simulation time: 0 hr 8 min 58 sec) 
Heartbeat CPU 1 instructions: 40000000 cycles: 29434904 heartbeat IPC: 1.35826 cumulative IPC: 1.35893 (Simulation time: 0 hr 9 min 23 sec) 
Heartbeat CPU 3 instructions: 70000002 cycles: 31256269 heartbeat IPC: 2.26777 cumulative IPC: 2.23955 (Simulation time: 0 hr 9 min 59 sec) 
Heartbeat CPU 0 instructions: 60000000 cycles: 32290727 heartbeat IPC: 1.85788 cumulative IPC: 1.85812 (Simulation time: 0 hr 10 min 19 sec) 
Heartbeat CPU 2 instructions: 70000001 cycles: 32937599 heartbeat IPC: 2.07273 cumulative IPC: 2.12523 (Simulation time: 0 hr 10 min 31 sec) 
Heartbeat CPU 3 instructions: 80000000 cycles: 35674083 heartbeat IPC: 2.26356 cumulative IPC: 2.24252 (Simulation time: 0 hr 11 min 19 sec) 
Heartbeat CPU 1 instructions: 50000000 cycles: 36797030 heartbeat IPC: 1.3583 cumulative IPC: 1.35881 (Simulation time: 0 hr 11 min 39 sec) 
Heartbeat CPU 0 instructions: 70000001 cycles: 37720885 heartbeat IPC: 1.84157 cumulative IPC: 1.85574 (Simulation time: 0 hr 11 min 56 sec) 
Heartbeat CPU 2 instructions: 80000000 cycles: 37741967 heartbeat IPC: 2.08144 cumulative IPC: 2.11966 (Simulation time: 0 hr 11 min 56 sec) 
Heartbeat CPU 3 instructions: 90000000 cycles: 40118781 heartbeat IPC: 2.24987 cumulative IPC: 2.24334 (Simulation time: 0 hr 12 min 42 sec) 
Heartbeat CPU 2 instructions: 90000000 cycles: 42504654 heartbeat IPC: 2.09966 cumulative IPC: 2.11742 (Simulation time: 0 hr 13 min 27 sec) 
Heartbeat CPU 0 instructions: 80000000 cycles: 43086462 heartbeat IPC: 1.86373 cumulative IPC: 1.85673 (Simulation time: 0 hr 13 min 38 sec) 
Heartbeat CPU 1 instructions: 60000000 cycles: 44166634 heartbeat IPC: 1.35693 cumulative IPC: 1.35849 (Simulation time: 0 hr 13 min 59 sec) 
Heartbeat CPU 3 instructions: 100000000 cycles: 44518225 heartbeat IPC: 2.27301 cumulative IPC: 2.24627 (Simulation time: 0 hr 14 min 6 sec) 
Heartbeat CPU 2 instructions: 100000000 cycles: 47350273 heartbeat IPC: 2.06372 cumulative IPC: 2.11192 (Simulation time: 0 hr 15 min 4 sec) 
Heartbeat CPU 0 instructions: 90000003 cycles: 48462593 heartbeat IPC: 1.86007 cumulative IPC: 1.8571 (Simulation time: 0 hr 15 min 26 sec) 
Heartbeat CPU 3 instructions: 110000003 cycles: 48867683 heartbeat IPC: 2.29914 cumulative IPC: 2.25098 (Simulation time: 0 hr 15 min 33 sec) 
Heartbeat CPU 1 instructions: 70000000 cycles: 51525582 heartbeat IPC: 1.35889 cumulative IPC: 1.35855 (Simulation time: 0 hr 16 min 27 sec) 
Heartbeat CPU 2 instructions: 110000001 cycles: 52288442 heartbeat IPC: 2.02504 cumulative IPC: 2.10372 (Simulation time: 0 hr 16 min 45 sec) 
Heartbeat CPU 3 instructions: 120000000 cycles: 53328138 heartbeat IPC: 2.24192 cumulative IPC: 2.25022 (Simulation time: 0 hr 17 min 9 sec) 
Heartbeat CPU 0 instructions: 100000000 cycles: 53889754 heartbeat IPC: 1.84258 cumulative IPC: 1.85564 (Simulation time: 0 hr 17 min 30 sec) 
Heartbeat CPU 2 instructions: 120000000 cycles: 57302184 heartbeat IPC: 1.99452 cumulative IPC: 2.09416 (Simulation time: 0 hr 19 min 33 sec) 
Heartbeat CPU 3 instructions: 130000000 cycles: 57541791 heartbeat IPC: 2.37324 cumulative IPC: 2.25923 (Simulation time: 0 hr 19 min 38 sec) 
Heartbeat CPU 1 instructions: 80000000 cycles: 58878340 heartbeat IPC: 1.36003 cumulative IPC: 1.35873 (Simulation time: 0 hr 20 min 4 sec) 
Heartbeat CPU 0 instructions: 110000002 cycles: 59260724 heartbeat IPC: 1.86186 cumulative IPC: 1.8562 (Simulation time: 0 hr 20 min 11 sec) 
Heartbeat CPU 3 instructions: 140000000 cycles: 61710651 heartbeat IPC: 2.39874 cumulative IPC: 2.26865 (Simulation time: 0 hr 20 min 59 sec) 
Heartbeat CPU 2 instructions: 130000001 cycles: 62227423 heartbeat IPC: 2.03036 cumulative IPC: 2.08911 (Simulation time: 0 hr 21 min 9 sec) 
Heartbeat CPU 0 instructions: 120000000 cycles: 64636042 heartbeat IPC: 1.86035 cumulative IPC: 1.85655 (Simulation time: 0 hr 21 min 55 sec) 
Heartbeat CPU 3 instructions: 150000000 cycles: 65935172 heartbeat IPC: 2.36713 cumulative IPC: 2.27496 (Simulation time: 0 hr 22 min 19 sec) 
Heartbeat CPU 1 instructions: 90000000 cycles: 66232291 heartbeat IPC: 1.35981 cumulative IPC: 1.35885 (Simulation time: 0 hr 22 min 25 sec) 
Heartbeat CPU 2 instructions: 140000000 cycles: 67065421 heartbeat IPC: 2.06697 cumulative IPC: 2.08751 (Simulation time: 0 hr 22 min 41 sec) 
Heartbeat CPU 0 instructions: 130000000 cycles: 70220160 heartbeat IPC: 1.79079 cumulative IPC: 1.85132 (Simulation time: 0 hr 23 min 40 sec) 
Heartbeat CPU 3 instructions: 160000000 cycles: 70294945 heartbeat IPC: 2.2937 cumulative IPC: 2.27612 (Simulation time: 0 hr 23 min 41 sec) 
Heartbeat CPU 2 instructions: 150000000 cycles: 71901077 heartbeat IPC: 2.06797 cumulative IPC: 2.0862 (Simulation time: 0 hr 24 min 12 sec) 
Heartbeat CPU 1 instructions: 100000000 cycles: 73608091 heartbeat IPC: 1.35579 cumulative IPC: 1.35855 (Simulation time: 0 hr 24 min 45 sec) 
Heartbeat CPU 3 instructions: 170000003 cycles: 74846636 heartbeat IPC: 2.19699 cumulative IPC: 2.27131 (Simulation time: 0 hr 25 min 9 sec) 
Heartbeat CPU 0 instructions: 140000000 cycles: 75616993 heartbeat IPC: 1.85294 cumulative IPC: 1.85144 (Simulation time: 0 hr 25 min 24 sec) 
Heartbeat CPU 2 instructions: 160000000 cycles: 76731902 heartbeat IPC: 2.07004 cumulative IPC: 2.08518 (Simulation time: 0 hr 25 min 46 sec) 
Heartbeat CPU 3 instructions: 180000000 cycles: 79381213 heartbeat IPC: 2.20528 cumulative IPC: 2.26754 (Simulation time: 0 hr 26 min 38 sec) 
Heartbeat CPU 1 instructions: 110000003 cycles: 80947315 heartbeat IPC: 1.36254 cumulative IPC: 1.35891 (Simulation time: 0 hr 27 min 9 sec) 
Heartbeat CPU 0 instructions: 150000002 cycles: 81018713 heartbeat IPC: 1.85126 cumulative IPC: 1.85142 (Simulation time: 0 hr 27 min 10 sec) 
Heartbeat CPU 2 instructions: 170000003 cycles: 81576041 heartbeat IPC: 2.06435 cumulative IPC: 2.08395 (Simulation time: 0 hr 27 min 21 sec) 
Heartbeat CPU 3 instructions: 190000001 cycles: 83923282 heartbeat IPC: 2.20164 cumulative IPC: 2.26397 (Simulation time: 0 hr 28 min 6 sec) 
Heartbeat CPU 2 instructions: 180000000 cycles: 86386200 heartbeat IPC: 2.07893 cumulative IPC: 2.08367 (Simulation time: 0 hr 28 min 53 sec) 
Heartbeat CPU 0 instructions: 160000000 cycles: 86440970 heartbeat IPC: 1.84425 cumulative IPC: 1.85097 (Simulation time: 0 hr 28 min 54 sec) 
Heartbeat CPU 1 instructions: 120000000 cycles: 88305826 heartbeat IPC: 1.35897 cumulative IPC: 1.35891 (Simulation time: 0 hr 29 min 30 sec) 
Heartbeat CPU 3 instructions: 200000000 cycles: 88463911 heartbeat IPC: 2.20234 cumulative IPC: 2.26081 (Simulation time: 0 hr 29 min 34 sec) 
Heartbeat CPU 2 instructions: 190000000 cycles: 91152448 heartbeat IPC: 2.09809 cumulative IPC: 2.08442 (Simulation time: 0 hr 30 min 26 sec) 
Heartbeat CPU 0 instructions: 170000003 cycles: 91811292 heartbeat IPC: 1.86209 cumulative IPC: 1.85162 (Simulation time: 0 hr 30 min 39 sec) 
Heartbeat CPU 3 instructions: 210000000 cycles: 92994964 heartbeat IPC: 2.20699 cumulative IPC: 0.107533 (Simulation time: 0 hr 31 min 2 sec) 
Heartbeat CPU 1 instructions: 130000000 cycles: 95647582 heartbeat IPC: 1.36207 cumulative IPC: 1.35916 (Simulation time: 0 hr 31 min 53 sec) 
Heartbeat CPU 2 instructions: 200000000 cycles: 95928981 heartbeat IPC: 2.09357 cumulative IPC: 2.08488 (Simulation time: 0 hr 32 min 3 sec) 
Heartbeat CPU 0 instructions: 180000000 cycles: 97182932 heartbeat IPC: 1.86163 cumulative IPC: 1.85218 (Simulation time: 0 hr 32 min 28 sec) 
Heartbeat CPU 3 instructions: 220000000 cycles: 97543751 heartbeat IPC: 2.19839 cumulative IPC: 0.205036 (Simulation time: 0 hr 32 min 34 sec) 
Heartbeat CPU 2 instructions: 210000000 cycles: 100724731 heartbeat IPC: 2.08518 cumulative IPC: 0.0992805 (Simulation time: 0 hr 33 min 32 sec) 
Heartbeat CPU 3 instructions: 230000001 cycles: 102101042 heartbeat IPC: 2.19429 cumulative IPC: 0.293827 (Simulation time: 0 hr 33 min 58 sec) 
Heartbeat CPU 0 instructions: 190000001 cycles: 102765693 heartbeat IPC: 1.79123 cumulative IPC: 1.84887 (Simulation time: 0 hr 34 min 9 sec) 
Heartbeat CPU 1 instructions: 140000000 cycles: 103015648 heartbeat IPC: 1.35721 cumulative IPC: 1.35902 (Simulation time: 0 hr 34 min 14 sec) 
Heartbeat CPU 2 instructions: 220000000 cycles: 105542651 heartbeat IPC: 2.07558 cumulative IPC: 0.189497 (Simulation time: 0 hr 34 min 59 sec) 
Heartbeat CPU 3 instructions: 240000000 cycles: 106664473 heartbeat IPC: 2.19133 cumulative IPC: 0.375008 (Simulation time: 0 hr 35 min 21 sec) 
Heartbeat CPU 0 instructions: 200000000 cycles: 108229597 heartbeat IPC: 1.83019 cumulative IPC: 1.84792 (Simulation time: 0 hr 35 min 51 sec) 
Heartbeat CPU 2 instructions: 230000003 cycles: 110304197 heartbeat IPC: 2.10016 cumulative IPC: 0.271975 (Simulation time: 0 hr 36 min 32 sec) 
Heartbeat CPU 1 instructions: 150000001 cycles: 110391587 heartbeat IPC: 1.35576 cumulative IPC: 1.3588 (Simulation time: 0 hr 36 min 33 sec) 
Heartbeat CPU 3 instructions: 250000002 cycles: 111209173 heartbeat IPC: 2.20037 cumulative IPC: 0.449603 (Simulation time: 0 hr 36 min 49 sec) 
Heartbeat CPU 0 instructions: 210000003 cycles: 113604041 heartbeat IPC: 1.86066 cumulative IPC: 0.0880251 (Simulation time: 0 hr 37 min 36 sec) 
Heartbeat CPU 2 instructions: 240000000 cycles: 115099621 heartbeat IPC: 2.08532 cumulative IPC: 0.347525 (Simulation time: 0 hr 38 min 5 sec) 
Heartbeat CPU 3 instructions: 260000000 cycles: 115749083 heartbeat IPC: 2.20269 cumulative IPC: 0.518363 (Simulation time: 0 hr 38 min 18 sec) 
Heartbeat CPU 1 instructions: 160000000 cycles: 117771267 heartbeat IPC: 1.35507 cumulative IPC: 1.35857 (Simulation time: 0 hr 38 min 57 sec) 
Heartbeat CPU 0 instructions: 220000000 cycles: 118995013 heartbeat IPC: 1.85495 cumulative IPC: 0.168074 (Simulation time: 0 hr 39 min 21 sec) 
Heartbeat CPU 2 instructions: 250000003 cycles: 119866210 heartbeat IPC: 2.09794 cumulative IPC: 0.417132 (Simulation time: 0 hr 39 min 38 sec) 
Heartbeat CPU 3 instructions: 270000003 cycles: 120305378 heartbeat IPC: 2.19477 cumulative IPC: 0.581853 (Simulation time: 0 hr 39 min 46 sec) 
Heartbeat CPU 0 instructions: 230000000 cycles: 124364571 heartbeat IPC: 1.86235 cumulative IPC: 0.241226 (Simulation time: 0 hr 41 min 5 sec) 
Heartbeat CPU 2 instructions: 260000000 cycles: 124642778 heartbeat IPC: 2.09355 cumulative IPC: 0.481376 (Simulation time: 0 hr 41 min 11 sec) 
Heartbeat CPU 3 instructions: 280000000 cycles: 124871113 heartbeat IPC: 2.19023 cumulative IPC: 0.640661 (Simulation time: 0 hr 41 min 15 sec) 
Heartbeat CPU 1 instructions: 170000003 cycles: 125129055 heartbeat IPC: 1.3591 cumulative IPC: 1.3586 (Simulation time: 0 hr 41 min 20 sec) 
Heartbeat CPU 3 instructions: 290000003 cycles: 129442181 heartbeat IPC: 2.18767 cumulative IPC: 0.695291 (Simulation time: 0 hr 42 min 44 sec) 
Heartbeat CPU 2 instructions: 270000002 cycles: 129459957 heartbeat IPC: 2.0759 cumulative IPC: 0.540708 (Simulation time: 0 hr 42 min 44 sec) 
Heartbeat CPU 0 instructions: 240000000 cycles: 129731372 heartbeat IPC: 1.86331 cumulative IPC: 0.308329 (Simulation time: 0 hr 42 min 49 sec) 
Heartbeat CPU 1 instructions: 180000000 cycles: 132496592 heartbeat IPC: 1.35731 cumulative IPC: 1.35853 (Simulation time: 0 hr 43 min 42 sec) 
Heartbeat CPU 3 instructions: 300000000 cycles: 134051225 heartbeat IPC: 2.16965 cumulative IPC: 0.745983 (Simulation time: 0 hr 44 min 12 sec) 
Heartbeat CPU 2 instructions: 280000000 cycles: 134277877 heartbeat IPC: 2.07558 cumulative IPC: 0.595779 (Simulation time: 0 hr 44 min 17 sec) 
Heartbeat CPU 0 instructions: 250000001 cycles: 135167488 heartbeat IPC: 1.83955 cumulative IPC: 0.369911 (Simulation time: 0 hr 44 min 34 sec) 
Heartbeat CPU 3 instructions: 310000001 cycles: 138562576 heartbeat IPC: 2.21663 cumulative IPC: 0.793865 (Simulation time: 0 hr 45 min 40 sec) 
Heartbeat CPU 2 instructions: 290000003 cycles: 139114842 heartbeat IPC: 2.06741 cumulative IPC: 0.646948 (Simulation time: 0 hr 45 min 51 sec) 
Heartbeat CPU 1 instructions: 190000002 cycles: 139849051 heartbeat IPC: 1.36009 cumulative IPC: 1.35861 (Simulation time: 0 hr 46 min 5 sec) 
Heartbeat CPU 0 instructions: 260000000 cycles: 140535735 heartbeat IPC: 1.86281 cumulative IPC: 0.426938 (Simulation time: 0 hr 46 min 18 sec) 
Heartbeat CPU 3 instructions: 320000000 cycles: 142930813 heartbeat IPC: 2.28925 cumulative IPC: 0.839567 (Simulation time: 0 hr 47 min 4 sec) 
Heartbeat CPU 2 instructions: 300000000 cycles: 144012121 heartbeat IPC: 2.04195 cumulative IPC: 0.694386 (Simulation time: 0 hr 47 min 24 sec) 
Heartbeat CPU 0 instructions: 270000000 cycles: 145934423 heartbeat IPC: 1.8523 cumulative IPC: 0.479668 (Simulation time: 0 hr 48 min 0 sec) 
Heartbeat CPU 1 instructions: 200000000 cycles: 147203775 heartbeat IPC: 1.35967 cumulative IPC: 1.35866 (Simulation time: 0 hr 48 min 25 sec) 

Warmup complete CPU 0 instructions: 272364764 cycles: 147203777 (Simulation time: 0 hr 48 min 25 sec) 
Warmup complete CPU 1 instructions: 200000001 cycles: 147203777 (Simulation time: 0 hr 48 min 25 sec) 
Warmup complete CPU 2 instructions: 306576860 cycles: 147203776 (Simulation time: 0 hr 48 min 25 sec) 
Warmup complete CPU 3 instructions: 329836441 cycles: 147203776 (Simulation time: 0 hr 48 min 25 sec) 

Heartbeat CPU 3 instructions: 330000001 cycles: 147374970 heartbeat IPC: 2.25015 cumulative IPC: 0.955407 (Simulation time: 0 hr 48 min 26 sec) 
Heartbeat CPU 2 instructions: 310000002 cycles: 152490346 heartbeat IPC: 1.17949 cumulative IPC: 0.647517 (Simulation time: 0 hr 49 min 6 sec) 
Heartbeat CPU 3 instructions: 340000000 cycles: 160210265 heartbeat IPC: 0.779102 cumulative IPC: 0.781422 (Simulation time: 0 hr 50 min 7 sec) 
Heartbeat CPU 0 instructions: 280000000 cycles: 165285156 heartbeat IPC: 0.516776 cumulative IPC: 0.422271 (Simulation time: 0 hr 50 min 48 sec) 
Heartbeat CPU 2 instructions: 320000000 cycles: 167514397 heartbeat IPC: 0.665599 cumulative IPC: 0.660893 (Simulation time: 0 hr 51 min 6 sec) 
Heartbeat CPU 3 instructions: 350000000 cycles: 171754315 heartbeat IPC: 0.866247 cumulative IPC: 0.821308 (Simulation time: 0 hr 51 min 39 sec) 
Heartbeat CPU 2 instructions: 330000003 cycles: 182365954 heartbeat IPC: 0.67333 cumulative IPC: 0.666146 (Simulation time: 0 hr 53 min 0 sec) 
Heartbeat CPU 3 instructions: 360000000 cycles: 184558531 heartbeat IPC: 0.780993 cumulative IPC: 0.807489 (Simulation time: 0 hr 53 min 16 sec) 
Heartbeat CPU 1 instructions: 210000003 cycles: 188426536 heartbeat IPC: 0.242584 cumulative IPC: 0.242584 (Simulation time: 0 hr 53 min 45 sec) 
Heartbeat CPU 0 instructions: 290000001 cycles: 188938753 heartbeat IPC: 0.422769 cumulative IPC: 0.422553 (Simulation time: 0 hr 53 min 49 sec) 
Heartbeat CPU 3 instructions: 370000000 cycles: 195413913 heartbeat IPC: 0.921202 cumulative IPC: 0.833094 (Simulation time: 0 hr 54 min 38 sec) 
Heartbeat CPU 2 instructions: 340000000 cycles: 197278590 heartbeat IPC: 0.670572 cumulative IPC: 0.667464 (Simulation time: 0 hr 54 min 52 sec) 
Heartbeat CPU 3 instructions: 380000000 cycles: 206219349 heartbeat IPC: 0.92546 cumulative IPC: 0.850005 (Simulation time: 0 hr 56 min 0 sec) 
Heartbeat CPU 2 instructions: 350000003 cycles: 212235804 heartbeat IPC: 0.668574 cumulative IPC: 0.667719 (Simulation time: 0 hr 56 min 46 sec) 
Heartbeat CPU 0 instructions: 300000000 cycles: 212706656 heartbeat IPC: 0.420735 cumulative IPC: 0.421893 (Simulation time: 0 hr 56 min 50 sec) 
Heartbeat CPU 3 instructions: 390000002 cycles: 217042150 heartbeat IPC: 0.923975 cumulative IPC: 0.861469 (Simulation time: 0 hr 57 min 23 sec) 
Heartbeat CPU 2 instructions: 360000000 cycles: 227091897 heartbeat IPC: 0.673124 cumulative IPC: 0.668724 (Simulation time: 0 hr 58 min 44 sec) 
Heartbeat CPU 3 instructions: 400000000 cycles: 227615848 heartbeat IPC: 0.945743 cumulative IPC: 0.87255 (Simulation time: 0 hr 58 min 49 sec) 
Heartbeat CPU 1 instructions: 220000000 cycles: 228552782 heartbeat IPC: 0.249213 cumulative IPC: 0.245854 (Simulation time: 0 hr 58 min 56 sec) 
Heartbeat CPU 0 instructions: 310000000 cycles: 236179071 heartbeat IPC: 0.426032 cumulative IPC: 0.422985 (Simulation time: 0 hr 59 min 55 sec) 
Heartbeat CPU 3 instructions: 410000002 cycles: 240242247 heartbeat IPC: 0.791992 cumulative IPC: 0.861617 (Simulation time: 1 hr 0 min 27 sec) 
Heartbeat CPU 2 instructions: 370000001 cycles: 242037427 heartbeat IPC: 0.669096 cumulative IPC: 0.668783 (Simulation time: 1 hr 0 min 41 sec) 
Heartbeat CPU 3 instructions: 420000000 cycles: 251607284 heartbeat IPC: 0.879891 cumulative IPC: 0.863607 (Simulation time: 1 hr 1 min 58 sec) 
Heartbeat CPU 2 instructions: 380000000 cycles: 257069314 heartbeat IPC: 0.665252 cumulative IPC: 0.6683 (Simulation time: 1 hr 2 min 43 sec) 
Heartbeat CPU 0 instructions: 320000000 cycles: 259819480 heartbeat IPC: 0.423005 cumulative IPC: 0.422989 (Simulation time: 1 hr 3 min 5 sec) 
Heartbeat CPU 3 instructions: 430000000 cycles: 261470433 heartbeat IPC: 1.01388 cumulative IPC: 0.876577 (Simulation time: 1 hr 3 min 18 sec) 
Heartbeat CPU 1 instructions: 230000002 cycles: 268644159 heartbeat IPC: 0.24943 cumulative IPC: 0.247035 (Simulation time: 1 hr 4 min 14 sec) 
Heartbeat CPU 2 instructions: 390000000 cycles: 271988418 heartbeat IPC: 0.670282 cumulative IPC: 0.668537 (Simulation time: 1 hr 4 min 40 sec) 
Heartbeat CPU 3 instructions: 440000000 cycles: 273319714 heartbeat IPC: 0.843933 cumulative IPC: 0.87351 (Simulation time: 1 hr 4 min 51 sec) 
Heartbeat CPU 3 instructions: 450000001 cycles: 281964894 heartbeat IPC: 1.15671 cumulative IPC: 0.891678 (Simulation time: 1 hr 6 min 3 sec) 
Heartbeat CPU 0 instructions: 330000000 cycles: 283593066 heartbeat IPC: 0.420635 cumulative IPC: 0.422579 (Simulation time: 1 hr 6 min 17 sec) 
Heartbeat CPU 2 instructions: 400000000 cycles: 287020669 heartbeat IPC: 0.665236 cumulative IPC: 0.668182 (Simulation time: 1 hr 6 min 46 sec) 
Heartbeat CPU 3 instructions: 460000000 cycles: 290716017 heartbeat IPC: 1.14271 cumulative IPC: 0.906986 (Simulation time: 1 hr 7 min 16 sec) 
Heartbeat CPU 3 instructions: 470000002 cycles: 299118633 heartbeat IPC: 1.19011 cumulative IPC: 0.922646 (Simulation time: 1 hr 8 min 27 sec) 
Heartbeat CPU 2 instructions: 410000001 cycles: 302111395 heartbeat IPC: 0.662659 cumulative IPC: 0.667644 (Simulation time: 1 hr 8 min 51 sec) 
Heartbeat CPU 0 instructions: 340000000 cycles: 307174951 heartbeat IPC: 0.424054 cumulative IPC: 0.422796 (Simulation time: 1 hr 9 min 33 sec) 
Heartbeat CPU 3 instructions: 480000000 cycles: 308297508 heartbeat IPC: 1.08946 cumulative IPC: 0.93215 (Simulation time: 1 hr 9 min 43 sec) 
Heartbeat CPU 1 instructions: 240000000 cycles: 309028223 heartbeat IPC: 0.247622 cumulative IPC: 0.247181 (Simulation time: 1 hr 9 min 48 sec) 
Heartbeat CPU 2 instructions: 420000000 cycles: 317051692 heartbeat IPC: 0.669331 cumulative IPC: 0.667792 (Simulation time: 1 hr 10 min 54 sec) 
Heartbeat CPU 3 instructions: 490000000 cycles: 317942816 heartbeat IPC: 1.03677 cumulative IPC: 0.938061 (Simulation time: 1 hr 11 min 1 sec) 
Heartbeat CPU 3 instructions: 500000000 cycles: 326711795 heartbeat IPC: 1.14038 cumulative IPC: 0.947944 (Simulation time: 1 hr 12 min 14 sec) 
Heartbeat CPU 0 instructions: 350000003 cycles: 330866990 heartbeat IPC: 0.422083 cumulative IPC: 0.422704 (Simulation time: 1 hr 12 min 48 sec) 
Heartbeat CPU 2 instructions: 430000001 cycles: 332010162 heartbeat IPC: 0.668518 cumulative IPC: 0.667851 (Simulation time: 1 hr 12 min 57 sec) 
Heartbeat CPU 3 instructions: 510000001 cycles: 335883392 heartbeat IPC: 1.09032 cumulative IPC: 0.954865 (Simulation time: 1 hr 13 min 29 sec) 
Heartbeat CPU 3 instructions: 520000000 cycles: 345786944 heartbeat IPC: 1.00974 cumulative IPC: 0.957602 (Simulation time: 1 hr 14 min 50 sec) 
Heartbeat CPU 2 instructions: 440000000 cycles: 346963927 heartbeat IPC: 0.668728 cumulative IPC: 0.667917 (Simulation time: 1 hr 15 min 0 sec) 
Heartbeat CPU 1 instructions: 250000000 cycles: 349430460 heartbeat IPC: 0.247511 cumulative IPC: 0.247247 (Simulation time: 1 hr 15 min 21 sec) 
Heartbeat CPU 0 instructions: 360000000 cycles: 354665538 heartbeat IPC: 0.420194 cumulative IPC: 0.422416 (Simulation time: 1 hr 16 min 9 sec) 
Heartbeat CPU 3 instructions: 530000002 cycles: 355308432 heartbeat IPC: 1.05026 cumulative IPC: 0.961841 (Simulation time: 1 hr 16 min 14 sec) 
Heartbeat CPU 2 instructions: 450000002 cycles: 361620370 heartbeat IPC: 0.682294 cumulative IPC: 0.668899 (Simulation time: 1 hr 17 min 6 sec) 
Heartbeat CPU 3 instructions: 540000000 cycles: 367190954 heartbeat IPC: 0.841572 cumulative IPC: 0.955345 (Simulation time: 1 hr 17 min 48 sec) 
Heartbeat CPU 2 instructions: 460000000 cycles: 376225419 heartbeat IPC: 0.684695 cumulative IPC: 0.669907 (Simulation time: 1 hr 18 min 59 sec) 
Heartbeat CPU 0 instructions: 370000003 cycles: 378197005 heartbeat IPC: 0.424963 cumulative IPC: 0.422676 (Simulation time: 1 hr 19 min 14 sec) 
Heartbeat CPU 3 instructions: 550000000 cycles: 379469934 heartbeat IPC: 0.8144 cumulative IPC: 0.947893 (Simulation time: 1 hr 19 min 24 sec) 
Heartbeat CPU 1 instructions: 260000000 cycles: 389921995 heartbeat IPC: 0.246965 cumulative IPC: 0.2472 (Simulation time: 1 hr 20 min 48 sec) 
Heartbeat CPU 3 instructions: 560000000 cycles: 390499109 heartbeat IPC: 0.906686 cumulative IPC: 0.946025 (Simulation time: 1 hr 20 min 52 sec) 
Heartbeat CPU 2 instructions: 470000002 cycles: 390904780 heartbeat IPC: 0.681229 cumulative IPC: 0.670589 (Simulation time: 1 hr 20 min 56 sec) 
Heartbeat CPU 3 instructions: 570000000 cycles: 401779903 heartbeat IPC: 0.886462 cumulative IPC: 0.943386 (Simulation time: 1 hr 23 min 13 sec) 
Heartbeat CPU 0 instructions: 380000000 cycles: 401928474 heartbeat IPC: 0.421381 cumulative IPC: 0.422555 (Simulation time: 1 hr 23 min 15 sec) 
Heartbeat CPU 2 instructions: 480000000 cycles: 405627644 heartbeat IPC: 0.679216 cumulative IPC: 0.67108 (Simulation time: 1 hr 24 min 9 sec) 
Heartbeat CPU 3 instructions: 580000000 cycles: 412734475 heartbeat IPC: 0.912861 cumulative IPC: 0.942127 (Simulation time: 1 hr 25 min 6 sec) 
Heartbeat CPU 2 instructions: 490000000 cycles: 420086649 heartbeat IPC: 0.691611 cumulative IPC: 0.672168 (Simulation time: 1 hr 26 min 4 sec) 
Heartbeat CPU 3 instructions: 590000000 cycles: 423742357 heartbeat IPC: 0.90844 cumulative IPC: 0.940786 (Simulation time: 1 hr 26 min 32 sec) 
Heartbeat CPU 0 instructions: 390000000 cycles: 425204539 heartbeat IPC: 0.429626 cumulative IPC: 0.423147 (Simulation time: 1 hr 26 min 44 sec) 
Heartbeat CPU 1 instructions: 270000000 cycles: 430486245 heartbeat IPC: 0.246522 cumulative IPC: 0.247103 (Simulation time: 1 hr 27 min 27 sec) 
Heartbeat CPU 2 instructions: 500000000 cycles: 434738991 heartbeat IPC: 0.682485 cumulative IPC: 0.672694 (Simulation time: 1 hr 28 min 1 sec) 
Heartbeat CPU 3 instructions: 600000000 cycles: 434752184 heartbeat IPC: 0.908279 cumulative IPC: 0.939541 (Simulation time: 1 hr 28 min 1 sec) 
Heartbeat CPU 3 instructions: 610000001 cycles: 447436666 heartbeat IPC: 0.788365 cumulative IPC: 0.933154 (Simulation time: 1 hr 29 min 40 sec) 
Heartbeat CPU 0 instructions: 400000000 cycles: 448630407 heartbeat IPC: 0.426879 cumulative IPC: 0.423437 (Simulation time: 1 hr 29 min 55 sec) 
Heartbeat CPU 2 instructions: 510000002 cycles: 449307270 heartbeat IPC: 0.686423 cumulative IPC: 0.673356 (Simulation time: 1 hr 30 min 2 sec) 
Heartbeat CPU 3 instructions: 620000000 cycles: 458755495 heartbeat IPC: 0.883484 cumulative IPC: 0.93135 (Simulation time: 1 hr 31 min 16 sec) 
Heartbeat CPU 2 instructions: 520000000 cycles: 463689801 heartbeat IPC: 0.695288 cumulative IPC: 0.674352 (Simulation time: 1 hr 31 min 56 sec) 
Heartbeat CPU 3 instructions: 630000001 cycles: 469577603 heartbeat IPC: 0.924034 cumulative IPC: 0.931104 (Simulation time: 1 hr 32 min 43 sec) 
Heartbeat CPU 1 instructions: 280000000 cycles: 470856464 heartbeat IPC: 0.247707 cumulative IPC: 0.247179 (Simulation time: 1 hr 32 min 53 sec) 
Heartbeat CPU 0 instructions: 410000001 cycles: 472311502 heartbeat IPC: 0.422278 cumulative IPC: 0.423353 (Simulation time: 1 hr 33 min 4 sec) 
Heartbeat CPU 2 instructions: 530000000 cycles: 478148896 heartbeat IPC: 0.691606 cumulative IPC: 0.675106 (Simulation time: 1 hr 33 min 50 sec) 
Heartbeat CPU 3 instructions: 640000000 cycles: 480919786 heartbeat IPC: 0.881664 cumulative IPC: 0.929424 (Simulation time: 1 hr 34 min 12 sec) 
Heartbeat CPU 3 instructions: 650000001 cycles: 491720957 heartbeat IPC: 0.925826 cumulative IPC: 0.929311 (Simulation time: 1 hr 35 min 33 sec) 
Heartbeat CPU 2 instructions: 540000000 cycles: 492844440 heartbeat IPC: 0.680478 cumulative IPC: 0.675335 (Simulation time: 1 hr 35 min 42 sec) 
Heartbeat CPU 0 instructions: 420000000 cycles: 497420553 heartbeat IPC: 0.398263 cumulative IPC: 0.421554 (Simulation time: 1 hr 36 min 18 sec) 
Heartbeat CPU 3 instructions: 660000000 cycles: 502437175 heartbeat IPC: 0.933165 cumulative IPC: 0.929427 (Simulation time: 1 hr 36 min 58 sec) 
Heartbeat CPU 2 instructions: 550000002 cycles: 507514900 heartbeat IPC: 0.681642 cumulative IPC: 0.675592 (Simulation time: 1 hr 37 min 39 sec) 
Heartbeat CPU 1 instructions: 290000000 cycles: 511526716 heartbeat IPC: 0.24588 cumulative IPC: 0.247034 (Simulation time: 1 hr 38 min 11 sec) 
Heartbeat CPU 3 instructions: 670000001 cycles: 513230210 heartbeat IPC: 0.926524 cumulative IPC: 0.929341 (Simulation time: 1 hr 38 min 24 sec) 
Heartbeat CPU 0 instructions: 430000000 cycles: 520874151 heartbeat IPC: 0.426374 cumulative IPC: 0.421856 (Simulation time: 1 hr 39 min 25 sec) 
Heartbeat CPU 2 instructions: 560000000 cycles: 522268912 heartbeat IPC: 0.677782 cumulative IPC: 0.675678 (Simulation time: 1 hr 39 min 35 sec) 
Heartbeat CPU 3 instructions: 680000000 cycles: 524874619 heartbeat IPC: 0.858781 cumulative IPC: 0.927166 (Simulation time: 1 hr 39 min 55 sec) 
Heartbeat CPU 3 instructions: 690000003 cycles: 535911517 heartbeat IPC: 0.906052 cumulative IPC: 0.926566 (Simulation time: 1 hr 41 min 18 sec) 
Heartbeat CPU 2 instructions: 570000001 cycles: 537213311 heartbeat IPC: 0.669147 cumulative IPC: 0.675427 (Simulation time: 1 hr 41 min 27 sec) 
Heartbeat CPU 0 instructions: 440000000 cycles: 544674332 heartbeat IPC: 0.420165 cumulative IPC: 0.421755 (Simulation time: 1 hr 42 min 23 sec) 
Heartbeat CPU 3 instructions: 700000000 cycles: 547512228 heartbeat IPC: 0.862016 cumulative IPC: 0.924696 (Simulation time: 1 hr 42 min 46 sec) 
Heartbeat CPU 2 instructions: 580000000 cycles: 551968735 heartbeat IPC: 0.677717 cumulative IPC: 0.675511 (Simulation time: 1 hr 43 min 20 sec) 
Heartbeat CPU 1 instructions: 300000000 cycles: 552025446 heartbeat IPC: 0.246921 cumulative IPC: 0.247022 (Simulation time: 1 hr 43 min 21 sec) 
Heartbeat CPU 3 instructions: 710000000 cycles: 558347949 heartbeat IPC: 0.922873 cumulative IPC: 0.924648 (Simulation time: 1 hr 44 min 12 sec) 
Heartbeat CPU 2 instructions: 590000000 cycles: 566695336 heartbeat IPC: 0.679043 cumulative IPC: 0.675635 (Simulation time: 1 hr 45 min 17 sec) 
Heartbeat CPU 0 instructions: 450000001 cycles: 568435745 heartbeat IPC: 0.42085 cumulative IPC: 0.421704 (Simulation time: 1 hr 45 min 30 sec) 
Heartbeat CPU 3 instructions: 720000000 cycles: 569815956 heartbeat IPC: 0.871991 cumulative IPC: 0.923219 (Simulation time: 1 hr 45 min 41 sec) 
Heartbeat CPU 3 instructions: 730000001 cycles: 581045088 heartbeat IPC: 0.890541 cumulative IPC: 0.922373 (Simulation time: 1 hr 47 min 9 sec) 
Heartbeat CPU 2 instructions: 600000000 cycles: 581528010 heartbeat IPC: 0.674187 cumulative IPC: 0.675585 (Simulation time: 1 hr 47 min 13 sec) 
Heartbeat CPU 0 instructions: 460000000 cycles: 592104268 heartbeat IPC: 0.422502 cumulative IPC: 0.421747 (Simulation time: 1 hr 48 min 33 sec) 
Heartbeat CPU 1 instructions: 310000000 cycles: 592170596 heartbeat IPC: 0.249096 cumulative IPC: 0.247209 (Simulation time: 1 hr 48 min 33 sec) 
Heartbeat CPU 3 instructions: 740000000 cycles: 594806997 heartbeat IPC: 0.726643 cumulative IPC: 0.916355 (Simulation time: 1 hr 48 min 53 sec) 
Heartbeat CPU 2 instructions: 610000000 cycles: 596138943 heartbeat IPC: 0.684419 cumulative IPC: 0.675873 (Simulation time: 1 hr 49 min 3 sec) 
Heartbeat CPU 3 instructions: 750000001 cycles: 610455404 heartbeat IPC: 0.639043 cumulative IPC: 0.906988 (Simulation time: 1 hr 50 min 48 sec) 
Heartbeat CPU 2 instructions: 620000000 cycles: 610750612 heartbeat IPC: 0.684385 cumulative IPC: 0.676141 (Simulation time: 1 hr 50 min 50 sec) 
Heartbeat CPU 0 instructions: 470000000 cycles: 615983575 heartbeat IPC: 0.418773 cumulative IPC: 0.421595 (Simulation time: 1 hr 51 min 28 sec) 
Heartbeat CPU 2 instructions: 630000003 cycles: 625284276 heartbeat IPC: 0.688058 cumulative IPC: 0.676504 (Simulation time: 1 hr 52 min 32 sec) 
Heartbeat CPU 3 instructions: 760000000 cycles: 626923418 heartbeat IPC: 0.607238 cumulative IPC: 0.896698 (Simulation time: 1 hr 52 min 44 sec) 
Heartbeat CPU 1 instructions: 320000000 cycles: 632979848 heartbeat IPC: 0.245042 cumulative IPC: 0.247027 (Simulation time: 1 hr 53 min 28 sec) 
Heartbeat CPU 2 instructions: 640000000 cycles: 640240672 heartbeat IPC: 0.66861 cumulative IPC: 0.676264 (Simulation time: 1 hr 54 min 21 sec) 
Heartbeat CPU 0 instructions: 480000000 cycles: 640547639 heartbeat IPC: 0.407099 cumulative IPC: 0.420873 (Simulation time: 1 hr 54 min 24 sec) 
Heartbeat CPU 3 instructions: 770000001 cycles: 642943694 heartbeat IPC: 0.624209 cumulative IPC: 0.887892 (Simulation time: 1 hr 54 min 41 sec) 
Heartbeat CPU 2 instructions: 650000002 cycles: 654950466 heartbeat IPC: 0.679819 cumulative IPC: 0.676367 (Simulation time: 1 hr 56 min 9 sec) 
Heartbeat CPU 3 instructions: 780000000 cycles: 658605027 heartbeat IPC: 0.638515 cumulative IPC: 0.880255 (Simulation time: 1 hr 56 min 36 sec) 
Heartbeat CPU 0 instructions: 490000000 cycles: 664165574 heartbeat IPC: 0.423407 cumulative IPC: 0.420989 (Simulation time: 1 hr 57 min 16 sec) 
Heartbeat CPU 2 instructions: 660000000 cycles: 669586056 heartbeat IPC: 0.683266 cumulative IPC: 0.67656 (Simulation time: 1 hr 57 min 55 sec) 
Heartbeat CPU 1 instructions: 330000003 cycles: 673644990 heartbeat IPC: 0.245911 cumulative IPC: 0.246941 (Simulation time: 1 hr 58 min 24 sec) 
Heartbeat CPU 3 instructions: 790000000 cycles: 675411974 heartbeat IPC: 0.594992 cumulative IPC: 0.871178 (Simulation time: 1 hr 58 min 36 sec) 
Heartbeat CPU 2 instructions: 670000003 cycles: 684387856 heartbeat IPC: 0.675594 cumulative IPC: 0.676534 (Simulation time: 1 hr 59 min 42 sec) 
Heartbeat CPU 0 instructions: 500000000 cycles: 688190536 heartbeat IPC: 0.416234 cumulative IPC: 0.420778 (Simulation time: 2 hr 0 min 9 sec) 
Heartbeat CPU 3 instructions: 800000000 cycles: 691171972 heartbeat IPC: 0.634518 cumulative IPC: 0.864322 (Simulation time: 2 hr 0 min 32 sec) 
Heartbeat CPU 2 instructions: 680000000 cycles: 699009170 heartbeat IPC: 0.683933 cumulative IPC: 0.67673 (Simulation time: 2 hr 1 min 28 sec) 
Heartbeat CPU 3 instructions: 810000000 cycles: 707276543 heartbeat IPC: 0.620942 cumulative IPC: 0.857324 (Simulation time: 2 hr 3 min 9 sec) 
Heartbeat CPU 0 instructions: 510000000 cycles: 711740933 heartbeat IPC: 0.424621 cumulative IPC: 0.420938 (Simulation time: 2 hr 3 min 41 sec) 
Heartbeat CPU 2 instructions: 690000000 cycles: 714089461 heartbeat IPC: 0.663117 cumulative IPC: 0.676368 (Simulation time: 2 hr 3 min 58 sec) 
Heartbeat CPU 1 instructions: 340000000 cycles: 714719480 heartbeat IPC: 0.24346 cumulative IPC: 0.246689 (Simulation time: 2 hr 4 min 3 sec) 
Heartbeat CPU 3 instructions: 820000000 cycles: 723830017 heartbeat IPC: 0.604103 cumulative IPC: 0.850054 (Simulation time: 2 hr 5 min 9 sec) 
Heartbeat CPU 2 instructions: 700000000 cycles: 729142535 heartbeat IPC: 0.664316 cumulative IPC: 0.676056 (Simulation time: 2 hr 5 min 47 sec) 
Heartbeat CPU 0 instructions: 520000000 cycles: 735582277 heartbeat IPC: 0.419439 cumulative IPC: 0.420877 (Simulation time: 2 hr 6 min 33 sec) 
Heartbeat CPU 3 instructions: 830000000 cycles: 739735968 heartbeat IPC: 0.628695 cumulative IPC: 0.844112 (Simulation time: 2 hr 7 min 4 sec) 
Heartbeat CPU 2 instructions: 710000000 cycles: 744033090 heartbeat IPC: 0.671567 cumulative IPC: 0.675944 (Simulation time: 2 hr 7 min 36 sec) 
Heartbeat CPU 3 instructions: 840000000 cycles: 755144156 heartbeat IPC: 0.649006 cumulative IPC: 0.839167 (Simulation time: 2 hr 8 min 57 sec) 
Heartbeat CPU 1 instructions: 350000001 cycles: 755659013 heartbeat IPC: 0.244263 cumulative IPC: 0.246526 (Simulation time: 2 hr 9 min 0 sec) 
Heartbeat CPU 2 instructions: 720000000 cycles: 758789806 heartbeat IPC: 0.677658 cumulative IPC: 0.675985 (Simulation time: 2 hr 9 min 23 sec) 
Heartbeat CPU 0 instructions: 530000000 cycles: 759152210 heartbeat IPC: 0.424269 cumulative IPC: 0.421008 (Simulation time: 2 hr 9 min 26 sec) 
Heartbeat CPU 3 instructions: 850000000 cycles: 771190415 heartbeat IPC: 0.623198 cumulative IPC: 0.833613 (Simulation time: 2 hr 10 min 53 sec) 
Heartbeat CPU 2 instructions: 730000003 cycles: 774316440 heartbeat IPC: 0.644055 cumulative IPC: 0.675195 (Simulation time: 2 hr 11 min 16 sec) 
Heartbeat CPU 0 instructions: 540000000 cycles: 782619773 heartbeat IPC: 0.42612 cumulative IPC: 0.421197 (Simulation time: 2 hr 12 min 16 sec) 
Heartbeat CPU 3 instructions: 860000000 cycles: 786240397 heartbeat IPC: 0.664453 cumulative IPC: 0.829629 (Simulation time: 2 hr 12 min 40 sec) 
Heartbeat CPU 2 instructions: 740000000 cycles: 790072984 heartbeat IPC: 0.634657 cumulative IPC: 0.674201 (Simulation time: 2 hr 13 min 7 sec) 
Heartbeat CPU 1 instructions: 360000000 cycles: 796558309 heartbeat IPC: 0.244503 cumulative IPC: 0.246399 (Simulation time: 2 hr 13 min 51 sec) 
Heartbeat CPU 3 instructions: 870000001 cycles: 801896344 heartbeat IPC: 0.638735 cumulative IPC: 0.825064 (Simulation time: 2 hr 14 min 27 sec) 
Heartbeat CPU 2 instructions: 750000003 cycles: 805531869 heartbeat IPC: 0.646877 cumulative IPC: 0.673559 (Simulation time: 2 hr 14 min 53 sec) 
Heartbeat CPU 0 instructions: 550000000 cycles: 806315728 heartbeat IPC: 0.422013 cumulative IPC: 0.421226 (Simulation time: 2 hr 14 min 59 sec) 
Heartbeat CPU 3 instructions: 880000000 cycles: 815264442 heartbeat IPC: 0.748049 cumulative IPC: 0.823523 (Simulation time: 2 hr 15 min 58 sec) 
Heartbeat CPU 2 instructions: 760000000 cycles: 820690686 heartbeat IPC: 0.659682 cumulative IPC: 0.673247 (Simulation time: 2 hr 16 min 37 sec) 
Heartbeat CPU 3 instructions: 890000000 cycles: 829338911 heartbeat IPC: 0.710506 cumulative IPC: 0.821191 (Simulation time: 2 hr 17 min 36 sec) 
Heartbeat CPU 0 instructions: 560000000 cycles: 831553703 heartbeat IPC: 0.396228 cumulative IPC: 0.420304 (Simulation time: 2 hr 17 min 51 sec) 
Heartbeat CPU 2 instructions: 770000000 cycles: 836023256 heartbeat IPC: 0.652206 cumulative IPC: 0.672779 (Simulation time: 2 hr 18 min 22 sec) 
Heartbeat CPU 1 instructions: 370000001 cycles: 837292362 heartbeat IPC: 0.245495 cumulative IPC: 0.246345 (Simulation time: 2 hr 18 min 31 sec) 
Heartbeat CPU 3 instructions: 900000000 cycles: 844986157 heartbeat IPC: 0.63909 cumulative IPC: 0.817108 (Simulation time: 2 hr 19 min 24 sec) 
Heartbeat CPU 2 instructions: 780000000 cycles: 852050373 heartbeat IPC: 0.623943 cumulative IPC: 0.671668 (Simulation time: 2 hr 20 min 15 sec) 
Heartbeat CPU 0 instructions: 570000000 cycles: 855209221 heartbeat IPC: 0.422734 cumulative IPC: 0.420386 (Simulation time: 2 hr 20 min 38 sec) 
Heartbeat CPU 3 instructions: 910000000 cycles: 861291165 heartbeat IPC: 0.613308 cumulative IPC: 0.812455 (Simulation time: 2 hr 21 min 22 sec) 
Heartbeat CPU 2 instructions: 790000000 cycles: 867494203 heartbeat IPC: 0.647508 cumulative IPC: 0.67115 (Simulation time: 2 hr 22 min 6 sec) 
Heartbeat CPU 3 instructions: 920000000 cycles: 877584818 heartbeat IPC: 0.613736 cumulative IPC: 0.808021 (Simulation time: 2 hr 23 min 18 sec) 
Heartbeat CPU 1 instructions: 380000000 cycles: 878149747 heartbeat IPC: 0.244754 cumulative IPC: 0.246256 (Simulation time: 2 hr 23 min 22 sec) 
Heartbeat CPU 0 instructions: 580000000 cycles: 879151134 heartbeat IPC: 0.417678 cumulative IPC: 0.420297 (Simulation time: 2 hr 23 min 30 sec) 
Heartbeat CPU 2 instructions: 800000000 cycles: 882927263 heartbeat IPC: 0.64796 cumulative IPC: 0.670664 (Simulation time: 2 hr 23 min 56 sec) 
Heartbeat CPU 3 instructions: 930000002 cycles: 892692697 heartbeat IPC: 0.661906 cumulative IPC: 0.80506 (Simulation time: 2 hr 25 min 7 sec) 
Heartbeat CPU 2 instructions: 810000001 cycles: 898207906 heartbeat IPC: 0.654423 cumulative IPC: 0.670333 (Simulation time: 2 hr 25 min 48 sec) 
Heartbeat CPU 0 instructions: 590000003 cycles: 902609815 heartbeat IPC: 0.426282 cumulative IPC: 0.420483 (Simulation time: 2 hr 26 min 21 sec) 
Heartbeat CPU 3 instructions: 940000000 cycles: 906337246 heartbeat IPC: 0.732893 cumulative IPC: 0.803763 (Simulation time: 2 hr 26 min 49 sec) 
Heartbeat CPU 2 instructions: 820000000 cycles: 913908104 heartbeat IPC: 0.636935 cumulative IPC: 0.669649 (Simulation time: 2 hr 27 min 45 sec) 
Heartbeat CPU 1 instructions: 390000002 cycles: 918535201 heartbeat IPC: 0.247614 cumulative IPC: 0.246327 (Simulation time: 2 hr 28 min 18 sec) 
Heartbeat CPU 3 instructions: 950000003 cycles: 921558745 heartbeat IPC: 0.656966 cumulative IPC: 0.800878 (Simulation time: 2 hr 28 min 40 sec) 
Heartbeat CPU 0 instructions: 600000000 cycles: 926270719 heartbeat IPC: 0.422638 cumulative IPC: 0.420548 (Simulation time: 2 hr 29 min 13 sec) 
Heartbeat CPU 2 instructions: 830000001 cycles: 929733529 heartbeat IPC: 0.631895 cumulative IPC: 0.668886 (Simulation time: 2 hr 29 min 38 sec) 
Heartbeat CPU 3 instructions: 960000000 cycles: 938143808 heartbeat IPC: 0.602952 cumulative IPC: 0.796727 (Simulation time: 2 hr 30 min 38 sec) 
Heartbeat CPU 2 instructions: 840000000 cycles: 945406529 heartbeat IPC: 0.63804 cumulative IPC: 0.66828 (Simulation time: 2 hr 31 min 30 sec) 
Heartbeat CPU 0 instructions: 610000000 cycles: 950119271 heartbeat IPC: 0.419313 cumulative IPC: 0.420512 (Simulation time: 2 hr 32 min 4 sec) 
Heartbeat CPU 3 instructions: 970000003 cycles: 954155507 heartbeat IPC: 0.624544 cumulative IPC: 0.793311 (Simulation time: 2 hr 32 min 33 sec) 
Heartbeat CPU 1 instructions: 400000000 cycles: 959443181 heartbeat IPC: 0.244451 cumulative IPC: 0.246233 (Simulation time: 2 hr 33 min 11 sec) 
Heartbeat CPU 2 instructions: 850000000 cycles: 961216749 heartbeat IPC: 0.632502 cumulative IPC: 0.667585 (Simulation time: 2 hr 33 min 24 sec) 
Heartbeat CPU 3 instructions: 980000000 cycles: 969826631 heartbeat IPC: 0.638116 cumulative IPC: 0.790354 (Simulation time: 2 hr 34 min 26 sec) 
Heartbeat CPU 0 instructions: 620000000 cycles: 973661068 heartbeat IPC: 0.424776 cumulative IPC: 0.420633 (Simulation time: 2 hr 34 min 54 sec) 
Heartbeat CPU 2 instructions: 860000000 cycles: 977310996 heartbeat IPC: 0.62134 cumulative IPC: 0.666689 (Simulation time: 2 hr 35 min 20 sec) 
Heartbeat CPU 3 instructions: 990000002 cycles: 985342077 heartbeat IPC: 0.644519 cumulative IPC: 0.787655 (Simulation time: 2 hr 36 min 18 sec) 
Heartbeat CPU 2 instructions: 870000001 cycles: 993379446 heartbeat IPC: 0.622338 cumulative IPC: 0.665847 (Simulation time: 2 hr 37 min 15 sec) 
Heartbeat CPU 0 instructions: 630000003 cycles: 997411968 heartbeat IPC: 0.421037 cumulative IPC: 0.420644 (Simulation time: 2 hr 37 min 44 sec) 
Heartbeat CPU 1 instructions: 410000000 cycles: 1000192830 heartbeat IPC: 0.245401 cumulative IPC: 0.246193 (Simulation time: 2 hr 38 min 4 sec) 
Heartbeat CPU 3 instructions: 1000000000 cycles: 1001557511 heartbeat IPC: 0.616696 cumulative IPC: 0.78441 (Simulation time: 2 hr 38 min 14 sec) 
Heartbeat CPU 2 instructions: 880000000 cycles: 1009625868 heartbeat IPC: 0.61552 cumulative IPC: 0.664898 (Simulation time: 2 hr 39 min 11 sec) 
Heartbeat CPU 3 instructions: 1010000000 cycles: 1017679716 heartbeat IPC: 0.620263 cumulative IPC: 0.78137 (Simulation time: 2 hr 40 min 10 sec) 
Heartbeat CPU 0 instructions: 640000000 cycles: 1021297251 heartbeat IPC: 0.418668 cumulative IPC: 0.42059 (Simulation time: 2 hr 40 min 36 sec) 
Heartbeat CPU 2 instructions: 890000003 cycles: 1025317806 heartbeat IPC: 0.63727 cumulative IPC: 0.664405 (Simulation time: 2 hr 41 min 5 sec) 
Heartbeat CPU 3 instructions: 1020000000 cycles: 1033687214 heartbeat IPC: 0.624707 cumulative IPC: 0.778541 (Simulation time: 2 hr 42 min 6 sec) 
Heartbeat CPU 1 instructions: 420000000 cycles: 1040856723 heartbeat IPC: 0.245918 cumulative IPC: 0.246181 (Simulation time: 2 hr 42 min 57 sec) 
Heartbeat CPU 2 instructions: 900000000 cycles: 1041262003 heartbeat IPC: 0.627187 cumulative IPC: 0.663741 (Simulation time: 2 hr 43 min 0 sec) 
Heartbeat CPU 0 instructions: 650000000 cycles: 1044833079 heartbeat IPC: 0.424884 cumulative IPC: 0.420703 (Simulation time: 2 hr 43 min 25 sec) 
Heartbeat CPU 3 instructions: 1030000000 cycles: 1049843557 heartbeat IPC: 0.618952 cumulative IPC: 0.775684 (Simulation time: 2 hr 44 min 1 sec) 
Heartbeat CPU 2 instructions: 910000001 cycles: 1057143838 heartbeat IPC: 0.62965 cumulative IPC: 0.663146 (Simulation time: 2 hr 44 min 53 sec) 
Heartbeat CPU 3 instructions: 1040000000 cycles: 1066076822 heartbeat IPC: 0.616019 cumulative IPC: 0.772864 (Simulation time: 2 hr 45 min 57 sec) 
Heartbeat CPU 0 instructions: 660000000 cycles: 1068596480 heartbeat IPC: 0.420815 cumulative IPC: 0.420706 (Simulation time: 2 hr 46 min 15 sec) 
Heartbeat CPU 2 instructions: 920000000 cycles: 1072597178 heartbeat IPC: 0.647109 cumulative IPC: 0.662878 (Simulation time: 2 hr 46 min 44 sec) 
Heartbeat CPU 1 instructions: 430000000 cycles: 1081817332 heartbeat IPC: 0.244137 cumulative IPC: 0.246091 (Simulation time: 2 hr 47 min 50 sec) 
Heartbeat CPU 3 instructions: 1050000002 cycles: 1082034685 heartbeat IPC: 0.62665 cumulative IPC: 0.770368 (Simulation time: 2 hr 47 min 52 sec) 
Heartbeat CPU 2 instructions: 930000001 cycles: 1088303947 heartbeat IPC: 0.636668 cumulative IPC: 0.662441 (Simulation time: 2 hr 48 min 37 sec) 
Heartbeat CPU 0 instructions: 670000000 cycles: 1092427636 heartbeat IPC: 0.419619 cumulative IPC: 0.420678 (Simulation time: 2 hr 49 min 6 sec) 
Heartbeat CPU 3 instructions: 1060000000 cycles: 1097822339 heartbeat IPC: 0.633406 cumulative IPC: 0.768093 (Simulation time: 2 hr 49 min 45 sec) 
Heartbeat CPU 2 instructions: 940000000 cycles: 1104204460 heartbeat IPC: 0.62891 cumulative IPC: 0.661884 (Simulation time: 2 hr 50 min 31 sec) 
Heartbeat CPU 3 instructions: 1070000000 cycles: 1113605276 heartbeat IPC: 0.633596 cumulative IPC: 0.765897 (Simulation time: 2 hr 51 min 39 sec) 
Heartbeat CPU 0 instructions: 680000000 cycles: 1116134671 heartbeat IPC: 0.421816 cumulative IPC: 0.420706 (Simulation time: 2 hr 51 min 58 sec) 
Heartbeat CPU 2 instructions: 950000000 cycles: 1119445700 heartbeat IPC: 0.656115 cumulative IPC: 0.661793 (Simulation time: 2 hr 52 min 21 sec) 
Heartbeat CPU 1 instructions: 440000000 cycles: 1122457546 heartbeat IPC: 0.246062 cumulative IPC: 0.24609 (Simulation time: 2 hr 52 min 43 sec) 
Heartbeat CPU 3 instructions: 1080000000 cycles: 1129671903 heartbeat IPC: 0.622408 cumulative IPC: 0.76355 (Simulation time: 2 hr 53 min 35 sec) 
Heartbeat CPU 2 instructions: 960000000 cycles: 1134859031 heartbeat IPC: 0.648789 cumulative IPC: 0.66159 (Simulation time: 2 hr 54 min 13 sec) 
Heartbeat CPU 0 instructions: 690000003 cycles: 1139940886 heartbeat IPC: 0.420058 cumulative IPC: 0.420691 (Simulation time: 2 hr 54 min 49 sec) 
Heartbeat CPU 3 instructions: 1090000003 cycles: 1145411618 heartbeat IPC: 0.635336 cumulative IPC: 0.761528 (Simulation time: 2 hr 55 min 28 sec) 
Heartbeat CPU 2 instructions: 970000001 cycles: 1150432790 heartbeat IPC: 0.642106 cumulative IPC: 0.661288 (Simulation time: 2 hr 56 min 4 sec) 
Heartbeat CPU 3 instructions: 1100000000 cycles: 1161603034 heartbeat IPC: 0.617611 cumulative IPC: 0.759231 (Simulation time: 2 hr 57 min 24 sec) 
Heartbeat CPU 1 instructions: 450000002 cycles: 1163358282 heartbeat IPC: 0.244494 cumulative IPC: 0.246026 (Simulation time: 2 hr 57 min 37 sec) 
Heartbeat CPU 0 instructions: 700000000 cycles: 1163851425 heartbeat IPC: 0.418225 cumulative IPC: 0.420633 (Simulation time: 2 hr 57 min 40 sec) 
Heartbeat CPU 2 instructions: 980000000 cycles: 1166092710 heartbeat IPC: 0.638573 cumulative IPC: 0.660939 (Simulation time: 2 hr 57 min 57 sec) 
Heartbeat CPU 3 instructions: 1110000001 cycles: 1177666865 heartbeat IPC: 0.622517 cumulative IPC: 0.7571 (Simulation time: 2 hr 59 min 20 sec) 
Heartbeat CPU 2 instructions: 990000000 cycles: 1181645756 heartbeat IPC: 0.642961 cumulative IPC: 0.660668 (Simulation time: 2 hr 59 min 49 sec) 
Heartbeat CPU 0 instructions: 710000000 cycles: 1187492834 heartbeat IPC: 0.422987 cumulative IPC: 0.420686 (Simulation time: 3 hr 0 min 32 sec) 
Heartbeat CPU 3 instructions: 1120000000 cycles: 1193478028 heartbeat IPC: 0.632464 cumulative IPC: 0.755216 (Simulation time: 3 hr 1 min 16 sec) 
Heartbeat CPU 2 instructions: 1000000000 cycles: 1196715702 heartbeat IPC: 0.663572 cumulative IPC: 0.66071 (Simulation time: 3 hr 1 min 39 sec) 
Heartbeat CPU 1 instructions: 460000000 cycles: 1203615768 heartbeat IPC: 0.248401 cumulative IPC: 0.246116 (Simulation time: 3 hr 2 min 28 sec) 
Heartbeat CPU 3 instructions: 1130000002 cycles: 1209818418 heartbeat IPC: 0.611981 cumulative IPC: 0.753014 (Simulation time: 3 hr 3 min 13 sec) 
Heartbeat CPU 0 instructions: 720000000 cycles: 1211251089 heartbeat IPC: 0.420906 cumulative IPC: 0.420691 (Simulation time: 3 hr 3 min 23 sec) 
Heartbeat CPU 2 instructions: 1010000001 cycles: 1211876020 heartbeat IPC: 0.659617 cumulative IPC: 0.660695 (Simulation time: 3 hr 3 min 28 sec) 
Heartbeat CPU 3 instructions: 1140000000 cycles: 1225801262 heartbeat IPC: 0.625671 cumulative IPC: 0.751127 (Simulation time: 3 hr 5 min 8 sec) 
Heartbeat CPU 2 instructions: 1020000000 cycles: 1227640961 heartbeat IPC: 0.634319 cumulative IPC: 0.66031 (Simulation time: 3 hr 5 min 21 sec) 
Heartbeat CPU 0 instructions: 730000003 cycles: 1235057638 heartbeat IPC: 0.420053 cumulative IPC: 0.420677 (Simulation time: 3 hr 6 min 13 sec) 
Heartbeat CPU 3 instructions: 1150000001 cycles: 1241623425 heartbeat IPC: 0.632025 cumulative IPC: 0.749405 (Simulation time: 3 hr 7 min 1 sec) 
Heartbeat CPU 2 instructions: 1030000003 cycles: 1243265691 heartbeat IPC: 0.640011 cumulative IPC: 0.66002 (Simulation time: 3 hr 7 min 12 sec) 
Heartbeat CPU 1 instructions: 470000001 cycles: 1244353772 heartbeat IPC: 0.245471 cumulative IPC: 0.246092 (Simulation time: 3 hr 7 min 20 sec) 
Heartbeat CPU 3 instructions: 1160000000 cycles: 1257505778 heartbeat IPC: 0.62963 cumulative IPC: 0.747692 (Simulation time: 3 hr 8 min 57 sec) 
Heartbeat CPU 2 instructions: 1040000000 cycles: 1258542486 heartbeat IPC: 0.654587 cumulative IPC: 0.659946 (Simulation time: 3 hr 9 min 4 sec) 
Heartbeat CPU 0 instructions: 740000000 cycles: 1258637512 heartbeat IPC: 0.42409 cumulative IPC: 0.42075 (Simulation time: 3 hr 9 min 5 sec) 
Heartbeat CPU 3 instructions: 1170000001 cycles: 1273565525 heartbeat IPC: 0.622675 cumulative IPC: 0.745909 (Simulation time: 3 hr 10 min 52 sec) 
Heartbeat CPU 2 instructions: 1050000002 cycles: 1274368864 heartbeat IPC: 0.631857 cumulative IPC: 0.659551 (Simulation time: 3 hr 10 min 58 sec) 
Heartbeat CPU 0 instructions: 750000002 cycles: 1282630803 heartbeat IPC: 0.416783 cumulative IPC: 0.420666 (Simulation time: 3 hr 11 min 56 sec) 
Heartbeat CPU 1 instructions: 480000000 cycles: 1284973805 heartbeat IPC: 0.246184 cumulative IPC: 0.246095 (Simulation time: 3 hr 12 min 12 sec) 
Heartbeat CPU 2 instructions: 1060000000 cycles: 1289523484 heartbeat IPC: 0.659865 cumulative IPC: 0.659555 (Simulation time: 3 hr 12 min 42 sec) 
Heartbeat CPU 3 instructions: 1180000000 cycles: 1290141796 heartbeat IPC: 0.603272 cumulative IPC: 0.74384 (Simulation time: 3 hr 12 min 46 sec) 
Heartbeat CPU 2 instructions: 1070000000 cycles: 1304657179 heartbeat IPC: 0.660777 cumulative IPC: 0.659571 (Simulation time: 3 hr 14 min 20 sec) 
Heartbeat CPU 3 instructions: 1190000003 cycles: 1306314146 heartbeat IPC: 0.61834 cumulative IPC: 0.742089 (Simulation time: 3 hr 14 min 30 sec) 
Heartbeat CPU 0 instructions: 760000000 cycles: 1309820910 heartbeat IPC: 0.367781 cumulative IPC: 0.419429 (Simulation time: 3 hr 14 min 53 sec) 
Heartbeat CPU 2 instructions: 1080000000 cycles: 1319776645 heartbeat IPC: 0.661399 cumulative IPC: 0.659595 (Simulation time: 3 hr 15 min 57 sec) 
Heartbeat CPU 3 instructions: 1200000000 cycles: 1322902732 heartbeat IPC: 0.602824 cumulative IPC: 0.740124 (Simulation time: 3 hr 16 min 19 sec) 
Heartbeat CPU 1 instructions: 490000002 cycles: 1325930439 heartbeat IPC: 0.244161 cumulative IPC: 0.246028 (Simulation time: 3 hr 16 min 41 sec) 
Heartbeat CPU 0 instructions: 770000000 cycles: 1334701394 heartbeat IPC: 0.401921 cumulative IPC: 0.419062 (Simulation time: 3 hr 17 min 45 sec) 
Heartbeat CPU 2 instructions: 1090000000 cycles: 1335673903 heartbeat IPC: 0.629039 cumulative IPC: 0.659186 (Simulation time: 3 hr 17 min 52 sec) 
Heartbeat CPU 3 instructions: 1210000000 cycles: 1338730936 heartbeat IPC: 0.631784 cumulative IPC: 0.738685 (Simulation time: 3 hr 18 min 14 sec) 
Heartbeat CPU 2 instructions: 1100000000 cycles: 1351084428 heartbeat IPC: 0.648907 cumulative IPC: 0.659055 (Simulation time: 3 hr 19 min 43 sec) 
Heartbeat CPU 3 instructions: 1220000000 cycles: 1354777688 heartbeat IPC: 0.623179 cumulative IPC: 0.73715 (Simulation time: 3 hr 20 min 12 sec) 
Heartbeat CPU 0 instructions: 780000000 cycles: 1358407899 heartbeat IPC: 0.421825 cumulative IPC: 0.419116 (Simulation time: 3 hr 20 min 38 sec) 
Heartbeat CPU 2 instructions: 1110000000 cycles: 1366173732 heartbeat IPC: 0.662721 cumulative IPC: 0.6591 (Simulation time: 3 hr 21 min 35 sec) 
Heartbeat CPU 1 instructions: 500000000 cycles: 1366449555 heartbeat IPC: 0.246797 cumulative IPC: 0.246054 (Simulation time: 3 hr 21 min 37 sec) 
Heartbeat CPU 3 instructions: 1230000002 cycles: 1370487025 heartbeat IPC: 0.636564 cumulative IPC: 0.735859 (Simulation time: 3 hr 22 min 6 sec) 
Heartbeat CPU 2 instructions: 1120000000 cycles: 1381081286 heartbeat IPC: 0.670801 cumulative IPC: 0.659241 (Simulation time: 3 hr 23 min 22 sec) 
Heartbeat CPU 0 instructions: 790000002 cycles: 1382238038 heartbeat IPC: 0.419637 cumulative IPC: 0.419126 (Simulation time: 3 hr 23 min 31 sec) 
Heartbeat CPU 3 instructions: 1240000000 cycles: 1386841477 heartbeat IPC: 0.611454 cumulative IPC: 0.734217 (Simulation time: 3 hr 24 min 4 sec) 
Heartbeat CPU 2 instructions: 1130000000 cycles: 1396146698 heartbeat IPC: 0.663772 cumulative IPC: 0.659296 (Simulation time: 3 hr 25 min 10 sec) 
Heartbeat CPU 3 instructions: 1250000000 cycles: 1403627579 heartbeat IPC: 0.595731 cumulative IPC: 0.732367 (Simulation time: 3 hr 26 min 4 sec) 
Heartbeat CPU 0 instructions: 800000000 cycles: 1406089528 heartbeat IPC: 0.419261 cumulative IPC: 0.419129 (Simulation time: 3 hr 26 min 23 sec) 
Heartbeat CPU 1 instructions: 510000002 cycles: 1407132786 heartbeat IPC: 0.245802 cumulative IPC: 0.246046 (Simulation time: 3 hr 26 min 30 sec) 
Heartbeat CPU 2 instructions: 1140000000 cycles: 1411556388 heartbeat IPC: 0.648942 cumulative IPC: 0.65917 (Simulation time: 3 hr 27 min 3 sec) 
Heartbeat CPU 3 instructions: 1260000000 cycles: 1419270927 heartbeat IPC: 0.639249 cumulative IPC: 0.731222 (Simulation time: 3 hr 27 min 59 sec) 
Heartbeat CPU 2 instructions: 1150000001 cycles: 1426581085 heartbeat IPC: 0.665571 cumulative IPC: 0.659245 (Simulation time: 3 hr 28 min 53 sec) 
Heartbeat CPU 0 instructions: 810000000 cycles: 1429703278 heartbeat IPC: 0.423482 cumulative IPC: 0.419209 (Simulation time: 3 hr 29 min 15 sec) 
Heartbeat CPU 3 instructions: 1270000000 cycles: 1435411925 heartbeat IPC: 0.61954 cumulative IPC: 0.729823 (Simulation time: 3 hr 29 min 56 sec) 
Heartbeat CPU 2 instructions: 1160000000 cycles: 1441249487 heartbeat IPC: 0.681737 cumulative IPC: 0.6595 (Simulation time: 3 hr 30 min 39 sec) 
Heartbeat CPU 1 instructions: 520000000 cycles: 1447649388 heartbeat IPC: 0.246812 cumulative IPC: 0.246069 (Simulation time: 3 hr 31 min 25 sec) 
Heartbeat CPU 3 instructions: 1280000000 cycles: 1450674719 heartbeat IPC: 0.655188 cumulative IPC: 0.728949 (Simulation time: 3 hr 31 min 48 sec) 
Heartbeat CPU 0 instructions: 820000000 cycles: 1453659206 heartbeat IPC: 0.417433 cumulative IPC: 0.419176 (Simulation time: 3 hr 32 min 9 sec) 
Heartbeat CPU 2 instructions: 1170000000 cycles: 1456263992 heartbeat IPC: 0.666023 cumulative IPC: 0.659575 (Simulation time: 3 hr 32 min 28 sec) 
Heartbeat CPU 3 instructions: 1290000001 cycles: 1466895324 heartbeat IPC: 0.6165 cumulative IPC: 0.727567 (Simulation time: 3 hr 33 min 45 sec) 
Heartbeat CPU 2 instructions: 1180000000 cycles: 1470942686 heartbeat IPC: 0.68126 cumulative IPC: 0.659815 (Simulation time: 3 hr 34 min 14 sec) 
Heartbeat CPU 0 instructions: 830000000 cycles: 1477305271 heartbeat IPC: 0.422903 cumulative IPC: 0.419243 (Simulation time: 3 hr 35 min 1 sec) 
Heartbeat CPU 3 instructions: 1300000000 cycles: 1483291585 heartbeat IPC: 0.609895 cumulative IPC: 0.726123 (Simulation time: 3 hr 35 min 44 sec) 
Heartbeat CPU 2 instructions: 1190000000 cycles: 1486040659 heartbeat IPC: 0.662341 cumulative IPC: 0.659844 (Simulation time: 3 hr 36 min 3 sec) 
Heartbeat CPU 1 instructions: 530000000 cycles: 1488361321 heartbeat IPC: 0.245628 cumulative IPC: 0.246056 (Simulation time: 3 hr 36 min 20 sec) 
Heartbeat CPU 3 instructions: 1310000001 cycles: 1498832787 heartbeat IPC: 0.643451 cumulative IPC: 0.725172 (Simulation time: 3 hr 37 min 37 sec) 
Heartbeat CPU 0 instructions: 840000000 cycles: 1501009541 heartbeat IPC: 0.421865 cumulative IPC: 0.419289 (Simulation time: 3 hr 37 min 53 sec) 
Heartbeat CPU 2 instructions: 1200000000 cycles: 1501397181 heartbeat IPC: 0.651189 cumulative IPC: 0.659746 (Simulation time: 3 hr 37 min 56 sec) 
Heartbeat CPU 3 instructions: 1320000000 cycles: 1514756241 heartbeat IPC: 0.628004 cumulative IPC: 0.724041 (Simulation time: 3 hr 39 min 32 sec) 
Heartbeat CPU 2 instructions: 1210000001 cycles: 1516704015 heartbeat IPC: 0.653303 cumulative IPC: 0.659674 (Simulation time: 3 hr 39 min 46 sec) 
Heartbeat CPU 0 instructions: 850000002 cycles: 1524773570 heartbeat IPC: 0.420804 cumulative IPC: 0.419315 (Simulation time: 3 hr 40 min 45 sec) 
Heartbeat CPU 1 instructions: 540000000 cycles: 1528611653 heartbeat IPC: 0.248445 cumulative IPC: 0.246126 (Simulation time: 3 hr 41 min 13 sec) 
Finished CPU 3 instructions: 1000000002 cycles: 1383700382 cumulative IPC: 0.7227 (Simulation time: 3 hr 41 min 30 sec) 
Heartbeat CPU 3 instructions: 1330000003 cycles: 1531173334 heartbeat IPC: 0.609121 cumulative IPC: 0.722677 (Simulation time: 3 hr 41 min 32 sec) 
Heartbeat CPU 2 instructions: 1220000000 cycles: 1531292810 heartbeat IPC: 0.685458 cumulative IPC: 0.659945 (Simulation time: 3 hr 41 min 33 sec) 
Heartbeat CPU 2 instructions: 1230000001 cycles: 1546412545 heartbeat IPC: 0.661387 cumulative IPC: 0.659961 (Simulation time: 3 hr 43 min 23 sec) 
Heartbeat CPU 3 instructions: 1340000000 cycles: 1547152358 heartbeat IPC: 0.62582 cumulative IPC: 0.721572 (Simulation time: 3 hr 43 min 28 sec) 
Heartbeat CPU 0 instructions: 860000000 cycles: 1548341828 heartbeat IPC: 0.424299 cumulative IPC: 0.419399 (Simulation time: 3 hr 43 min 37 sec) 
Heartbeat CPU 2 instructions: 1240000000 cycles: 1561421026 heartbeat IPC: 0.66629 cumulative IPC: 0.660028 (Simulation time: 3 hr 45 min 11 sec) 
Heartbeat CPU 3 instructions: 1350000001 cycles: 1563423236 heartbeat IPC: 0.614595 cumulative IPC: 0.720343 (Simulation time: 3 hr 45 min 26 sec) 
Heartbeat CPU 1 instructions: 550000001 cycles: 1569602034 heartbeat IPC: 0.24396 cumulative IPC: 0.246063 (Simulation time: 3 hr 46 min 12 sec) 
Heartbeat CPU 0 instructions: 870000002 cycles: 1572172628 heartbeat IPC: 0.419625 cumulative IPC: 0.419402 (Simulation time: 3 hr 46 min 30 sec) 
Heartbeat CPU 2 instructions: 1250000000 cycles: 1576418603 heartbeat IPC: 0.666774 cumulative IPC: 0.660099 (Simulation time: 3 hr 47 min 1 sec) 
Heartbeat CPU 3 instructions: 1360000000 cycles: 1579072348 heartbeat IPC: 0.639014 cumulative IPC: 0.719454 (Simulation time: 3 hr 47 min 20 sec) 
Heartbeat CPU 2 instructions: 1260000000 cycles: 1591878669 heartbeat IPC: 0.646828 cumulative IPC: 0.659957 (Simulation time: 3 hr 48 min 52 sec) 
Heartbeat CPU 3 instructions: 1370000000 cycles: 1594546288 heartbeat IPC: 0.646248 cumulative IPC: 0.718671 (Simulation time: 3 hr 49 min 11 sec) 
Heartbeat CPU 0 instructions: 880000000 cycles: 1596027857 heartbeat IPC: 0.419195 cumulative IPC: 0.419399 (Simulation time: 3 hr 49 min 22 sec) 
Heartbeat CPU 2 instructions: 1270000000 cycles: 1607473132 heartbeat IPC: 0.641253 cumulative IPC: 0.659757 (Simulation time: 3 hr 50 min 44 sec) 
Heartbeat CPU 1 instructions: 560000000 cycles: 1610671280 heartbeat IPC: 0.243491 cumulative IPC: 0.245991 (Simulation time: 3 hr 51 min 7 sec) 
Heartbeat CPU 3 instructions: 1380000000 cycles: 1610890551 heartbeat IPC: 0.611835 cumulative IPC: 0.717478 (Simulation time: 3 hr 51 min 9 sec) 
Heartbeat CPU 0 instructions: 890000000 cycles: 1619654975 heartbeat IPC: 0.423242 cumulative IPC: 0.419461 (Simulation time: 3 hr 52 min 13 sec) 
Heartbeat CPU 2 instructions: 1280000000 cycles: 1622856652 heartbeat IPC: 0.650046 cumulative IPC: 0.659656 (Simulation time: 3 hr 52 min 36 sec) 
Heartbeat CPU 3 instructions: 1390000001 cycles: 1627142479 heartbeat IPC: 0.615312 cumulative IPC: 0.716356 (Simulation time: 3 hr 53 min 7 sec) 
Heartbeat CPU 2 instructions: 1290000001 cycles: 1638304849 heartbeat IPC: 0.647325 cumulative IPC: 0.659528 (Simulation time: 3 hr 54 min 26 sec) 
Heartbeat CPU 0 instructions: 900000000 cycles: 1643447918 heartbeat IPC: 0.420293 cumulative IPC: 0.419474 (Simulation time: 3 hr 55 min 3 sec) 
Heartbeat CPU 3 instructions: 1400000000 cycles: 1643515986 heartbeat IPC: 0.610743 cumulative IPC: 0.715201 (Simulation time: 3 hr 55 min 4 sec) 
Heartbeat CPU 1 instructions: 570000001 cycles: 1651146463 heartbeat IPC: 0.247065 cumulative IPC: 0.24602 (Simulation time: 3 hr 55 min 58 sec) 
Heartbeat CPU 2 instructions: 1300000000 cycles: 1653810485 heartbeat IPC: 0.644927 cumulative IPC: 0.659378 (Simulation time: 3 hr 56 min 17 sec) 
Heartbeat CPU 3 instructions: 1410000003 cycles: 1658830735 heartbeat IPC: 0.652966 cumulative IPC: 0.71457 (Simulation time: 3 hr 56 min 55 sec) 
Finished CPU 2 instructions: 1000000000 cycles: 1516535236 cumulative IPC: 0.659398 (Simulation time: 3 hr 57 min 31 sec) 
Heartbeat CPU 0 instructions: 910000002 cycles: 1667070873 heartbeat IPC: 0.423317 cumulative IPC: 0.419534 (Simulation time: 3 hr 57 min 55 sec) 
Heartbeat CPU 2 instructions: 1310000000 cycles: 1668872974 heartbeat IPC: 0.663901 cumulative IPC: 0.659423 (Simulation time: 3 hr 58 min 8 sec) 
Heartbeat CPU 3 instructions: 1420000000 cycles: 1675668468 heartbeat IPC: 0.593904 cumulative IPC: 0.713241 (Simulation time: 3 hr 58 min 56 sec) 
Heartbeat CPU 2 instructions: 1320000000 cycles: 1683698571 heartbeat IPC: 0.674509 cumulative IPC: 0.659568 (Simulation time: 4 hr 0 min 13 sec) 
Heartbeat CPU 0 instructions: 920000000 cycles: 1690722903 heartbeat IPC: 0.422797 cumulative IPC: 0.419584 (Simulation time: 4 hr 1 min 59 sec) 
Heartbeat CPU 1 instructions: 580000000 cycles: 1691491670 heartbeat IPC: 0.247861 cumulative IPC: 0.246068 (Simulation time: 4 hr 2 min 11 sec) 
Heartbeat CPU 3 instructions: 1430000001 cycles: 1692558202 heartbeat IPC: 0.592076 cumulative IPC: 0.711917 (Simulation time: 4 hr 2 min 27 sec) 
Heartbeat CPU 2 instructions: 1330000000 cycles: 1698752494 heartbeat IPC: 0.664279 cumulative IPC: 0.659614 (Simulation time: 4 hr 3 min 59 sec) 
Heartbeat CPU 3 instructions: 1440000000 cycles: 1709586602 heartbeat IPC: 0.587254 cumulative IPC: 0.710558 (Simulation time: 4 hr 6 min 43 sec) 
Heartbeat CPU 2 instructions: 1340000000 cycles: 1713588926 heartbeat IPC: 0.674016 cumulative IPC: 0.65975 (Simulation time: 4 hr 7 min 43 sec) 
Heartbeat CPU 0 instructions: 930000000 cycles: 1714516800 heartbeat IPC: 0.420276 cumulative IPC: 0.419594 (Simulation time: 4 hr 7 min 57 sec) 
Heartbeat CPU 3 instructions: 1450000001 cycles: 1726058986 heartbeat IPC: 0.607077 cumulative IPC: 0.709478 (Simulation time: 4 hr 10 min 1 sec) 
Heartbeat CPU 2 instructions: 1350000000 cycles: 1728467667 heartbeat IPC: 0.6721 cumulative IPC: 0.659867 (Simulation time: 4 hr 10 min 19 sec) 
Heartbeat CPU 1 instructions: 590000001 cycles: 1732410089 heartbeat IPC: 0.244389 cumulative IPC: 0.246025 (Simulation time: 4 hr 10 min 47 sec) 
Heartbeat CPU 0 instructions: 940000000 cycles: 1738277458 heartbeat IPC: 0.420864 cumulative IPC: 0.419613 (Simulation time: 4 hr 11 min 29 sec) 
Heartbeat CPU 3 instructions: 1460000000 cycles: 1742989664 heartbeat IPC: 0.590644 cumulative IPC: 0.708218 (Simulation time: 4 hr 12 min 3 sec) 
Heartbeat CPU 2 instructions: 1360000000 cycles: 1743549872 heartbeat IPC: 0.663033 cumulative IPC: 0.659896 (Simulation time: 4 hr 12 min 7 sec) 
Heartbeat CPU 2 instructions: 1370000001 cycles: 1758446447 heartbeat IPC: 0.671295 cumulative IPC: 0.660002 (Simulation time: 4 hr 13 min 54 sec) 
Heartbeat CPU 3 instructions: 1470000000 cycles: 1759414921 heartbeat IPC: 0.608818 cumulative IPC: 0.707205 (Simulation time: 4 hr 14 min 1 sec) 
Heartbeat CPU 0 instructions: 950000001 cycles: 1761874868 heartbeat IPC: 0.423775 cumulative IPC: 0.419674 (Simulation time: 4 hr 14 min 19 sec) 
Heartbeat CPU 1 instructions: 600000000 cycles: 1772937668 heartbeat IPC: 0.246746 cumulative IPC: 0.246043 (Simulation time: 4 hr 15 min 38 sec) 
Heartbeat CPU 2 instructions: 1380000000 cycles: 1773238126 heartbeat IPC: 0.676056 cumulative IPC: 0.660148 (Simulation time: 4 hr 15 min 40 sec) 
Heartbeat CPU 3 instructions: 1480000000 cycles: 1775983399 heartbeat IPC: 0.603556 cumulative IPC: 0.706151 (Simulation time: 4 hr 16 min 0 sec) 
Heartbeat CPU 0 instructions: 960000000 cycles: 1785712489 heartbeat IPC: 0.419505 cumulative IPC: 0.419671 (Simulation time: 4 hr 17 min 9 sec) 
Heartbeat CPU 2 instructions: 1390000000 cycles: 1788339888 heartbeat IPC: 0.662174 cumulative IPC: 0.660167 (Simulation time: 4 hr 17 min 28 sec) 
Heartbeat CPU 3 instructions: 1490000003 cycles: 1792711484 heartbeat IPC: 0.597797 cumulative IPC: 0.705049 (Simulation time: 4 hr 17 min 59 sec) 
Heartbeat CPU 2 instructions: 1400000000 cycles: 1803412859 heartbeat IPC: 0.663439 cumulative IPC: 0.660196 (Simulation time: 4 hr 19 min 15 sec) 
Heartbeat CPU 0 instructions: 970000000 cycles: 1809366050 heartbeat IPC: 0.422769 cumulative IPC: 0.419715 (Simulation time: 4 hr 19 min 58 sec) 
Heartbeat CPU 3 instructions: 1500000000 cycles: 1809547871 heartbeat IPC: 0.593951 cumulative IPC: 0.703924 (Simulation time: 4 hr 19 min 59 sec) 
Heartbeat CPU 1 instructions: 610000003 cycles: 1813744989 heartbeat IPC: 0.245054 cumulative IPC: 0.246019 (Simulation time: 4 hr 20 min 30 sec) 
Heartbeat CPU 2 instructions: 1410000003 cycles: 1818327881 heartbeat IPC: 0.670465 cumulative IPC: 0.660288 (Simulation time: 4 hr 21 min 3 sec) 
Heartbeat CPU 3 instructions: 1510000001 cycles: 1826070581 heartbeat IPC: 0.605228 cumulative IPC: 0.702952 (Simulation time: 4 hr 22 min 2 sec) 
Heartbeat CPU 0 instructions: 980000000 cycles: 1833010170 heartbeat IPC: 0.422938 cumulative IPC: 0.419761 (Simulation time: 4 hr 22 min 53 sec) 
Heartbeat CPU 2 instructions: 1420000000 cycles: 1833286049 heartbeat IPC: 0.668531 cumulative IPC: 0.660361 (Simulation time: 4 hr 22 min 55 sec) 
Heartbeat CPU 3 instructions: 1520000000 cycles: 1842627421 heartbeat IPC: 0.60398 cumulative IPC: 0.701986 (Simulation time: 4 hr 24 min 3 sec) 
Heartbeat CPU 2 instructions: 1430000001 cycles: 1848000748 heartbeat IPC: 0.679593 cumulative IPC: 0.660527 (Simulation time: 4 hr 24 min 41 sec) 
Heartbeat CPU 1 instructions: 620000000 cycles: 1855035882 heartbeat IPC: 0.242184 cumulative IPC: 0.245926 (Simulation time: 4 hr 25 min 31 sec) 
Heartbeat CPU 0 instructions: 990000001 cycles: 1856801793 heartbeat IPC: 0.420316 cumulative IPC: 0.419768 (Simulation time: 4 hr 25 min 44 sec) 
Heartbeat CPU 3 instructions: 1530000002 cycles: 1859078482 heartbeat IPC: 0.607864 cumulative IPC: 0.701081 (Simulation time: 4 hr 26 min 0 sec) 
Heartbeat CPU 2 instructions: 1440000000 cycles: 1862604986 heartbeat IPC: 0.684733 cumulative IPC: 0.660734 (Simulation time: 4 hr 26 min 25 sec) 
Heartbeat CPU 3 instructions: 1540000000 cycles: 1875990279 heartbeat IPC: 0.591303 cumulative IPC: 0.700007 (Simulation time: 4 hr 28 min 2 sec) 
Heartbeat CPU 2 instructions: 1450000001 cycles: 1877304700 heartbeat IPC: 0.680285 cumulative IPC: 0.6609 (Simulation time: 4 hr 28 min 11 sec) 
Heartbeat CPU 0 instructions: 1000000000 cycles: 1880328012 heartbeat IPC: 0.425058 cumulative IPC: 0.41984 (Simulation time: 4 hr 28 min 33 sec) 
Heartbeat CPU 2 instructions: 1460000000 cycles: 1891688814 heartbeat IPC: 0.695211 cumulative IPC: 0.661183 (Simulation time: 4 hr 29 min 56 sec) 
Heartbeat CPU 3 instructions: 1550000001 cycles: 1892580130 heartbeat IPC: 0.602778 cumulative IPC: 0.699083 (Simulation time: 4 hr 30 min 2 sec) 
Heartbeat CPU 1 instructions: 630000000 cycles: 1895893182 heartbeat IPC: 0.244754 cumulative IPC: 0.245898 (Simulation time: 4 hr 30 min 27 sec) 
Heartbeat CPU 0 instructions: 1010000000 cycles: 1903878851 heartbeat IPC: 0.424613 cumulative IPC: 0.419904 (Simulation time: 4 hr 31 min 50 sec) 
Heartbeat CPU 2 instructions: 1470000001 cycles: 1906023730 heartbeat IPC: 0.697597 cumulative IPC: 0.661479 (Simulation time: 4 hr 32 min 6 sec) 
Heartbeat CPU 3 instructions: 1560000000 cycles: 1909035821 heartbeat IPC: 0.607692 cumulative IPC: 0.69823 (Simulation time: 4 hr 32 min 28 sec) 
Heartbeat CPU 2 instructions: 1480000000 cycles: 1920514740 heartbeat IPC: 0.690083 cumulative IPC: 0.661713 (Simulation time: 4 hr 33 min 51 sec) 
Heartbeat CPU 3 instructions: 1570000003 cycles: 1925577453 heartbeat IPC: 0.604535 cumulative IPC: 0.697358 (Simulation time: 4 hr 34 min 28 sec) 
Heartbeat CPU 0 instructions: 1020000000 cycles: 1927765862 heartbeat IPC: 0.418638 cumulative IPC: 0.419887 (Simulation time: 4 hr 34 min 43 sec) 
Heartbeat CPU 2 instructions: 1490000000 cycles: 1934978535 heartbeat IPC: 0.691381 cumulative IPC: 0.661953 (Simulation time: 4 hr 35 min 36 sec) 
Heartbeat CPU 1 instructions: 640000000 cycles: 1936756918 heartbeat IPC: 0.244716 cumulative IPC: 0.245871 (Simulation time: 4 hr 35 min 48 sec) 
Heartbeat CPU 3 instructions: 1580000000 cycles: 1943321451 heartbeat IPC: 0.563571 cumulative IPC: 0.696037 (Simulation time: 4 hr 36 min 35 sec) 
Heartbeat CPU 2 instructions: 1500000000 cycles: 1949290555 heartbeat IPC: 0.698713 cumulative IPC: 0.662245 (Simulation time: 4 hr 37 min 18 sec) 
Heartbeat CPU 0 instructions: 1030000001 cycles: 1951323493 heartbeat IPC: 0.424491 cumulative IPC: 0.419947 (Simulation time: 4 hr 37 min 32 sec) 
Heartbeat CPU 3 instructions: 1590000003 cycles: 1962038737 heartbeat IPC: 0.534266 cumulative IPC: 0.694368 (Simulation time: 4 hr 38 min 47 sec) 
Heartbeat CPU 2 instructions: 1510000000 cycles: 1963512298 heartbeat IPC: 0.703149 cumulative IPC: 0.662565 (Simulation time: 4 hr 38 min 58 sec) 
Heartbeat CPU 0 instructions: 1040000000 cycles: 1974958375 heartbeat IPC: 0.423103 cumulative IPC: 0.419988 (Simulation time: 4 hr 40 min 18 sec) 
Heartbeat CPU 1 instructions: 650000000 cycles: 1977982176 heartbeat IPC: 0.24257 cumulative IPC: 0.245797 (Simulation time: 4 hr 40 min 39 sec) 
Heartbeat CPU 2 instructions: 1520000000 cycles: 1978078386 heartbeat IPC: 0.686526 cumulative IPC: 0.662756 (Simulation time: 4 hr 40 min 39 sec) 
Heartbeat CPU 3 instructions: 1600000000 cycles: 1981320072 heartbeat IPC: 0.518636 cumulative IPC: 0.692521 (Simulation time: 4 hr 41 min 2 sec) 
Heartbeat CPU 2 instructions: 1530000002 cycles: 1992648317 heartbeat IPC: 0.686345 cumulative IPC: 0.662942 (Simulation time: 4 hr 42 min 24 sec) 
Heartbeat CPU 3 instructions: 1610000000 cycles: 1997540114 heartbeat IPC: 0.616521 cumulative IPC: 0.691855 (Simulation time: 4 hr 43 min 2 sec) 
Heartbeat CPU 0 instructions: 1050000000 cycles: 1998906325 heartbeat IPC: 0.417572 cumulative IPC: 0.419957 (Simulation time: 4 hr 43 min 13 sec) 
Heartbeat CPU 2 instructions: 1540000000 cycles: 2007127324 heartbeat IPC: 0.690655 cumulative IPC: 0.663158 (Simulation time: 4 hr 44 min 19 sec) 
Heartbeat CPU 3 instructions: 1620000000 cycles: 2012157587 heartbeat IPC: 0.684113 cumulative IPC: 0.691794 (Simulation time: 4 hr 44 min 58 sec) 
Heartbeat CPU 1 instructions: 660000000 cycles: 2018710523 heartbeat IPC: 0.245529 cumulative IPC: 0.245791 (Simulation time: 4 hr 45 min 52 sec) 
Heartbeat CPU 2 instructions: 1550000001 cycles: 2021570736 heartbeat IPC: 0.692357 cumulative IPC: 0.663383 (Simulation time: 4 hr 46 min 14 sec) 
Heartbeat CPU 0 instructions: 1060000000 cycles: 2022492443 heartbeat IPC: 0.423978 cumulative IPC: 0.420007 (Simulation time: 4 hr 46 min 22 sec) 
Heartbeat CPU 3 instructions: 1630000001 cycles: 2026700268 heartbeat IPC: 0.687631 cumulative IPC: 0.691762 (Simulation time: 4 hr 46 min 55 sec) 
Heartbeat CPU 2 instructions: 1560000000 cycles: 2036514407 heartbeat IPC: 0.66918 cumulative IPC: 0.663429 (Simulation time: 4 hr 48 min 12 sec) 
Heartbeat CPU 3 instructions: 1640000000 cycles: 2042999070 heartbeat IPC: 0.613542 cumulative IPC: 0.691089 (Simulation time: 4 hr 48 min 57 sec) 
Heartbeat CPU 0 instructions: 1070000002 cycles: 2046175111 heartbeat IPC: 0.42225 cumulative IPC: 0.420035 (Simulation time: 4 hr 49 min 19 sec) 
Heartbeat CPU 2 instructions: 1570000001 cycles: 2051543855 heartbeat IPC: 0.665361 cumulative IPC: 0.663444 (Simulation time: 4 hr 49 min 56 sec) 
Heartbeat CPU 1 instructions: 670000003 cycles: 2059658443 heartbeat IPC: 0.244213 cumulative IPC: 0.245757 (Simulation time: 4 hr 50 min 54 sec) 
Heartbeat CPU 3 instructions: 1650000002 cycles: 2060394561 heartbeat IPC: 0.574862 cumulative IPC: 0.690032 (Simulation time: 4 hr 50 min 59 sec) 
Heartbeat CPU 2 instructions: 1580000000 cycles: 2066602106 heartbeat IPC: 0.664088 cumulative IPC: 0.663449 (Simulation time: 4 hr 51 min 44 sec) 
Heartbeat CPU 0 instructions: 1080000000 cycles: 2070142462 heartbeat IPC: 0.417234 cumulative IPC: 0.420001 (Simulation time: 4 hr 52 min 9 sec) 
Heartbeat CPU 3 instructions: 1660000000 cycles: 2078004878 heartbeat IPC: 0.567849 cumulative IPC: 0.688918 (Simulation time: 4 hr 53 min 4 sec) 
Heartbeat CPU 2 instructions: 1590000002 cycles: 2081499608 heartbeat IPC: 0.671254 cumulative IPC: 0.663509 (Simulation time: 4 hr 53 min 29 sec) 
Heartbeat CPU 0 instructions: 1090000003 cycles: 2093694887 heartbeat IPC: 0.424585 cumulative IPC: 0.420056 (Simulation time: 4 hr 54 min 58 sec) 
Heartbeat CPU 3 instructions: 1670000003 cycles: 2093905054 heartbeat IPC: 0.628924 cumulative IPC: 0.688428 (Simulation time: 4 hr 55 min 0 sec) 
Heartbeat CPU 2 instructions: 1600000000 cycles: 2096088097 heartbeat IPC: 0.685472 cumulative IPC: 0.663674 (Simulation time: 4 hr 55 min 17 sec) 
Heartbeat CPU 1 instructions: 680000000 cycles: 2100279661 heartbeat IPC: 0.246177 cumulative IPC: 0.245766 (Simulation time: 4 hr 55 min 48 sec) 
Heartbeat CPU 3 instructions: 1680000000 cycles: 2109818733 heartbeat IPC: 0.62839 cumulative IPC: 0.687941 (Simulation time: 4 hr 56 min 55 sec) 
Heartbeat CPU 2 instructions: 1610000000 cycles: 2110897590 heartbeat IPC: 0.675243 cumulative IPC: 0.663761 (Simulation time: 4 hr 57 min 3 sec) 
Heartbeat CPU 0 instructions: 1100000000 cycles: 2117390235 heartbeat IPC: 0.422024 cumulative IPC: 0.42008 (Simulation time: 4 hr 57 min 48 sec) 
Heartbeat CPU 2 instructions: 1620000000 cycles: 2125812430 heartbeat IPC: 0.670473 cumulative IPC: 0.663812 (Simulation time: 4 hr 58 min 48 sec) 
Heartbeat CPU 3 instructions: 1690000000 cycles: 2129647403 heartbeat IPC: 0.50432 cumulative IPC: 0.686105 (Simulation time: 4 hr 59 min 15 sec) 
Heartbeat CPU 2 instructions: 1630000002 cycles: 2140305692 heartbeat IPC: 0.689976 cumulative IPC: 0.664002 (Simulation time: 5 hr 0 min 31 sec) 
Heartbeat CPU 0 instructions: 1110000000 cycles: 2141408263 heartbeat IPC: 0.416354 cumulative IPC: 0.420035 (Simulation time: 5 hr 0 min 39 sec) 
Heartbeat CPU 1 instructions: 690000001 cycles: 2141707329 heartbeat IPC: 0.241385 cumulative IPC: 0.245675 (Simulation time: 5 hr 0 min 41 sec) 
Heartbeat CPU 3 instructions: 1700000000 cycles: 2149782026 heartbeat IPC: 0.496657 cumulative IPC: 0.6842 (Simulation time: 5 hr 1 min 39 sec) 
Heartbeat CPU 2 instructions: 1640000000 cycles: 2154812182 heartbeat IPC: 0.689346 cumulative IPC: 0.664185 (Simulation time: 5 hr 2 min 15 sec) 
Heartbeat CPU 0 instructions: 1120000000 cycles: 2165025025 heartbeat IPC: 0.423428 cumulative IPC: 0.420074 (Simulation time: 5 hr 3 min 27 sec) 
Heartbeat CPU 2 instructions: 1650000000 cycles: 2169454673 heartbeat IPC: 0.682944 cumulative IPC: 0.664321 (Simulation time: 5 hr 3 min 59 sec) 
Heartbeat CPU 3 instructions: 1710000003 cycles: 2169787012 heartbeat IPC: 0.499876 cumulative IPC: 0.682377 (Simulation time: 5 hr 4 min 1 sec) 
Heartbeat CPU 1 instructions: 700000000 cycles: 2182959031 heartbeat IPC: 0.242414 cumulative IPC: 0.245609 (Simulation time: 5 hr 5 min 35 sec) 
Heartbeat CPU 2 instructions: 1660000000 cycles: 2184256252 heartbeat IPC: 0.675604 cumulative IPC: 0.664403 (Simulation time: 5 hr 5 min 44 sec) 
Heartbeat CPU 0 instructions: 1130000000 cycles: 2188850015 heartbeat IPC: 0.419727 cumulative IPC: 0.42007 (Simulation time: 5 hr 6 min 16 sec) 
Heartbeat CPU 3 instructions: 1720000000 cycles: 2189944621 heartbeat IPC: 0.49609 cumulative IPC: 0.680538 (Simulation time: 5 hr 6 min 24 sec) 
Heartbeat CPU 2 instructions: 1670000001 cycles: 2199327370 heartbeat IPC: 0.663521 cumulative IPC: 0.664396 (Simulation time: 5 hr 7 min 29 sec) 
Heartbeat CPU 3 instructions: 1730000001 cycles: 2209515042 heartbeat IPC: 0.510975 cumulative IPC: 0.678929 (Simulation time: 5 hr 8 min 40 sec) 
Heartbeat CPU 0 instructions: 1140000000 cycles: 2212744500 heartbeat IPC: 0.418507 cumulative IPC: 0.420052 (Simulation time: 5 hr 9 min 2 sec) 
Heartbeat CPU 2 instructions: 1680000000 cycles: 2214195828 heartbeat IPC: 0.672565 cumulative IPC: 0.664455 (Simulation time: 5 hr 9 min 13 sec) 
Heartbeat CPU 1 instructions: 710000000 cycles: 2224091694 heartbeat IPC: 0.243116 cumulative IPC: 0.24556 (Simulation time: 5 hr 10 min 22 sec) 
Heartbeat CPU 3 instructions: 1740000000 cycles: 2227615831 heartbeat IPC: 0.552462 cumulative IPC: 0.677829 (Simulation time: 5 hr 10 min 47 sec) 
Heartbeat CPU 2 instructions: 1690000000 cycles: 2229042585 heartbeat IPC: 0.673548 cumulative IPC: 0.66452 (Simulation time: 5 hr 10 min 57 sec) 
Heartbeat CPU 0 instructions: 1150000000 cycles: 2236385436 heartbeat IPC: 0.422995 cumulative IPC: 0.420086 (Simulation time: 5 hr 11 min 53 sec) 
Heartbeat CPU 3 instructions: 1750000001 cycles: 2241329933 heartbeat IPC: 0.729177 cumulative IPC: 0.678165 (Simulation time: 5 hr 12 min 29 sec) 
Heartbeat CPU 2 instructions: 1700000000 cycles: 2243874141 heartbeat IPC: 0.674238 cumulative IPC: 0.664589 (Simulation time: 5 hr 12 min 47 sec) 
Heartbeat CPU 3 instructions: 1760000000 cycles: 2258494767 heartbeat IPC: 0.582586 cumulative IPC: 0.677388 (Simulation time: 5 hr 14 min 31 sec) 
Heartbeat CPU 2 instructions: 1710000000 cycles: 2258717120 heartbeat IPC: 0.673719 cumulative IPC: 0.664653 (Simulation time: 5 hr 14 min 33 sec) 
Heartbeat CPU 0 instructions: 1160000000 cycles: 2260098520 heartbeat IPC: 0.421708 cumulative IPC: 0.420104 (Simulation time: 5 hr 14 min 43 sec) 
Heartbeat CPU 1 instructions: 720000000 cycles: 2264854628 heartbeat IPC: 0.245321 cumulative IPC: 0.245555 (Simulation time: 5 hr 15 min 17 sec) 
Heartbeat CPU 2 instructions: 1720000000 cycles: 2273545576 heartbeat IPC: 0.674379 cumulative IPC: 0.664721 (Simulation time: 5 hr 16 min 19 sec) 
Heartbeat CPU 3 instructions: 1770000002 cycles: 2273898353 heartbeat IPC: 0.6492 cumulative IPC: 0.677184 (Simulation time: 5 hr 16 min 22 sec) 
Heartbeat CPU 0 instructions: 1170000001 cycles: 2283944828 heartbeat IPC: 0.419352 cumulative IPC: 0.420095 (Simulation time: 5 hr 17 min 30 sec) 
Heartbeat CPU 2 instructions: 1730000001 cycles: 2288561802 heartbeat IPC: 0.665946 cumulative IPC: 0.664729 (Simulation time: 5 hr 18 min 2 sec) 
[...]
Heartbeat CPU 2 instructions: 2910000001 cycles: 4040895122 heartbeat IPC: 0.629662 cumulative IPC: 0.668626 (Simulation time: 8 hr 42 min 12 sec) 
Heartbeat CPU 3 instructions: 3050000002 cycles: 4042475878 heartbeat IPC: 0.624272 cumulative IPC: 0.698324 (Simulation time: 8 hr 42 min 22 sec) 
Heartbeat CPU 0 instructions: 1910000003 cycles: 4050253233 heartbeat IPC: 0.421873 cumulative IPC: 0.419578 (Simulation time: 8 hr 43 min 11 sec) 
Heartbeat CPU 2 instructions: 2920000000 cycles: 4056351092 heartbeat IPC: 0.646999 cumulative IPC: 0.66854 (Simulation time: 8 hr 43 min 51 sec) 
Heartbeat CPU 3 instructions: 3060000000 cycles: 4058310225 heartbeat IPC: 0.631538 cumulative IPC: 0.698054 (Simulation time: 8 hr 44 min 4 sec) 
Heartbeat CPU 1 instructions: 1160000000 cycles: 4066087541 heartbeat IPC: 0.244031 cumulative IPC: 0.244968 (Simulation time: 8 hr 44 min 53 sec) 
Heartbeat CPU 2 instructions: 2930000001 cycles: 4072059442 heartbeat IPC: 0.636604 cumulative IPC: 0.668413 (Simulation time: 8 hr 45 min 32 sec) 
Heartbeat CPU 0 instructions: 1920000000 cycles: 4073918479 heartbeat IPC: 0.42256 cumulative IPC: 0.419596 (Simulation time: 8 hr 45 min 44 sec) 
Heartbeat CPU 3 instructions: 3070000001 cycles: 4074199717 heartbeat IPC: 0.629347 cumulative IPC: 0.697776 (Simulation time: 8 hr 45 min 45 sec) 
Heartbeat CPU 2 instructions: 2940000000 cycles: 4087961448 heartbeat IPC: 0.628851 cumulative IPC: 0.668253 (Simulation time: 8 hr 47 min 13 sec) 
Heartbeat CPU 3 instructions: 3080000000 cycles: 4090290259 heartbeat IPC: 0.621483 cumulative IPC: 0.697465 (Simulation time: 8 hr 47 min 29 sec) 
Heartbeat CPU 0 instructions: 1930000001 cycles: 4097443750 heartbeat IPC: 0.425075 cumulative IPC: 0.419629 (Simulation time: 8 hr 48 min 16 sec) 
Heartbeat CPU 2 instructions: 2950000000 cycles: 4103201887 heartbeat IPC: 0.656149 cumulative IPC: 0.668206 (Simulation time: 8 hr 48 min 52 sec) 
Heartbeat CPU 3 instructions: 3090000003 cycles: 4106058597 heartbeat IPC: 0.634182 cumulative IPC: 0.697213 (Simulation time: 8 hr 49 min 11 sec) 
Heartbeat CPU 1 instructions: 1170000000 cycles: 4106575354 heartbeat IPC: 0.246988 cumulative IPC: 0.244988 (Simulation time: 8 hr 49 min 14 sec) 
Heartbeat CPU 2 instructions: 2960000000 cycles: 4118615010 heartbeat IPC: 0.648798 cumulative IPC: 0.668131 (Simulation time: 8 hr 50 min 31 sec) 
Heartbeat CPU 0 instructions: 1940000000 cycles: 4121310154 heartbeat IPC: 0.418999 cumulative IPC: 0.419625 (Simulation time: 8 hr 50 min 48 sec) 
Heartbeat CPU 3 instructions: 3100000000 cycles: 4122246150 heartbeat IPC: 0.617758 cumulative IPC: 0.696889 (Simulation time: 8 hr 50 min 54 sec) 
Heartbeat CPU 2 instructions: 2970000001 cycles: 4134188729 heartbeat IPC: 0.642107 cumulative IPC: 0.668029 (Simulation time: 8 hr 52 min 10 sec) 
Heartbeat CPU 3 instructions: 3110000001 cycles: 4138375309 heartbeat IPC: 0.619995 cumulative IPC: 0.696578 (Simulation time: 8 hr 52 min 37 sec) 
Heartbeat CPU 0 instructions: 1950000003 cycles: 4145026287 heartbeat IPC: 0.421654 cumulative IPC: 0.419637 (Simulation time: 8 hr 53 min 19 sec) 
Heartbeat CPU 1 instructions: 1180000000 cycles: 4147651863 heartbeat IPC: 0.243448 cumulative IPC: 0.244973 (Simulation time: 8 hr 53 min 36 sec) 
Heartbeat CPU 2 instructions: 2980000000 cycles: 4149843453 heartbeat IPC: 0.638785 cumulative IPC: 0.667915 (Simulation time: 8 hr 53 min 50 sec) 
Heartbeat CPU 3 instructions: 3120000000 cycles: 4154230810 heartbeat IPC: 0.630696 cumulative IPC: 0.696318 (Simulation time: 8 hr 54 min 18 sec) 
Heartbeat CPU 2 instructions: 2990000000 cycles: 4165386143 heartbeat IPC: 0.643389 cumulative IPC: 0.66782 (Simulation time: 8 hr 55 min 29 sec) 
Heartbeat CPU 0 instructions: 1960000000 cycles: 4168634565 heartbeat IPC: 0.42358 cumulative IPC: 0.41966 (Simulation time: 8 hr 55 min 50 sec) 
Heartbeat CPU 3 instructions: 3130000002 cycles: 4170589554 heartbeat IPC: 0.611294 cumulative IPC: 0.695972 (Simulation time: 8 hr 56 min 3 sec) 
Heartbeat CPU 2 instructions: 3000000000 cycles: 4180455127 heartbeat IPC: 0.663615 cumulative IPC: 0.667804 (Simulation time: 8 hr 57 min 6 sec) 
Heartbeat CPU 3 instructions: 3140000000 cycles: 4186568984 heartbeat IPC: 0.625804 cumulative IPC: 0.695694 (Simulation time: 8 hr 57 min 46 sec) 
Heartbeat CPU 1 instructions: 1190000001 cycles: 4188404866 heartbeat IPC: 0.245381 cumulative IPC: 0.244977 (Simulation time: 8 hr 57 min 57 sec) 
Heartbeat CPU 0 instructions: 1970000003 cycles: 4192550550 heartbeat IPC: 0.418131 cumulative IPC: 0.419651 (Simulation time: 8 hr 58 min 24 sec) 
Heartbeat CPU 2 instructions: 3010000001 cycles: 4195616190 heartbeat IPC: 0.659584 cumulative IPC: 0.667774 (Simulation time: 8 hr 58 min 43 sec) 
Heartbeat CPU 3 instructions: 3150000001 cycles: 4202437535 heartbeat IPC: 0.630177 cumulative IPC: 0.695438 (Simulation time: 8 hr 59 min 27 sec) 
Heartbeat CPU 2 instructions: 3020000000 cycles: 4211379516 heartbeat IPC: 0.634384 cumulative IPC: 0.667644 (Simulation time: 9 hr 0 min 25 sec) 
Heartbeat CPU 0 instructions: 1980000000 cycles: 4216289358 heartbeat IPC: 0.421251 cumulative IPC: 0.419661 (Simulation time: 9 hr 0 min 57 sec) 
Heartbeat CPU 3 instructions: 3160000000 cycles: 4218310484 heartbeat IPC: 0.630003 cumulative IPC: 0.695183 (Simulation time: 9 hr 1 min 10 sec) 
Heartbeat CPU 2 instructions: 3030000003 cycles: 4227004806 heartbeat IPC: 0.639988 cumulative IPC: 0.667538 (Simulation time: 9 hr 2 min 5 sec) 
Heartbeat CPU 1 instructions: 1200000000 cycles: 4229404786 heartbeat IPC: 0.243903 cumulative IPC: 0.244966 (Simulation time: 9 hr 2 min 21 sec) 
Finished CPU 1 instructions: 1000000000 cycles: 4082201023 cumulative IPC: 0.244966 (Simulation time: 9 hr 2 min 21 sec) 

CPU 0 Branch Prediction Accuracy: 99.8611% MPKI: 0.283275

CPU 1 Branch Prediction Accuracy: 96.7197% MPKI: 4.86726

CPU 2 Branch Prediction Accuracy: 96.5849% MPKI: 4.32788

CPU 3 Branch Prediction Accuracy: 90.6322% MPKI: 12.0613

ChampSim completed all CPUs

Total Simulation Statistics (not including warmup)

CPU 0 cumulative IPC: 0.419679 instructions: 1713213899 cycles: 4082201023
L1D TOTAL     ACCESS:  546305894  HIT:  517848713  MISS:   28457181
L1D LOAD      ACCESS:  354033220  HIT:  325597962  MISS:   28435258
L1D RFO       ACCESS:  192272674  HIT:  192250751  MISS:      21923
L1D PREFETCH  ACCESS:          0  HIT:          0  MISS:          0
L1D WRITEBACK ACCESS:          0  HIT:          0  MISS:          0
L1I TOTAL     ACCESS:  662028812  HIT:  662028811  MISS:          1
L1I LOAD      ACCESS:  662028812  HIT:  662028811  MISS:          1
L1I RFO       ACCESS:          0  HIT:          0  MISS:          0
L1I PREFETCH  ACCESS:          0  HIT:          0  MISS:          0
L1I WRITEBACK ACCESS:          0  HIT:          0  MISS:          0
L2C TOTAL     ACCESS:   41703045  HIT:   27071376  MISS:   14631669
L2C LOAD      ACCESS:   28435259  HIT:   26716305  MISS:    1718954
L2C RFO       ACCESS:      21923  HIT:       4307  MISS:      17616
L2C PREFETCH  ACCESS:   12969124  HIT:      74114  MISS:   12895010
L2C WRITEBACK ACCESS:     276739  HIT:     276650  MISS:         89

L2C Best-offset prefetcher final stats
LLC TOTAL     ACCESS:   14766165  HIT:     208972  MISS:   14557193
LLC LOAD      ACCESS:    1280335  HIT:      48606  MISS:    1231729
LLC RFO       ACCESS:      17610  HIT:        286  MISS:      17324
LLC PREFETCH  ACCESS:   13333643  HIT:      56381  MISS:   13277262
LLC WRITEBACK ACCESS:     134577  HIT:     103699  MISS:      30878

CPU 1 cumulative IPC: 0.244966 instructions: 1000000000 cycles: 4082201023
L1D TOTAL     ACCESS:  444607482  HIT:  424591386  MISS:   20016096
L1D LOAD      ACCESS:  262690861  HIT:  245198745  MISS:   17492116
L1D RFO       ACCESS:  181916621  HIT:  179392641  MISS:    2523980
L1D PREFETCH  ACCESS:          0  HIT:          0  MISS:          0
L1D WRITEBACK ACCESS:          0  HIT:          0  MISS:          0
L1I TOTAL     ACCESS:  357140280  HIT:  356760518  MISS:     379762
L1I LOAD      ACCESS:  357140280  HIT:  356760518  MISS:     379762
L1I RFO       ACCESS:          0  HIT:          0  MISS:          0
L1I PREFETCH  ACCESS:          0  HIT:          0  MISS:          0
L1I WRITEBACK ACCESS:          0  HIT:          0  MISS:          0
L2C TOTAL     ACCESS:   42447318  HIT:   17822587  MISS:   24624731
L2C LOAD      ACCESS:   17871291  HIT:    6790632  MISS:   11080659
L2C RFO       ACCESS:    2523837  HIT:     521703  MISS:    2002134
L2C PREFETCH  ACCESS:   12378464  HIT:     905626  MISS:   11472838
L2C WRITEBACK ACCESS:    9673726  HIT:    9604626  MISS:      69100

L2C Best-offset prefetcher final stats
LLC TOTAL     ACCESS:   32314626  HIT:   17907298  MISS:   14407328
LLC LOAD      ACCESS:   11016678  HIT:    4572913  MISS:    6443765
LLC RFO       ACCESS:    1993542  HIT:    1231219  MISS:     762323
LLC PREFETCH  ACCESS:   11545360  HIT:    4349873  MISS:    7195487
LLC WRITEBACK ACCESS:    7759046  HIT:    7753293  MISS:       5753

CPU 2 cumulative IPC: 0.667541 instructions: 2725036673 cycles: 4082201024
L1D TOTAL     ACCESS:  715689067  HIT:  695904970  MISS:   19784097
L1D LOAD      ACCESS:  430136397  HIT:  411186732  MISS:   18949665
L1D RFO       ACCESS:  285552670  HIT:  284718238  MISS:     834432
L1D PREFETCH  ACCESS:          0  HIT:          0  MISS:          0
L1D WRITEBACK ACCESS:          0  HIT:          0  MISS:          0
L1I TOTAL     ACCESS:  605094781  HIT:  605094778  MISS:          3
L1I LOAD      ACCESS:  605094781  HIT:  605094778  MISS:          3
L1I RFO       ACCESS:          0  HIT:          0  MISS:          0
L1I PREFETCH  ACCESS:          0  HIT:          0  MISS:          0
L1I WRITEBACK ACCESS:          0  HIT:          0  MISS:          0
L2C TOTAL     ACCESS:   33702039  HIT:   17774356  MISS:   15927683
L2C LOAD      ACCESS:   18949668  HIT:    9988378  MISS:    8961290
L2C RFO       ACCESS:     834397  HIT:     347056  MISS:     487341
L2C PREFETCH  ACCESS:   12591352  HIT:    6123564  MISS:    6467788
L2C WRITEBACK ACCESS:    1326622  HIT:    1315358  MISS:      11264

L2C Best-offset prefetcher final stats
LLC TOTAL     ACCESS:   16591860  HIT:   15923972  MISS:     667888
LLC LOAD      ACCESS:    8660351  HIT:    8512637  MISS:     147714
LLC RFO       ACCESS:     487330  HIT:     109876  MISS:     377454
LLC PREFETCH  ACCESS:    6768736  HIT:    6645717  MISS:     123019
LLC WRITEBACK ACCESS:     675443  HIT:     655742  MISS:      19701

CPU 3 cumulative IPC: 0.694975 instructions: 2837027566 cycles: 4082201024
L1D TOTAL     ACCESS:  602450252  HIT:  582617435  MISS:   19832817
L1D LOAD      ACCESS:  398035014  HIT:  381223228  MISS:   16811786
L1D RFO       ACCESS:  204415238  HIT:  201394207  MISS:    3021031
L1D PREFETCH  ACCESS:          0  HIT:          0  MISS:          0
L1D WRITEBACK ACCESS:          0  HIT:          0  MISS:          0
L1I TOTAL     ACCESS:  541380960  HIT:  541374684  MISS:       6276
L1I LOAD      ACCESS:  541380960  HIT:  541374684  MISS:       6276
L1I RFO       ACCESS:          0  HIT:          0  MISS:          0
L1I PREFETCH  ACCESS:          0  HIT:          0  MISS:          0
L1I WRITEBACK ACCESS:          0  HIT:          0  MISS:          0
L2C TOTAL     ACCESS:   41496258  HIT:   21997764  MISS:   19498494
L2C LOAD      ACCESS:   16817493  HIT:    6616784  MISS:   10200709
L2C RFO       ACCESS:    3019383  HIT:    1552860  MISS:    1466523
L2C PREFETCH  ACCESS:    8567358  HIT:     809459  MISS:    7757899
L2C WRITEBACK ACCESS:   13092024  HIT:   13018661  MISS:      73363

L2C Best-offset prefetcher final stats
LLC TOTAL     ACCESS:   27838738  HIT:   19329262  MISS:    8509476
LLC LOAD      ACCESS:   10191844  HIT:    5891152  MISS:    4300692
LLC RFO       ACCESS:    1466345  HIT:     767392  MISS:     698953
LLC PREFETCH  ACCESS:    7777739  HIT:    4295179  MISS:    3482560
LLC WRITEBACK ACCESS:    8402810  HIT:    8375539  MISS:      27271

Region of Interest Statistics

CPU 0 cumulative IPC: 0.419262 instructions: 1000000000 cycles: 2385143383
L1D TOTAL     ACCESS:  318773144  HIT:  302114949  MISS:   16658195
L1D LOAD      ACCESS:  206629197  HIT:  189982737  MISS:   16646460
L1D RFO       ACCESS:  112143947  HIT:  112132212  MISS:      11735
L1D PREFETCH  ACCESS:          0  HIT:          0  MISS:          0
L1D WRITEBACK ACCESS:          0  HIT:          0  MISS:          0
L1D PREFETCH  REQUESTED:          0  ISSUED:          0  USEFUL:          0  USELESS:          0
L1I TOTAL     ACCESS:  384772998  HIT:  384772997  MISS:          1
L1I LOAD      ACCESS:  384772998  HIT:  384772997  MISS:          1
L1I RFO       ACCESS:          0  HIT:          0  MISS:          0
L1I PREFETCH  ACCESS:          0  HIT:          0  MISS:          0
L1I WRITEBACK ACCESS:          0  HIT:          0  MISS:          0
L1I PREFETCH  REQUESTED:          0  ISSUED:          0  USEFUL:          0  USELESS:          0
L2C TOTAL     ACCESS:   24471762  HIT:   15833752  MISS:    8638010
L2C LOAD      ACCESS:   16646461  HIT:   15626586  MISS:    1019875
L2C RFO       ACCESS:      11735  HIT:       2178  MISS:       9557
L2C PREFETCH  ACCESS:    7651618  HIT:      43093  MISS:    7608525
L2C WRITEBACK ACCESS:     161948  HIT:     161895  MISS:         53
L2C PREFETCH  REQUESTED:   15783531  ISSUED:   15783531  USEFUL:   14696961  USELESS:     539500
LLC TOTAL     ACCESS:    8716605  HIT:     121703  MISS:    8594902
LLC LOAD      ACCESS:     757361  HIT:      26678  MISS:     730683
LLC RFO       ACCESS:       9551  HIT:        157  MISS:       9394
LLC PREFETCH  ACCESS:    7871045  HIT:      33604  MISS:    7837441
LLC WRITEBACK ACCESS:      78648  HIT:      61264  MISS:      17384
LLC PREFETCH  REQUESTED:          0  ISSUED:          0  USEFUL:    1107527  USELESS:   26969286
Major fault: 0 Minor fault: 13708

CPU 1 cumulative IPC: 0.244966 instructions: 1000000000 cycles: 4082201023
L1D TOTAL     ACCESS:  444607482  HIT:  424591386  MISS:   20016096
L1D LOAD      ACCESS:  262690861  HIT:  245198745  MISS:   17492116
L1D RFO       ACCESS:  181916621  HIT:  179392641  MISS:    2523980
L1D PREFETCH  ACCESS:          0  HIT:          0  MISS:          0
L1D WRITEBACK ACCESS:          0  HIT:          0  MISS:          0
L1D PREFETCH  REQUESTED:          0  ISSUED:          0  USEFUL:          0  USELESS:          0
L1I TOTAL     ACCESS:  357140280  HIT:  356760518  MISS:     379762
L1I LOAD      ACCESS:  357140280  HIT:  356760518  MISS:     379762
L1I RFO       ACCESS:          0  HIT:          0  MISS:          0
L1I PREFETCH  ACCESS:          0  HIT:          0  MISS:          0
L1I WRITEBACK ACCESS:          0  HIT:          0  MISS:          0
L1I PREFETCH  REQUESTED:          0  ISSUED:          0  USEFUL:          0  USELESS:          0
L2C TOTAL     ACCESS:   42447318  HIT:   17822587  MISS:   24624731
L2C LOAD      ACCESS:   17871291  HIT:    6790632  MISS:   11080659
L2C RFO       ACCESS:    2523837  HIT:     521703  MISS:    2002134
L2C PREFETCH  ACCESS:   12378464  HIT:     905626  MISS:   11472838
L2C WRITEBACK ACCESS:    9673726  HIT:    9604626  MISS:      69100
L2C PREFETCH  REQUESTED:   15324632  ISSUED:   15324632  USEFUL:    2976723  USELESS:   10610920
LLC TOTAL     ACCESS:   32314626  HIT:   17907298  MISS:   14407328
LLC LOAD      ACCESS:   11016678  HIT:    4572913  MISS:    6443765
LLC RFO       ACCESS:    1993542  HIT:    1231219  MISS:     762323
LLC PREFETCH  ACCESS:   11545360  HIT:    4349873  MISS:    7195487
LLC WRITEBACK ACCESS:    7759046  HIT:    7753293  MISS:       5753
LLC PREFETCH  REQUESTED:          0  ISSUED:          0  USEFUL:    1107527  USELESS:   26969286
Major fault: 0 Minor fault: 52120

CPU 2 cumulative IPC: 0.659398 instructions: 1000000000 cycles: 1516535236
L1D TOTAL     ACCESS:  264666636  HIT:  257249953  MISS:    7416683
L1D LOAD      ACCESS:  158318373  HIT:  151197603  MISS:    7120770
L1D RFO       ACCESS:  106348263  HIT:  106052350  MISS:     295913
L1D PREFETCH  ACCESS:          0  HIT:          0  MISS:          0
L1D WRITEBACK ACCESS:          0  HIT:          0  MISS:          0
L1D PREFETCH  REQUESTED:          0  ISSUED:          0  USEFUL:          0  USELESS:          0
L1I TOTAL     ACCESS:  223202091  HIT:  223202088  MISS:          3
L1I LOAD      ACCESS:  223202091  HIT:  223202088  MISS:          3
L1I RFO       ACCESS:          0  HIT:          0  MISS:          0
L1I PREFETCH  ACCESS:          0  HIT:          0  MISS:          0
L1I WRITEBACK ACCESS:          0  HIT:          0  MISS:          0
L1I PREFETCH  REQUESTED:          0  ISSUED:          0  USEFUL:          0  USELESS:          0
L2C TOTAL     ACCESS:   13182641  HIT:    6477005  MISS:    6705636
L2C LOAD      ACCESS:    7120773  HIT:    3354943  MISS:    3765830
L2C RFO       ACCESS:     295898  HIT:     117038  MISS:     178860
L2C PREFETCH  ACCESS:    5292510  HIT:    2535731  MISS:    2756779
L2C WRITEBACK ACCESS:     473460  HIT:     469293  MISS:       4167
L2C PREFETCH  REQUESTED:   15001486  ISSUED:   15001486  USEFUL:    5420130  USELESS:    1787453
LLC TOTAL     ACCESS:    6962027  HIT:    6741896  MISS:     220131
LLC LOAD      ACCESS:    3637891  HIT:    3594134  MISS:      43757
LLC RFO       ACCESS:     178856  HIT:      44954  MISS:     133902
LLC PREFETCH  ACCESS:    2884721  HIT:    2846029  MISS:      38692
LLC WRITEBACK ACCESS:     260559  HIT:     256779  MISS:       3780
LLC PREFETCH  REQUESTED:          0  ISSUED:          0  USEFUL:    1107527  USELESS:   26969286
Major fault: 0 Minor fault: 4854

CPU 3 cumulative IPC: 0.7227 instructions: 1000000002 cycles: 1383700382
L1D TOTAL     ACCESS:  214820523  HIT:  208462491  MISS:    6358032
L1D LOAD      ACCESS:  142271808  HIT:  136854090  MISS:    5417718
L1D RFO       ACCESS:   72548715  HIT:   71608401  MISS:     940314
L1D PREFETCH  ACCESS:          0  HIT:          0  MISS:          0
L1D WRITEBACK ACCESS:          0  HIT:          0  MISS:          0
L1D PREFETCH  REQUESTED:          0  ISSUED:          0  USEFUL:          0  USELESS:          0
L1I TOTAL     ACCESS:  192302991  HIT:  192300775  MISS:       2216
L1I LOAD      ACCESS:  192302991  HIT:  192300775  MISS:       2216
L1I RFO       ACCESS:          0  HIT:          0  MISS:          0
L1I PREFETCH  ACCESS:          0  HIT:          0  MISS:          0
L1I WRITEBACK ACCESS:          0  HIT:          0  MISS:          0
L1I PREFETCH  REQUESTED:          0  ISSUED:          0  USEFUL:          0  USELESS:          0
L2C TOTAL     ACCESS:   13205166  HIT:    7275111  MISS:    5930055
L2C LOAD      ACCESS:    5419728  HIT:    2337720  MISS:    3082008
L2C RFO       ACCESS:     939888  HIT:     514558  MISS:     425330
L2C PREFETCH  ACCESS:    2674961  HIT:     277579  MISS:    2397382
L2C WRITEBACK ACCESS:    4170589  HIT:    4145254  MISS:      25335
L2C PREFETCH  REQUESTED:    9639527  ISSUED:    9639527  USEFUL:     740629  USELESS:    7918060
LLC TOTAL     ACCESS:    8434674  HIT:    5804250  MISS:    2630424
LLC LOAD      ACCESS:    3077831  HIT:    1782555  MISS:    1295276
LLC RFO       ACCESS:     425300  HIT:     184495  MISS:     240805
LLC PREFETCH  ACCESS:    2407541  HIT:    1324152  MISS:    1083389
LLC WRITEBACK ACCESS:    2524002  HIT:    2513048  MISS:      10954
LLC PREFETCH  REQUESTED:          0  ISSUED:          0  USEFUL:    1107527  USELESS:   26969286
Major fault: 0 Minor fault: 12493

L2C Best-offset prefetcher final stats

L2C Best-offset prefetcher final stats

L2C Best-offset prefetcher final stats

L2C Best-offset prefetcher final stats

DRAM Statistics
 CHANNEL 0
 RQ ROW_BUFFER_HIT:    5436803  ROW_BUFFER_MISS:   13575812
 DBUS_CONGESTED:   17069851
 WQ ROW_BUFFER_HIT:     323705  ROW_BUFFER_MISS:    4226260  FULL:          0

 CHANNEL 1
 RQ ROW_BUFFER_HIT:    5461229  ROW_BUFFER_MISS:   13578980
 DBUS_CONGESTED:   17069851
 WQ ROW_BUFFER_HIT:     319926  ROW_BUFFER_MISS:    4197464  FULL:          0

 AVG_CONGESTED_CYCLE: 12
