
*** ChampSim Multicore Out-of-Order Simulator ***

Warmup Instructions: 200000000
Simulation Instructions: 1000000000
Number of CPUs: 4
LLC sets: 8192
LLC ways: 16
Off-chip DRAM Size: 8192 MB Channels: 2 Width: 64-bit Data Rate: 1600 MT/s

CPU 0 runs /scratch/user/djimenez/champsim-traces/speccpu2017/xz/623.xalancbmk_s/623.xalancbmk_s-165B.champsimtrace.xz
CPU 1 runs /scratch/user/djimenez/champsim-traces/speccpu2017/xz/603.bwaves_s/603.bwaves_s-1740B.champsimtrace.xz
CPU 2 runs /scratch/user/djimenez/champsim-traces/speccpu2017/xz/619.lbm_s/619.lbm_s-3766B.champsimtrace.xz
CPU 3 runs /scratch/user/djimenez/champsim-traces/speccpu2017/xz/623.xalancbmk_s/623.xalancbmk_s-202B.champsimtrace.xz
L2C Best-offset prefetcher
L2C Best-offset prefetcher
L2C Best-offset prefetcher
L2C Best-offset prefetcher
Heartbeat CPU 3 instructions: 10000000 cycles: 4130751 heartbeat IPC: 2.42087 cumulative IPC: 2.42087 (Simulation time: 0 hr 1 min 57 sec) 
Heartbeat CPU 0 instructions: 10000001 cycles: 4213907 heartbeat IPC: 2.37309 cumulative IPC: 2.37309 (Simulation time: 0 hr 1 min 59 sec) 
Heartbeat CPU 2 instructions: 10000000 cycles: 4275962 heartbeat IPC: 2.33865 cumulative IPC: 2.33865 (Simulation time: 0 hr 2 min 1 sec) 
Heartbeat CPU 1 instructions: 10000001 cycles: 5272905 heartbeat IPC: 1.89649 cumulative IPC: 1.89649 (Simulation time: 0 hr 2 min 28 sec) 
Heartbeat CPU 3 instructions: 20000000 cycles: 8261434 heartbeat IPC: 2.42091 cumulative IPC: 2.42089 (Simulation time: 0 hr 3 min 52 sec) 
Heartbeat CPU 0 instructions: 20000000 cycles: 8401770 heartbeat IPC: 2.38785 cumulative IPC: 2.38045 (Simulation time: 0 hr 3 min 56 sec) 
Heartbeat CPU 2 instructions: 20000000 cycles: 8561132 heartbeat IPC: 2.33363 cumulative IPC: 2.33614 (Simulation time: 0 hr 4 min 0 sec) 
Heartbeat CPU 1 instructions: 20000000 cycles: 10547958 heartbeat IPC: 1.89572 cumulative IPC: 1.8961 (Simulation time: 0 hr 4 min 55 sec) 
Heartbeat CPU 3 instructions: 30000002 cycles: 12384223 heartbeat IPC: 2.42554 cumulative IPC: 2.42244 (Simulation time: 0 hr 5 min 45 sec) 
Heartbeat CPU 0 instructions: 30000001 cycles: 12549913 heartbeat IPC: 2.41072 cumulative IPC: 2.39046 (Simulation time: 0 hr 5 min 50 sec) 
Heartbeat CPU 2 instructions: 30000001 cycles: 12837524 heartbeat IPC: 2.33842 cumulative IPC: 2.3369 (Simulation time: 0 hr 5 min 58 sec) 
Heartbeat CPU 1 instructions: 30000002 cycles: 15821444 heartbeat IPC: 1.89628 cumulative IPC: 1.89616 (Simulation time: 0 hr 7 min 20 sec) 
Heartbeat CPU 3 instructions: 40000000 cycles: 16504058 heartbeat IPC: 2.42728 cumulative IPC: 2.42365 (Simulation time: 0 hr 7 min 39 sec) 
Heartbeat CPU 0 instructions: 40000000 cycles: 16701976 heartbeat IPC: 2.40844 cumulative IPC: 2.39493 (Simulation time: 0 hr 7 min 44 sec) 
Heartbeat CPU 2 instructions: 40000000 cycles: 17122659 heartbeat IPC: 2.33365 cumulative IPC: 2.33609 (Simulation time: 0 hr 7 min 56 sec) 
Heartbeat CPU 3 instructions: 50000000 cycles: 20634669 heartbeat IPC: 2.42095 cumulative IPC: 2.42311 (Simulation time: 0 hr 9 min 32 sec) 
Heartbeat CPU 0 instructions: 50000000 cycles: 20853809 heartbeat IPC: 2.40857 cumulative IPC: 2.39764 (Simulation time: 0 hr 9 min 39 sec) 
Heartbeat CPU 1 instructions: 40000000 cycles: 21094121 heartbeat IPC: 1.89657 cumulative IPC: 1.89626 (Simulation time: 0 hr 9 min 45 sec) 
Heartbeat CPU 2 instructions: 50000001 cycles: 21408020 heartbeat IPC: 2.33353 cumulative IPC: 2.33557 (Simulation time: 0 hr 9 min 54 sec) 
Heartbeat CPU 3 instructions: 60000000 cycles: 24764804 heartbeat IPC: 2.42123 cumulative IPC: 2.42279 (Simulation time: 0 hr 11 min 24 sec) 
Heartbeat CPU 0 instructions: 60000000 cycles: 25005209 heartbeat IPC: 2.40883 cumulative IPC: 2.3995 (Simulation time: 0 hr 11 min 30 sec) 
Heartbeat CPU 2 instructions: 60000000 cycles: 25684007 heartbeat IPC: 2.33864 cumulative IPC: 2.33608 (Simulation time: 0 hr 11 min 48 sec) 
Heartbeat CPU 1 instructions: 50000003 cycles: 26368222 heartbeat IPC: 1.89606 cumulative IPC: 1.89622 (Simulation time: 0 hr 12 min 6 sec) 
Heartbeat CPU 3 instructions: 70000003 cycles: 28907818 heartbeat IPC: 2.4137 cumulative IPC: 2.42149 (Simulation time: 0 hr 13 min 15 sec) 
Heartbeat CPU 0 instructions: 70000000 cycles: 29162467 heartbeat IPC: 2.40543 cumulative IPC: 2.40035 (Simulation time: 0 hr 13 min 22 sec) 
Heartbeat CPU 2 instructions: 70000003 cycles: 29969306 heartbeat IPC: 2.33356 cumulative IPC: 2.33572 (Simulation time: 0 hr 13 min 45 sec) 
Heartbeat CPU 1 instructions: 60000000 cycles: 31639568 heartbeat IPC: 1.89705 cumulative IPC: 1.89636 (Simulation time: 0 hr 14 min 34 sec) 
Heartbeat CPU 3 instructions: 80000000 cycles: 33039040 heartbeat IPC: 2.42059 cumulative IPC: 2.42138 (Simulation time: 0 hr 15 min 18 sec) 
Heartbeat CPU 0 instructions: 80000000 cycles: 33314284 heartbeat IPC: 2.40858 cumulative IPC: 2.40137 (Simulation time: 0 hr 15 min 25 sec) 
Heartbeat CPU 2 instructions: 80000000 cycles: 34245320 heartbeat IPC: 2.33863 cumulative IPC: 2.33609 (Simulation time: 0 hr 15 min 51 sec) 
Heartbeat CPU 1 instructions: 70000000 cycles: 36912826 heartbeat IPC: 1.89636 cumulative IPC: 1.89636 (Simulation time: 0 hr 17 min 9 sec) 
Heartbeat CPU 3 instructions: 90000000 cycles: 37172541 heartbeat IPC: 2.41926 cumulative IPC: 2.42114 (Simulation time: 0 hr 17 min 15 sec) 
Heartbeat CPU 0 instructions: 90000000 cycles: 37474980 heartbeat IPC: 2.40344 cumulative IPC: 2.4016 (Simulation time: 0 hr 17 min 23 sec) 
Heartbeat CPU 2 instructions: 90000001 cycles: 38530493 heartbeat IPC: 2.33363 cumulative IPC: 2.33581 (Simulation time: 0 hr 17 min 53 sec) 
Heartbeat CPU 3 instructions: 100000000 cycles: 41297462 heartbeat IPC: 2.42429 cumulative IPC: 2.42146 (Simulation time: 0 hr 19 min 9 sec) 
Heartbeat CPU 0 instructions: 100000000 cycles: 41626601 heartbeat IPC: 2.4087 cumulative IPC: 2.40231 (Simulation time: 0 hr 19 min 23 sec) 
Heartbeat CPU 1 instructions: 80000000 cycles: 42187138 heartbeat IPC: 1.89598 cumulative IPC: 1.89631 (Simulation time: 0 hr 19 min 38 sec) 
Heartbeat CPU 2 instructions: 100000000 cycles: 42806813 heartbeat IPC: 2.33846 cumulative IPC: 2.33608 (Simulation time: 0 hr 19 min 55 sec) 
Heartbeat CPU 3 instructions: 110000002 cycles: 45416363 heartbeat IPC: 2.42783 cumulative IPC: 2.42203 (Simulation time: 0 hr 21 min 8 sec) 
Heartbeat CPU 0 instructions: 110000003 cycles: 45780767 heartbeat IPC: 2.40722 cumulative IPC: 2.40276 (Simulation time: 0 hr 21 min 17 sec) 
Heartbeat CPU 2 instructions: 110000001 cycles: 47118131 heartbeat IPC: 2.31948 cumulative IPC: 2.33456 (Simulation time: 0 hr 21 min 54 sec) 
Heartbeat CPU 1 instructions: 90000000 cycles: 47460950 heartbeat IPC: 1.89616 cumulative IPC: 1.8963 (Simulation time: 0 hr 22 min 4 sec) 
Heartbeat CPU 3 instructions: 120000000 cycles: 49546871 heartbeat IPC: 2.42101 cumulative IPC: 2.42195 (Simulation time: 0 hr 23 min 1 sec) 
Heartbeat CPU 0 instructions: 120000000 cycles: 49945422 heartbeat IPC: 2.40116 cumulative IPC: 2.40262 (Simulation time: 0 hr 23 min 12 sec) 
Heartbeat CPU 2 instructions: 120000000 cycles: 51447574 heartbeat IPC: 2.30977 cumulative IPC: 2.33247 (Simulation time: 0 hr 23 min 53 sec) 
Heartbeat CPU 1 instructions: 100000000 cycles: 52734516 heartbeat IPC: 1.89625 cumulative IPC: 1.89629 (Simulation time: 0 hr 24 min 28 sec) 
Heartbeat CPU 3 instructions: 130000001 cycles: 53678207 heartbeat IPC: 2.42052 cumulative IPC: 2.42184 (Simulation time: 0 hr 24 min 54 sec) 
Heartbeat CPU 0 instructions: 130000001 cycles: 54105370 heartbeat IPC: 2.40388 cumulative IPC: 2.40272 (Simulation time: 0 hr 25 min 6 sec) 
Heartbeat CPU 2 instructions: 130000003 cycles: 55898688 heartbeat IPC: 2.24663 cumulative IPC: 2.32564 (Simulation time: 0 hr 25 min 55 sec) 
Heartbeat CPU 3 instructions: 140000000 cycles: 57804563 heartbeat IPC: 2.42345 cumulative IPC: 2.42195 (Simulation time: 0 hr 26 min 47 sec) 
Heartbeat CPU 1 instructions: 110000001 cycles: 58007489 heartbeat IPC: 1.89646 cumulative IPC: 1.89631 (Simulation time: 0 hr 26 min 53 sec) 
Heartbeat CPU 0 instructions: 140000000 cycles: 58264486 heartbeat IPC: 2.40436 cumulative IPC: 2.40284 (Simulation time: 0 hr 27 min 0 sec) 
Heartbeat CPU 2 instructions: 140000000 cycles: 60430736 heartbeat IPC: 2.20651 cumulative IPC: 2.3167 (Simulation time: 0 hr 27 min 59 sec) 
Heartbeat CPU 3 instructions: 150000000 cycles: 61938234 heartbeat IPC: 2.41916 cumulative IPC: 2.42177 (Simulation time: 0 hr 28 min 40 sec) 
Heartbeat CPU 0 instructions: 150000002 cycles: 62422049 heartbeat IPC: 2.40526 cumulative IPC: 2.403 (Simulation time: 0 hr 28 min 53 sec) 
Heartbeat CPU 1 instructions: 120000000 cycles: 63280291 heartbeat IPC: 1.89652 cumulative IPC: 1.89632 (Simulation time: 0 hr 29 min 17 sec) 
Heartbeat CPU 2 instructions: 150000001 cycles: 65092336 heartbeat IPC: 2.14519 cumulative IPC: 2.30442 (Simulation time: 0 hr 30 min 6 sec) 
Heartbeat CPU 3 instructions: 160000000 cycles: 66073781 heartbeat IPC: 2.41806 cumulative IPC: 2.42154 (Simulation time: 0 hr 30 min 33 sec) 
Heartbeat CPU 0 instructions: 160000000 cycles: 66583285 heartbeat IPC: 2.40313 cumulative IPC: 2.40301 (Simulation time: 0 hr 30 min 47 sec) 
Heartbeat CPU 1 instructions: 130000003 cycles: 68552457 heartbeat IPC: 1.89675 cumulative IPC: 1.89636 (Simulation time: 0 hr 31 min 41 sec) 
Heartbeat CPU 2 instructions: 160000000 cycles: 69978323 heartbeat IPC: 2.04667 cumulative IPC: 2.28642 (Simulation time: 0 hr 32 min 25 sec) 
Heartbeat CPU 3 instructions: 170000001 cycles: 70214849 heartbeat IPC: 2.41484 cumulative IPC: 2.42114 (Simulation time: 0 hr 32 min 32 sec) 
Heartbeat CPU 0 instructions: 170000003 cycles: 70749491 heartbeat IPC: 2.40027 cumulative IPC: 2.40284 (Simulation time: 0 hr 32 min 46 sec) 
Heartbeat CPU 1 instructions: 140000000 cycles: 73825892 heartbeat IPC: 1.8963 cumulative IPC: 1.89635 (Simulation time: 0 hr 34 min 42 sec) 
Heartbeat CPU 3 instructions: 180000000 cycles: 74353249 heartbeat IPC: 2.41639 cumulative IPC: 2.42088 (Simulation time: 0 hr 35 min 1 sec) 
Heartbeat CPU 0 instructions: 180000000 cycles: 74915306 heartbeat IPC: 2.40049 cumulative IPC: 2.40271 (Simulation time: 0 hr 35 min 16 sec) 
Heartbeat CPU 2 instructions: 170000002 cycles: 75115545 heartbeat IPC: 1.94658 cumulative IPC: 2.26318 (Simulation time: 0 hr 35 min 21 sec) 
Heartbeat CPU 3 instructions: 190000001 cycles: 78479733 heartbeat IPC: 2.42337 cumulative IPC: 2.42101 (Simulation time: 0 hr 36 min 52 sec) 
Heartbeat CPU 0 instructions: 190000001 cycles: 79076661 heartbeat IPC: 2.40306 cumulative IPC: 2.40273 (Simulation time: 0 hr 37 min 8 sec) 
Heartbeat CPU 1 instructions: 150000002 cycles: 79100009 heartbeat IPC: 1.89605 cumulative IPC: 1.89633 (Simulation time: 0 hr 37 min 9 sec) 
Heartbeat CPU 2 instructions: 180000000 cycles: 80368202 heartbeat IPC: 1.9038 cumulative IPC: 2.23969 (Simulation time: 0 hr 37 min 43 sec) 
Heartbeat CPU 3 instructions: 200000000 cycles: 82613758 heartbeat IPC: 2.41895 cumulative IPC: 2.4209 (Simulation time: 0 hr 38 min 44 sec) 
Heartbeat CPU 0 instructions: 200000000 cycles: 83242807 heartbeat IPC: 2.4003 cumulative IPC: 2.40261 (Simulation time: 0 hr 39 min 1 sec) 
Heartbeat CPU 1 instructions: 160000000 cycles: 84373345 heartbeat IPC: 1.89633 cumulative IPC: 1.89633 (Simulation time: 0 hr 39 min 32 sec) 
Heartbeat CPU 2 instructions: 190000001 cycles: 85700716 heartbeat IPC: 1.87529 cumulative IPC: 2.21702 (Simulation time: 0 hr 40 min 8 sec) 
Heartbeat CPU 3 instructions: 210000002 cycles: 86751743 heartbeat IPC: 2.41664 cumulative IPC: 0.115271 (Simulation time: 0 hr 40 min 37 sec) 
Heartbeat CPU 0 instructions: 210000002 cycles: 87413499 heartbeat IPC: 2.39768 cumulative IPC: 0.114399 (Simulation time: 0 hr 40 min 54 sec) 
Heartbeat CPU 1 instructions: 170000000 cycles: 89646315 heartbeat IPC: 1.89646 cumulative IPC: 1.89634 (Simulation time: 0 hr 41 min 55 sec) 
Heartbeat CPU 2 instructions: 200000000 cycles: 90897027 heartbeat IPC: 1.92444 cumulative IPC: 2.20029 (Simulation time: 0 hr 42 min 29 sec) 
Heartbeat CPU 3 instructions: 220000000 cycles: 90899275 heartbeat IPC: 2.41107 cumulative IPC: 0.220024 (Simulation time: 0 hr 42 min 29 sec) 
Heartbeat CPU 0 instructions: 220000000 cycles: 91616967 heartbeat IPC: 2.37899 cumulative IPC: 0.2183 (Simulation time: 0 hr 42 min 48 sec) 
Heartbeat CPU 1 instructions: 180000000 cycles: 94918415 heartbeat IPC: 1.89678 cumulative IPC: 1.89637 (Simulation time: 0 hr 44 min 16 sec) 
Heartbeat CPU 3 instructions: 230000001 cycles: 95022756 heartbeat IPC: 2.42514 cumulative IPC: 0.315714 (Simulation time: 0 hr 44 min 19 sec) 
Heartbeat CPU 0 instructions: 230000000 cycles: 95829842 heartbeat IPC: 2.37368 cumulative IPC: 0.313055 (Simulation time: 0 hr 44 min 41 sec) 
Heartbeat CPU 2 instructions: 210000001 cycles: 95997842 heartbeat IPC: 1.96047 cumulative IPC: 0.104169 (Simulation time: 0 hr 44 min 45 sec) 
Heartbeat CPU 3 instructions: 240000000 cycles: 99153685 heartbeat IPC: 2.42076 cumulative IPC: 0.403414 (Simulation time: 0 hr 46 min 11 sec) 
Heartbeat CPU 0 instructions: 240000000 cycles: 100032320 heartbeat IPC: 2.37955 cumulative IPC: 0.399871 (Simulation time: 0 hr 46 min 34 sec) 
Heartbeat CPU 1 instructions: 190000002 cycles: 100191318 heartbeat IPC: 1.89649 cumulative IPC: 1.89637 (Simulation time: 0 hr 46 min 39 sec) 
Heartbeat CPU 2 instructions: 220000000 cycles: 100973478 heartbeat IPC: 2.00979 cumulative IPC: 0.198072 (Simulation time: 0 hr 47 min 0 sec) 
Heartbeat CPU 3 instructions: 250000000 cycles: 103278215 heartbeat IPC: 2.42452 cumulative IPC: 0.484129 (Simulation time: 0 hr 48 min 2 sec) 
Heartbeat CPU 0 instructions: 250000001 cycles: 104230865 heartbeat IPC: 2.38178 cumulative IPC: 0.479704 (Simulation time: 0 hr 48 min 28 sec) 
Heartbeat CPU 1 instructions: 200000000 cycles: 105467343 heartbeat IPC: 1.89537 cumulative IPC: 1.89632 (Simulation time: 0 hr 49 min 1 sec) 

Warmup complete CPU 0 instructions: 252950846 cycles: 105467358 (Simulation time: 0 hr 49 min 1 sec) 
Warmup complete CPU 1 instructions: 200000001 cycles: 105467358 (Simulation time: 0 hr 49 min 1 sec) 
Warmup complete CPU 2 instructions: 229058280 cycles: 105467357 (Simulation time: 0 hr 49 min 1 sec) 
Warmup complete CPU 3 instructions: 255306550 cycles: 105467357 (Simulation time: 0 hr 49 min 1 sec) 

Heartbeat CPU 2 instructions: 230000003 cycles: 107255715 heartbeat IPC: 1.59179 cumulative IPC: 0.526585 (Simulation time: 0 hr 49 min 24 sec) 
Heartbeat CPU 0 instructions: 260000000 cycles: 114146284 heartbeat IPC: 1.00853 cumulative IPC: 0.812215 (Simulation time: 0 hr 50 min 48 sec) 
Heartbeat CPU 3 instructions: 260000000 cycles: 114901195 heartbeat IPC: 0.860365 cumulative IPC: 0.497512 (Simulation time: 0 hr 50 min 56 sec) 
Heartbeat CPU 1 instructions: 210000002 cycles: 115899642 heartbeat IPC: 0.958562 cumulative IPC: 0.958563 (Simulation time: 0 hr 51 min 8 sec) 
Heartbeat CPU 2 instructions: 240000000 cycles: 125442147 heartbeat IPC: 0.54986 cumulative IPC: 0.547776 (Simulation time: 0 hr 52 min 58 sec) 
Heartbeat CPU 0 instructions: 270000002 cycles: 126290710 heartbeat IPC: 0.823423 cumulative IPC: 0.818752 (Simulation time: 0 hr 53 min 7 sec) 
Heartbeat CPU 1 instructions: 220000000 cycles: 126761740 heartbeat IPC: 0.920632 cumulative IPC: 0.939215 (Simulation time: 0 hr 53 min 13 sec) 
Heartbeat CPU 1 instructions: 230000002 cycles: 137420923 heartbeat IPC: 0.938158 cumulative IPC: 0.938862 (Simulation time: 0 hr 55 min 10 sec) 
Heartbeat CPU 0 instructions: 280000000 cycles: 138407005 heartbeat IPC: 0.825335 cumulative IPC: 0.821173 (Simulation time: 0 hr 55 min 21 sec) 
Heartbeat CPU 3 instructions: 270000002 cycles: 141243957 heartbeat IPC: 0.379611 cumulative IPC: 0.4107 (Simulation time: 0 hr 55 min 53 sec) 
Heartbeat CPU 2 instructions: 250000001 cycles: 143686260 heartbeat IPC: 0.548122 cumulative IPC: 0.547941 (Simulation time: 0 hr 56 min 19 sec) 
Heartbeat CPU 1 instructions: 240000000 cycles: 148157917 heartbeat IPC: 0.931359 cumulative IPC: 0.936975 (Simulation time: 0 hr 57 min 8 sec) 
Heartbeat CPU 0 instructions: 290000000 cycles: 150703023 heartbeat IPC: 0.813271 cumulative IPC: 0.819025 (Simulation time: 0 hr 57 min 38 sec) 
Heartbeat CPU 1 instructions: 250000003 cycles: 158766384 heartbeat IPC: 0.942644 cumulative IPC: 0.938103 (Simulation time: 0 hr 59 min 10 sec) 
Heartbeat CPU 2 instructions: 260000000 cycles: 161948568 heartbeat IPC: 0.547576 cumulative IPC: 0.547823 (Simulation time: 0 hr 59 min 47 sec) 
Heartbeat CPU 0 instructions: 300000000 cycles: 162965794 heartbeat IPC: 0.815476 cumulative IPC: 0.818268 (Simulation time: 0 hr 59 min 59 sec) 
Heartbeat CPU 3 instructions: 280000000 cycles: 167690014 heartbeat IPC: 0.378128 cumulative IPC: 0.396856 (Simulation time: 1 hr 0 min 54 sec) 
Heartbeat CPU 1 instructions: 260000000 cycles: 169511406 heartbeat IPC: 0.930663 cumulative IPC: 0.936855 (Simulation time: 1 hr 1 min 15 sec) 
Heartbeat CPU 0 instructions: 310000003 cycles: 175247800 heartbeat IPC: 0.8142 cumulative IPC: 0.817552 (Simulation time: 1 hr 2 min 24 sec) 
Heartbeat CPU 2 instructions: 270000000 cycles: 179717657 heartbeat IPC: 0.562775 cumulative IPC: 0.551401 (Simulation time: 1 hr 3 min 20 sec) 
Heartbeat CPU 1 instructions: 270000001 cycles: 179906296 heartbeat IPC: 0.962011 cumulative IPC: 0.940368 (Simulation time: 1 hr 3 min 22 sec) 
Heartbeat CPU 0 instructions: 320000000 cycles: 187586837 heartbeat IPC: 0.810436 cumulative IPC: 0.816483 (Simulation time: 1 hr 4 min 50 sec) 
Heartbeat CPU 3 instructions: 290000000 cycles: 189316207 heartbeat IPC: 0.462402 cumulative IPC: 0.413762 (Simulation time: 1 hr 5 min 10 sec) 
Heartbeat CPU 1 instructions: 280000000 cycles: 190561452 heartbeat IPC: 0.938513 cumulative IPC: 0.940136 (Simulation time: 1 hr 5 min 27 sec) 
Heartbeat CPU 2 instructions: 280000000 cycles: 197485969 heartbeat IPC: 0.5628 cumulative IPC: 0.553602 (Simulation time: 1 hr 6 min 49 sec) 
Heartbeat CPU 0 instructions: 330000000 cycles: 199913748 heartbeat IPC: 0.811233 cumulative IPC: 0.815798 (Simulation time: 1 hr 7 min 16 sec) 
Heartbeat CPU 1 instructions: 290000002 cycles: 201683104 heartbeat IPC: 0.899147 cumulative IPC: 0.935398 (Simulation time: 1 hr 7 min 35 sec) 
Heartbeat CPU 0 instructions: 340000000 cycles: 212176606 heartbeat IPC: 0.815471 cumulative IPC: 0.81576 (Simulation time: 1 hr 9 min 34 sec) 
Heartbeat CPU 1 instructions: 300000000 cycles: 212891303 heartbeat IPC: 0.892204 cumulative IPC: 0.930891 (Simulation time: 1 hr 9 min 42 sec) 
Heartbeat CPU 3 instructions: 300000000 cycles: 213929449 heartbeat IPC: 0.406285 cumulative IPC: 0.412065 (Simulation time: 1 hr 9 min 54 sec) 
Heartbeat CPU 2 instructions: 290000002 cycles: 215451560 heartbeat IPC: 0.55662 cumulative IPC: 0.554095 (Simulation time: 1 hr 10 min 13 sec) 
Heartbeat CPU 1 instructions: 310000001 cycles: 224273080 heartbeat IPC: 0.878597 cumulative IPC: 0.925881 (Simulation time: 1 hr 11 min 51 sec) 
Heartbeat CPU 0 instructions: 350000000 cycles: 224429571 heartbeat IPC: 0.816129 cumulative IPC: 0.815798 (Simulation time: 1 hr 11 min 53 sec) 
Heartbeat CPU 2 instructions: 300000000 cycles: 233829470 heartbeat IPC: 0.544131 cumulative IPC: 0.552669 (Simulation time: 1 hr 13 min 38 sec) 
Heartbeat CPU 1 instructions: 320000000 cycles: 236444565 heartbeat IPC: 0.821592 cumulative IPC: 0.91619 (Simulation time: 1 hr 14 min 8 sec) 
Heartbeat CPU 0 instructions: 360000000 cycles: 236736399 heartbeat IPC: 0.812557 cumulative IPC: 0.815494 (Simulation time: 1 hr 14 min 13 sec) 
Heartbeat CPU 3 instructions: 310000003 cycles: 238873674 heartbeat IPC: 0.400895 cumulative IPC: 0.409976 (Simulation time: 1 hr 14 min 45 sec) 
Heartbeat CPU 1 instructions: 330000003 cycles: 248863445 heartbeat IPC: 0.805226 cumulative IPC: 0.90658 (Simulation time: 1 hr 16 min 47 sec) 
Heartbeat CPU 0 instructions: 370000001 cycles: 248933309 heartbeat IPC: 0.81988 cumulative IPC: 0.815867 (Simulation time: 1 hr 16 min 47 sec) 
Heartbeat CPU 2 instructions: 310000002 cycles: 252674197 heartbeat IPC: 0.530653 cumulative IPC: 0.54985 (Simulation time: 1 hr 17 min 28 sec) 
Heartbeat CPU 0 instructions: 380000000 cycles: 261141740 heartbeat IPC: 0.819106 cumulative IPC: 0.816121 (Simulation time: 1 hr 19 min 1 sec) 
Heartbeat CPU 1 instructions: 340000000 cycles: 261275854 heartbeat IPC: 0.805645 cumulative IPC: 0.898539 (Simulation time: 1 hr 19 min 2 sec) 
Heartbeat CPU 3 instructions: 320000000 cycles: 265439474 heartbeat IPC: 0.376424 cumulative IPC: 0.404405 (Simulation time: 1 hr 19 min 48 sec) 
Heartbeat CPU 2 instructions: 320000000 cycles: 271733777 heartbeat IPC: 0.52467 cumulative IPC: 0.546964 (Simulation time: 1 hr 21 min 51 sec) 
Heartbeat CPU 0 instructions: 390000001 cycles: 273305367 heartbeat IPC: 0.822123 cumulative IPC: 0.816556 (Simulation time: 1 hr 22 min 9 sec) 
Heartbeat CPU 1 instructions: 350000002 cycles: 273670790 heartbeat IPC: 0.806781 cumulative IPC: 0.891777 (Simulation time: 1 hr 22 min 14 sec) 
Heartbeat CPU 0 instructions: 400000000 cycles: 285479784 heartbeat IPC: 0.821395 cumulative IPC: 0.816883 (Simulation time: 1 hr 24 min 29 sec) 
Heartbeat CPU 1 instructions: 360000000 cycles: 286076574 heartbeat IPC: 0.806075 cumulative IPC: 0.885891 (Simulation time: 1 hr 24 min 35 sec) 
Heartbeat CPU 3 instructions: 330000002 cycles: 287289832 heartbeat IPC: 0.457658 cumulative IPC: 0.410804 (Simulation time: 1 hr 24 min 49 sec) 
Heartbeat CPU 2 instructions: 330000003 cycles: 290727690 heartbeat IPC: 0.526485 cumulative IPC: 0.544864 (Simulation time: 1 hr 25 min 27 sec) 
Heartbeat CPU 0 instructions: 410000002 cycles: 297588245 heartbeat IPC: 0.825869 cumulative IPC: 0.81745 (Simulation time: 1 hr 26 min 43 sec) 
Heartbeat CPU 1 instructions: 370000000 cycles: 298471638 heartbeat IPC: 0.806773 cumulative IPC: 0.880809 (Simulation time: 1 hr 26 min 53 sec) 
Heartbeat CPU 2 instructions: 340000000 cycles: 309047442 heartbeat IPC: 0.545859 cumulative IPC: 0.544954 (Simulation time: 1 hr 29 min 43 sec) 
Heartbeat CPU 0 instructions: 420000000 cycles: 309699856 heartbeat IPC: 0.825654 cumulative IPC: 0.817936 (Simulation time: 1 hr 29 min 56 sec) 
Heartbeat CPU 3 instructions: 340000000 cycles: 310601789 heartbeat IPC: 0.428964 cumulative IPC: 0.412868 (Simulation time: 1 hr 30 min 9 sec) 
Heartbeat CPU 1 instructions: 380000000 cycles: 310826413 heartbeat IPC: 0.809404 cumulative IPC: 0.876514 (Simulation time: 1 hr 30 min 12 sec) 
Heartbeat CPU 0 instructions: 430000000 cycles: 321847870 heartbeat IPC: 0.82318 cumulative IPC: 0.818231 (Simulation time: 1 hr 32 min 32 sec) 
Heartbeat CPU 1 instructions: 390000001 cycles: 323301158 heartbeat IPC: 0.80162 cumulative IPC: 0.872225 (Simulation time: 1 hr 32 min 49 sec) 
Heartbeat CPU 2 instructions: 350000000 cycles: 327742536 heartbeat IPC: 0.5349 cumulative IPC: 0.544108 (Simulation time: 1 hr 33 min 42 sec) 
Heartbeat CPU 3 instructions: 350000001 cycles: 332139386 heartbeat IPC: 0.464304 cumulative IPC: 0.417755 (Simulation time: 1 hr 34 min 31 sec) 
Heartbeat CPU 0 instructions: 440000000 cycles: 333928917 heartbeat IPC: 0.827743 cumulative IPC: 0.818734 (Simulation time: 1 hr 34 min 50 sec) 
Heartbeat CPU 1 instructions: 400000000 cycles: 335676669 heartbeat IPC: 0.808047 cumulative IPC: 0.868775 (Simulation time: 1 hr 35 min 10 sec) 
Heartbeat CPU 0 instructions: 450000000 cycles: 345984924 heartbeat IPC: 0.829462 cumulative IPC: 0.819271 (Simulation time: 1 hr 37 min 4 sec) 
Heartbeat CPU 2 instructions: 360000000 cycles: 346447542 heartbeat IPC: 0.534616 cumulative IPC: 0.543371 (Simulation time: 1 hr 37 min 9 sec) 
Heartbeat CPU 1 instructions: 410000000 cycles: 348107429 heartbeat IPC: 0.804456 cumulative IPC: 0.865479 (Simulation time: 1 hr 37 min 28 sec) 
Heartbeat CPU 0 instructions: 460000000 cycles: 358018126 heartbeat IPC: 0.831034 cumulative IPC: 0.819832 (Simulation time: 1 hr 39 min 16 sec) 
Heartbeat CPU 3 instructions: 360000000 cycles: 359774278 heartbeat IPC: 0.361861 cumulative IPC: 0.411681 (Simulation time: 1 hr 39 min 36 sec) 
Heartbeat CPU 1 instructions: 420000000 cycles: 360421211 heartbeat IPC: 0.812098 cumulative IPC: 0.862901 (Simulation time: 1 hr 39 min 43 sec) 
Heartbeat CPU 2 instructions: 370000001 cycles: 364819528 heartbeat IPC: 0.544307 cumulative IPC: 0.543438 (Simulation time: 1 hr 40 min 32 sec) 
Heartbeat CPU 0 instructions: 470000002 cycles: 370044028 heartbeat IPC: 0.831539 cumulative IPC: 0.820364 (Simulation time: 1 hr 41 min 28 sec) 
Heartbeat CPU 1 instructions: 430000000 cycles: 372777960 heartbeat IPC: 0.809274 cumulative IPC: 0.860422 (Simulation time: 1 hr 41 min 58 sec) 
Heartbeat CPU 0 instructions: 480000000 cycles: 382104117 heartbeat IPC: 0.829181 cumulative IPC: 0.820748 (Simulation time: 1 hr 43 min 43 sec) 
Heartbeat CPU 2 instructions: 380000000 cycles: 383339388 heartbeat IPC: 0.539961 cumulative IPC: 0.543206 (Simulation time: 1 hr 43 min 57 sec) 
Heartbeat CPU 3 instructions: 370000001 cycles: 384627686 heartbeat IPC: 0.402359 cumulative IPC: 0.410852 (Simulation time: 1 hr 44 min 11 sec) 
Heartbeat CPU 1 instructions: 440000000 cycles: 385190284 heartbeat IPC: 0.805651 cumulative IPC: 0.857992 (Simulation time: 1 hr 44 min 18 sec) 
Heartbeat CPU 0 instructions: 490000000 cycles: 394157105 heartbeat IPC: 0.82967 cumulative IPC: 0.821121 (Simulation time: 1 hr 45 min 59 sec) 
Heartbeat CPU 1 instructions: 450000000 cycles: 397669690 heartbeat IPC: 0.80132 cumulative IPC: 0.855572 (Simulation time: 1 hr 46 min 39 sec) 
Heartbeat CPU 2 instructions: 390000000 cycles: 401411148 heartbeat IPC: 0.55335 cumulative IPC: 0.543825 (Simulation time: 1 hr 48 min 8 sec) 
Heartbeat CPU 0 instructions: 500000000 cycles: 406204450 heartbeat IPC: 0.830058 cumulative IPC: 0.821479 (Simulation time: 1 hr 50 min 0 sec) 
Heartbeat CPU 1 instructions: 460000000 cycles: 410044493 heartbeat IPC: 0.808094 cumulative IPC: 0.853643 (Simulation time: 1 hr 51 min 29 sec) 
Heartbeat CPU 3 instructions: 380000000 cycles: 410112871 heartbeat IPC: 0.392385 cumulative IPC: 0.409307 (Simulation time: 1 hr 51 min 29 sec) 
Heartbeat CPU 0 instructions: 510000000 cycles: 418277197 heartbeat IPC: 0.828312 cumulative IPC: 0.821743 (Simulation time: 1 hr 53 min 0 sec) 
Heartbeat CPU 2 instructions: 400000000 cycles: 420059889 heartbeat IPC: 0.536229 cumulative IPC: 0.543375 (Simulation time: 1 hr 53 min 21 sec) 
Heartbeat CPU 1 instructions: 470000000 cycles: 422526341 heartbeat IPC: 0.801163 cumulative IPC: 0.851577 (Simulation time: 1 hr 53 min 48 sec) 
Heartbeat CPU 0 instructions: 520000000 cycles: 430326969 heartbeat IPC: 0.829891 cumulative IPC: 0.822045 (Simulation time: 1 hr 55 min 17 sec) 
Heartbeat CPU 3 instructions: 390000003 cycles: 433285387 heartbeat IPC: 0.431546 cumulative IPC: 0.410879 (Simulation time: 1 hr 55 min 51 sec) 
Heartbeat CPU 1 instructions: 480000000 cycles: 434953598 heartbeat IPC: 0.804683 cumulative IPC: 0.849808 (Simulation time: 1 hr 56 min 10 sec) 
Heartbeat CPU 2 instructions: 410000003 cycles: 438802122 heartbeat IPC: 0.533554 cumulative IPC: 0.542823 (Simulation time: 1 hr 56 min 53 sec) 
Heartbeat CPU 0 instructions: 530000000 cycles: 442400344 heartbeat IPC: 0.828269 cumulative IPC: 0.822268 (Simulation time: 1 hr 57 min 37 sec) 
Heartbeat CPU 1 instructions: 490000003 cycles: 447325914 heartbeat IPC: 0.808256 cumulative IPC: 0.848304 (Simulation time: 1 hr 58 min 35 sec) 
Heartbeat CPU 3 instructions: 400000000 cycles: 451934583 heartbeat IPC: 0.536216 cumulative IPC: 0.417625 (Simulation time: 1 hr 59 min 31 sec) 
Heartbeat CPU 0 instructions: 540000000 cycles: 454424983 heartbeat IPC: 0.831626 cumulative IPC: 0.82259 (Simulation time: 1 hr 59 min 58 sec) 
Heartbeat CPU 2 instructions: 420000000 cycles: 457486153 heartbeat IPC: 0.535216 cumulative IPC: 0.542419 (Simulation time: 2 hr 0 min 34 sec) 
Heartbeat CPU 1 instructions: 500000000 cycles: 459640843 heartbeat IPC: 0.812022 cumulative IPC: 0.847043 (Simulation time: 2 hr 0 min 59 sec) 
Heartbeat CPU 0 instructions: 550000000 cycles: 466420645 heartbeat IPC: 0.833635 cumulative IPC: 0.822957 (Simulation time: 2 hr 2 min 15 sec) 
Heartbeat CPU 1 instructions: 510000002 cycles: 471981822 heartbeat IPC: 0.810309 cumulative IPC: 0.845806 (Simulation time: 2 hr 3 min 17 sec) 
Heartbeat CPU 3 instructions: 410000002 cycles: 475108666 heartbeat IPC: 0.431517 cumulative IPC: 0.418496 (Simulation time: 2 hr 3 min 52 sec) 
Heartbeat CPU 2 instructions: 430000003 cycles: 476322921 heartbeat IPC: 0.530877 cumulative IPC: 0.541833 (Simulation time: 2 hr 4 min 6 sec) 
Heartbeat CPU 0 instructions: 560000000 cycles: 478435338 heartbeat IPC: 0.832314 cumulative IPC: 0.823259 (Simulation time: 2 hr 4 min 30 sec) 
Heartbeat CPU 1 instructions: 520000000 cycles: 484377194 heartbeat IPC: 0.806753 cumulative IPC: 0.844528 (Simulation time: 2 hr 5 min 37 sec) 
Heartbeat CPU 0 instructions: 570000001 cycles: 490468726 heartbeat IPC: 0.831021 cumulative IPC: 0.823501 (Simulation time: 2 hr 6 min 47 sec) 
Heartbeat CPU 3 instructions: 420000000 cycles: 494005829 heartbeat IPC: 0.52918 cumulative IPC: 0.423879 (Simulation time: 2 hr 7 min 31 sec) 
Heartbeat CPU 2 instructions: 440000000 cycles: 494559898 heartbeat IPC: 0.548336 cumulative IPC: 0.542138 (Simulation time: 2 hr 7 min 38 sec) 
Heartbeat CPU 1 instructions: 530000003 cycles: 496620413 heartbeat IPC: 0.816779 cumulative IPC: 0.84366 (Simulation time: 2 hr 8 min 4 sec) 
Heartbeat CPU 0 instructions: 580000000 cycles: 502401055 heartbeat IPC: 0.838059 cumulative IPC: 0.823939 (Simulation time: 2 hr 9 min 15 sec) 
Heartbeat CPU 3 instructions: 430000001 cycles: 507153742 heartbeat IPC: 0.760577 cumulative IPC: 0.4349 (Simulation time: 2 hr 10 min 14 sec) 
Heartbeat CPU 1 instructions: 540000000 cycles: 508825890 heartbeat IPC: 0.819304 cumulative IPC: 0.842923 (Simulation time: 2 hr 10 min 35 sec) 
Heartbeat CPU 2 instructions: 450000001 cycles: 512735775 heartbeat IPC: 0.55018 cumulative IPC: 0.542497 (Simulation time: 2 hr 11 min 24 sec) 
Heartbeat CPU 0 instructions: 590000002 cycles: 514362395 heartbeat IPC: 0.836027 cumulative IPC: 0.824293 (Simulation time: 2 hr 11 min 44 sec) 
Heartbeat CPU 3 instructions: 440000000 cycles: 520488748 heartbeat IPC: 0.749906 cumulative IPC: 0.445022 (Simulation time: 2 hr 12 min 57 sec) 
Heartbeat CPU 1 instructions: 550000001 cycles: 520955781 heartbeat IPC: 0.82441 cumulative IPC: 0.842382 (Simulation time: 2 hr 13 min 2 sec) 
Heartbeat CPU 0 instructions: 600000000 cycles: 526317618 heartbeat IPC: 0.836454 cumulative IPC: 0.824638 (Simulation time: 2 hr 14 min 6 sec) 
Heartbeat CPU 2 instructions: 460000000 cycles: 530692027 heartbeat IPC: 0.556909 cumulative IPC: 0.543105 (Simulation time: 2 hr 14 min 58 sec) 
Heartbeat CPU 1 instructions: 560000000 cycles: 533081288 heartbeat IPC: 0.824708 cumulative IPC: 0.841881 (Simulation time: 2 hr 15 min 26 sec) 
Heartbeat CPU 3 instructions: 450000003 cycles: 533803020 heartbeat IPC: 0.751074 cumulative IPC: 0.454535 (Simulation time: 2 hr 15 min 34 sec) 
Heartbeat CPU 0 instructions: 610000000 cycles: 538274909 heartbeat IPC: 0.83631 cumulative IPC: 0.824961 (Simulation time: 2 hr 16 min 27 sec) 
Heartbeat CPU 1 instructions: 570000003 cycles: 545291857 heartbeat IPC: 0.818963 cumulative IPC: 0.841245 (Simulation time: 2 hr 17 min 51 sec) 
Heartbeat CPU 3 instructions: 460000000 cycles: 546965442 heartbeat IPC: 0.759738 cumulative IPC: 0.463634 (Simulation time: 2 hr 18 min 11 sec) 
Heartbeat CPU 2 instructions: 470000002 cycles: 549202127 heartbeat IPC: 0.540246 cumulative IPC: 0.542986 (Simulation time: 2 hr 18 min 37 sec) 
Heartbeat CPU 0 instructions: 620000000 cycles: 550395257 heartbeat IPC: 0.825059 cumulative IPC: 0.824963 (Simulation time: 2 hr 18 min 51 sec) 
Heartbeat CPU 1 instructions: 580000000 cycles: 557463696 heartbeat IPC: 0.821568 cumulative IPC: 0.840715 (Simulation time: 2 hr 20 min 19 sec) 
Heartbeat CPU 3 instructions: 470000000 cycles: 560301328 heartbeat IPC: 0.749856 cumulative IPC: 0.472026 (Simulation time: 2 hr 20 min 54 sec) 
Heartbeat CPU 0 instructions: 630000002 cycles: 562417836 heartbeat IPC: 0.831768 cumulative IPC: 0.825142 (Simulation time: 2 hr 21 min 20 sec) 
Heartbeat CPU 2 instructions: 480000000 cycles: 567525287 heartbeat IPC: 0.545757 cumulative IPC: 0.543096 (Simulation time: 2 hr 22 min 23 sec) 
Heartbeat CPU 1 instructions: 590000001 cycles: 569734524 heartbeat IPC: 0.814941 cumulative IPC: 0.840034 (Simulation time: 2 hr 22 min 50 sec) 
Heartbeat CPU 3 instructions: 480000000 cycles: 573785795 heartbeat IPC: 0.741594 cumulative IPC: 0.479788 (Simulation time: 2 hr 23 min 41 sec) 
Heartbeat CPU 0 instructions: 640000000 cycles: 574385640 heartbeat IPC: 0.835575 cumulative IPC: 0.825409 (Simulation time: 2 hr 23 min 48 sec) 
Heartbeat CPU 1 instructions: 600000000 cycles: 581990335 heartbeat IPC: 0.815939 cumulative IPC: 0.839414 (Simulation time: 2 hr 25 min 21 sec) 
Heartbeat CPU 2 instructions: 490000001 cycles: 585772727 heartbeat IPC: 0.548022 cumulative IPC: 0.543283 (Simulation time: 2 hr 26 min 7 sec) 
Heartbeat CPU 0 instructions: 650000000 cycles: 586402864 heartbeat IPC: 0.832139 cumulative IPC: 0.825577 (Simulation time: 2 hr 26 min 15 sec) 
Heartbeat CPU 3 instructions: 490000000 cycles: 587264276 heartbeat IPC: 0.741923 cumulative IPC: 0.487121 (Simulation time: 2 hr 26 min 26 sec) 
Heartbeat CPU 1 instructions: 610000000 cycles: 594189621 heartbeat IPC: 0.81972 cumulative IPC: 0.838922 (Simulation time: 2 hr 27 min 52 sec) 
Heartbeat CPU 0 instructions: 660000000 cycles: 598388006 heartbeat IPC: 0.834366 cumulative IPC: 0.82579 (Simulation time: 2 hr 28 min 44 sec) 
Heartbeat CPU 3 instructions: 500000000 cycles: 600821588 heartbeat IPC: 0.737609 cumulative IPC: 0.493977 (Simulation time: 2 hr 29 min 14 sec) 
Heartbeat CPU 2 instructions: 500000000 cycles: 603821335 heartbeat IPC: 0.554059 cumulative IPC: 0.543673 (Simulation time: 2 hr 29 min 51 sec) 
Heartbeat CPU 1 instructions: 620000000 cycles: 606400893 heartbeat IPC: 0.818915 cumulative IPC: 0.838435 (Simulation time: 2 hr 30 min 24 sec) 
Heartbeat CPU 0 instructions: 670000000 cycles: 610560167 heartbeat IPC: 0.821547 cumulative IPC: 0.825688 (Simulation time: 2 hr 31 min 16 sec) 
Heartbeat CPU 3 instructions: 510000000 cycles: 614063539 heartbeat IPC: 0.755176 cumulative IPC: 0.500777 (Simulation time: 2 hr 31 min 59 sec) 
Heartbeat CPU 1 instructions: 630000002 cycles: 618590998 heartbeat IPC: 0.820338 cumulative IPC: 0.838005 (Simulation time: 2 hr 32 min 55 sec) 
Heartbeat CPU 2 instructions: 510000003 cycles: 622219764 heartbeat IPC: 0.543525 cumulative IPC: 0.543668 (Simulation time: 2 hr 33 min 40 sec) 
Heartbeat CPU 0 instructions: 680000000 cycles: 622671455 heartbeat IPC: 0.825676 cumulative IPC: 0.825688 (Simulation time: 2 hr 33 min 45 sec) 
Heartbeat CPU 3 instructions: 520000000 cycles: 627460475 heartbeat IPC: 0.746439 cumulative IPC: 0.507082 (Simulation time: 2 hr 34 min 45 sec) 
Heartbeat CPU 1 instructions: 640000000 cycles: 630803032 heartbeat IPC: 0.818864 cumulative IPC: 0.83756 (Simulation time: 2 hr 35 min 27 sec) 
Heartbeat CPU 0 instructions: 690000000 cycles: 634819256 heartbeat IPC: 0.823194 cumulative IPC: 0.825631 (Simulation time: 2 hr 36 min 16 sec) 
Heartbeat CPU 2 instructions: 520000000 cycles: 640497582 heartbeat IPC: 0.547111 cumulative IPC: 0.543786 (Simulation time: 2 hr 37 min 27 sec) 
Heartbeat CPU 3 instructions: 530000002 cycles: 640756442 heartbeat IPC: 0.752108 cumulative IPC: 0.513168 (Simulation time: 2 hr 37 min 30 sec) 
Heartbeat CPU 1 instructions: 650000000 cycles: 643017171 heartbeat IPC: 0.818723 cumulative IPC: 0.837132 (Simulation time: 2 hr 37 min 58 sec) 
Heartbeat CPU 0 instructions: 700000000 cycles: 646897700 heartbeat IPC: 0.827921 cumulative IPC: 0.825682 (Simulation time: 2 hr 38 min 46 sec) 
Heartbeat CPU 3 instructions: 540000000 cycles: 654223265 heartbeat IPC: 0.742566 cumulative IPC: 0.518798 (Simulation time: 2 hr 40 min 17 sec) 
Heartbeat CPU 1 instructions: 660000000 cycles: 655202793 heartbeat IPC: 0.820639 cumulative IPC: 0.836766 (Simulation time: 2 hr 40 min 29 sec) 
Heartbeat CPU 2 instructions: 530000000 cycles: 659025133 heartbeat IPC: 0.539737 cumulative IPC: 0.54365 (Simulation time: 2 hr 41 min 17 sec) 
Heartbeat CPU 0 instructions: 710000000 cycles: 659079674 heartbeat IPC: 0.820885 cumulative IPC: 0.825576 (Simulation time: 2 hr 41 min 17 sec) 
Heartbeat CPU 1 instructions: 670000001 cycles: 667328756 heartbeat IPC: 0.824677 cumulative IPC: 0.836505 (Simulation time: 2 hr 43 min 0 sec) 
Heartbeat CPU 3 instructions: 550000002 cycles: 667551241 heartbeat IPC: 0.750302 cumulative IPC: 0.524287 (Simulation time: 2 hr 43 min 3 sec) 
Heartbeat CPU 0 instructions: 720000000 cycles: 671141187 heartbeat IPC: 0.829083 cumulative IPC: 0.825651 (Simulation time: 2 hr 43 min 47 sec) 
Heartbeat CPU 2 instructions: 540000000 cycles: 677372396 heartbeat IPC: 0.54504 cumulative IPC: 0.543695 (Simulation time: 2 hr 45 min 5 sec) 
Heartbeat CPU 1 instructions: 680000000 cycles: 679490188 heartbeat IPC: 0.822272 cumulative IPC: 0.836204 (Simulation time: 2 hr 45 min 31 sec) 
Heartbeat CPU 3 instructions: 560000000 cycles: 680934092 heartbeat IPC: 0.747225 cumulative IPC: 0.529472 (Simulation time: 2 hr 45 min 49 sec) 
Heartbeat CPU 0 instructions: 730000001 cycles: 683223170 heartbeat IPC: 0.827679 cumulative IPC: 0.825693 (Simulation time: 2 hr 46 min 18 sec) 
Heartbeat CPU 1 instructions: 690000003 cycles: 691690401 heartbeat IPC: 0.819658 cumulative IPC: 0.835859 (Simulation time: 2 hr 48 min 3 sec) 
Heartbeat CPU 3 instructions: 570000001 cycles: 694160661 heartbeat IPC: 0.756054 cumulative IPC: 0.534563 (Simulation time: 2 hr 48 min 34 sec) 
Heartbeat CPU 0 instructions: 740000000 cycles: 695337229 heartbeat IPC: 0.825487 cumulative IPC: 0.825689 (Simulation time: 2 hr 48 min 49 sec) 
Heartbeat CPU 2 instructions: 550000001 cycles: 695620775 heartbeat IPC: 0.547994 cumulative IPC: 0.543828 (Simulation time: 2 hr 48 min 52 sec) 
Heartbeat CPU 1 instructions: 700000000 cycles: 703887764 heartbeat IPC: 0.819849 cumulative IPC: 0.835533 (Simulation time: 2 hr 50 min 35 sec) 
Heartbeat CPU 3 instructions: 580000000 cycles: 707209973 heartbeat IPC: 0.766324 cumulative IPC: 0.539589 (Simulation time: 2 hr 51 min 16 sec) 
Heartbeat CPU 0 instructions: 750000000 cycles: 707511170 heartbeat IPC: 0.821427 cumulative IPC: 0.825603 (Simulation time: 2 hr 51 min 20 sec) 
Heartbeat CPU 2 instructions: 560000000 cycles: 713981780 heartbeat IPC: 0.544632 cumulative IPC: 0.543852 (Simulation time: 2 hr 52 min 41 sec) 
Heartbeat CPU 1 instructions: 710000002 cycles: 716071420 heartbeat IPC: 0.820772 cumulative IPC: 0.835238 (Simulation time: 2 hr 53 min 6 sec) 
Heartbeat CPU 0 instructions: 760000000 cycles: 719671100 heartbeat IPC: 0.822373 cumulative IPC: 0.825539 (Simulation time: 2 hr 53 min 51 sec) 
Heartbeat CPU 3 instructions: 590000002 cycles: 720399192 heartbeat IPC: 0.758195 cumulative IPC: 0.544277 (Simulation time: 2 hr 54 min 0 sec) 
Heartbeat CPU 1 instructions: 720000000 cycles: 728242846 heartbeat IPC: 0.821596 cumulative IPC: 0.834972 (Simulation time: 2 hr 55 min 38 sec) 
Heartbeat CPU 0 instructions: 770000001 cycles: 731746722 heartbeat IPC: 0.828115 cumulative IPC: 0.825589 (Simulation time: 2 hr 56 min 22 sec) 
Heartbeat CPU 2 instructions: 570000001 cycles: 732602568 heartbeat IPC: 0.537034 cumulative IPC: 0.543649 (Simulation time: 2 hr 56 min 32 sec) 
Heartbeat CPU 3 instructions: 600000000 cycles: 733632482 heartbeat IPC: 0.75567 cumulative IPC: 0.548731 (Simulation time: 2 hr 56 min 45 sec) 
Heartbeat CPU 1 instructions: 730000000 cycles: 740475044 heartbeat IPC: 0.817515 cumulative IPC: 0.834636 (Simulation time: 2 hr 58 min 11 sec) 
Heartbeat CPU 0 instructions: 780000000 cycles: 743951571 heartbeat IPC: 0.819346 cumulative IPC: 0.825469 (Simulation time: 2 hr 58 min 54 sec) 
Heartbeat CPU 3 instructions: 610000002 cycles: 746604034 heartbeat IPC: 0.770918 cumulative IPC: 0.553226 (Simulation time: 2 hr 59 min 27 sec) 
Heartbeat CPU 2 instructions: 580000000 cycles: 751220059 heartbeat IPC: 0.537129 cumulative IPC: 0.543462 (Simulation time: 3 hr 0 min 24 sec) 
Heartbeat CPU 1 instructions: 740000000 cycles: 752680918 heartbeat IPC: 0.819278 cumulative IPC: 0.834346 (Simulation time: 3 hr 0 min 42 sec) 
Heartbeat CPU 0 instructions: 790000002 cycles: 756335571 heartbeat IPC: 0.807494 cumulative IPC: 0.825127 (Simulation time: 3 hr 1 min 28 sec) 
Heartbeat CPU 3 instructions: 620000000 cycles: 760004045 heartbeat IPC: 0.746268 cumulative IPC: 0.557178 (Simulation time: 3 hr 2 min 15 sec) 
Heartbeat CPU 1 instructions: 750000001 cycles: 763067226 heartbeat IPC: 0.962806 cumulative IPC: 0.836375 (Simulation time: 3 hr 2 min 56 sec) 
Heartbeat CPU 0 instructions: 800000000 cycles: 768461990 heartbeat IPC: 0.824646 cumulative IPC: 0.825119 (Simulation time: 3 hr 4 min 7 sec) 
Heartbeat CPU 2 instructions: 590000001 cycles: 769667555 heartbeat IPC: 0.542079 cumulative IPC: 0.543423 (Simulation time: 3 hr 4 min 23 sec) 
Heartbeat CPU 1 instructions: 760000000 cycles: 772339904 heartbeat IPC: 1.07844 cumulative IPC: 0.839741 (Simulation time: 3 hr 5 min 0 sec) 
Heartbeat CPU 3 instructions: 630000002 cycles: 773258682 heartbeat IPC: 0.754453 cumulative IPC: 0.561094 (Simulation time: 3 hr 5 min 12 sec) 
Heartbeat CPU 0 instructions: 810000000 cycles: 780549506 heartbeat IPC: 0.8273 cumulative IPC: 0.825158 (Simulation time: 3 hr 6 min 47 sec) 
Heartbeat CPU 1 instructions: 770000003 cycles: 781646819 heartbeat IPC: 1.07447 cumulative IPC: 0.842972 (Simulation time: 3 hr 7 min 1 sec) 
Heartbeat CPU 3 instructions: 640000000 cycles: 786858555 heartbeat IPC: 0.735301 cumulative IPC: 0.564571 (Simulation time: 3 hr 8 min 11 sec) 
Heartbeat CPU 2 instructions: 600000000 cycles: 787647894 heartbeat IPC: 0.556163 cumulative IPC: 0.543759 (Simulation time: 3 hr 8 min 21 sec) 
Heartbeat CPU 1 instructions: 780000000 cycles: 790924285 heartbeat IPC: 1.07788 cumulative IPC: 0.846151 (Simulation time: 3 hr 9 min 5 sec) 
Heartbeat CPU 0 instructions: 820000000 cycles: 792739456 heartbeat IPC: 0.820348 cumulative IPC: 0.825072 (Simulation time: 3 hr 9 min 29 sec) 
Heartbeat CPU 3 instructions: 650000001 cycles: 800075387 heartbeat IPC: 0.756611 cumulative IPC: 0.568225 (Simulation time: 3 hr 11 min 1 sec) 
Heartbeat CPU 1 instructions: 790000002 cycles: 802336875 heartbeat IPC: 0.876225 cumulative IPC: 0.846643 (Simulation time: 3 hr 11 min 29 sec) 
Heartbeat CPU 0 instructions: 830000000 cycles: 804827493 heartbeat IPC: 0.827264 cumulative IPC: 0.82511 (Simulation time: 3 hr 12 min 0 sec) 
Heartbeat CPU 2 instructions: 610000001 cycles: 806024926 heartbeat IPC: 0.544158 cumulative IPC: 0.543769 (Simulation time: 3 hr 12 min 15 sec) 
Heartbeat CPU 3 instructions: 660000000 cycles: 813415316 heartbeat IPC: 0.749629 cumulative IPC: 0.571643 (Simulation time: 3 hr 13 min 47 sec) 
Heartbeat CPU 1 instructions: 800000000 cycles: 814573923 heartbeat IPC: 0.81719 cumulative IPC: 0.846135 (Simulation time: 3 hr 14 min 1 sec) 
Heartbeat CPU 0 instructions: 840000000 cycles: 817019522 heartbeat IPC: 0.820208 cumulative IPC: 0.825026 (Simulation time: 3 hr 14 min 32 sec) 
Heartbeat CPU 2 instructions: 620000000 cycles: 824119262 heartbeat IPC: 0.552659 cumulative IPC: 0.543993 (Simulation time: 3 hr 16 min 0 sec) 
Heartbeat CPU 1 instructions: 810000000 cycles: 826725500 heartbeat IPC: 0.822938 cumulative IPC: 0.845744 (Simulation time: 3 hr 16 min 32 sec) 
Heartbeat CPU 3 instructions: 670000000 cycles: 826821114 heartbeat IPC: 0.745946 cumulative IPC: 0.574882 (Simulation time: 3 hr 16 min 33 sec) 
Heartbeat CPU 0 instructions: 850000000 cycles: 829076036 heartbeat IPC: 0.829427 cumulative IPC: 0.825099 (Simulation time: 3 hr 17 min 1 sec) 
Heartbeat CPU 1 instructions: 820000000 cycles: 838939633 heartbeat IPC: 0.818724 cumulative IPC: 0.845294 (Simulation time: 3 hr 19 min 4 sec) 
Heartbeat CPU 3 instructions: 680000000 cycles: 840177890 heartbeat IPC: 0.748684 cumulative IPC: 0.578042 (Simulation time: 3 hr 19 min 20 sec) 
Heartbeat CPU 0 instructions: 860000000 cycles: 841230608 heartbeat IPC: 0.822736 cumulative IPC: 0.82506 (Simulation time: 3 hr 19 min 33 sec) 
Heartbeat CPU 2 instructions: 630000000 cycles: 842159969 heartbeat IPC: 0.554302 cumulative IPC: 0.544246 (Simulation time: 3 hr 19 min 44 sec) 
Heartbeat CPU 1 instructions: 830000002 cycles: 851097225 heartbeat IPC: 0.822531 cumulative IPC: 0.844923 (Simulation time: 3 hr 21 min 35 sec) 
Heartbeat CPU 3 instructions: 690000001 cycles: 853296623 heartbeat IPC: 0.762269 cumulative IPC: 0.581274 (Simulation time: 3 hr 22 min 2 sec) 
Heartbeat CPU 0 instructions: 870000001 cycles: 853581093 heartbeat IPC: 0.809685 cumulative IPC: 0.824807 (Simulation time: 3 hr 22 min 6 sec) 
Heartbeat CPU 2 instructions: 640000000 cycles: 860284075 heartbeat IPC: 0.551751 cumulative IPC: 0.544426 (Simulation time: 3 hr 23 min 29 sec) 
Heartbeat CPU 1 instructions: 840000000 cycles: 863296249 heartbeat IPC: 0.819738 cumulative IPC: 0.844518 (Simulation time: 3 hr 24 min 6 sec) 
Heartbeat CPU 0 instructions: 880000000 cycles: 865686233 heartbeat IPC: 0.826095 cumulative IPC: 0.824827 (Simulation time: 3 hr 24 min 36 sec) 
Heartbeat CPU 3 instructions: 700000000 cycles: 866803973 heartbeat IPC: 0.740338 cumulative IPC: 0.584096 (Simulation time: 3 hr 24 min 50 sec) 
Heartbeat CPU 1 instructions: 850000001 cycles: 875441694 heartbeat IPC: 0.823354 cumulative IPC: 0.844184 (Simulation time: 3 hr 26 min 36 sec) 
Heartbeat CPU 0 instructions: 890000001 cycles: 877756258 heartbeat IPC: 0.828499 cumulative IPC: 0.824885 (Simulation time: 3 hr 27 min 5 sec) 
Heartbeat CPU 2 instructions: 650000000 cycles: 878602510 heartbeat IPC: 0.545898 cumulative IPC: 0.544461 (Simulation time: 3 hr 27 min 15 sec) 
Heartbeat CPU 3 instructions: 710000000 cycles: 880460652 heartbeat IPC: 0.732242 cumulative IPC: 0.586706 (Simulation time: 3 hr 27 min 39 sec) 
Heartbeat CPU 1 instructions: 860000000 cycles: 887570530 heartbeat IPC: 0.824481 cumulative IPC: 0.843878 (Simulation time: 3 hr 29 min 7 sec) 
Heartbeat CPU 0 instructions: 900000000 cycles: 889856164 heartbeat IPC: 0.826453 cumulative IPC: 0.824909 (Simulation time: 3 hr 29 min 35 sec) 
Heartbeat CPU 3 instructions: 720000000 cycles: 893857693 heartbeat IPC: 0.746433 cumulative IPC: 0.589421 (Simulation time: 3 hr 30 min 25 sec) 
Heartbeat CPU 2 instructions: 660000000 cycles: 897105065 heartbeat IPC: 0.540466 cumulative IPC: 0.544367 (Simulation time: 3 hr 31 min 5 sec) 
Heartbeat CPU 1 instructions: 870000001 cycles: 899749980 heartbeat IPC: 0.821055 cumulative IPC: 0.843528 (Simulation time: 3 hr 31 min 38 sec) 
Heartbeat CPU 0 instructions: 910000002 cycles: 901905204 heartbeat IPC: 0.829942 cumulative IPC: 0.824985 (Simulation time: 3 hr 32 min 5 sec) 
Heartbeat CPU 3 instructions: 730000003 cycles: 907256775 heartbeat IPC: 0.74632 cumulative IPC: 0.592043 (Simulation time: 3 hr 33 min 16 sec) 
Heartbeat CPU 1 instructions: 880000000 cycles: 911903248 heartbeat IPC: 0.822824 cumulative IPC: 0.843216 (Simulation time: 3 hr 34 min 24 sec) 
Heartbeat CPU 0 instructions: 920000000 cycles: 914008561 heartbeat IPC: 0.826217 cumulative IPC: 0.825003 (Simulation time: 3 hr 34 min 50 sec) 
Heartbeat CPU 2 instructions: 670000000 cycles: 916253077 heartbeat IPC: 0.522247 cumulative IPC: 0.543845 (Simulation time: 3 hr 35 min 18 sec) 
Heartbeat CPU 3 instructions: 740000000 cycles: 920324763 heartbeat IPC: 0.765229 cumulative IPC: 0.59482 (Simulation time: 3 hr 36 min 8 sec) 
Heartbeat CPU 1 instructions: 890000003 cycles: 924099307 heartbeat IPC: 0.819937 cumulative IPC: 0.84287 (Simulation time: 3 hr 36 min 54 sec) 
Heartbeat CPU 0 instructions: 930000001 cycles: 926435535 heartbeat IPC: 0.804701 cumulative IPC: 0.824696 (Simulation time: 3 hr 37 min 24 sec) 
Heartbeat CPU 3 instructions: 750000000 cycles: 933661220 heartbeat IPC: 0.749824 cumulative IPC: 0.597316 (Simulation time: 3 hr 38 min 52 sec) 
Heartbeat CPU 2 instructions: 680000000 cycles: 935444217 heartbeat IPC: 0.521074 cumulative IPC: 0.543318 (Simulation time: 3 hr 39 min 14 sec) 
Heartbeat CPU 1 instructions: 900000000 cycles: 936392185 heartbeat IPC: 0.813479 cumulative IPC: 0.842435 (Simulation time: 3 hr 39 min 26 sec) 
Heartbeat CPU 0 instructions: 940000000 cycles: 938500111 heartbeat IPC: 0.828873 cumulative IPC: 0.824756 (Simulation time: 3 hr 39 min 52 sec) 
Heartbeat CPU 3 instructions: 760000000 cycles: 946757275 heartbeat IPC: 0.763589 cumulative IPC: 0.599904 (Simulation time: 3 hr 41 min 35 sec) 
Heartbeat CPU 1 instructions: 910000002 cycles: 948557809 heartbeat IPC: 0.821988 cumulative IPC: 0.84214 (Simulation time: 3 hr 41 min 57 sec) 
Heartbeat CPU 0 instructions: 950000002 cycles: 950811498 heartbeat IPC: 0.812256 cumulative IPC: 0.824574 (Simulation time: 3 hr 42 min 25 sec) 
Heartbeat CPU 2 instructions: 690000002 cycles: 954553331 heartbeat IPC: 0.523311 cumulative IPC: 0.542868 (Simulation time: 3 hr 43 min 14 sec) 
Heartbeat CPU 3 instructions: 770000002 cycles: 959734615 heartbeat IPC: 0.770574 cumulative IPC: 0.602497 (Simulation time: 3 hr 44 min 19 sec) 
Heartbeat CPU 1 instructions: 920000000 cycles: 960759503 heartbeat IPC: 0.819558 cumulative IPC: 0.841818 (Simulation time: 3 hr 44 min 32 sec) 
Heartbeat CPU 0 instructions: 960000000 cycles: 962934170 heartbeat IPC: 0.824901 cumulative IPC: 0.824579 (Simulation time: 3 hr 44 min 59 sec) 
Heartbeat CPU 1 instructions: 930000000 cycles: 972989843 heartbeat IPC: 0.817639 cumulative IPC: 0.841477 (Simulation time: 3 hr 47 min 3 sec) 
Heartbeat CPU 3 instructions: 780000000 cycles: 973119930 heartbeat IPC: 0.747087 cumulative IPC: 0.604728 (Simulation time: 3 hr 47 min 5 sec) 
Heartbeat CPU 2 instructions: 700000000 cycles: 973125346 heartbeat IPC: 0.538444 cumulative IPC: 0.542773 (Simulation time: 3 hr 47 min 5 sec) 
Heartbeat CPU 0 instructions: 970000000 cycles: 975016282 heartbeat IPC: 0.82767 cumulative IPC: 0.824622 (Simulation time: 3 hr 47 min 29 sec) 
Heartbeat CPU 1 instructions: 940000000 cycles: 985146138 heartbeat IPC: 0.822619 cumulative IPC: 0.841216 (Simulation time: 3 hr 49 min 34 sec) 
Heartbeat CPU 3 instructions: 790000002 cycles: 986231924 heartbeat IPC: 0.762661 cumulative IPC: 0.607079 (Simulation time: 3 hr 49 min 47 sec) 
Heartbeat CPU 0 instructions: 980000000 cycles: 987237087 heartbeat IPC: 0.818277 cumulative IPC: 0.824534 (Simulation time: 3 hr 50 min 0 sec) 
Heartbeat CPU 2 instructions: 710000000 cycles: 991856968 heartbeat IPC: 0.533857 cumulative IPC: 0.542585 (Simulation time: 3 hr 50 min 58 sec) 
Heartbeat CPU 1 instructions: 950000002 cycles: 997329096 heartbeat IPC: 0.820819 cumulative IPC: 0.840937 (Simulation time: 3 hr 52 min 5 sec) 
Heartbeat CPU 0 instructions: 990000002 cycles: 999452390 heartbeat IPC: 0.818645 cumulative IPC: 0.824454 (Simulation time: 3 hr 52 min 32 sec) 
Heartbeat CPU 3 instructions: 800000000 cycles: 999492666 heartbeat IPC: 0.754105 cumulative IPC: 0.60926 (Simulation time: 3 hr 52 min 32 sec) 
Heartbeat CPU 1 instructions: 960000000 cycles: 1009558799 heartbeat IPC: 0.817681 cumulative IPC: 0.840623 (Simulation time: 3 hr 54 min 37 sec) 
Heartbeat CPU 2 instructions: 720000000 cycles: 1010162608 heartbeat IPC: 0.54628 cumulative IPC: 0.54266 (Simulation time: 3 hr 54 min 45 sec) 
Heartbeat CPU 0 instructions: 1000000000 cycles: 1011728472 heartbeat IPC: 0.814592 cumulative IPC: 0.82432 (Simulation time: 3 hr 55 min 4 sec) 
Heartbeat CPU 3 instructions: 810000002 cycles: 1012576911 heartbeat IPC: 0.764278 cumulative IPC: 0.611496 (Simulation time: 3 hr 55 min 15 sec) 
Heartbeat CPU 1 instructions: 970000000 cycles: 1021759029 heartbeat IPC: 0.819657 cumulative IPC: 0.840344 (Simulation time: 3 hr 57 min 8 sec) 
Heartbeat CPU 0 instructions: 1010000003 cycles: 1023704572 heartbeat IPC: 0.834997 cumulative IPC: 0.824459 (Simulation time: 3 hr 57 min 32 sec) 
Heartbeat CPU 3 instructions: 820000000 cycles: 1026391497 heartbeat IPC: 0.723872 cumulative IPC: 0.613181 (Simulation time: 3 hr 58 min 5 sec) 
Heartbeat CPU 2 instructions: 730000003 cycles: 1028534771 heartbeat IPC: 0.544302 cumulative IPC: 0.542692 (Simulation time: 3 hr 58 min 32 sec) 
Heartbeat CPU 1 instructions: 980000000 cycles: 1033981851 heartbeat IPC: 0.818142 cumulative IPC: 0.840052 (Simulation time: 3 hr 59 min 48 sec) 
Heartbeat CPU 0 instructions: 1020000000 cycles: 1035825305 heartbeat IPC: 0.825032 cumulative IPC: 0.824467 (Simulation time: 4 hr 0 min 11 sec) 
Heartbeat CPU 3 instructions: 830000000 cycles: 1039561325 heartbeat IPC: 0.759311 cumulative IPC: 0.615242 (Simulation time: 4 hr 0 min 57 sec) 
Heartbeat CPU 1 instructions: 990000003 cycles: 1046183884 heartbeat IPC: 0.819536 cumulative IPC: 0.839785 (Simulation time: 4 hr 2 min 21 sec) 
Heartbeat CPU 2 instructions: 740000000 cycles: 1046614729 heartbeat IPC: 0.553098 cumulative IPC: 0.542892 (Simulation time: 4 hr 2 min 26 sec) 
Heartbeat CPU 0 instructions: 1030000003 cycles: 1048220073 heartbeat IPC: 0.806792 cumulative IPC: 0.824234 (Simulation time: 4 hr 2 min 46 sec) 
Heartbeat CPU 3 instructions: 840000000 cycles: 1052527440 heartbeat IPC: 0.771241 cumulative IPC: 0.617377 (Simulation time: 4 hr 3 min 41 sec) 
Heartbeat CPU 1 instructions: 1000000000 cycles: 1058400581 heartbeat IPC: 0.818552 cumulative IPC: 0.839513 (Simulation time: 4 hr 4 min 55 sec) 
Heartbeat CPU 0 instructions: 1040000000 cycles: 1060357403 heartbeat IPC: 0.823904 cumulative IPC: 0.82423 (Simulation time: 4 hr 5 min 19 sec) 
Heartbeat CPU 2 instructions: 750000003 cycles: 1064304775 heartbeat IPC: 0.56529 cumulative IPC: 0.543306 (Simulation time: 4 hr 6 min 9 sec) 
Heartbeat CPU 3 instructions: 850000002 cycles: 1065614629 heartbeat IPC: 0.764106 cumulative IPC: 0.619377 (Simulation time: 4 hr 6 min 26 sec) 
Heartbeat CPU 1 instructions: 1010000000 cycles: 1070516031 heartbeat IPC: 0.825392 cumulative IPC: 0.839336 (Simulation time: 4 hr 7 min 28 sec) 
Heartbeat CPU 0 instructions: 1050000003 cycles: 1072683749 heartbeat IPC: 0.811271 cumulative IPC: 0.824065 (Simulation time: 4 hr 7 min 55 sec) 
Heartbeat CPU 3 instructions: 860000000 cycles: 1078868522 heartbeat IPC: 0.754495 cumulative IPC: 0.621217 (Simulation time: 4 hr 9 min 12 sec) 
Heartbeat CPU 2 instructions: 760000000 cycles: 1082059095 heartbeat IPC: 0.563243 cumulative IPC: 0.543668 (Simulation time: 4 hr 9 min 52 sec) 
Heartbeat CPU 1 instructions: 1020000000 cycles: 1082692664 heartbeat IPC: 0.821245 cumulative IPC: 0.83911 (Simulation time: 4 hr 10 min 0 sec) 
Heartbeat CPU 0 instructions: 1060000000 cycles: 1084737352 heartbeat IPC: 0.829627 cumulative IPC: 0.824133 (Simulation time: 4 hr 10 min 26 sec) 
Heartbeat CPU 3 instructions: 870000000 cycles: 1091910249 heartbeat IPC: 0.76677 cumulative IPC: 0.623141 (Simulation time: 4 hr 11 min 56 sec) 
Heartbeat CPU 1 instructions: 1030000002 cycles: 1094903419 heartbeat IPC: 0.81895 cumulative IPC: 0.838862 (Simulation time: 4 hr 12 min 34 sec) 
Heartbeat CPU 0 instructions: 1070000000 cycles: 1096950823 heartbeat IPC: 0.818768 cumulative IPC: 0.824067 (Simulation time: 4 hr 12 min 59 sec) 
Heartbeat CPU 2 instructions: 770000003 cycles: 1100080247 heartbeat IPC: 0.554904 cumulative IPC: 0.543872 (Simulation time: 4 hr 13 min 38 sec) 
Heartbeat CPU 3 instructions: 880000000 cycles: 1105086144 heartbeat IPC: 0.758962 cumulative IPC: 0.624932 (Simulation time: 4 hr 14 min 41 sec) 
Heartbeat CPU 1 instructions: 1040000000 cycles: 1107079017 heartbeat IPC: 0.821315 cumulative IPC: 0.838648 (Simulation time: 4 hr 15 min 6 sec) 
Heartbeat CPU 0 instructions: 1080000000 cycles: 1109239591 heartbeat IPC: 0.813751 cumulative IPC: 0.823941 (Simulation time: 4 hr 15 min 33 sec) 
Heartbeat CPU 2 instructions: 780000000 cycles: 1117789306 heartbeat IPC: 0.564683 cumulative IPC: 0.544236 (Simulation time: 4 hr 17 min 21 sec) 
Heartbeat CPU 3 instructions: 890000001 cycles: 1118368251 heartbeat IPC: 0.752893 cumulative IPC: 0.62661 (Simulation time: 4 hr 17 min 28 sec) 
Heartbeat CPU 1 instructions: 1050000002 cycles: 1119342405 heartbeat IPC: 0.815436 cumulative IPC: 0.838368 (Simulation time: 4 hr 17 min 40 sec) 
Heartbeat CPU 0 instructions: 1090000002 cycles: 1121291851 heartbeat IPC: 0.82972 cumulative IPC: 0.82401 (Simulation time: 4 hr 18 min 4 sec) 
Heartbeat CPU 1 instructions: 1060000000 cycles: 1131469742 heartbeat IPC: 0.824583 cumulative IPC: 0.838205 (Simulation time: 4 hr 20 min 13 sec) 
Heartbeat CPU 3 instructions: 900000000 cycles: 1131599091 heartbeat IPC: 0.75581 cumulative IPC: 0.628276 (Simulation time: 4 hr 20 min 14 sec) 
Heartbeat CPU 0 instructions: 1100000000 cycles: 1133337131 heartbeat IPC: 0.830201 cumulative IPC: 0.824082 (Simulation time: 4 hr 20 min 36 sec) 
Heartbeat CPU 2 instructions: 790000001 cycles: 1136107831 heartbeat IPC: 0.545896 cumulative IPC: 0.544265 (Simulation time: 4 hr 21 min 11 sec) 
Heartbeat CPU 1 instructions: 1070000000 cycles: 1143623137 heartbeat IPC: 0.822815 cumulative IPC: 0.838024 (Simulation time: 4 hr 22 min 47 sec) 
Heartbeat CPU 3 instructions: 910000002 cycles: 1144562417 heartbeat IPC: 0.771407 cumulative IPC: 0.630061 (Simulation time: 4 hr 22 min 58 sec) 
Heartbeat CPU 0 instructions: 1110000003 cycles: 1145677059 heartbeat IPC: 0.810378 cumulative IPC: 0.82392 (Simulation time: 4 hr 23 min 12 sec) 
Heartbeat CPU 2 instructions: 800000000 cycles: 1154394733 heartbeat IPC: 0.546839 cumulative IPC: 0.54431 (Simulation time: 4 hr 25 min 1 sec) 
Heartbeat CPU 1 instructions: 1080000000 cycles: 1155863826 heartbeat IPC: 0.816947 cumulative IPC: 0.837779 (Simulation time: 4 hr 25 min 20 sec) 
Heartbeat CPU 0 instructions: 1120000000 cycles: 1157714840 heartbeat IPC: 0.830718 cumulative IPC: 0.823997 (Simulation time: 4 hr 25 min 44 sec) 
Heartbeat CPU 3 instructions: 920000000 cycles: 1157794474 heartbeat IPC: 0.75574 cumulative IPC: 0.631641 (Simulation time: 4 hr 25 min 45 sec) 
Heartbeat CPU 1 instructions: 1090000000 cycles: 1168143551 heartbeat IPC: 0.81435 cumulative IPC: 0.837508 (Simulation time: 4 hr 27 min 54 sec) 
Heartbeat CPU 0 instructions: 1130000000 cycles: 1169877824 heartbeat IPC: 0.822167 cumulative IPC: 0.823976 (Simulation time: 4 hr 28 min 16 sec) 
Heartbeat CPU 3 instructions: 930000000 cycles: 1170958610 heartbeat IPC: 0.75964 cumulative IPC: 0.633223 (Simulation time: 4 hr 28 min 29 sec) 
Heartbeat CPU 2 instructions: 810000000 cycles: 1172390589 heartbeat IPC: 0.555683 cumulative IPC: 0.544502 (Simulation time: 4 hr 28 min 48 sec) 
Heartbeat CPU 1 instructions: 1100000000 cycles: 1180335500 heartbeat IPC: 0.820213 cumulative IPC: 0.837312 (Simulation time: 4 hr 30 min 26 sec) 
Heartbeat CPU 0 instructions: 1140000000 cycles: 1182022135 heartbeat IPC: 0.823431 cumulative IPC: 0.82397 (Simulation time: 4 hr 30 min 48 sec) 
Heartbeat CPU 3 instructions: 940000000 cycles: 1184193393 heartbeat IPC: 0.755585 cumulative IPC: 0.634724 (Simulation time: 4 hr 31 min 17 sec) 
Heartbeat CPU 2 instructions: 820000000 cycles: 1191258030 heartbeat IPC: 0.530014 cumulative IPC: 0.54425 (Simulation time: 4 hr 32 min 46 sec) 
Heartbeat CPU 1 instructions: 1110000000 cycles: 1192485753 heartbeat IPC: 0.823028 cumulative IPC: 0.837152 (Simulation time: 4 hr 33 min 1 sec) 
Heartbeat CPU 0 instructions: 1150000001 cycles: 1194240198 heartbeat IPC: 0.81846 cumulative IPC: 0.823908 (Simulation time: 4 hr 33 min 23 sec) 
Heartbeat CPU 3 instructions: 950000001 cycles: 1197483924 heartbeat IPC: 0.752415 cumulative IPC: 0.636156 (Simulation time: 4 hr 34 min 3 sec) 
Heartbeat CPU 1 instructions: 1120000000 cycles: 1204642864 heartbeat IPC: 0.822564 cumulative IPC: 0.836991 (Simulation time: 4 hr 35 min 34 sec) 
Heartbeat CPU 0 instructions: 1160000000 cycles: 1206429432 heartbeat IPC: 0.820396 cumulative IPC: 0.82387 (Simulation time: 4 hr 35 min 56 sec) 
Heartbeat CPU 2 instructions: 830000000 cycles: 1209934647 heartbeat IPC: 0.535429 cumulative IPC: 0.544101 (Simulation time: 4 hr 36 min 40 sec) 
Heartbeat CPU 3 instructions: 960000000 cycles: 1210703326 heartbeat IPC: 0.756464 cumulative IPC: 0.637595 (Simulation time: 4 hr 36 min 49 sec) 
Heartbeat CPU 1 instructions: 1130000000 cycles: 1216843064 heartbeat IPC: 0.819659 cumulative IPC: 0.836801 (Simulation time: 4 hr 38 min 6 sec) 
Heartbeat CPU 0 instructions: 1170000000 cycles: 1218488250 heartbeat IPC: 0.829269 cumulative IPC: 0.823928 (Simulation time: 4 hr 38 min 27 sec) 
Heartbeat CPU 3 instructions: 970000001 cycles: 1224114762 heartbeat IPC: 0.745632 cumulative IPC: 0.638891 (Simulation time: 4 hr 39 min 37 sec) 
Heartbeat CPU 2 instructions: 840000000 cycles: 1228240578 heartbeat IPC: 0.546271 cumulative IPC: 0.544136 (Simulation time: 4 hr 40 min 28 sec) 
Heartbeat CPU 1 instructions: 1140000000 cycles: 1228984120 heartbeat IPC: 0.823652 cumulative IPC: 0.836659 (Simulation time: 4 hr 40 min 37 sec) 
Heartbeat CPU 0 instructions: 1180000000 cycles: 1230731218 heartbeat IPC: 0.816795 cumulative IPC: 0.82385 (Simulation time: 4 hr 40 min 59 sec) 
Heartbeat CPU 3 instructions: 980000000 cycles: 1238229355 heartbeat IPC: 0.708487 cumulative IPC: 0.639758 (Simulation time: 4 hr 42 min 33 sec) 
Heartbeat CPU 1 instructions: 1150000001 cycles: 1241147832 heartbeat IPC: 0.822118 cumulative IPC: 0.836503 (Simulation time: 4 hr 43 min 8 sec) 
Heartbeat CPU 0 instructions: 1190000001 cycles: 1242755877 heartbeat IPC: 0.831625 cumulative IPC: 0.823933 (Simulation time: 4 hr 43 min 28 sec) 
Heartbeat CPU 2 instructions: 850000000 cycles: 1246417990 heartbeat IPC: 0.550133 cumulative IPC: 0.544232 (Simulation time: 4 hr 44 min 14 sec) 
Heartbeat CPU 3 instructions: 990000000 cycles: 1252274690 heartbeat IPC: 0.71198 cumulative IPC: 0.640642 (Simulation time: 4 hr 45 min 27 sec) 
Heartbeat CPU 1 instructions: 1160000000 cycles: 1253288517 heartbeat IPC: 0.823677 cumulative IPC: 0.836367 (Simulation time: 4 hr 45 min 40 sec) 
Heartbeat CPU 0 instructions: 1200000000 cycles: 1254781232 heartbeat IPC: 0.831576 cumulative IPC: 0.824013 (Simulation time: 4 hr 45 min 59 sec) 
Heartbeat CPU 2 instructions: 860000000 cycles: 1264321522 heartbeat IPC: 0.558549 cumulative IPC: 0.544453 (Simulation time: 4 hr 47 min 58 sec) 
Heartbeat CPU 1 instructions: 1170000000 cycles: 1265422997 heartbeat IPC: 0.824098 cumulative IPC: 0.836239 (Simulation time: 4 hr 48 min 12 sec) 
Heartbeat CPU 3 instructions: 1000000000 cycles: 1265561523 heartbeat IPC: 0.752625 cumulative IPC: 0.641925 (Simulation time: 4 hr 48 min 14 sec) 
Heartbeat CPU 0 instructions: 1210000003 cycles: 1267088648 heartbeat IPC: 0.812518 cumulative IPC: 0.823891 (Simulation time: 4 hr 48 min 33 sec) 
Heartbeat CPU 1 instructions: 1180000000 cycles: 1277591138 heartbeat IPC: 0.821818 cumulative IPC: 0.836089 (Simulation time: 4 hr 50 min 44 sec) 
Heartbeat CPU 0 instructions: 1220000000 cycles: 1279165516 heartbeat IPC: 0.828029 cumulative IPC: 0.823933 (Simulation time: 4 hr 51 min 4 sec) 
Heartbeat CPU 3 instructions: 1010000000 cycles: 1279175327 heartbeat IPC: 0.734549 cumulative IPC: 0.642999 (Simulation time: 4 hr 51 min 4 sec) 
Heartbeat CPU 2 instructions: 870000003 cycles: 1281900060 heartbeat IPC: 0.568876 cumulative IPC: 0.544818 (Simulation time: 4 hr 51 min 39 sec) 
Heartbeat CPU 1 instructions: 1190000003 cycles: 1289839140 heartbeat IPC: 0.81646 cumulative IPC: 0.835886 (Simulation time: 4 hr 53 min 18 sec) 
Heartbeat CPU 0 instructions: 1230000000 cycles: 1291294652 heartbeat IPC: 0.824461 cumulative IPC: 0.823939 (Simulation time: 4 hr 53 min 36 sec) 
Heartbeat CPU 3 instructions: 1020000000 cycles: 1292510470 heartbeat IPC: 0.749898 cumulative IPC: 0.6442 (Simulation time: 4 hr 53 min 52 sec) 
Heartbeat CPU 2 instructions: 880000000 cycles: 1299719827 heartbeat IPC: 0.561174 cumulative IPC: 0.545062 (Simulation time: 4 hr 55 min 22 sec) 
Heartbeat CPU 1 instructions: 1200000000 cycles: 1301992952 heartbeat IPC: 0.822787 cumulative IPC: 0.835753 (Simulation time: 4 hr 55 min 51 sec) 
Finished CPU 1 instructions: 1000000000 cycles: 1196525609 cumulative IPC: 0.835753 (Simulation time: 4 hr 55 min 51 sec) 
Heartbeat CPU 0 instructions: 1240000000 cycles: 1303739037 heartbeat IPC: 0.803575 cumulative IPC: 0.823727 (Simulation time: 4 hr 56 min 12 sec) 
Heartbeat CPU 3 instructions: 1030000001 cycles: 1305747551 heartbeat IPC: 0.755454 cumulative IPC: 0.645427 (Simulation time: 4 hr 56 min 38 sec) 
Heartbeat CPU 1 instructions: 1210000001 cycles: 1314110639 heartbeat IPC: 0.82524 cumulative IPC: 0.835648 (Simulation time: 4 hr 58 min 24 sec) 
Heartbeat CPU 0 instructions: 1250000003 cycles: 1316005205 heartbeat IPC: 0.815251 cumulative IPC: 0.823641 (Simulation time: 4 hr 58 min 47 sec) 
Heartbeat CPU 2 instructions: 890000001 cycles: 1317544164 heartbeat IPC: 0.561031 cumulative IPC: 0.545297 (Simulation time: 4 hr 59 min 6 sec) 
Heartbeat CPU 3 instructions: 1040000000 cycles: 1318834621 heartbeat IPC: 0.764113 cumulative IPC: 0.646707 (Simulation time: 4 hr 59 min 22 sec) 
Finished CPU 0 instructions: 1000000000 cycles: 1214180988 cumulative IPC: 0.8236 (Simulation time: 4 hr 59 min 33 sec) 
Heartbeat CPU 1 instructions: 1220000000 cycles: 1326337875 heartbeat IPC: 0.817846 cumulative IPC: 0.835469 (Simulation time: 5 hr 0 min 57 sec) 
Heartbeat CPU 0 instructions: 1260000000 cycles: 1328350451 heartbeat IPC: 0.810028 cumulative IPC: 0.823504 (Simulation time: 5 hr 1 min 23 sec) 
Heartbeat CPU 3 instructions: 1050000002 cycles: 1332025894 heartbeat IPC: 0.758077 cumulative IPC: 0.647905 (Simulation time: 5 hr 2 min 8 sec) 
Heartbeat CPU 2 instructions: 900000000 cycles: 1335592741 heartbeat IPC: 0.55406 cumulative IPC: 0.545425 (Simulation time: 5 hr 2 min 52 sec) 
Heartbeat CPU 1 instructions: 1230000002 cycles: 1338525850 heartbeat IPC: 0.820481 cumulative IPC: 0.835321 (Simulation time: 5 hr 3 min 29 sec) 
Heartbeat CPU 0 instructions: 1270000002 cycles: 1340609305 heartbeat IPC: 0.815737 cumulative IPC: 0.823427 (Simulation time: 5 hr 3 min 55 sec) 
Heartbeat CPU 3 instructions: 1060000000 cycles: 1345979966 heartbeat IPC: 0.716637 cumulative IPC: 0.648678 (Simulation time: 5 hr 5 min 2 sec) 
Heartbeat CPU 1 instructions: 1240000000 cycles: 1350635759 heartbeat IPC: 0.82577 cumulative IPC: 0.835228 (Simulation time: 5 hr 6 min 0 sec) 
Heartbeat CPU 0 instructions: 1280000000 cycles: 1352815305 heartbeat IPC: 0.819269 cumulative IPC: 0.823386 (Simulation time: 5 hr 6 min 28 sec) 
Heartbeat CPU 2 instructions: 910000002 cycles: 1353451991 heartbeat IPC: 0.559934 cumulative IPC: 0.545633 (Simulation time: 5 hr 6 min 35 sec) 
Heartbeat CPU 3 instructions: 1070000000 cycles: 1359441055 heartbeat IPC: 0.742882 cumulative IPC: 0.649689 (Simulation time: 5 hr 7 min 51 sec) 
Heartbeat CPU 1 instructions: 1250000000 cycles: 1362734776 heartbeat IPC: 0.826513 cumulative IPC: 0.835145 (Simulation time: 5 hr 8 min 33 sec) 
Heartbeat CPU 0 instructions: 1290000000 cycles: 1365165384 heartbeat IPC: 0.809711 cumulative IPC: 0.823252 (Simulation time: 5 hr 9 min 3 sec) 
Heartbeat CPU 2 instructions: 920000000 cycles: 1371170141 heartbeat IPC: 0.564393 cumulative IPC: 0.545896 (Simulation time: 5 hr 10 min 18 sec) 
Heartbeat CPU 3 instructions: 1080000000 cycles: 1372810390 heartbeat IPC: 0.74798 cumulative IPC: 0.650726 (Simulation time: 5 hr 10 min 38 sec) 
Heartbeat CPU 1 instructions: 1260000000 cycles: 1374898201 heartbeat IPC: 0.822137 cumulative IPC: 0.83502 (Simulation time: 5 hr 11 min 5 sec) 
Heartbeat CPU 0 instructions: 1300000000 cycles: 1377441553 heartbeat IPC: 0.814586 cumulative IPC: 0.823169 (Simulation time: 5 hr 11 min 37 sec) 
Heartbeat CPU 3 instructions: 1090000002 cycles: 1386358777 heartbeat IPC: 0.738095 cumulative IPC: 0.65165 (Simulation time: 5 hr 13 min 28 sec) 
Heartbeat CPU 1 instructions: 1270000002 cycles: 1387084175 heartbeat IPC: 0.820616 cumulative IPC: 0.834883 (Simulation time: 5 hr 13 min 37 sec) 
Heartbeat CPU 2 instructions: 930000002 cycles: 1389275898 heartbeat IPC: 0.552311 cumulative IPC: 0.545986 (Simulation time: 5 hr 14 min 4 sec) 
Heartbeat CPU 0 instructions: 1310000002 cycles: 1389760224 heartbeat IPC: 0.811776 cumulative IPC: 0.823059 (Simulation time: 5 hr 14 min 10 sec) 
Heartbeat CPU 1 instructions: 1280000000 cycles: 1399153826 heartbeat IPC: 0.828524 cumulative IPC: 0.834824 (Simulation time: 5 hr 16 min 8 sec) 
Heartbeat CPU 3 instructions: 1100000000 cycles: 1400189928 heartbeat IPC: 0.723005 cumulative IPC: 0.652413 (Simulation time: 5 hr 16 min 20 sec) 
Heartbeat CPU 0 instructions: 1320000000 cycles: 1401971629 heartbeat IPC: 0.818906 cumulative IPC: 0.82302 (Simulation time: 5 hr 16 min 42 sec) 
Heartbeat CPU 2 instructions: 940000000 cycles: 1406938909 heartbeat IPC: 0.566155 cumulative IPC: 0.54626 (Simulation time: 5 hr 17 min 49 sec) 
Heartbeat CPU 1 instructions: 1290000001 cycles: 1411359939 heartbeat IPC: 0.819262 cumulative IPC: 0.834678 (Simulation time: 5 hr 18 min 44 sec) 
Heartbeat CPU 3 instructions: 1110000003 cycles: 1414024826 heartbeat IPC: 0.72281 cumulative IPC: 0.653157 (Simulation time: 5 hr 19 min 17 sec) 
Heartbeat CPU 0 instructions: 1330000000 cycles: 1414217859 heartbeat IPC: 0.816578 cumulative IPC: 0.82296 (Simulation time: 5 hr 19 min 19 sec) 
Heartbeat CPU 1 instructions: 1300000000 cycles: 1423514734 heartbeat IPC: 0.822721 cumulative IPC: 0.834568 (Simulation time: 5 hr 21 min 17 sec) 
Heartbeat CPU 2 instructions: 950000003 cycles: 1425023578 heartbeat IPC: 0.552955 cumulative IPC: 0.546352 (Simulation time: 5 hr 21 min 35 sec) 
Heartbeat CPU 0 instructions: 1340000000 cycles: 1426500769 heartbeat IPC: 0.814139 cumulative IPC: 0.822878 (Simulation time: 5 hr 21 min 53 sec) 
Heartbeat CPU 3 instructions: 1120000000 cycles: 1427510075 heartbeat IPC: 0.741551 cumulative IPC: 0.654059 (Simulation time: 5 hr 22 min 6 sec) 
Heartbeat CPU 1 instructions: 1310000000 cycles: 1435734594 heartbeat IPC: 0.81834 cumulative IPC: 0.834419 (Simulation time: 5 hr 23 min 49 sec) 
Heartbeat CPU 0 instructions: 1350000001 cycles: 1438754712 heartbeat IPC: 0.816064 cumulative IPC: 0.822815 (Simulation time: 5 hr 24 min 27 sec) 
Heartbeat CPU 3 instructions: 1130000002 cycles: 1440785182 heartbeat IPC: 0.75329 cumulative IPC: 0.655045 (Simulation time: 5 hr 24 min 53 sec) 
Heartbeat CPU 2 instructions: 960000000 cycles: 1443172403 heartbeat IPC: 0.551 cumulative IPC: 0.546415 (Simulation time: 5 hr 25 min 24 sec) 
Heartbeat CPU 1 instructions: 1320000000 cycles: 1447904228 heartbeat IPC: 0.821717 cumulative IPC: 0.834304 (Simulation time: 5 hr 26 min 23 sec) 
Heartbeat CPU 0 instructions: 1360000000 cycles: 1451063452 heartbeat IPC: 0.812431 cumulative IPC: 0.82272 (Simulation time: 5 hr 27 min 3 sec) 
Heartbeat CPU 3 instructions: 1140000000 cycles: 1453986282 heartbeat IPC: 0.757513 cumulative IPC: 0.656048 (Simulation time: 5 hr 27 min 39 sec) 
Heartbeat CPU 1 instructions: 1330000000 cycles: 1460118378 heartbeat IPC: 0.818723 cumulative IPC: 0.834163 (Simulation time: 5 hr 28 min 56 sec) 
Heartbeat CPU 2 instructions: 970000002 cycles: 1461583303 heartbeat IPC: 0.543157 cumulative IPC: 0.546371 (Simulation time: 5 hr 29 min 14 sec) 
Heartbeat CPU 0 instructions: 1370000001 cycles: 1463476831 heartbeat IPC: 0.805583 cumulative IPC: 0.822564 (Simulation time: 5 hr 29 min 38 sec) 
Heartbeat CPU 3 instructions: 1150000003 cycles: 1467017394 heartbeat IPC: 0.767394 cumulative IPC: 0.657114 (Simulation time: 5 hr 30 min 23 sec) 
Heartbeat CPU 1 instructions: 1340000000 cycles: 1472270559 heartbeat IPC: 0.822898 cumulative IPC: 0.834063 (Simulation time: 5 hr 31 min 26 sec) 
Heartbeat CPU 0 instructions: 1380000000 cycles: 1476003526 heartbeat IPC: 0.798295 cumulative IPC: 0.822342 (Simulation time: 5 hr 32 min 10 sec) 
Heartbeat CPU 2 instructions: 980000000 cycles: 1479923592 heartbeat IPC: 0.545248 cumulative IPC: 0.546355 (Simulation time: 5 hr 32 min 56 sec) 
Heartbeat CPU 3 instructions: 1160000000 cycles: 1480319061 heartbeat IPC: 0.751785 cumulative IPC: 0.65803 (Simulation time: 5 hr 33 min 1 sec) 
Heartbeat CPU 1 instructions: 1350000002 cycles: 1484422801 heartbeat IPC: 0.822894 cumulative IPC: 0.833965 (Simulation time: 5 hr 33 min 50 sec) 
Heartbeat CPU 0 instructions: 1390000002 cycles: 1488350297 heartbeat IPC: 0.809929 cumulative IPC: 0.822231 (Simulation time: 5 hr 34 min 36 sec) 
Heartbeat CPU 3 instructions: 1170000002 cycles: 1493821220 heartbeat IPC: 0.740622 cumulative IPC: 0.658833 (Simulation time: 5 hr 35 min 40 sec) 
Heartbeat CPU 1 instructions: 1360000000 cycles: 1496586764 heartbeat IPC: 0.8221 cumulative IPC: 0.833861 (Simulation time: 5 hr 36 min 13 sec) 
Heartbeat CPU 2 instructions: 990000003 cycles: 1498058163 heartbeat IPC: 0.551433 cumulative IPC: 0.546422 (Simulation time: 5 hr 36 min 30 sec) 
Heartbeat CPU 0 instructions: 1400000000 cycles: 1500693290 heartbeat IPC: 0.810176 cumulative IPC: 0.822124 (Simulation time: 5 hr 37 min 1 sec) 
Heartbeat CPU 3 instructions: 1180000000 cycles: 1507845448 heartbeat IPC: 0.713052 cumulative IPC: 0.659375 (Simulation time: 5 hr 38 min 24 sec) 
Heartbeat CPU 1 instructions: 1370000002 cycles: 1508786102 heartbeat IPC: 0.819717 cumulative IPC: 0.833738 (Simulation time: 5 hr 38 min 36 sec) 
Heartbeat CPU 0 instructions: 1410000000 cycles: 1513132742 heartbeat IPC: 0.803894 cumulative IPC: 0.821963 (Simulation time: 5 hr 39 min 28 sec) 
Heartbeat CPU 2 instructions: 1000000000 cycles: 1516564002 heartbeat IPC: 0.54037 cumulative IPC: 0.546342 (Simulation time: 5 hr 40 min 11 sec) 
Heartbeat CPU 1 instructions: 1380000000 cycles: 1520998051 heartbeat IPC: 0.81887 cumulative IPC: 0.83361 (Simulation time: 5 hr 41 min 6 sec) 
Heartbeat CPU 3 instructions: 1190000002 cycles: 1521146219 heartbeat IPC: 0.751836 cumulative IPC: 0.660244 (Simulation time: 5 hr 41 min 8 sec) 
Heartbeat CPU 0 instructions: 1420000000 cycles: 1525489585 heartbeat IPC: 0.809268 cumulative IPC: 0.821853 (Simulation time: 5 hr 42 min 2 sec) 
Heartbeat CPU 1 instructions: 1390000003 cycles: 1533204221 heartbeat IPC: 0.819258 cumulative IPC: 0.833487 (Simulation time: 5 hr 43 min 37 sec) 
Heartbeat CPU 3 instructions: 1200000000 cycles: 1534525191 heartbeat IPC: 0.747441 cumulative IPC: 0.66106 (Simulation time: 5 hr 43 min 54 sec) 
Heartbeat CPU 2 instructions: 1010000001 cycles: 1534796059 heartbeat IPC: 0.548485 cumulative IPC: 0.54637 (Simulation time: 5 hr 43 min 57 sec) 
Heartbeat CPU 0 instructions: 1430000000 cycles: 1537907683 heartbeat IPC: 0.805276 cumulative IPC: 0.821709 (Simulation time: 5 hr 44 min 35 sec) 
Heartbeat CPU 1 instructions: 1400000000 cycles: 1545455540 heartbeat IPC: 0.816238 cumulative IPC: 0.83334 (Simulation time: 5 hr 46 min 8 sec) 
Heartbeat CPU 3 instructions: 1210000000 cycles: 1548301845 heartbeat IPC: 0.725866 cumulative IPC: 0.661679 (Simulation time: 5 hr 46 min 43 sec) 
Heartbeat CPU 0 instructions: 1440000000 cycles: 1550193760 heartbeat IPC: 0.813929 cumulative IPC: 0.821643 (Simulation time: 5 hr 47 min 7 sec) 
Heartbeat CPU 2 instructions: 1020000000 cycles: 1553082494 heartbeat IPC: 0.546853 cumulative IPC: 0.546376 (Simulation time: 5 hr 47 min 42 sec) 
Heartbeat CPU 1 instructions: 1410000001 cycles: 1557645777 heartbeat IPC: 0.820329 cumulative IPC: 0.833231 (Simulation time: 5 hr 48 min 38 sec) 
Heartbeat CPU 3 instructions: 1220000000 cycles: 1562191978 heartbeat IPC: 0.719936 cumulative IPC: 0.662235 (Simulation time: 5 hr 49 min 34 sec) 
Heartbeat CPU 0 instructions: 1450000000 cycles: 1562600342 heartbeat IPC: 0.806024 cumulative IPC: 0.82151 (Simulation time: 5 hr 49 min 39 sec) 
Heartbeat CPU 1 instructions: 1420000000 cycles: 1569879361 heartbeat IPC: 0.817422 cumulative IPC: 0.833099 (Simulation time: 5 hr 51 min 9 sec) 
Heartbeat CPU 2 instructions: 1030000003 cycles: 1571592056 heartbeat IPC: 0.540261 cumulative IPC: 0.546299 (Simulation time: 5 hr 51 min 30 sec) 
Heartbeat CPU 0 instructions: 1460000000 cycles: 1575253053 heartbeat IPC: 0.790344 cumulative IPC: 0.821242 (Simulation time: 5 hr 52 min 15 sec) 
Heartbeat CPU 3 instructions: 1230000000 cycles: 1575520508 heartbeat IPC: 0.75027 cumulative IPC: 0.663033 (Simulation time: 5 hr 52 min 19 sec) 
Heartbeat CPU 1 instructions: 1430000002 cycles: 1582098340 heartbeat IPC: 0.818399 cumulative IPC: 0.832977 (Simulation time: 5 hr 53 min 39 sec) 
Heartbeat CPU 0 instructions: 1470000000 cycles: 1587580307 heartbeat IPC: 0.811211 cumulative IPC: 0.821158 (Simulation time: 5 hr 54 min 46 sec) 
Heartbeat CPU 3 instructions: 1240000000 cycles: 1589910108 heartbeat IPC: 0.694946 cumulative IPC: 0.663342 (Simulation time: 5 hr 55 min 14 sec) 
Heartbeat CPU 2 instructions: 1040000000 cycles: 1590380675 heartbeat IPC: 0.532237 cumulative IPC: 0.546121 (Simulation time: 5 hr 55 min 20 sec) 
Heartbeat CPU 1 instructions: 1440000000 cycles: 1594259096 heartbeat IPC: 0.822317 cumulative IPC: 0.83289 (Simulation time: 5 hr 56 min 9 sec) 
Heartbeat CPU 0 instructions: 1480000000 cycles: 1599831558 heartbeat IPC: 0.816243 cumulative IPC: 0.821118 (Simulation time: 5 hr 57 min 33 sec) 
Heartbeat CPU 3 instructions: 1250000000 cycles: 1603250363 heartbeat IPC: 0.749611 cumulative IPC: 0.664111 (Simulation time: 5 hr 58 min 21 sec) 
Heartbeat CPU 1 instructions: 1450000001 cycles: 1606374465 heartbeat IPC: 0.825398 cumulative IPC: 0.83283 (Simulation time: 5 hr 59 min 5 sec) 
Heartbeat CPU 2 instructions: 1050000000 cycles: 1609014645 heartbeat IPC: 0.536654 cumulative IPC: 0.546003 (Simulation time: 5 hr 59 min 40 sec) 
Finished CPU 3 instructions: 1000000001 cycles: 1505009775 cumulative IPC: 0.664447 (Simulation time: 6 hr 0 min 0 sec) 
Heartbeat CPU 0 instructions: 1490000003 cycles: 1612354372 heartbeat IPC: 0.798543 cumulative IPC: 0.82093 (Simulation time: 6 hr 0 min 29 sec) 
Heartbeat CPU 3 instructions: 1260000000 cycles: 1616805509 heartbeat IPC: 0.737727 cumulative IPC: 0.664771 (Simulation time: 6 hr 1 min 28 sec) 
Heartbeat CPU 1 instructions: 1460000000 cycles: 1618703508 heartbeat IPC: 0.811093 cumulative IPC: 0.832653 (Simulation time: 6 hr 1 min 51 sec) 
Heartbeat CPU 0 instructions: 1500000000 cycles: 1624946430 heartbeat IPC: 0.794151 cumulative IPC: 0.820708 (Simulation time: 6 hr 3 min 5 sec) 
Heartbeat CPU 2 instructions: 1060000000 cycles: 1628121775 heartbeat IPC: 0.523365 cumulative IPC: 0.545719 (Simulation time: 6 hr 3 min 42 sec) 
Heartbeat CPU 3 instructions: 1270000000 cycles: 1630326322 heartbeat IPC: 0.7396 cumulative IPC: 0.665434 (Simulation time: 6 hr 4 min 8 sec) 
Heartbeat CPU 1 instructions: 1470000003 cycles: 1630943083 heartbeat IPC: 0.817022 cumulative IPC: 0.832527 (Simulation time: 6 hr 4 min 15 sec) 
Heartbeat CPU 0 instructions: 1510000000 cycles: 1637378424 heartbeat IPC: 0.804376 cumulative IPC: 0.820576 (Simulation time: 6 hr 5 min 31 sec) 
Heartbeat CPU 1 instructions: 1480000000 cycles: 1643192387 heartbeat IPC: 0.816373 cumulative IPC: 0.832398 (Simulation time: 6 hr 6 min 38 sec) 
Heartbeat CPU 3 instructions: 1280000000 cycles: 1643924971 heartbeat IPC: 0.735367 cumulative IPC: 0.666052 (Simulation time: 6 hr 6 min 46 sec) 
Heartbeat CPU 2 instructions: 1070000000 cycles: 1647142071 heartbeat IPC: 0.525754 cumulative IPC: 0.545473 (Simulation time: 6 hr 7 min 24 sec) 
Heartbeat CPU 0 instructions: 1520000000 cycles: 1649974723 heartbeat IPC: 0.793884 cumulative IPC: 0.820358 (Simulation time: 6 hr 7 min 57 sec) 
Heartbeat CPU 1 instructions: 1490000002 cycles: 1655385373 heartbeat IPC: 0.820144 cumulative IPC: 0.832302 (Simulation time: 6 hr 9 min 0 sec) 
Heartbeat CPU 3 instructions: 1290000000 cycles: 1657625397 heartbeat IPC: 0.729904 cumulative IPC: 0.666616 (Simulation time: 6 hr 9 min 27 sec) 
Heartbeat CPU 0 instructions: 1530000000 cycles: 1662210039 heartbeat IPC: 0.817306 cumulative IPC: 0.820334 (Simulation time: 6 hr 10 min 20 sec) 
Heartbeat CPU 2 instructions: 1080000000 cycles: 1666329989 heartbeat IPC: 0.521161 cumulative IPC: 0.545174 (Simulation time: 6 hr 11 min 8 sec) 
[...]
Heartbeat CPU 0 instructions: 1640000000 cycles: 1797072656 heartbeat IPC: 0.829062 cumulative IPC: 0.81996 (Simulation time: 6 hr 36 min 4 sec) 
Heartbeat CPU 3 instructions: 1360000000 cycles: 1797146921 heartbeat IPC: 0.311194 cumulative IPC: 0.653016 (Simulation time: 6 hr 36 min 4 sec) 
Heartbeat CPU 2 instructions: 1150000000 cycles: 1797704029 heartbeat IPC: 0.542767 cumulative IPC: 0.544216 (Simulation time: 6 hr 36 min 10 sec) 
Heartbeat CPU 1 instructions: 1610000001 cycles: 1802937430 heartbeat IPC: 0.815889 cumulative IPC: 0.830648 (Simulation time: 6 hr 37 min 7 sec) 
Heartbeat CPU 0 instructions: 1650000001 cycles: 1809188456 heartbeat IPC: 0.825369 cumulative IPC: 0.819999 (Simulation time: 6 hr 38 min 14 sec) 
Heartbeat CPU 1 instructions: 1620000000 cycles: 1815314293 heartbeat IPC: 0.807959 cumulative IPC: 0.830484 (Simulation time: 6 hr 39 min 17 sec) 
Heartbeat CPU 2 instructions: 1160000000 cycles: 1815615575 heartbeat IPC: 0.558299 cumulative IPC: 0.544363 (Simulation time: 6 hr 39 min 20 sec) 
Heartbeat CPU 0 instructions: 1660000000 cycles: 1821230545 heartbeat IPC: 0.830421 cumulative IPC: 0.820072 (Simulation time: 6 hr 40 min 18 sec) 
Heartbeat CPU 1 instructions: 1630000002 cycles: 1827688687 heartbeat IPC: 0.808121 cumulative IPC: 0.830323 (Simulation time: 6 hr 41 min 25 sec) 
Heartbeat CPU 3 instructions: 1370000002 cycles: 1829326763 heartbeat IPC: 0.310754 cumulative IPC: 0.646627 (Simulation time: 6 hr 41 min 42 sec) 
Heartbeat CPU 0 instructions: 1670000000 cycles: 1833282847 heartbeat IPC: 0.829717 cumulative IPC: 0.820139 (Simulation time: 6 hr 42 min 23 sec) 
Heartbeat CPU 2 instructions: 1170000000 cycles: 1833851211 heartbeat IPC: 0.548377 cumulative IPC: 0.544406 (Simulation time: 6 hr 42 min 29 sec) 
Heartbeat CPU 1 instructions: 1640000000 cycles: 1840000581 heartbeat IPC: 0.812223 cumulative IPC: 0.830195 (Simulation time: 6 hr 43 min 33 sec) 
Heartbeat CPU 0 instructions: 1680000000 cycles: 1845316112 heartbeat IPC: 0.83103 cumulative IPC: 0.820215 (Simulation time: 6 hr 44 min 27 sec) 
Heartbeat CPU 2 instructions: 1180000000 cycles: 1851944889 heartbeat IPC: 0.552679 cumulative IPC: 0.544491 (Simulation time: 6 hr 45 min 36 sec) 
Heartbeat CPU 1 instructions: 1650000000 cycles: 1852317804 heartbeat IPC: 0.811871 cumulative IPC: 0.830065 (Simulation time: 6 hr 45 min 39 sec) 
Heartbeat CPU 0 instructions: 1690000003 cycles: 1857365340 heartbeat IPC: 0.829929 cumulative IPC: 0.820281 (Simulation time: 6 hr 46 min 31 sec) 
Heartbeat CPU 3 instructions: 1380000000 cycles: 1861256792 heartbeat IPC: 0.313185 cumulative IPC: 0.640563 (Simulation time: 6 hr 47 min 10 sec) 
Heartbeat CPU 1 instructions: 1660000000 cycles: 1864666842 heartbeat IPC: 0.80978 cumulative IPC: 0.829923 (Simulation time: 6 hr 47 min 45 sec) 
Heartbeat CPU 0 instructions: 1700000000 cycles: 1869383655 heartbeat IPC: 0.832063 cumulative IPC: 0.820362 (Simulation time: 6 hr 48 min 33 sec) 
Heartbeat CPU 2 instructions: 1190000003 cycles: 1870041227 heartbeat IPC: 0.552598 cumulative IPC: 0.544574 (Simulation time: 6 hr 48 min 40 sec) 
Heartbeat CPU 1 instructions: 1670000003 cycles: 1877022320 heartbeat IPC: 0.809358 cumulative IPC: 0.82978 (Simulation time: 6 hr 49 min 51 sec) 
Heartbeat CPU 0 instructions: 1710000000 cycles: 1881419014 heartbeat IPC: 0.830885 cumulative IPC: 0.820433 (Simulation time: 6 hr 50 min 35 sec) 
Heartbeat CPU 2 instructions: 1200000000 cycles: 1887960136 heartbeat IPC: 0.55807 cumulative IPC: 0.54471 (Simulation time: 6 hr 51 min 42 sec) 
Heartbeat CPU 1 instructions: 1680000000 cycles: 1889350927 heartbeat IPC: 0.811121 cumulative IPC: 0.829651 (Simulation time: 6 hr 51 min 56 sec) 
Heartbeat CPU 0 instructions: 1720000000 cycles: 1893477053 heartbeat IPC: 0.829322 cumulative IPC: 0.820493 (Simulation time: 6 hr 52 min 38 sec) 
Heartbeat CPU 3 instructions: 1390000002 cycles: 1893833779 heartbeat IPC: 0.306965 cumulative IPC: 0.634486 (Simulation time: 6 hr 52 min 41 sec) 
Heartbeat CPU 1 instructions: 1690000001 cycles: 1901740143 heartbeat IPC: 0.807154 cumulative IPC: 0.829495 (Simulation time: 6 hr 54 min 3 sec) 
Heartbeat CPU 0 instructions: 1730000001 cycles: 1905544602 heartbeat IPC: 0.828669 cumulative IPC: 0.820548 (Simulation time: 6 hr 54 min 42 sec) 
Heartbeat CPU 2 instructions: 1210000000 cycles: 1906689220 heartbeat IPC: 0.533929 cumulative IPC: 0.544598 (Simulation time: 6 hr 54 min 54 sec) 
Heartbeat CPU 1 instructions: 1700000000 cycles: 1914082270 heartbeat IPC: 0.810233 cumulative IPC: 0.829364 (Simulation time: 6 hr 56 min 10 sec) 
Heartbeat CPU 0 instructions: 1740000000 cycles: 1917598665 heartbeat IPC: 0.829596 cumulative IPC: 0.820608 (Simulation time: 6 hr 56 min 46 sec) 
Heartbeat CPU 2 instructions: 1220000000 cycles: 1925475926 heartbeat IPC: 0.532291 cumulative IPC: 0.544471 (Simulation time: 6 hr 58 min 4 sec) 
Heartbeat CPU 3 instructions: 1400000000 cycles: 1926344158 heartbeat IPC: 0.307594 cumulative IPC: 0.62865 (Simulation time: 6 hr 58 min 13 sec) 
Heartbeat CPU 1 instructions: 1710000003 cycles: 1926507531 heartbeat IPC: 0.804812 cumulative IPC: 0.829196 (Simulation time: 6 hr 58 min 14 sec) 
Heartbeat CPU 0 instructions: 1750000001 cycles: 1929655392 heartbeat IPC: 0.829413 cumulative IPC: 0.820666 (Simulation time: 6 hr 58 min 46 sec) 
Heartbeat CPU 1 instructions: 1720000000 cycles: 1938853272 heartbeat IPC: 0.809996 cumulative IPC: 0.829067 (Simulation time: 7 hr 0 min 19 sec) 
Heartbeat CPU 0 instructions: 1760000000 cycles: 1941777379 heartbeat IPC: 0.824947 cumulative IPC: 0.820694 (Simulation time: 7 hr 0 min 48 sec) 
Finished CPU 2 instructions: 1000000000 cycles: 1836908017 cumulative IPC: 0.544393 (Simulation time: 7 hr 0 min 54 sec) 

CPU 0 Branch Prediction Accuracy: 99.9486% MPKI: 0.127915

CPU 1 Branch Prediction Accuracy: 99.9709% MPKI: 0.00727351

CPU 2 Branch Prediction Accuracy: 97.0873% MPKI: 0.506515

CPU 3 Branch Prediction Accuracy: 99.9485% MPKI: 0.125252

ChampSim completed all CPUs

Total Simulation Statistics (not including warmup)

CPU 0 cumulative IPC: 0.820687 instructions: 1507526271 cycles: 1836908016
L1D TOTAL     ACCESS:  321845131  HIT:  283757134  MISS:   38087997
L1D LOAD      ACCESS:  294039999  HIT:  255985751  MISS:   38054248
L1D RFO       ACCESS:   27805132  HIT:   27771383  MISS:      33749
L1D PREFETCH  ACCESS:          0  HIT:          0  MISS:          0
L1D WRITEBACK ACCESS:          0  HIT:          0  MISS:          0
L1I TOTAL     ACCESS:  525779250  HIT:  525779249  MISS:          1
L1I LOAD      ACCESS:  525779250  HIT:  525779249  MISS:          1
L1I RFO       ACCESS:          0  HIT:          0  MISS:          0
L1I PREFETCH  ACCESS:          0  HIT:          0  MISS:          0
L1I WRITEBACK ACCESS:          0  HIT:          0  MISS:          0
L2C TOTAL     ACCESS:   70692001  HIT:   32635377  MISS:   38056624
L2C LOAD      ACCESS:   38054249  HIT:   32379501  MISS:    5674748
L2C RFO       ACCESS:      33749  HIT:      15287  MISS:      18462
L2C PREFETCH  ACCESS:   32554861  HIT:     191456  MISS:   32363405
L2C WRITEBACK ACCESS:      49142  HIT:      49133  MISS:          9

L2C Best-offset prefetcher final stats
LLC TOTAL     ACCESS:   38105673  HIT:   37673905  MISS:     431768
LLC LOAD      ACCESS:    5551773  HIT:    5511277  MISS:      40496
LLC RFO       ACCESS:      18433  HIT:      11628  MISS:       6805
LLC PREFETCH  ACCESS:   32487306  HIT:   32105638  MISS:     381668
LLC WRITEBACK ACCESS:      48161  HIT:      45362  MISS:       2799

CPU 1 cumulative IPC: 0.828995 instructions: 1522786774 cycles: 1836908016
L1D TOTAL     ACCESS:  579712459  HIT:  548075526  MISS:   31636933
L1D LOAD      ACCESS:  495015594  HIT:  464345152  MISS:   30670442
L1D RFO       ACCESS:   84696865  HIT:   83730374  MISS:     966491
L1D PREFETCH  ACCESS:          0  HIT:          0  MISS:          0
L1D WRITEBACK ACCESS:          0  HIT:          0  MISS:          0
L1I TOTAL     ACCESS:  381081558  HIT:  381081558  MISS:          0
L1I LOAD      ACCESS:  381081558  HIT:  381081558  MISS:          0
L1I RFO       ACCESS:          0  HIT:          0  MISS:          0
L1I PREFETCH  ACCESS:          0  HIT:          0  MISS:          0
L1I WRITEBACK ACCESS:          0  HIT:          0  MISS:          0
L2C TOTAL     ACCESS:   47198409  HIT:   18188192  MISS:   29010217
L2C LOAD      ACCESS:   30662269  HIT:   16913344  MISS:   13748925
L2C RFO       ACCESS:     949216  HIT:     207249  MISS:     741967
L2C PREFETCH  ACCESS:   14535447  HIT:      23450  MISS:   14511997
L2C WRITEBACK ACCESS:    1051477  HIT:    1044149  MISS:       7328

L2C Best-offset prefetcher final stats
LLC TOTAL     ACCESS:   35623209  HIT:    6682922  MISS:   28940287
LLC LOAD      ACCESS:    6985281  HIT:    5892194  MISS:    1093087
LLC RFO       ACCESS:     741967  HIT:          0  MISS:     741967
LLC PREFETCH  ACCESS:   27145785  HIT:      43020  MISS:   27102765
LLC WRITEBACK ACCESS:     750176  HIT:     747708  MISS:       2468

CPU 2 cumulative IPC: 0.544393 instructions: 1000000000 cycles: 1836908017
L1D TOTAL     ACCESS:  284661646  HIT:  206460007  MISS:   78201639
L1D LOAD      ACCESS:  102089262  HIT:   90231516  MISS:   11857746
L1D RFO       ACCESS:  182572384  HIT:  116228491  MISS:   66343893
L1D PREFETCH  ACCESS:          0  HIT:          0  MISS:          0
L1D WRITEBACK ACCESS:          0  HIT:          0  MISS:          0
L1I TOTAL     ACCESS:  240246121  HIT:  240246121  MISS:          0
L1I LOAD      ACCESS:  240246121  HIT:  240246121  MISS:          0
L1I RFO       ACCESS:          0  HIT:          0  MISS:          0
L1I PREFETCH  ACCESS:          0  HIT:          0  MISS:          0
L1I WRITEBACK ACCESS:          0  HIT:          0  MISS:          0
L2C TOTAL     ACCESS:  154684324  HIT:   97335337  MISS:   57348987
L2C LOAD      ACCESS:   11857746  HIT:   10136398  MISS:    1721348
L2C RFO       ACCESS:   66343791  HIT:   20871441  MISS:   45472350
L2C PREFETCH  ACCESS:   10138895  HIT:        515  MISS:   10138380
L2C WRITEBACK ACCESS:   66343892  HIT:   66326983  MISS:      16909

L2C Best-offset prefetcher final stats
LLC TOTAL     ACCESS:  102941703  HIT:   55571002  MISS:   47370701
LLC LOAD      ACCESS:    1633607  HIT:     153128  MISS:    1480479
LLC RFO       ACCESS:   45449296  HIT:    9924355  MISS:   35524941
LLC PREFETCH  ACCESS:   10370244  HIT:       8687  MISS:   10361557
LLC WRITEBACK ACCESS:   45488556  HIT:   45484832  MISS:       3724

CPU 3 cumulative IPC: 0.625834 instructions: 1149599532 cycles: 1836908017
L1D TOTAL     ACCESS:  236688117  HIT:  205521429  MISS:   31166688
L1D LOAD      ACCESS:  213682786  HIT:  182516099  MISS:   31166687
L1D RFO       ACCESS:   23005331  HIT:   23005330  MISS:          1
L1D PREFETCH  ACCESS:          0  HIT:          0  MISS:          0
L1D WRITEBACK ACCESS:          0  HIT:          0  MISS:          0
L1I TOTAL     ACCESS:  395850749  HIT:  395850738  MISS:         11
L1I LOAD      ACCESS:  395850749  HIT:  395850738  MISS:         11
L1I RFO       ACCESS:          0  HIT:          0  MISS:          0
L1I PREFETCH  ACCESS:          0  HIT:          0  MISS:          0
L1I WRITEBACK ACCESS:          0  HIT:          0  MISS:          0
L2C TOTAL     ACCESS:   56477526  HIT:   24845753  MISS:   31631773
L2C LOAD      ACCESS:   31166698  HIT:   24699470  MISS:    6467228
L2C RFO       ACCESS:          1  HIT:          0  MISS:          1
L2C PREFETCH  ACCESS:   25308525  HIT:     143981  MISS:   25164544
L2C WRITEBACK ACCESS:       2302  HIT:       2302  MISS:          0

L2C Best-offset prefetcher final stats
LLC TOTAL     ACCESS:   31643165  HIT:   25548482  MISS:    6094683
LLC LOAD      ACCESS:    6080753  HIT:    4687921  MISS:    1392832
LLC RFO       ACCESS:          1  HIT:          0  MISS:          1
LLC PREFETCH  ACCESS:   25560244  HIT:   20858396  MISS:    4701848
LLC WRITEBACK ACCESS:       2167  HIT:       2165  MISS:          2

Region of Interest Statistics

CPU 0 cumulative IPC: 0.8236 instructions: 1000000000 cycles: 1214180988
L1D TOTAL     ACCESS:  213892105  HIT:  188531581  MISS:   25360524
L1D LOAD      ACCESS:  195339341  HIT:  170005029  MISS:   25334312
L1D RFO       ACCESS:   18552764  HIT:   18526552  MISS:      26212
L1D PREFETCH  ACCESS:          0  HIT:          0  MISS:          0
L1D WRITEBACK ACCESS:          0  HIT:          0  MISS:          0
L1D PREFETCH  REQUESTED:          0  ISSUED:          0  USEFUL:          0  USELESS:          0
L1I TOTAL     ACCESS:  347449038  HIT:  347449037  MISS:          1
L1I LOAD      ACCESS:  347449038  HIT:  347449037  MISS:          1
L1I RFO       ACCESS:          0  HIT:          0  MISS:          0
L1I PREFETCH  ACCESS:          0  HIT:          0  MISS:          0
L1I WRITEBACK ACCESS:          0  HIT:          0  MISS:          0
L1I PREFETCH  REQUESTED:          0  ISSUED:          0  USEFUL:          0  USELESS:          0
L2C TOTAL     ACCESS:   46836554  HIT:   21803621  MISS:   25032933
L2C LOAD      ACCESS:   25334313  HIT:   21603895  MISS:    3730418
L2C RFO       ACCESS:      26212  HIT:      12268  MISS:      13944
L2C PREFETCH  ACCESS:   21437705  HIT:     149140  MISS:   21288565
L2C WRITEBACK ACCESS:      38324  HIT:      38318  MISS:          6
L2C PREFETCH  REQUESTED:   36699845  ISSUED:   36699845  USEFUL:   35245506  USELESS:    1032686
LLC TOTAL     ACCESS:   25070835  HIT:   24866001  MISS:     204834
LLC LOAD      ACCESS:    3657850  HIT:    3635452  MISS:      22398
LLC RFO       ACCESS:      13926  HIT:       8795  MISS:       5131
LLC PREFETCH  ACCESS:   21361712  HIT:   21187203  MISS:     174509
LLC WRITEBACK ACCESS:      37347  HIT:      34551  MISS:       2796
LLC PREFETCH  REQUESTED:          0  ISSUED:          0  USEFUL:    6162525  USELESS:   48602265
Major fault: 0 Minor fault: 4593

CPU 1 cumulative IPC: 0.835753 instructions: 1000000000 cycles: 1196525609
L1D TOTAL     ACCESS:  380680799  HIT:  359905665  MISS:   20775134
L1D LOAD      ACCESS:  325070727  HIT:  304930070  MISS:   20140657
L1D RFO       ACCESS:   55610072  HIT:   54975595  MISS:     634477
L1D PREFETCH  ACCESS:          0  HIT:          0  MISS:          0
L1D WRITEBACK ACCESS:          0  HIT:          0  MISS:          0
L1D PREFETCH  REQUESTED:          0  ISSUED:          0  USEFUL:          0  USELESS:          0
L1I TOTAL     ACCESS:  250140666  HIT:  250140666  MISS:          0
L1I LOAD      ACCESS:  250140666  HIT:  250140666  MISS:          0
L1I RFO       ACCESS:          0  HIT:          0  MISS:          0
L1I PREFETCH  ACCESS:          0  HIT:          0  MISS:          0
L1I WRITEBACK ACCESS:          0  HIT:          0  MISS:          0
L1I PREFETCH  REQUESTED:          0  ISSUED:          0  USEFUL:          0  USELESS:          0
L2C TOTAL     ACCESS:   31073315  HIT:   12022345  MISS:   19050970
L2C LOAD      ACCESS:   20135267  HIT:   11184092  MISS:    8951175
L2C RFO       ACCESS:     623086  HIT:     135843  MISS:     487243
L2C PREFETCH  ACCESS:    9624573  HIT:      16802  MISS:    9607771
L2C WRITEBACK ACCESS:     690389  HIT:     685608  MISS:       4781
L2C PREFETCH  REQUESTED:   30956112  ISSUED:   30956112  USEFUL:   18020293  USELESS:       1197
LLC TOTAL     ACCESS:   23427990  HIT:    4423338  MISS:   19004652
LLC LOAD      ACCESS:    4647536  HIT:    3903568  MISS:     743968
LLC RFO       ACCESS:     487243  HIT:          0  MISS:     487243
LLC PREFETCH  ACCESS:   17800579  HIT:      28663  MISS:   17771916
LLC WRITEBACK ACCESS:     492632  HIT:     491107  MISS:       1525
LLC PREFETCH  REQUESTED:          0  ISSUED:          0  USEFUL:    6162525  USELESS:   48602265
Major fault: 0 Minor fault: 485580

CPU 2 cumulative IPC: 0.544393 instructions: 1000000000 cycles: 1836908017
L1D TOTAL     ACCESS:  284661646  HIT:  206460007  MISS:   78201639
L1D LOAD      ACCESS:  102089262  HIT:   90231516  MISS:   11857746
L1D RFO       ACCESS:  182572384  HIT:  116228491  MISS:   66343893
L1D PREFETCH  ACCESS:          0  HIT:          0  MISS:          0
L1D WRITEBACK ACCESS:          0  HIT:          0  MISS:          0
L1D PREFETCH  REQUESTED:          0  ISSUED:          0  USEFUL:          0  USELESS:          0
L1I TOTAL     ACCESS:  240246121  HIT:  240246121  MISS:          0
L1I LOAD      ACCESS:  240246121  HIT:  240246121  MISS:          0
L1I RFO       ACCESS:          0  HIT:          0  MISS:          0
L1I PREFETCH  ACCESS:          0  HIT:          0  MISS:          0
L1I WRITEBACK ACCESS:          0  HIT:          0  MISS:          0
L1I PREFETCH  REQUESTED:          0  ISSUED:          0  USEFUL:          0  USELESS:          0
L2C TOTAL     ACCESS:  154684324  HIT:   97335337  MISS:   57348987
L2C LOAD      ACCESS:   11857746  HIT:   10136398  MISS:    1721348
L2C RFO       ACCESS:   66343791  HIT:   20871441  MISS:   45472350
L2C PREFETCH  ACCESS:   10138895  HIT:        515  MISS:   10138380
L2C WRITEBACK ACCESS:   66343892  HIT:   66326983  MISS:      16909
L2C PREFETCH  REQUESTED:   12181968  ISSUED:   12181968  USEFUL:   11668606  USELESS:       9677
LLC TOTAL     ACCESS:  102941703  HIT:   55571002  MISS:   47370701
LLC LOAD      ACCESS:    1633607  HIT:     153128  MISS:    1480479
LLC RFO       ACCESS:   45449296  HIT:    9924355  MISS:   35524941
LLC PREFETCH  ACCESS:   10370244  HIT:       8687  MISS:   10361557
LLC WRITEBACK ACCESS:   45488556  HIT:   45484832  MISS:       3724
LLC PREFETCH  REQUESTED:          0  ISSUED:          0  USEFUL:    6162525  USELESS:   48602265
Major fault: 0 Minor fault: 435232

CPU 3 cumulative IPC: 0.664447 instructions: 1000000001 cycles: 1505009775
L1D TOTAL     ACCESS:  206354045  HIT:  179217436  MISS:   27136609
L1D LOAD      ACCESS:  186400008  HIT:  159263400  MISS:   27136608
L1D RFO       ACCESS:   19954037  HIT:   19954036  MISS:          1
L1D PREFETCH  ACCESS:          0  HIT:          0  MISS:          0
L1D WRITEBACK ACCESS:          0  HIT:          0  MISS:          0
L1D PREFETCH  REQUESTED:          0  ISSUED:          0  USEFUL:          0  USELESS:          0
L1I TOTAL     ACCESS:  345411062  HIT:  345411051  MISS:         11
L1I LOAD      ACCESS:  345411062  HIT:  345411051  MISS:         11
L1I RFO       ACCESS:          0  HIT:          0  MISS:          0
L1I PREFETCH  ACCESS:          0  HIT:          0  MISS:          0
L1I WRITEBACK ACCESS:          0  HIT:          0  MISS:          0
L1I PREFETCH  REQUESTED:          0  ISSUED:          0  USEFUL:          0  USELESS:          0
L2C TOTAL     ACCESS:   49336611  HIT:   22010949  MISS:   27325662
L2C LOAD      ACCESS:   27136619  HIT:   21877769  MISS:    5258850
L2C RFO       ACCESS:          1  HIT:          0  MISS:          1
L2C PREFETCH  ACCESS:   22197865  HIT:     131054  MISS:   22066811
L2C WRITEBACK ACCESS:       2126  HIT:       2126  MISS:          0
L2C PREFETCH  REQUESTED:   31459729  ISSUED:   31459729  USEFUL:   29601354  USELESS:    1298098
LLC TOTAL     ACCESS:   27332338  HIT:   23196589  MISS:    4135749
LLC LOAD      ACCESS:    4894915  HIT:    4215457  MISS:     679458
LLC RFO       ACCESS:          1  HIT:          0  MISS:          1
LLC PREFETCH  ACCESS:   22435431  HIT:   18979143  MISS:    3456288
LLC WRITEBACK ACCESS:       1991  HIT:       1989  MISS:          2
LLC PREFETCH  REQUESTED:          0  ISSUED:          0  USEFUL:    6162525  USELESS:   48602265
Major fault: 0 Minor fault: 4875

L2C Best-offset prefetcher final stats

L2C Best-offset prefetcher final stats

L2C Best-offset prefetcher final stats

L2C Best-offset prefetcher final stats

DRAM Statistics
 CHANNEL 0
 RQ ROW_BUFFER_HIT:   18763310  ROW_BUFFER_MISS:   22648210
 DBUS_CONGESTED:   78428033
 WQ ROW_BUFFER_HIT:    2099392  ROW_BUFFER_MISS:   16048380  FULL:          0

 CHANNEL 1
 RQ ROW_BUFFER_HIT:   18707634  ROW_BUFFER_MISS:   22709149
 DBUS_CONGESTED:   78428033
 WQ ROW_BUFFER_HIT:    2091053  ROW_BUFFER_MISS:   16056158  FULL:          0

 AVG_CONGESTED_CYCLE: 13
