
*** ChampSim Multicore Out-of-Order Simulator ***

Warmup Instructions: 200000000
Simulation Instructions: 1000000000
Number of CPUs: 4
LLC sets: 8192
LLC ways: 16
Off-chip DRAM Size: 8192 MB Channels: 2 Width: 64-bit Data Rate: 1600 MT/s

CPU 0 runs /scratch/user/djimenez/champsim-traces/speccpu2017/xz/605.mcf_s/605.mcf_s-665B.champsimtrace.xz
CPU 1 runs /scratch/user/djimenez/champsim-traces/speccpu2017/xz/605.mcf_s/605.mcf_s-1152B.champsimtrace.xz
CPU 2 runs /scratch/user/djimenez/champsim-traces/speccpu2017/xz/654.roms_s/654.roms_s-294B.champsimtrace.xz
CPU 3 runs /scratch/user/djimenez/champsim-traces/speccpu2017/xz/657.xz_s/657.xz_s-2302B.champsimtrace.xz
L2C Best-offset prefetcher
L2C Best-offset prefetcher
L2C Best-offset prefetcher
L2C Best-offset prefetcher
Heartbeat CPU 3 instructions: 10000002 cycles: 4455845 heartbeat IPC: 2.24424 cumulative IPC: 2.24424 (Simulation time: 0 hr 1 min 8 sec) 
Heartbeat CPU 2 instructions: 10000003 cycles: 4879692 heartbeat IPC: 2.04931 cumulative IPC: 2.04931 (Simulation time: 0 hr 1 min 15 sec) 
Heartbeat CPU 0 instructions: 10000001 cycles: 6506227 heartbeat IPC: 1.53699 cumulative IPC: 1.53699 (Simulation time: 0 hr 1 min 39 sec) 
Heartbeat CPU 1 instructions: 10000001 cycles: 6549947 heartbeat IPC: 1.52673 cumulative IPC: 1.52673 (Simulation time: 0 hr 1 min 40 sec) 
Heartbeat CPU 3 instructions: 20000000 cycles: 8879792 heartbeat IPC: 2.26042 cumulative IPC: 2.25231 (Simulation time: 0 hr 2 min 18 sec) 
Heartbeat CPU 2 instructions: 20000000 cycles: 9759016 heartbeat IPC: 2.04946 cumulative IPC: 2.04939 (Simulation time: 0 hr 2 min 33 sec) 
Heartbeat CPU 0 instructions: 20000000 cycles: 12999362 heartbeat IPC: 1.54009 cumulative IPC: 1.53854 (Simulation time: 0 hr 3 min 27 sec) 
Heartbeat CPU 1 instructions: 20000000 cycles: 13102544 heartbeat IPC: 1.52611 cumulative IPC: 1.52642 (Simulation time: 0 hr 3 min 28 sec) 
Heartbeat CPU 3 instructions: 30000003 cycles: 13396821 heartbeat IPC: 2.21385 cumulative IPC: 2.23934 (Simulation time: 0 hr 3 min 33 sec) 
Heartbeat CPU 2 instructions: 30000002 cycles: 14638082 heartbeat IPC: 2.04957 cumulative IPC: 2.04945 (Simulation time: 0 hr 3 min 54 sec) 
Heartbeat CPU 3 instructions: 40000000 cycles: 17883092 heartbeat IPC: 2.22902 cumulative IPC: 2.23675 (Simulation time: 0 hr 4 min 47 sec) 
Heartbeat CPU 0 instructions: 30000001 cycles: 19484372 heartbeat IPC: 1.54202 cumulative IPC: 1.5397 (Simulation time: 0 hr 5 min 14 sec) 
Heartbeat CPU 2 instructions: 40000000 cycles: 19517265 heartbeat IPC: 2.04952 cumulative IPC: 2.04947 (Simulation time: 0 hr 5 min 14 sec) 
Heartbeat CPU 1 instructions: 30000001 cycles: 19641189 heartbeat IPC: 1.52937 cumulative IPC: 1.5274 (Simulation time: 0 hr 5 min 16 sec) 
Heartbeat CPU 3 instructions: 50000003 cycles: 22407259 heartbeat IPC: 2.21035 cumulative IPC: 2.23142 (Simulation time: 0 hr 6 min 2 sec) 
Heartbeat CPU 2 instructions: 50000000 cycles: 24396612 heartbeat IPC: 2.04945 cumulative IPC: 2.04946 (Simulation time: 0 hr 6 min 35 sec) 
Heartbeat CPU 0 instructions: 40000000 cycles: 25984383 heartbeat IPC: 1.53846 cumulative IPC: 1.53939 (Simulation time: 0 hr 7 min 1 sec) 
Heartbeat CPU 1 instructions: 40000000 cycles: 26188142 heartbeat IPC: 1.52743 cumulative IPC: 1.52741 (Simulation time: 0 hr 7 min 5 sec) 
Heartbeat CPU 3 instructions: 60000000 cycles: 26861477 heartbeat IPC: 2.24506 cumulative IPC: 2.23368 (Simulation time: 0 hr 7 min 16 sec) 
Heartbeat CPU 2 instructions: 60000000 cycles: 29276203 heartbeat IPC: 2.04935 cumulative IPC: 2.04945 (Simulation time: 0 hr 7 min 56 sec) 
Heartbeat CPU 3 instructions: 70000002 cycles: 31272751 heartbeat IPC: 2.26692 cumulative IPC: 2.23837 (Simulation time: 0 hr 8 min 29 sec) 
Heartbeat CPU 0 instructions: 50000000 cycles: 32489116 heartbeat IPC: 1.53734 cumulative IPC: 1.53898 (Simulation time: 0 hr 8 min 49 sec) 
Heartbeat CPU 1 instructions: 50000000 cycles: 32730021 heartbeat IPC: 1.52861 cumulative IPC: 1.52765 (Simulation time: 0 hr 8 min 53 sec) 
Heartbeat CPU 2 instructions: 70000003 cycles: 34155477 heartbeat IPC: 2.04949 cumulative IPC: 2.04945 (Simulation time: 0 hr 9 min 17 sec) 
Heartbeat CPU 3 instructions: 80000000 cycles: 35692342 heartbeat IPC: 2.26265 cumulative IPC: 2.24138 (Simulation time: 0 hr 9 min 42 sec) 
Heartbeat CPU 0 instructions: 60000000 cycles: 38988840 heartbeat IPC: 1.53853 cumulative IPC: 1.5389 (Simulation time: 0 hr 10 min 37 sec) 
Heartbeat CPU 2 instructions: 80000000 cycles: 39034801 heartbeat IPC: 2.04946 cumulative IPC: 2.04945 (Simulation time: 0 hr 10 min 38 sec) 
Heartbeat CPU 1 instructions: 60000000 cycles: 39263588 heartbeat IPC: 1.53056 cumulative IPC: 1.52813 (Simulation time: 0 hr 10 min 42 sec) 
Heartbeat CPU 3 instructions: 90000000 cycles: 40139310 heartbeat IPC: 2.24872 cumulative IPC: 2.24219 (Simulation time: 0 hr 10 min 56 sec) 
Heartbeat CPU 2 instructions: 90000000 cycles: 43914044 heartbeat IPC: 2.0495 cumulative IPC: 2.04946 (Simulation time: 0 hr 11 min 59 sec) 
Heartbeat CPU 3 instructions: 100000000 cycles: 44540579 heartbeat IPC: 2.27207 cumulative IPC: 2.24514 (Simulation time: 0 hr 12 min 9 sec) 
Heartbeat CPU 0 instructions: 70000002 cycles: 45509019 heartbeat IPC: 1.5337 cumulative IPC: 1.53816 (Simulation time: 0 hr 12 min 25 sec) 
Heartbeat CPU 1 instructions: 70000000 cycles: 45814667 heartbeat IPC: 1.52647 cumulative IPC: 1.52789 (Simulation time: 0 hr 12 min 31 sec) 
Heartbeat CPU 2 instructions: 100000000 cycles: 48793189 heartbeat IPC: 2.04954 cumulative IPC: 2.04947 (Simulation time: 0 hr 13 min 19 sec) 
Heartbeat CPU 3 instructions: 110000003 cycles: 48892121 heartbeat IPC: 2.29804 cumulative IPC: 2.24985 (Simulation time: 0 hr 13 min 20 sec) 
Heartbeat CPU 0 instructions: 80000000 cycles: 52012393 heartbeat IPC: 1.53766 cumulative IPC: 1.53809 (Simulation time: 0 hr 14 min 12 sec) 
Heartbeat CPU 1 instructions: 80000000 cycles: 52339591 heartbeat IPC: 1.53258 cumulative IPC: 1.52848 (Simulation time: 0 hr 14 min 17 sec) 
Heartbeat CPU 3 instructions: 120000000 cycles: 53353474 heartbeat IPC: 2.24147 cumulative IPC: 2.24915 (Simulation time: 0 hr 14 min 34 sec) 
Heartbeat CPU 2 instructions: 110000001 cycles: 53671864 heartbeat IPC: 2.04974 cumulative IPC: 2.04949 (Simulation time: 0 hr 14 min 40 sec) 
Heartbeat CPU 3 instructions: 130000000 cycles: 57569563 heartbeat IPC: 2.37187 cumulative IPC: 2.25814 (Simulation time: 0 hr 15 min 44 sec) 
Heartbeat CPU 0 instructions: 90000002 cycles: 58528430 heartbeat IPC: 1.53468 cumulative IPC: 1.53771 (Simulation time: 0 hr 16 min 0 sec) 
Heartbeat CPU 2 instructions: 120000000 cycles: 58551046 heartbeat IPC: 2.04952 cumulative IPC: 2.04949 (Simulation time: 0 hr 16 min 1 sec) 
Heartbeat CPU 1 instructions: 90000002 cycles: 58858859 heartbeat IPC: 1.53391 cumulative IPC: 1.52908 (Simulation time: 0 hr 16 min 6 sec) 
Heartbeat CPU 3 instructions: 140000000 cycles: 61740147 heartbeat IPC: 2.39775 cumulative IPC: 2.26757 (Simulation time: 0 hr 16 min 53 sec) 
Heartbeat CPU 2 instructions: 130000000 cycles: 63430151 heartbeat IPC: 2.04956 cumulative IPC: 2.0495 (Simulation time: 0 hr 17 min 21 sec) 
Heartbeat CPU 0 instructions: 100000000 cycles: 65073732 heartbeat IPC: 1.52781 cumulative IPC: 1.53672 (Simulation time: 0 hr 17 min 49 sec) 
Heartbeat CPU 1 instructions: 100000000 cycles: 65366783 heartbeat IPC: 1.53659 cumulative IPC: 1.52983 (Simulation time: 0 hr 17 min 56 sec) 
Heartbeat CPU 3 instructions: 150000000 cycles: 65966876 heartbeat IPC: 2.3659 cumulative IPC: 2.27387 (Simulation time: 0 hr 18 min 8 sec) 
Heartbeat CPU 2 instructions: 140000000 cycles: 68309132 heartbeat IPC: 2.04961 cumulative IPC: 2.04951 (Simulation time: 0 hr 18 min 47 sec) 
Heartbeat CPU 3 instructions: 160000000 cycles: 70329024 heartbeat IPC: 2.29245 cumulative IPC: 2.27502 (Simulation time: 0 hr 19 min 21 sec) 
Heartbeat CPU 0 instructions: 110000000 cycles: 71612695 heartbeat IPC: 1.52929 cumulative IPC: 1.53604 (Simulation time: 0 hr 19 min 45 sec) 
Heartbeat CPU 1 instructions: 110000000 cycles: 71869169 heartbeat IPC: 1.5379 cumulative IPC: 1.53056 (Simulation time: 0 hr 19 min 50 sec) 
Heartbeat CPU 2 instructions: 150000003 cycles: 73188598 heartbeat IPC: 2.04941 cumulative IPC: 2.0495 (Simulation time: 0 hr 20 min 13 sec) 
Heartbeat CPU 3 instructions: 170000003 cycles: 74882195 heartbeat IPC: 2.19627 cumulative IPC: 2.27023 (Simulation time: 0 hr 20 min 42 sec) 
Heartbeat CPU 2 instructions: 160000000 cycles: 78067257 heartbeat IPC: 2.04974 cumulative IPC: 2.04951 (Simulation time: 0 hr 21 min 36 sec) 
Heartbeat CPU 0 instructions: 120000000 cycles: 78160482 heartbeat IPC: 1.52723 cumulative IPC: 1.5353 (Simulation time: 0 hr 21 min 37 sec) 
Heartbeat CPU 1 instructions: 120000000 cycles: 78366127 heartbeat IPC: 1.53918 cumulative IPC: 1.53127 (Simulation time: 0 hr 21 min 41 sec) 
Heartbeat CPU 3 instructions: 180000000 cycles: 79417540 heartbeat IPC: 2.2049 cumulative IPC: 2.2665 (Simulation time: 0 hr 21 min 58 sec) 
Heartbeat CPU 2 instructions: 170000002 cycles: 82946564 heartbeat IPC: 2.04947 cumulative IPC: 2.04951 (Simulation time: 0 hr 22 min 58 sec) 
Heartbeat CPU 3 instructions: 190000001 cycles: 83960464 heartbeat IPC: 2.20123 cumulative IPC: 2.26297 (Simulation time: 0 hr 23 min 15 sec) 
Heartbeat CPU 0 instructions: 130000001 cycles: 84702829 heartbeat IPC: 1.5285 cumulative IPC: 1.53478 (Simulation time: 0 hr 23 min 28 sec) 
Heartbeat CPU 1 instructions: 130000001 cycles: 84833094 heartbeat IPC: 1.54632 cumulative IPC: 1.53242 (Simulation time: 0 hr 23 min 30 sec) 
Heartbeat CPU 2 instructions: 180000000 cycles: 87825683 heartbeat IPC: 2.04955 cumulative IPC: 2.04951 (Simulation time: 0 hr 24 min 20 sec) 
Heartbeat CPU 3 instructions: 200000000 cycles: 88502086 heartbeat IPC: 2.20186 cumulative IPC: 2.25983 (Simulation time: 0 hr 24 min 32 sec) 
Heartbeat CPU 0 instructions: 140000000 cycles: 91274735 heartbeat IPC: 1.52163 cumulative IPC: 1.53383 (Simulation time: 0 hr 25 min 18 sec) 
Heartbeat CPU 1 instructions: 140000000 cycles: 91282169 heartbeat IPC: 1.55061 cumulative IPC: 1.53371 (Simulation time: 0 hr 25 min 19 sec) 
Heartbeat CPU 2 instructions: 190000001 cycles: 92705009 heartbeat IPC: 2.04946 cumulative IPC: 2.04951 (Simulation time: 0 hr 25 min 43 sec) 
Heartbeat CPU 3 instructions: 210000000 cycles: 93034482 heartbeat IPC: 2.20634 cumulative IPC: 0.107487 (Simulation time: 0 hr 25 min 48 sec) 
Heartbeat CPU 2 instructions: 200000000 cycles: 97584101 heartbeat IPC: 2.04956 cumulative IPC: 2.04951 (Simulation time: 0 hr 27 min 6 sec) 
Heartbeat CPU 3 instructions: 220000000 cycles: 97584671 heartbeat IPC: 2.19771 cumulative IPC: 0.20495 (Simulation time: 0 hr 27 min 6 sec) 
Heartbeat CPU 1 instructions: 150000000 cycles: 97650054 heartbeat IPC: 1.57038 cumulative IPC: 1.5361 (Simulation time: 0 hr 27 min 7 sec) 
Heartbeat CPU 0 instructions: 150000000 cycles: 97837986 heartbeat IPC: 1.52364 cumulative IPC: 1.53315 (Simulation time: 0 hr 27 min 10 sec) 
Heartbeat CPU 3 instructions: 230000001 cycles: 102143337 heartbeat IPC: 2.19362 cumulative IPC: 0.293705 (Simulation time: 0 hr 28 min 24 sec) 
Heartbeat CPU 2 instructions: 210000000 cycles: 102463428 heartbeat IPC: 2.04946 cumulative IPC: 0.0975958 (Simulation time: 0 hr 28 min 29 sec) 
Heartbeat CPU 1 instructions: 160000000 cycles: 103950427 heartbeat IPC: 1.58721 cumulative IPC: 1.5392 (Simulation time: 0 hr 29 min 1 sec) 
Heartbeat CPU 0 instructions: 160000000 cycles: 104395170 heartbeat IPC: 1.52504 cumulative IPC: 1.53264 (Simulation time: 0 hr 29 min 17 sec) 
Heartbeat CPU 3 instructions: 240000000 cycles: 106708423 heartbeat IPC: 2.19054 cumulative IPC: 0.374853 (Simulation time: 0 hr 30 min 39 sec) 
Heartbeat CPU 2 instructions: 220000000 cycles: 107342024 heartbeat IPC: 2.04977 cumulative IPC: 0.18632 (Simulation time: 0 hr 31 min 2 sec) 
Heartbeat CPU 1 instructions: 170000000 cycles: 110234103 heartbeat IPC: 1.59143 cumulative IPC: 1.54217 (Simulation time: 0 hr 32 min 17 sec) 
Heartbeat CPU 0 instructions: 170000003 cycles: 110975860 heartbeat IPC: 1.5196 cumulative IPC: 1.53186 (Simulation time: 0 hr 32 min 30 sec) 
Heartbeat CPU 3 instructions: 250000002 cycles: 111255377 heartbeat IPC: 2.19928 cumulative IPC: 0.449416 (Simulation time: 0 hr 32 min 35 sec) 
Heartbeat CPU 2 instructions: 230000000 cycles: 112221473 heartbeat IPC: 2.04941 cumulative IPC: 0.267329 (Simulation time: 0 hr 32 min 53 sec) 
Heartbeat CPU 3 instructions: 260000000 cycles: 115797543 heartbeat IPC: 2.20159 cumulative IPC: 0.518146 (Simulation time: 0 hr 33 min 58 sec) 
Heartbeat CPU 1 instructions: 180000000 cycles: 116417351 heartbeat IPC: 1.61727 cumulative IPC: 1.54616 (Simulation time: 0 hr 34 min 9 sec) 
Heartbeat CPU 2 instructions: 240000000 cycles: 117100329 heartbeat IPC: 2.04966 cumulative IPC: 0.341587 (Simulation time: 0 hr 34 min 22 sec) 
Heartbeat CPU 0 instructions: 180000000 cycles: 117554381 heartbeat IPC: 1.5201 cumulative IPC: 1.53121 (Simulation time: 0 hr 34 min 30 sec) 
Heartbeat CPU 3 instructions: 270000003 cycles: 120356067 heartbeat IPC: 2.19369 cumulative IPC: 0.581608 (Simulation time: 0 hr 35 min 21 sec) 
Heartbeat CPU 2 instructions: 250000003 cycles: 121979883 heartbeat IPC: 2.04937 cumulative IPC: 0.409904 (Simulation time: 0 hr 35 min 50 sec) 
Heartbeat CPU 1 instructions: 190000001 cycles: 122642929 heartbeat IPC: 1.60628 cumulative IPC: 1.54921 (Simulation time: 0 hr 36 min 2 sec) 
Heartbeat CPU 0 instructions: 190000001 cycles: 124117347 heartbeat IPC: 1.5237 cumulative IPC: 1.53081 (Simulation time: 0 hr 36 min 28 sec) 
Heartbeat CPU 3 instructions: 280000000 cycles: 124924094 heartbeat IPC: 2.18913 cumulative IPC: 0.640389 (Simulation time: 0 hr 36 min 43 sec) 
Heartbeat CPU 2 instructions: 260000000 cycles: 126858801 heartbeat IPC: 2.04963 cumulative IPC: 0.472967 (Simulation time: 0 hr 37 min 17 sec) 
Heartbeat CPU 1 instructions: 200000000 cycles: 128886337 heartbeat IPC: 1.60169 cumulative IPC: 1.55175 (Simulation time: 0 hr 37 min 54 sec) 
Heartbeat CPU 3 instructions: 290000003 cycles: 129497887 heartbeat IPC: 2.18637 cumulative IPC: 0.694992 (Simulation time: 0 hr 38 min 5 sec) 
Heartbeat CPU 0 instructions: 200000000 cycles: 130677791 heartbeat IPC: 1.52429 cumulative IPC: 1.53048 (Simulation time: 0 hr 38 min 26 sec) 

Warmup complete CPU 0 instructions: 200000002 cycles: 130677792 (Simulation time: 0 hr 38 min 26 sec) 
Warmup complete CPU 1 instructions: 202867799 cycles: 130677791 (Simulation time: 0 hr 38 min 26 sec) 
Warmup complete CPU 2 instructions: 267826159 cycles: 130677791 (Simulation time: 0 hr 38 min 26 sec) 
Warmup complete CPU 3 instructions: 292583053 cycles: 130677791 (Simulation time: 0 hr 38 min 26 sec) 

Heartbeat CPU 2 instructions: 270000000 cycles: 132770942 heartbeat IPC: 1.69143 cumulative IPC: 1.03855 (Simulation time: 0 hr 38 min 43 sec) 
Heartbeat CPU 3 instructions: 300000000 cycles: 141367326 heartbeat IPC: 0.8425 cumulative IPC: 0.693851 (Simulation time: 0 hr 39 min 53 sec) 
Heartbeat CPU 2 instructions: 280000000 cycles: 142404016 heartbeat IPC: 1.03809 cumulative IPC: 1.03817 (Simulation time: 0 hr 40 min 1 sec) 
Heartbeat CPU 2 instructions: 290000002 cycles: 152086183 heartbeat IPC: 1.03283 cumulative IPC: 1.03575 (Simulation time: 0 hr 41 min 21 sec) 
Heartbeat CPU 1 instructions: 210000002 cycles: 154899513 heartbeat IPC: 0.384421 cumulative IPC: 0.294455 (Simulation time: 0 hr 41 min 44 sec) 
Heartbeat CPU 3 instructions: 310000001 cycles: 154958861 heartbeat IPC: 0.735752 cumulative IPC: 0.717306 (Simulation time: 0 hr 41 min 44 sec) 
Heartbeat CPU 2 instructions: 300000000 cycles: 161749697 heartbeat IPC: 1.03482 cumulative IPC: 1.03546 (Simulation time: 0 hr 42 min 40 sec) 
Heartbeat CPU 0 instructions: 210000002 cycles: 162160543 heartbeat IPC: 0.317634 cumulative IPC: 0.317634 (Simulation time: 0 hr 42 min 43 sec) 
Heartbeat CPU 3 instructions: 320000000 cycles: 166862287 heartbeat IPC: 0.840094 cumulative IPC: 0.757699 (Simulation time: 0 hr 43 min 24 sec) 
Heartbeat CPU 2 instructions: 310000002 cycles: 171395741 heartbeat IPC: 1.03669 cumulative IPC: 1.03576 (Simulation time: 0 hr 44 min 2 sec) 
Heartbeat CPU 3 instructions: 330000001 cycles: 177734701 heartbeat IPC: 0.919759 cumulative IPC: 0.795142 (Simulation time: 0 hr 44 min 56 sec) 
Heartbeat CPU 2 instructions: 320000000 cycles: 181080251 heartbeat IPC: 1.03258 cumulative IPC: 1.03514 (Simulation time: 0 hr 45 min 23 sec) 
Heartbeat CPU 1 instructions: 220000000 cycles: 189213044 heartbeat IPC: 0.29143 cumulative IPC: 0.292682 (Simulation time: 0 hr 46 min 28 sec) 
Heartbeat CPU 3 instructions: 340000000 cycles: 191081425 heartbeat IPC: 0.749247 cumulative IPC: 0.785002 (Simulation time: 0 hr 46 min 44 sec) 
Heartbeat CPU 2 instructions: 330000001 cycles: 191108141 heartbeat IPC: 0.997219 cumulative IPC: 1.02885 (Simulation time: 0 hr 46 min 44 sec) 
Heartbeat CPU 0 instructions: 220000000 cycles: 193851264 heartbeat IPC: 0.31555 cumulative IPC: 0.316589 (Simulation time: 0 hr 47 min 7 sec) 
Heartbeat CPU 2 instructions: 340000000 cycles: 200689323 heartbeat IPC: 1.04371 cumulative IPC: 1.03088 (Simulation time: 0 hr 48 min 4 sec) 
Heartbeat CPU 3 instructions: 350000000 cycles: 202831812 heartbeat IPC: 0.851036 cumulative IPC: 0.795755 (Simulation time: 0 hr 48 min 22 sec) 
Heartbeat CPU 2 instructions: 350000002 cycles: 210270709 heartbeat IPC: 1.04369 cumulative IPC: 1.03243 (Simulation time: 0 hr 49 min 22 sec) 
Heartbeat CPU 3 instructions: 360000000 cycles: 216209907 heartbeat IPC: 0.747491 cumulative IPC: 0.788206 (Simulation time: 0 hr 50 min 10 sec) 
Heartbeat CPU 2 instructions: 360000000 cycles: 219985208 heartbeat IPC: 1.02939 cumulative IPC: 1.0321 (Simulation time: 0 hr 50 min 40 sec) 
Heartbeat CPU 1 instructions: 230000001 cycles: 222683929 heartbeat IPC: 0.298767 cumulative IPC: 0.294896 (Simulation time: 0 hr 51 min 3 sec) 
Heartbeat CPU 0 instructions: 230000002 cycles: 225458995 heartbeat IPC: 0.316378 cumulative IPC: 0.316518 (Simulation time: 0 hr 51 min 26 sec) 
Heartbeat CPU 3 instructions: 370000000 cycles: 227729216 heartbeat IPC: 0.868108 cumulative IPC: 0.79769 (Simulation time: 0 hr 51 min 45 sec) 
Heartbeat CPU 2 instructions: 370000001 cycles: 229629834 heartbeat IPC: 1.03685 cumulative IPC: 1.03256 (Simulation time: 0 hr 52 min 0 sec) 
Heartbeat CPU 3 instructions: 380000000 cycles: 238728028 heartbeat IPC: 0.909189 cumulative IPC: 0.80904 (Simulation time: 0 hr 53 min 17 sec) 
Heartbeat CPU 2 instructions: 380000000 cycles: 239199992 heartbeat IPC: 1.04491 cumulative IPC: 1.03365 (Simulation time: 0 hr 53 min 21 sec) 
Heartbeat CPU 2 instructions: 390000001 cycles: 248798722 heartbeat IPC: 1.0418 cumulative IPC: 1.03431 (Simulation time: 0 hr 54 min 38 sec) 
Heartbeat CPU 3 instructions: 390000002 cycles: 249806909 heartbeat IPC: 0.902618 cumulative IPC: 0.817743 (Simulation time: 0 hr 54 min 46 sec) 
Heartbeat CPU 0 instructions: 240000000 cycles: 255811435 heartbeat IPC: 0.329463 cumulative IPC: 0.319658 (Simulation time: 0 hr 55 min 36 sec) 
Heartbeat CPU 2 instructions: 400000000 cycles: 258503858 heartbeat IPC: 1.03038 cumulative IPC: 1.03401 (Simulation time: 0 hr 55 min 59 sec) 
Heartbeat CPU 1 instructions: 240000000 cycles: 258609472 heartbeat IPC: 0.278353 cumulative IPC: 0.29025 (Simulation time: 0 hr 56 min 0 sec) 
Heartbeat CPU 3 instructions: 400000000 cycles: 260633222 heartbeat IPC: 0.923675 cumulative IPC: 0.826568 (Simulation time: 0 hr 56 min 17 sec) 
Heartbeat CPU 2 instructions: 410000000 cycles: 268091382 heartbeat IPC: 1.04302 cumulative IPC: 1.03464 (Simulation time: 0 hr 57 min 17 sec) 
Heartbeat CPU 3 instructions: 410000002 cycles: 273594977 heartbeat IPC: 0.771501 cumulative IPC: 0.821573 (Simulation time: 0 hr 58 min 1 sec) 
Heartbeat CPU 2 instructions: 420000000 cycles: 277779939 heartbeat IPC: 1.03215 cumulative IPC: 1.03448 (Simulation time: 0 hr 58 min 35 sec) 
Heartbeat CPU 3 instructions: 420000000 cycles: 285614118 heartbeat IPC: 0.832006 cumulative IPC: 0.822383 (Simulation time: 0 hr 59 min 38 sec) 
Heartbeat CPU 0 instructions: 250000002 cycles: 286641898 heartbeat IPC: 0.324355 cumulative IPC: 0.320587 (Simulation time: 0 hr 59 min 46 sec) 
Heartbeat CPU 2 instructions: 430000000 cycles: 287451912 heartbeat IPC: 1.03392 cumulative IPC: 1.03444 (Simulation time: 0 hr 59 min 53 sec) 
Heartbeat CPU 1 instructions: 250000000 cycles: 292872904 heartbeat IPC: 0.291856 cumulative IPC: 0.29059 (Simulation time: 1 hr 0 min 40 sec) 
Heartbeat CPU 3 instructions: 430000000 cycles: 295755012 heartbeat IPC: 0.986106 cumulative IPC: 0.83244 (Simulation time: 1 hr 1 min 3 sec) 
Heartbeat CPU 2 instructions: 440000000 cycles: 297202444 heartbeat IPC: 1.02559 cumulative IPC: 1.03392 (Simulation time: 1 hr 1 min 15 sec) 
Heartbeat CPU 2 instructions: 450000001 cycles: 306845468 heartbeat IPC: 1.03702 cumulative IPC: 1.03409 (Simulation time: 1 hr 2 min 33 sec) 
Heartbeat CPU 3 instructions: 440000000 cycles: 307966825 heartbeat IPC: 0.818879 cumulative IPC: 0.831506 (Simulation time: 1 hr 2 min 42 sec) 
Heartbeat CPU 2 instructions: 460000000 cycles: 316529815 heartbeat IPC: 1.03259 cumulative IPC: 1.03402 (Simulation time: 1 hr 3 min 55 sec) 
Heartbeat CPU 0 instructions: 260000000 cycles: 317430136 heartbeat IPC: 0.324799 cumulative IPC: 0.321281 (Simulation time: 1 hr 4 min 3 sec) 
Heartbeat CPU 3 instructions: 450000001 cycles: 317553504 heartbeat IPC: 1.04311 cumulative IPC: 0.842362 (Simulation time: 1 hr 4 min 4 sec) 
Heartbeat CPU 1 instructions: 260000000 cycles: 325926621 heartbeat IPC: 0.302538 cumulative IPC: 0.292612 (Simulation time: 1 hr 5 min 15 sec) 
Heartbeat CPU 2 instructions: 470000001 cycles: 326145570 heartbeat IPC: 1.03996 cumulative IPC: 1.03431 (Simulation time: 1 hr 5 min 17 sec) 
Heartbeat CPU 3 instructions: 460000000 cycles: 326985808 heartbeat IPC: 1.06019 cumulative IPC: 0.852828 (Simulation time: 1 hr 5 min 24 sec) 
Heartbeat CPU 2 instructions: 480000000 cycles: 335726605 heartbeat IPC: 1.04373 cumulative IPC: 1.03475 (Simulation time: 1 hr 6 min 38 sec) 
Heartbeat CPU 3 instructions: 470000002 cycles: 336261351 heartbeat IPC: 1.0781 cumulative IPC: 0.862992 (Simulation time: 1 hr 6 min 42 sec) 
Heartbeat CPU 2 instructions: 490000000 cycles: 345366311 heartbeat IPC: 1.03738 cumulative IPC: 1.03487 (Simulation time: 1 hr 7 min 59 sec) 
Heartbeat CPU 3 instructions: 480000000 cycles: 346113057 heartbeat IPC: 1.01505 cumulative IPC: 0.869946 (Simulation time: 1 hr 8 min 5 sec) 
Heartbeat CPU 0 instructions: 270000003 cycles: 348131628 heartbeat IPC: 0.325717 cumulative IPC: 0.321907 (Simulation time: 1 hr 8 min 22 sec) 
Heartbeat CPU 2 instructions: 500000000 cycles: 354913028 heartbeat IPC: 1.04748 cumulative IPC: 1.0354 (Simulation time: 1 hr 9 min 19 sec) 
Heartbeat CPU 3 instructions: 490000000 cycles: 356116719 heartbeat IPC: 0.999634 cumulative IPC: 0.8757 (Simulation time: 1 hr 9 min 30 sec) 
Heartbeat CPU 1 instructions: 270000000 cycles: 359079133 heartbeat IPC: 0.301636 cumulative IPC: 0.293922 (Simulation time: 1 hr 9 min 54 sec) 
Heartbeat CPU 2 instructions: 510000003 cycles: 364580972 heartbeat IPC: 1.03435 cumulative IPC: 1.03536 (Simulation time: 1 hr 10 min 41 sec) 
Heartbeat CPU 3 instructions: 500000000 cycles: 365443176 heartbeat IPC: 1.07222 cumulative IPC: 0.883507 (Simulation time: 1 hr 10 min 48 sec) 
Heartbeat CPU 2 instructions: 520000000 cycles: 374140411 heartbeat IPC: 1.04609 cumulative IPC: 1.03578 (Simulation time: 1 hr 12 min 2 sec) 
Heartbeat CPU 3 instructions: 510000001 cycles: 375052325 heartbeat IPC: 1.04068 cumulative IPC: 0.889687 (Simulation time: 1 hr 12 min 10 sec) 
Heartbeat CPU 0 instructions: 280000000 cycles: 378857254 heartbeat IPC: 0.325461 cumulative IPC: 0.322347 (Simulation time: 1 hr 12 min 42 sec) 
Heartbeat CPU 2 instructions: 530000003 cycles: 383696011 heartbeat IPC: 1.04651 cumulative IPC: 1.03619 (Simulation time: 1 hr 13 min 22 sec) 
Heartbeat CPU 3 instructions: 520000000 cycles: 385558070 heartbeat IPC: 0.95186 cumulative IPC: 0.89225 (Simulation time: 1 hr 13 min 37 sec) 
Heartbeat CPU 1 instructions: 280000000 cycles: 391866279 heartbeat IPC: 0.304998 cumulative IPC: 0.295312 (Simulation time: 1 hr 14 min 31 sec) 
Heartbeat CPU 2 instructions: 540000000 cycles: 393234926 heartbeat IPC: 1.04834 cumulative IPC: 1.03663 (Simulation time: 1 hr 14 min 42 sec) 
Heartbeat CPU 3 instructions: 530000002 cycles: 395527044 heartbeat IPC: 1.00311 cumulative IPC: 0.896423 (Simulation time: 1 hr 15 min 1 sec) 
Heartbeat CPU 2 instructions: 550000000 cycles: 402937969 heartbeat IPC: 1.0306 cumulative IPC: 1.03641 (Simulation time: 1 hr 16 min 2 sec) 
Heartbeat CPU 3 instructions: 540000000 cycles: 407836533 heartbeat IPC: 0.812381 cumulative IPC: 0.89269 (Simulation time: 1 hr 16 min 40 sec) 
Heartbeat CPU 0 instructions: 290000000 cycles: 409262465 heartbeat IPC: 0.328891 cumulative IPC: 0.323062 (Simulation time: 1 hr 16 min 52 sec) 
Heartbeat CPU 2 instructions: 560000000 cycles: 412590337 heartbeat IPC: 1.03602 cumulative IPC: 1.0364 (Simulation time: 1 hr 17 min 18 sec) 
Heartbeat CPU 3 instructions: 550000000 cycles: 420364738 heartbeat IPC: 0.798199 cumulative IPC: 0.888604 (Simulation time: 1 hr 18 min 21 sec) 
Heartbeat CPU 2 instructions: 570000003 cycles: 422207029 heartbeat IPC: 1.03986 cumulative IPC: 1.03651 (Simulation time: 1 hr 18 min 36 sec) 
Heartbeat CPU 1 instructions: 290000000 cycles: 425094035 heartbeat IPC: 0.300953 cumulative IPC: 0.295949 (Simulation time: 1 hr 19 min 0 sec) 
Heartbeat CPU 3 instructions: 560000000 cycles: 431648496 heartbeat IPC: 0.88623 cumulative IPC: 0.888515 (Simulation time: 1 hr 19 min 55 sec) 
Heartbeat CPU 2 instructions: 580000000 cycles: 431787297 heartbeat IPC: 1.04381 cumulative IPC: 1.03675 (Simulation time: 1 hr 19 min 56 sec) 
Heartbeat CPU 0 instructions: 300000000 cycles: 439835542 heartbeat IPC: 0.327085 cumulative IPC: 0.323459 (Simulation time: 1 hr 21 min 2 sec) 
Heartbeat CPU 2 instructions: 590000003 cycles: 441357549 heartbeat IPC: 1.0449 cumulative IPC: 1.037 (Simulation time: 1 hr 21 min 15 sec) 
Heartbeat CPU 3 instructions: 570000000 cycles: 443152724 heartbeat IPC: 0.869246 cumulative IPC: 0.887805 (Simulation time: 1 hr 21 min 30 sec) 
Heartbeat CPU 2 instructions: 600000000 cycles: 451046069 heartbeat IPC: 1.03215 cumulative IPC: 1.03685 (Simulation time: 1 hr 22 min 35 sec) 
Heartbeat CPU 3 instructions: 580000000 cycles: 454453212 heartbeat IPC: 0.884918 cumulative IPC: 0.887705 (Simulation time: 1 hr 23 min 3 sec) 
Heartbeat CPU 1 instructions: 300000000 cycles: 457786454 heartbeat IPC: 0.305881 cumulative IPC: 0.296942 (Simulation time: 1 hr 23 min 31 sec) 
Heartbeat CPU 2 instructions: 610000002 cycles: 460701833 heartbeat IPC: 1.03565 cumulative IPC: 1.03681 (Simulation time: 1 hr 23 min 55 sec) 
Heartbeat CPU 3 instructions: 590000000 cycles: 465713813 heartbeat IPC: 0.888052 cumulative IPC: 0.887716 (Simulation time: 1 hr 24 min 36 sec) 
Heartbeat CPU 0 instructions: 310000001 cycles: 469449095 heartbeat IPC: 0.337683 cumulative IPC: 0.324703 (Simulation time: 1 hr 25 min 6 sec) 
Heartbeat CPU 2 instructions: 620000000 cycles: 470328246 heartbeat IPC: 1.03881 cumulative IPC: 1.03687 (Simulation time: 1 hr 25 min 13 sec) 
Heartbeat CPU 3 instructions: 600000000 cycles: 476977262 heartbeat IPC: 0.887828 cumulative IPC: 0.88772 (Simulation time: 1 hr 26 min 5 sec) 
Heartbeat CPU 2 instructions: 630000000 cycles: 484040971 heartbeat IPC: 0.72925 cumulative IPC: 1.02493 (Simulation time: 1 hr 26 min 54 sec) 
Heartbeat CPU 3 instructions: 610000001 cycles: 489881280 heartbeat IPC: 0.774952 cumulative IPC: 0.883669 (Simulation time: 1 hr 27 min 36 sec) 
Heartbeat CPU 1 instructions: 310000003 cycles: 490547811 heartbeat IPC: 0.305238 cumulative IPC: 0.297697 (Simulation time: 1 hr 27 min 41 sec) 
Heartbeat CPU 2 instructions: 640000000 cycles: 499607366 heartbeat IPC: 0.64241 cumulative IPC: 1.00879 (Simulation time: 1 hr 28 min 47 sec) 
Heartbeat CPU 0 instructions: 320000000 cycles: 499693842 heartbeat IPC: 0.330636 cumulative IPC: 0.325189 (Simulation time: 1 hr 28 min 48 sec) 
Heartbeat CPU 3 instructions: 620000000 cycles: 501407019 heartbeat IPC: 0.867623 cumulative IPC: 0.88317 (Simulation time: 1 hr 29 min 1 sec) 
Heartbeat CPU 3 instructions: 630000001 cycles: 512587805 heartbeat IPC: 0.894392 cumulative IPC: 0.883499 (Simulation time: 1 hr 30 min 22 sec) 
Heartbeat CPU 2 instructions: 650000002 cycles: 515274009 heartbeat IPC: 0.638299 cumulative IPC: 0.993702 (Simulation time: 1 hr 30 min 42 sec) 
Heartbeat CPU 1 instructions: 320000000 cycles: 521475040 heartbeat IPC: 0.32334 cumulative IPC: 0.299726 (Simulation time: 1 hr 31 min 28 sec) 
Heartbeat CPU 3 instructions: 640000000 cycles: 524188805 heartbeat IPC: 0.861995 cumulative IPC: 0.882865 (Simulation time: 1 hr 31 min 48 sec) 
Heartbeat CPU 0 instructions: 330000002 cycles: 528480361 heartbeat IPC: 0.347385 cumulative IPC: 0.326795 (Simulation time: 1 hr 32 min 20 sec) 
Heartbeat CPU 2 instructions: 660000000 cycles: 530874573 heartbeat IPC: 0.641002 cumulative IPC: 0.979953 (Simulation time: 1 hr 32 min 38 sec) 
Heartbeat CPU 3 instructions: 650000001 cycles: 535223621 heartbeat IPC: 0.906223 cumulative IPC: 0.883502 (Simulation time: 1 hr 33 min 9 sec) 
Heartbeat CPU 3 instructions: 660000000 cycles: 546172147 heartbeat IPC: 0.913365 cumulative IPC: 0.884289 (Simulation time: 1 hr 34 min 31 sec) 
Heartbeat CPU 2 instructions: 670000001 cycles: 546546607 heartbeat IPC: 0.638079 cumulative IPC: 0.967069 (Simulation time: 1 hr 34 min 34 sec) 
Heartbeat CPU 1 instructions: 330000002 cycles: 552071636 heartbeat IPC: 0.326834 cumulative IPC: 0.301694 (Simulation time: 1 hr 35 min 15 sec) 
Heartbeat CPU 0 instructions: 340000000 cycles: 557215696 heartbeat IPC: 0.348004 cumulative IPC: 0.328224 (Simulation time: 1 hr 35 min 52 sec) 
Heartbeat CPU 3 instructions: 670000001 cycles: 557300819 heartbeat IPC: 0.89858 cumulative IPC: 0.884661 (Simulation time: 1 hr 35 min 53 sec) 
Heartbeat CPU 2 instructions: 680000000 cycles: 562243555 heartbeat IPC: 0.637066 cumulative IPC: 0.955066 (Simulation time: 1 hr 36 min 30 sec) 
Heartbeat CPU 3 instructions: 680000000 cycles: 569219075 heartbeat IPC: 0.839049 cumulative IPC: 0.883422 (Simulation time: 1 hr 37 min 20 sec) 
Heartbeat CPU 2 instructions: 690000001 cycles: 577724461 heartbeat IPC: 0.645957 cumulative IPC: 0.944362 (Simulation time: 1 hr 38 min 23 sec) 
Heartbeat CPU 3 instructions: 690000003 cycles: 580482188 heartbeat IPC: 0.887854 cumulative IPC: 0.883533 (Simulation time: 1 hr 38 min 43 sec) 
Heartbeat CPU 1 instructions: 340000000 cycles: 582956474 heartbeat IPC: 0.323783 cumulative IPC: 0.303203 (Simulation time: 1 hr 39 min 1 sec) 
Heartbeat CPU 0 instructions: 350000001 cycles: 586062286 heartbeat IPC: 0.346661 cumulative IPC: 0.329392 (Simulation time: 1 hr 39 min 24 sec) 
Heartbeat CPU 3 instructions: 700000000 cycles: 592495853 heartbeat IPC: 0.832385 cumulative IPC: 0.882202 (Simulation time: 1 hr 40 min 11 sec) 
Heartbeat CPU 2 instructions: 700000000 cycles: 593397476 heartbeat IPC: 0.638039 cumulative IPC: 0.933986 (Simulation time: 1 hr 40 min 18 sec) 
Heartbeat CPU 3 instructions: 710000000 cycles: 603637719 heartbeat IPC: 0.897516 cumulative IPC: 0.882563 (Simulation time: 1 hr 41 min 34 sec) 
Heartbeat CPU 2 instructions: 710000001 cycles: 608985936 heartbeat IPC: 0.6415 cumulative IPC: 0.924454 (Simulation time: 1 hr 42 min 13 sec) 
Heartbeat CPU 1 instructions: 350000001 cycles: 613588284 heartbeat IPC: 0.326458 cumulative IPC: 0.304678 (Simulation time: 1 hr 42 min 47 sec) 
Heartbeat CPU 0 instructions: 360000000 cycles: 614560831 heartbeat IPC: 0.350895 cumulative IPC: 0.330658 (Simulation time: 1 hr 42 min 54 sec) 
Heartbeat CPU 3 instructions: 720000000 cycles: 615366014 heartbeat IPC: 0.852639 cumulative IPC: 0.881839 (Simulation time: 1 hr 43 min 0 sec) 
Heartbeat CPU 2 instructions: 720000000 cycles: 624638081 heartbeat IPC: 0.63889 cumulative IPC: 0.915405 (Simulation time: 1 hr 44 min 9 sec) 
Heartbeat CPU 3 instructions: 730000001 cycles: 626872157 heartbeat IPC: 0.869101 cumulative IPC: 0.881544 (Simulation time: 1 hr 44 min 25 sec) 
Heartbeat CPU 2 instructions: 730000000 cycles: 640115051 heartbeat IPC: 0.646121 cumulative IPC: 0.907224 (Simulation time: 1 hr 45 min 59 sec) 
Heartbeat CPU 3 instructions: 740000000 cycles: 640938928 heartbeat IPC: 0.710895 cumulative IPC: 0.876839 (Simulation time: 1 hr 46 min 5 sec) 
Heartbeat CPU 0 instructions: 370000001 cycles: 643246713 heartbeat IPC: 0.348604 cumulative IPC: 0.331663 (Simulation time: 1 hr 46 min 22 sec) 
Heartbeat CPU 1 instructions: 360000000 cycles: 644289459 heartbeat IPC: 0.32572 cumulative IPC: 0.305936 (Simulation time: 1 hr 46 min 29 sec) 
Heartbeat CPU 2 instructions: 740000000 cycles: 655774565 heartbeat IPC: 0.638589 cumulative IPC: 0.899213 (Simulation time: 1 hr 47 min 47 sec) 
Heartbeat CPU 3 instructions: 750000001 cycles: 657092384 heartbeat IPC: 0.619063 cumulative IPC: 0.868929 (Simulation time: 1 hr 47 min 56 sec) 
Heartbeat CPU 2 instructions: 750000000 cycles: 671448098 heartbeat IPC: 0.638018 cumulative IPC: 0.891643 (Simulation time: 1 hr 49 min 33 sec) 
Heartbeat CPU 0 instructions: 380000000 cycles: 672396914 heartbeat IPC: 0.343051 cumulative IPC: 0.332276 (Simulation time: 1 hr 49 min 40 sec) 
Heartbeat CPU 3 instructions: 760000000 cycles: 674560020 heartbeat IPC: 0.572487 cumulative IPC: 0.859408 (Simulation time: 1 hr 49 min 54 sec) 
Heartbeat CPU 1 instructions: 370000001 cycles: 675807814 heartbeat IPC: 0.317275 cumulative IPC: 0.306591 (Simulation time: 1 hr 50 min 3 sec) 
Heartbeat CPU 2 instructions: 760000000 cycles: 687059969 heartbeat IPC: 0.640538 cumulative IPC: 0.884597 (Simulation time: 1 hr 51 min 19 sec) 
Heartbeat CPU 3 instructions: 770000001 cycles: 691648777 heartbeat IPC: 0.58518 cumulative IPC: 0.851055 (Simulation time: 1 hr 51 min 50 sec) 
Heartbeat CPU 0 instructions: 390000003 cycles: 701498579 heartbeat IPC: 0.343623 cumulative IPC: 0.332854 (Simulation time: 1 hr 52 min 57 sec) 
Heartbeat CPU 2 instructions: 770000000 cycles: 702766104 heartbeat IPC: 0.636694 cumulative IPC: 0.877791 (Simulation time: 1 hr 53 min 6 sec) 
Heartbeat CPU 1 instructions: 380000000 cycles: 707706569 heartbeat IPC: 0.313492 cumulative IPC: 0.306973 (Simulation time: 1 hr 53 min 39 sec) 
Heartbeat CPU 3 instructions: 780000000 cycles: 708312050 heartbeat IPC: 0.600122 cumulative IPC: 0.843816 (Simulation time: 1 hr 53 min 43 sec) 
Heartbeat CPU 2 instructions: 780000000 cycles: 718372297 heartbeat IPC: 0.640771 cumulative IPC: 0.871497 (Simulation time: 1 hr 54 min 51 sec) 
Heartbeat CPU 3 instructions: 790000000 cycles: 726062892 heartbeat IPC: 0.563354 cumulative IPC: 0.835454 (Simulation time: 1 hr 55 min 43 sec) 
Heartbeat CPU 0 instructions: 400000000 cycles: 730638902 heartbeat IPC: 0.343167 cumulative IPC: 0.333355 (Simulation time: 1 hr 56 min 14 sec) 
Heartbeat CPU 2 instructions: 790000002 cycles: 734065629 heartbeat IPC: 0.637213 cumulative IPC: 0.865403 (Simulation time: 1 hr 56 min 37 sec) 
Heartbeat CPU 1 instructions: 390000001 cycles: 739950150 heartbeat IPC: 0.310139 cumulative IPC: 0.30714 (Simulation time: 1 hr 57 min 17 sec) 
Heartbeat CPU 3 instructions: 800000000 cycles: 742756703 heartbeat IPC: 0.599024 cumulative IPC: 0.829006 (Simulation time: 1 hr 57 min 37 sec) 
Heartbeat CPU 2 instructions: 800000000 cycles: 749638628 heartbeat IPC: 0.642137 cumulative IPC: 0.859786 (Simulation time: 1 hr 58 min 23 sec) 
Heartbeat CPU 3 instructions: 810000000 cycles: 760007674 heartbeat IPC: 0.579678 cumulative IPC: 0.822171 (Simulation time: 1 hr 59 min 32 sec) 
Heartbeat CPU 0 instructions: 410000003 cycles: 760049668 heartbeat IPC: 0.340012 cumulative IPC: 0.333666 (Simulation time: 1 hr 59 min 32 sec) 
Heartbeat CPU 2 instructions: 810000003 cycles: 765347204 heartbeat IPC: 0.636595 cumulative IPC: 0.854262 (Simulation time: 2 hr 0 min 8 sec) 
Heartbeat CPU 1 instructions: 400000000 cycles: 772712174 heartbeat IPC: 0.305231 cumulative IPC: 0.307043 (Simulation time: 2 hr 0 min 57 sec) 
Heartbeat CPU 3 instructions: 820000000 cycles: 777747359 heartbeat IPC: 0.563708 cumulative IPC: 0.815085 (Simulation time: 2 hr 1 min 31 sec) 
Heartbeat CPU 2 instructions: 820000000 cycles: 781040133 heartbeat IPC: 0.63723 cumulative IPC: 0.849025 (Simulation time: 2 hr 1 min 54 sec) 
Heartbeat CPU 0 instructions: 420000000 cycles: 789518011 heartbeat IPC: 0.339347 cumulative IPC: 0.33392 (Simulation time: 2 hr 2 min 49 sec) 
Heartbeat CPU 3 instructions: 830000000 cycles: 794780981 heartbeat IPC: 0.587074 cumulative IPC: 0.809237 (Simulation time: 2 hr 3 min 23 sec) 
Heartbeat CPU 2 instructions: 830000000 cycles: 796634465 heartbeat IPC: 0.641259 cumulative IPC: 0.84416 (Simulation time: 2 hr 3 min 36 sec) 
Heartbeat CPU 1 instructions: 410000003 cycles: 808221795 heartbeat IPC: 0.281614 cumulative IPC: 0.30571 (Simulation time: 2 hr 4 min 56 sec) 
Heartbeat CPU 3 instructions: 840000000 cycles: 811039826 heartbeat IPC: 0.61505 cumulative IPC: 0.804597 (Simulation time: 2 hr 5 min 15 sec) 
Heartbeat CPU 2 instructions: 840000000 cycles: 812303301 heartbeat IPC: 0.63821 cumulative IPC: 0.839426 (Simulation time: 2 hr 5 min 23 sec) 
Heartbeat CPU 0 instructions: 430000000 cycles: 818932333 heartbeat IPC: 0.33997 cumulative IPC: 0.334179 (Simulation time: 2 hr 6 min 8 sec) 
Heartbeat CPU 2 instructions: 850000001 cycles: 827904451 heartbeat IPC: 0.640978 cumulative IPC: 0.834985 (Simulation time: 2 hr 7 min 9 sec) 
Heartbeat CPU 3 instructions: 850000000 cycles: 828176546 heartbeat IPC: 0.583542 cumulative IPC: 0.799165 (Simulation time: 2 hr 7 min 11 sec) 
Heartbeat CPU 1 instructions: 420000000 cycles: 839976354 heartbeat IPC: 0.314915 cumulative IPC: 0.306122 (Simulation time: 2 hr 8 min 32 sec) 
Heartbeat CPU 2 instructions: 860000000 cycles: 843597679 heartbeat IPC: 0.637217 cumulative IPC: 0.830632 (Simulation time: 2 hr 8 min 57 sec) 
Heartbeat CPU 3 instructions: 860000000 cycles: 844085811 heartbeat IPC: 0.628565 cumulative IPC: 0.795361 (Simulation time: 2 hr 9 min 0 sec) 
Heartbeat CPU 0 instructions: 440000000 cycles: 848193504 heartbeat IPC: 0.34175 cumulative IPC: 0.334487 (Simulation time: 2 hr 9 min 28 sec) 
Heartbeat CPU 2 instructions: 870000001 cycles: 859219403 heartbeat IPC: 0.640134 cumulative IPC: 0.826547 (Simulation time: 2 hr 10 min 42 sec) 
Heartbeat CPU 3 instructions: 870000001 cycles: 860655157 heartbeat IPC: 0.603524 cumulative IPC: 0.791007 (Simulation time: 2 hr 10 min 53 sec) 
Heartbeat CPU 1 instructions: 430000001 cycles: 872229477 heartbeat IPC: 0.310048 cumulative IPC: 0.306293 (Simulation time: 2 hr 12 min 13 sec) 
Heartbeat CPU 3 instructions: 880000000 cycles: 874766498 heartbeat IPC: 0.70865 cumulative IPC: 0.789445 (Simulation time: 2 hr 12 min 32 sec) 
Heartbeat CPU 2 instructions: 880000000 cycles: 874896502 heartbeat IPC: 0.637873 cumulative IPC: 0.822572 (Simulation time: 2 hr 12 min 33 sec) 
Heartbeat CPU 0 instructions: 450000003 cycles: 877755895 heartbeat IPC: 0.338268 cumulative IPC: 0.334637 (Simulation time: 2 hr 12 min 55 sec) 
Heartbeat CPU 3 instructions: 890000000 cycles: 889372571 heartbeat IPC: 0.684647 cumulative IPC: 0.787427 (Simulation time: 2 hr 14 min 14 sec) 
Heartbeat CPU 2 instructions: 890000003 cycles: 890550184 heartbeat IPC: 0.638828 cumulative IPC: 0.818787 (Simulation time: 2 hr 14 min 22 sec) 
Heartbeat CPU 1 instructions: 440000000 cycles: 904088582 heartbeat IPC: 0.313882 cumulative IPC: 0.306606 (Simulation time: 2 hr 15 min 54 sec) 
Heartbeat CPU 3 instructions: 900000000 cycles: 906036905 heartbeat IPC: 0.600084 cumulative IPC: 0.783401 (Simulation time: 2 hr 16 min 7 sec) 
Heartbeat CPU 2 instructions: 900000000 cycles: 906169432 heartbeat IPC: 0.640235 cumulative IPC: 0.815191 (Simulation time: 2 hr 16 min 8 sec) 
Heartbeat CPU 0 instructions: 460000000 cycles: 907578545 heartbeat IPC: 0.335315 cumulative IPC: 0.334663 (Simulation time: 2 hr 16 min 18 sec) 
Heartbeat CPU 2 instructions: 910000001 cycles: 921819045 heartbeat IPC: 0.638994 cumulative IPC: 0.811706 (Simulation time: 2 hr 17 min 53 sec) 
Heartbeat CPU 3 instructions: 910000000 cycles: 923559157 heartbeat IPC: 0.570703 cumulative IPC: 0.7787 (Simulation time: 2 hr 18 min 5 sec) 
Heartbeat CPU 1 instructions: 450000001 cycles: 936090739 heartbeat IPC: 0.312479 cumulative IPC: 0.306839 (Simulation time: 2 hr 19 min 29 sec) 
Heartbeat CPU 2 instructions: 920000000 cycles: 937374066 heartbeat IPC: 0.642879 cumulative IPC: 0.80845 (Simulation time: 2 hr 19 min 38 sec) 
Heartbeat CPU 0 instructions: 470000003 cycles: 937752621 heartbeat IPC: 0.33141 cumulative IPC: 0.334541 (Simulation time: 2 hr 19 min 41 sec) 
Heartbeat CPU 3 instructions: 920000000 cycles: 941018601 heartbeat IPC: 0.572756 cumulative IPC: 0.774263 (Simulation time: 2 hr 20 min 3 sec) 
Heartbeat CPU 2 instructions: 930000000 cycles: 953027434 heartbeat IPC: 0.63884 cumulative IPC: 0.805222 (Simulation time: 2 hr 21 min 24 sec) 
Heartbeat CPU 3 instructions: 930000002 cycles: 957035657 heartbeat IPC: 0.624335 cumulative IPC: 0.771357 (Simulation time: 2 hr 21 min 52 sec) 
Heartbeat CPU 0 instructions: 480000000 cycles: 967524950 heartbeat IPC: 0.335882 cumulative IPC: 0.334589 (Simulation time: 2 hr 23 min 1 sec) 
Heartbeat CPU 1 instructions: 460000000 cycles: 967966835 heartbeat IPC: 0.313715 cumulative IPC: 0.307101 (Simulation time: 2 hr 23 min 4 sec) 
Heartbeat CPU 2 instructions: 940000000 cycles: 968617448 heartbeat IPC: 0.641436 cumulative IPC: 0.802175 (Simulation time: 2 hr 23 min 8 sec) 
Heartbeat CPU 3 instructions: 940000000 cycles: 971318732 heartbeat IPC: 0.700129 cumulative IPC: 0.770147 (Simulation time: 2 hr 23 min 26 sec) 
Heartbeat CPU 2 instructions: 950000002 cycles: 984334367 heartbeat IPC: 0.636257 cumulative IPC: 0.79912 (Simulation time: 2 hr 24 min 56 sec) 
Heartbeat CPU 3 instructions: 950000003 cycles: 987268508 heartbeat IPC: 0.626968 cumulative IPC: 0.767481 (Simulation time: 2 hr 25 min 15 sec) 
Heartbeat CPU 0 instructions: 490000001 cycles: 997150202 heartbeat IPC: 0.33755 cumulative IPC: 0.33469 (Simulation time: 2 hr 26 min 22 sec) 
Heartbeat CPU 1 instructions: 470000000 cycles: 999856753 heartbeat IPC: 0.313579 cumulative IPC: 0.307339 (Simulation time: 2 hr 26 min 40 sec) 
Heartbeat CPU 2 instructions: 960000000 cycles: 999928448 heartbeat IPC: 0.641269 cumulative IPC: 0.796288 (Simulation time: 2 hr 26 min 40 sec) 
Heartbeat CPU 3 instructions: 960000000 cycles: 1005072522 heartbeat IPC: 0.561671 cumulative IPC: 0.76329 (Simulation time: 2 hr 27 min 14 sec) 
Heartbeat CPU 2 instructions: 970000000 cycles: 1015595828 heartbeat IPC: 0.638269 cumulative IPC: 0.79349 (Simulation time: 2 hr 28 min 23 sec) 
Heartbeat CPU 3 instructions: 970000003 cycles: 1022133155 heartbeat IPC: 0.586145 cumulative IPC: 0.7599 (Simulation time: 2 hr 29 min 5 sec) 
Heartbeat CPU 0 instructions: 500000000 cycles: 1027392158 heartbeat IPC: 0.330666 cumulative IPC: 0.334555 (Simulation time: 2 hr 29 min 38 sec) 
Heartbeat CPU 2 instructions: 980000000 cycles: 1031306310 heartbeat IPC: 0.636518 cumulative IPC: 0.790752 (Simulation time: 2 hr 30 min 2 sec) 
Heartbeat CPU 1 instructions: 480000000 cycles: 1031727156 heartbeat IPC: 0.313771 cumulative IPC: 0.307566 (Simulation time: 2 hr 30 min 5 sec) 
Heartbeat CPU 3 instructions: 980000000 cycles: 1038919555 heartbeat IPC: 0.59572 cumulative IPC: 0.756866 (Simulation time: 2 hr 30 min 51 sec) 
Heartbeat CPU 2 instructions: 990000000 cycles: 1046905925 heartbeat IPC: 0.641041 cumulative IPC: 0.788203 (Simulation time: 2 hr 31 min 42 sec) 
Heartbeat CPU 3 instructions: 990000002 cycles: 1055480533 heartbeat IPC: 0.603829 cumulative IPC: 0.754125 (Simulation time: 2 hr 32 min 36 sec) 
Heartbeat CPU 0 instructions: 510000003 cycles: 1056985551 heartbeat IPC: 0.337913 cumulative IPC: 0.334662 (Simulation time: 2 hr 32 min 46 sec) 
Heartbeat CPU 2 instructions: 1000000000 cycles: 1062623905 heartbeat IPC: 0.636214 cumulative IPC: 0.78564 (Simulation time: 2 hr 33 min 21 sec) 
Heartbeat CPU 1 instructions: 490000001 cycles: 1064280784 heartbeat IPC: 0.307185 cumulative IPC: 0.307553 (Simulation time: 2 hr 33 min 32 sec) 
Heartbeat CPU 3 instructions: 1000000000 cycles: 1072661204 heartbeat IPC: 0.582049 cumulative IPC: 0.750987 (Simulation time: 2 hr 34 min 25 sec) 
Heartbeat CPU 2 instructions: 1010000001 cycles: 1078206128 heartbeat IPC: 0.641757 cumulative IPC: 0.783274 (Simulation time: 2 hr 35 min 0 sec) 
Heartbeat CPU 0 instructions: 520000000 cycles: 1086655174 heartbeat IPC: 0.337045 cumulative IPC: 0.334736 (Simulation time: 2 hr 35 min 54 sec) 
Heartbeat CPU 3 instructions: 1010000000 cycles: 1089875943 heartbeat IPC: 0.580898 cumulative IPC: 0.747934 (Simulation time: 2 hr 36 min 14 sec) 
Heartbeat CPU 2 instructions: 1020000000 cycles: 1093567858 heartbeat IPC: 0.650968 cumulative IPC: 0.781163 (Simulation time: 2 hr 36 min 38 sec) 
Heartbeat CPU 1 instructions: 500000000 cycles: 1096268911 heartbeat IPC: 0.312616 cumulative IPC: 0.307721 (Simulation time: 2 hr 36 min 55 sec) 
Heartbeat CPU 3 instructions: 1020000000 cycles: 1106940169 heartbeat IPC: 0.586021 cumulative IPC: 0.745104 (Simulation time: 2 hr 38 min 3 sec) 
Heartbeat CPU 2 instructions: 1030000001 cycles: 1108764553 heartbeat IPC: 0.658038 cumulative IPC: 0.77925 (Simulation time: 2 hr 38 min 14 sec) 
Heartbeat CPU 0 instructions: 530000002 cycles: 1116758244 heartbeat IPC: 0.332192 cumulative IPC: 0.334658 (Simulation time: 2 hr 39 min 5 sec) 
Heartbeat CPU 2 instructions: 1040000000 cycles: 1124048589 heartbeat IPC: 0.654277 cumulative IPC: 0.777327 (Simulation time: 2 hr 39 min 51 sec) 
Heartbeat CPU 3 instructions: 1030000000 cycles: 1124112852 heartbeat IPC: 0.58232 cumulative IPC: 0.74229 (Simulation time: 2 hr 39 min 51 sec) 
Heartbeat CPU 1 instructions: 510000000 cycles: 1128841617 heartbeat IPC: 0.307005 cumulative IPC: 0.307697 (Simulation time: 2 hr 40 min 21 sec) 
Heartbeat CPU 2 instructions: 1050000000 cycles: 1139348134 heartbeat IPC: 0.653614 cumulative IPC: 0.77545 (Simulation time: 2 hr 41 min 27 sec) 
Heartbeat CPU 3 instructions: 1040000000 cycles: 1141477188 heartbeat IPC: 0.575893 cumulative IPC: 0.739432 (Simulation time: 2 hr 41 min 40 sec) 
Heartbeat CPU 0 instructions: 540000000 cycles: 1146403345 heartbeat IPC: 0.337324 cumulative IPC: 0.334736 (Simulation time: 2 hr 42 min 12 sec) 
Heartbeat CPU 2 instructions: 1060000000 cycles: 1154573191 heartbeat IPC: 0.656812 cumulative IPC: 0.773686 (Simulation time: 2 hr 43 min 3 sec) 
Heartbeat CPU 3 instructions: 1050000002 cycles: 1158552717 heartbeat IPC: 0.585634 cumulative IPC: 0.736877 (Simulation time: 2 hr 43 min 28 sec) 
Heartbeat CPU 1 instructions: 520000000 cycles: 1160505346 heartbeat IPC: 0.315819 cumulative IPC: 0.307947 (Simulation time: 2 hr 43 min 40 sec) 
Heartbeat CPU 2 instructions: 1070000001 cycles: 1169853011 heartbeat IPC: 0.654458 cumulative IPC: 0.771933 (Simulation time: 2 hr 44 min 39 sec) 
Heartbeat CPU 3 instructions: 1060000000 cycles: 1175313751 heartbeat IPC: 0.596622 cumulative IPC: 0.734626 (Simulation time: 2 hr 45 min 14 sec) 
Heartbeat CPU 0 instructions: 550000002 cycles: 1176561194 heartbeat IPC: 0.331589 cumulative IPC: 0.334645 (Simulation time: 2 hr 45 min 22 sec) 
Heartbeat CPU 2 instructions: 1080000000 cycles: 1185060121 heartbeat IPC: 0.657587 cumulative IPC: 0.770284 (Simulation time: 2 hr 46 min 16 sec) 
Heartbeat CPU 3 instructions: 1070000000 cycles: 1192141896 heartbeat IPC: 0.594243 cumulative IPC: 0.732401 (Simulation time: 2 hr 47 min 1 sec) 
Heartbeat CPU 1 instructions: 530000000 cycles: 1192255785 heartbeat IPC: 0.314956 cumulative IPC: 0.308157 (Simulation time: 2 hr 47 min 1 sec) 
Heartbeat CPU 2 instructions: 1090000000 cycles: 1200332127 heartbeat IPC: 0.654793 cumulative IPC: 0.768635 (Simulation time: 2 hr 47 min 52 sec) 
Heartbeat CPU 0 instructions: 560000000 cycles: 1206729263 heartbeat IPC: 0.331476 cumulative IPC: 0.334556 (Simulation time: 2 hr 48 min 33 sec) 
Heartbeat CPU 3 instructions: 1080000000 cycles: 1209293230 heartbeat IPC: 0.583045 cumulative IPC: 0.730026 (Simulation time: 2 hr 48 min 49 sec) 
Heartbeat CPU 2 instructions: 1100000000 cycles: 1215617065 heartbeat IPC: 0.654239 cumulative IPC: 0.767023 (Simulation time: 2 hr 49 min 29 sec) 
Heartbeat CPU 1 instructions: 540000000 cycles: 1223776794 heartbeat IPC: 0.317249 cumulative IPC: 0.308419 (Simulation time: 2 hr 50 min 21 sec) 
Heartbeat CPU 3 instructions: 1090000003 cycles: 1226066426 heartbeat IPC: 0.596189 cumulative IPC: 0.727976 (Simulation time: 2 hr 50 min 35 sec) 
Heartbeat CPU 2 instructions: 1110000000 cycles: 1230879594 heartbeat IPC: 0.655199 cumulative IPC: 0.765472 (Simulation time: 2 hr 51 min 6 sec) 
Heartbeat CPU 0 instructions: 570000001 cycles: 1243250022 heartbeat IPC: 0.273817 cumulative IPC: 0.332563 (Simulation time: 2 hr 52 min 18 sec) 
Heartbeat CPU 3 instructions: 1100000000 cycles: 1243661522 heartbeat IPC: 0.56834 cumulative IPC: 0.725453 (Simulation time: 2 hr 52 min 20 sec) 
Heartbeat CPU 2 instructions: 1120000000 cycles: 1246236646 heartbeat IPC: 0.651167 cumulative IPC: 0.763899 (Simulation time: 2 hr 52 min 36 sec) 
Heartbeat CPU 1 instructions: 550000000 cycles: 1255982537 heartbeat IPC: 0.310504 cumulative IPC: 0.308478 (Simulation time: 2 hr 53 min 37 sec) 
Heartbeat CPU 3 instructions: 1110000001 cycles: 1260879372 heartbeat IPC: 0.580793 cumulative IPC: 0.723249 (Simulation time: 2 hr 54 min 8 sec) 
Heartbeat CPU 2 instructions: 1130000000 cycles: 1261537630 heartbeat IPC: 0.653553 cumulative IPC: 0.762406 (Simulation time: 2 hr 54 min 12 sec) 
Heartbeat CPU 0 instructions: 580000000 cycles: 1273908259 heartbeat IPC: 0.326177 cumulative IPC: 0.332391 (Simulation time: 2 hr 55 min 30 sec) 
Heartbeat CPU 2 instructions: 1140000000 cycles: 1276871708 heartbeat IPC: 0.652142 cumulative IPC: 0.76093 (Simulation time: 2 hr 55 min 48 sec) 
Heartbeat CPU 3 instructions: 1120000000 cycles: 1277612528 heartbeat IPC: 0.597616 cumulative IPC: 0.721416 (Simulation time: 2 hr 55 min 53 sec) 
Heartbeat CPU 1 instructions: 560000000 cycles: 1287577335 heartbeat IPC: 0.316508 cumulative IPC: 0.308698 (Simulation time: 2 hr 56 min 55 sec) 
Heartbeat CPU 2 instructions: 1150000003 cycles: 1292228763 heartbeat IPC: 0.651167 cumulative IPC: 0.759479 (Simulation time: 2 hr 57 min 25 sec) 
Heartbeat CPU 3 instructions: 1130000002 cycles: 1294972743 heartbeat IPC: 0.57603 cumulative IPC: 0.719248 (Simulation time: 2 hr 57 min 42 sec) 
Heartbeat CPU 0 instructions: 590000001 cycles: 1304977596 heartbeat IPC: 0.321861 cumulative IPC: 0.332113 (Simulation time: 2 hr 58 min 44 sec) 
Heartbeat CPU 2 instructions: 1160000000 cycles: 1307528623 heartbeat IPC: 0.653601 cumulative IPC: 0.758103 (Simulation time: 2 hr 59 min 0 sec) 
Heartbeat CPU 3 instructions: 1140000000 cycles: 1311833261 heartbeat IPC: 0.593101 cumulative IPC: 0.717447 (Simulation time: 2 hr 59 min 28 sec) 
Heartbeat CPU 1 instructions: 570000001 cycles: 1319007087 heartbeat IPC: 0.31817 cumulative IPC: 0.308948 (Simulation time: 3 hr 0 min 18 sec) 
Heartbeat CPU 2 instructions: 1170000002 cycles: 1322842338 heartbeat IPC: 0.65301 cumulative IPC: 0.756753 (Simulation time: 3 hr 0 min 44 sec) 
Heartbeat CPU 3 instructions: 1150000001 cycles: 1328526341 heartbeat IPC: 0.599051 cumulative IPC: 0.715797 (Simulation time: 3 hr 1 min 22 sec) 
Heartbeat CPU 0 instructions: 600000000 cycles: 1335770025 heartbeat IPC: 0.324755 cumulative IPC: 0.331925 (Simulation time: 3 hr 2 min 9 sec) 
Heartbeat CPU 2 instructions: 1180000000 cycles: 1337992658 heartbeat IPC: 0.660052 cumulative IPC: 0.755539 (Simulation time: 3 hr 2 min 23 sec) 
Heartbeat CPU 3 instructions: 1160000000 cycles: 1345403165 heartbeat IPC: 0.592528 cumulative IPC: 0.714085 (Simulation time: 3 hr 3 min 8 sec) 
Heartbeat CPU 2 instructions: 1190000001 cycles: 1353126632 heartbeat IPC: 0.660765 cumulative IPC: 0.754366 (Simulation time: 3 hr 3 min 55 sec) 
Heartbeat CPU 1 instructions: 580000000 cycles: 1354459744 heartbeat IPC: 0.282066 cumulative IPC: 0.308169 (Simulation time: 3 hr 4 min 3 sec) 
Heartbeat CPU 3 instructions: 1170000001 cycles: 1362548533 heartbeat IPC: 0.583248 cumulative IPC: 0.712264 (Simulation time: 3 hr 4 min 54 sec) 
Heartbeat CPU 0 instructions: 610000000 cycles: 1366752577 heartbeat IPC: 0.322762 cumulative IPC: 0.331695 (Simulation time: 3 hr 5 min 20 sec) 
Heartbeat CPU 2 instructions: 1200000000 cycles: 1368245471 heartbeat IPC: 0.661426 cumulative IPC: 0.753231 (Simulation time: 3 hr 5 min 29 sec) 
Heartbeat CPU 3 instructions: 1180000000 cycles: 1380137007 heartbeat IPC: 0.568554 cumulative IPC: 0.710241 (Simulation time: 3 hr 6 min 43 sec) 
Heartbeat CPU 2 instructions: 1210000002 cycles: 1383321440 heartbeat IPC: 0.663307 cumulative IPC: 0.752148 (Simulation time: 3 hr 7 min 4 sec) 
Heartbeat CPU 1 instructions: 590000000 cycles: 1386487948 heartbeat IPC: 0.312225 cumulative IPC: 0.308273 (Simulation time: 3 hr 7 min 23 sec) 
Heartbeat CPU 3 instructions: 1190000003 cycles: 1396890920 heartbeat IPC: 0.596876 cumulative IPC: 0.708741 (Simulation time: 3 hr 8 min 29 sec) 
Heartbeat CPU 0 instructions: 620000000 cycles: 1397089311 heartbeat IPC: 0.329633 cumulative IPC: 0.331646 (Simulation time: 3 hr 8 min 30 sec) 
Heartbeat CPU 2 instructions: 1220000000 cycles: 1398490187 heartbeat IPC: 0.65925 cumulative IPC: 0.751037 (Simulation time: 3 hr 8 min 39 sec) 
Heartbeat CPU 2 instructions: 1230000000 cycles: 1413590766 heartbeat IPC: 0.662226 cumulative IPC: 0.749992 (Simulation time: 3 hr 10 min 14 sec) 
Heartbeat CPU 3 instructions: 1200000000 cycles: 1414047822 heartbeat IPC: 0.582856 cumulative IPC: 0.707058 (Simulation time: 3 hr 10 min 17 sec) 
Heartbeat CPU 1 instructions: 600000000 cycles: 1418088384 heartbeat IPC: 0.316451 cumulative IPC: 0.308474 (Simulation time: 3 hr 10 min 42 sec) 
Heartbeat CPU 0 instructions: 630000000 cycles: 1427736959 heartbeat IPC: 0.326289 cumulative IPC: 0.331519 (Simulation time: 3 hr 11 min 44 sec) 
Heartbeat CPU 2 instructions: 1240000000 cycles: 1428806712 heartbeat IPC: 0.657205 cumulative IPC: 0.748904 (Simulation time: 3 hr 11 min 50 sec) 
Heartbeat CPU 3 instructions: 1210000000 cycles: 1430650524 heartbeat IPC: 0.602312 cumulative IPC: 0.70572 (Simulation time: 3 hr 12 min 2 sec) 
Heartbeat CPU 2 instructions: 1250000001 cycles: 1444187349 heartbeat IPC: 0.650168 cumulative IPC: 0.747748 (Simulation time: 3 hr 13 min 27 sec) 
Heartbeat CPU 3 instructions: 1220000000 cycles: 1447578506 heartbeat IPC: 0.590738 cumulative IPC: 0.704242 (Simulation time: 3 hr 13 min 48 sec) 
Heartbeat CPU 1 instructions: 610000000 cycles: 1449418350 heartbeat IPC: 0.319183 cumulative IPC: 0.308728 (Simulation time: 3 hr 14 min 0 sec) 
Heartbeat CPU 0 instructions: 640000000 cycles: 1458411563 heartbeat IPC: 0.326003 cumulative IPC: 0.331392 (Simulation time: 3 hr 14 min 57 sec) 
Heartbeat CPU 2 instructions: 1260000000 cycles: 1459481871 heartbeat IPC: 0.653829 cumulative IPC: 0.746667 (Simulation time: 3 hr 15 min 4 sec) 
Heartbeat CPU 3 instructions: 1230000002 cycles: 1464117870 heartbeat IPC: 0.604618 cumulative IPC: 0.703006 (Simulation time: 3 hr 15 min 32 sec) 
Finished CPU 2 instructions: 1000000000 cycles: 1340774351 cumulative IPC: 0.745838 (Simulation time: 3 hr 16 min 18 sec) 
Heartbeat CPU 2 instructions: 1270000001 cycles: 1474810270 heartbeat IPC: 0.652384 cumulative IPC: 0.745592 (Simulation time: 3 hr 16 min 39 sec) 
Heartbeat CPU 1 instructions: 620000000 cycles: 1480691796 heartbeat IPC: 0.31976 cumulative IPC: 0.308984 (Simulation time: 3 hr 17 min 16 sec) 
Heartbeat CPU 3 instructions: 1240000000 cycles: 1481373723 heartbeat IPC: 0.579513 cumulative IPC: 0.701429 (Simulation time: 3 hr 17 min 20 sec) 
Heartbeat CPU 0 instructions: 650000003 cycles: 1488738408 heartbeat IPC: 0.329741 cumulative IPC: 0.331355 (Simulation time: 3 hr 18 min 9 sec) 
Heartbeat CPU 2 instructions: 1280000000 cycles: 1490086867 heartbeat IPC: 0.654596 cumulative IPC: 0.744569 (Simulation time: 3 hr 18 min 17 sec) 
Heartbeat CPU 3 instructions: 1250000000 cycles: 1499094473 heartbeat IPC: 0.56431 cumulative IPC: 0.699653 (Simulation time: 3 hr 19 min 13 sec) 
Heartbeat CPU 2 instructions: 1290000001 cycles: 1505375101 heartbeat IPC: 0.654098 cumulative IPC: 0.743563 (Simulation time: 3 hr 19 min 53 sec) 
Heartbeat CPU 1 instructions: 630000002 cycles: 1512213884 heartbeat IPC: 0.317238 cumulative IPC: 0.309172 (Simulation time: 3 hr 20 min 36 sec) 
Heartbeat CPU 3 instructions: 1260000000 cycles: 1515538127 heartbeat IPC: 0.608137 cumulative IPC: 0.698566 (Simulation time: 3 hr 20 min 57 sec) 
Heartbeat CPU 0 instructions: 660000000 cycles: 1519312547 heartbeat IPC: 0.327074 cumulative IPC: 0.331261 (Simulation time: 3 hr 21 min 21 sec) 
Heartbeat CPU 2 instructions: 1300000000 cycles: 1520641437 heartbeat IPC: 0.655036 cumulative IPC: 0.742591 (Simulation time: 3 hr 21 min 30 sec) 
Heartbeat CPU 3 instructions: 1270000000 cycles: 1532573944 heartbeat IPC: 0.586999 cumulative IPC: 0.697211 (Simulation time: 3 hr 22 min 44 sec) 
Heartbeat CPU 2 instructions: 1310000003 cycles: 1535843760 heartbeat IPC: 0.657794 cumulative IPC: 0.741673 (Simulation time: 3 hr 23 min 5 sec) 
Heartbeat CPU 1 instructions: 640000000 cycles: 1543384663 heartbeat IPC: 0.320813 cumulative IPC: 0.309429 (Simulation time: 3 hr 23 min 52 sec) 
Heartbeat CPU 3 instructions: 1280000000 cycles: 1548726527 heartbeat IPC: 0.619096 cumulative IPC: 0.696321 (Simulation time: 3 hr 24 min 27 sec) 
Heartbeat CPU 0 instructions: 670000000 cycles: 1549890002 heartbeat IPC: 0.327038 cumulative IPC: 0.33117 (Simulation time: 3 hr 24 min 34 sec) 
Heartbeat CPU 2 instructions: 1320000000 cycles: 1551113489 heartbeat IPC: 0.65489 cumulative IPC: 0.74074 (Simulation time: 3 hr 24 min 42 sec) 
Heartbeat CPU 3 instructions: 1290000001 cycles: 1565914478 heartbeat IPC: 0.581803 cumulative IPC: 0.694949 (Simulation time: 3 hr 26 min 21 sec) 
Heartbeat CPU 2 instructions: 1330000000 cycles: 1566333192 heartbeat IPC: 0.657043 cumulative IPC: 0.739853 (Simulation time: 3 hr 26 min 23 sec) 
Finished CPU 3 instructions: 1000000003 cycles: 1439891283 cumulative IPC: 0.694497 (Simulation time: 3 hr 26 min 52 sec) 
Heartbeat CPU 1 instructions: 650000000 cycles: 1574368999 heartbeat IPC: 0.322744 cumulative IPC: 0.309715 (Simulation time: 3 hr 27 min 17 sec) 
Heartbeat CPU 0 instructions: 680000000 cycles: 1580472786 heartbeat IPC: 0.326981 cumulative IPC: 0.331081 (Simulation time: 3 hr 27 min 58 sec) 
Heartbeat CPU 2 instructions: 1340000000 cycles: 1581654716 heartbeat IPC: 0.652677 cumulative IPC: 0.738932 (Simulation time: 3 hr 28 min 6 sec) 
Heartbeat CPU 3 instructions: 1300000000 cycles: 1583287352 heartbeat IPC: 0.57561 cumulative IPC: 0.693522 (Simulation time: 3 hr 28 min 17 sec) 
Heartbeat CPU 2 instructions: 1350000002 cycles: 1596985083 heartbeat IPC: 0.6523 cumulative IPC: 0.738027 (Simulation time: 3 hr 29 min 49 sec) 
Heartbeat CPU 3 instructions: 1310000001 cycles: 1599679058 heartbeat IPC: 0.610065 cumulative IPC: 0.692591 (Simulation time: 3 hr 30 min 7 sec) 
Heartbeat CPU 1 instructions: 660000000 cycles: 1605400678 heartbeat IPC: 0.322251 cumulative IPC: 0.309978 (Simulation time: 3 hr 30 min 46 sec) 
Heartbeat CPU 0 instructions: 690000000 cycles: 1610738434 heartbeat IPC: 0.330408 cumulative IPC: 0.331068 (Simulation time: 3 hr 31 min 21 sec) 
Heartbeat CPU 2 instructions: 1360000000 cycles: 1612273815 heartbeat IPC: 0.654076 cumulative IPC: 0.73716 (Simulation time: 3 hr 31 min 32 sec) 
Heartbeat CPU 3 instructions: 1320000000 cycles: 1616442939 heartbeat IPC: 0.596521 cumulative IPC: 0.691507 (Simulation time: 3 hr 32 min 0 sec) 
Heartbeat CPU 2 instructions: 1370000001 cycles: 1627669388 heartbeat IPC: 0.649537 cumulative IPC: 0.736259 (Simulation time: 3 hr 33 min 15 sec) 
Heartbeat CPU 3 instructions: 1330000003 cycles: 1633715378 heartbeat IPC: 0.578957 cumulative IPC: 0.690214 (Simulation time: 3 hr 33 min 56 sec) 
Heartbeat CPU 1 instructions: 670000000 cycles: 1636579113 heartbeat IPC: 0.320735 cumulative IPC: 0.310201 (Simulation time: 3 hr 34 min 15 sec) 
Heartbeat CPU 0 instructions: 700000000 cycles: 1641286572 heartbeat IPC: 0.327352 cumulative IPC: 0.330992 (Simulation time: 3 hr 34 min 47 sec) 
Heartbeat CPU 2 instructions: 1380000000 cycles: 1642991493 heartbeat IPC: 0.652652 cumulative IPC: 0.735412 (Simulation time: 3 hr 34 min 58 sec) 
Heartbeat CPU 3 instructions: 1340000000 cycles: 1650565986 heartbeat IPC: 0.59345 cumulative IPC: 0.689141 (Simulation time: 3 hr 35 min 49 sec) 
Heartbeat CPU 2 instructions: 1390000001 cycles: 1658371343 heartbeat IPC: 0.650201 cumulative IPC: 0.734554 (Simulation time: 3 hr 36 min 41 sec) 
Heartbeat CPU 3 instructions: 1350000001 cycles: 1667725877 heartbeat IPC: 0.582754 cumulative IPC: 0.687953 (Simulation time: 3 hr 37 min 43 sec) 
Heartbeat CPU 1 instructions: 680000000 cycles: 1667874095 heartbeat IPC: 0.31954 cumulative IPC: 0.310391 (Simulation time: 3 hr 37 min 44 sec) 
Heartbeat CPU 0 instructions: 710000000 cycles: 1671737469 heartbeat IPC: 0.328398 cumulative IPC: 0.330941 (Simulation time: 3 hr 38 min 11 sec) 
Heartbeat CPU 2 instructions: 1400000000 cycles: 1673699548 heartbeat IPC: 0.652392 cumulative IPC: 0.733738 (Simulation time: 3 hr 38 min 24 sec) 
Heartbeat CPU 3 instructions: 1360000000 cycles: 1684066405 heartbeat IPC: 0.611975 cumulative IPC: 0.687154 (Simulation time: 3 hr 39 min 34 sec) 
Heartbeat CPU 2 instructions: 1410000000 cycles: 1688942071 heartbeat IPC: 0.656059 cumulative IPC: 0.732978 (Simulation time: 3 hr 40 min 6 sec) 
Heartbeat CPU 1 instructions: 690000001 cycles: 1699373215 heartbeat IPC: 0.317469 cumulative IPC: 0.310533 (Simulation time: 3 hr 41 min 17 sec) 
Heartbeat CPU 3 instructions: 1370000001 cycles: 1700485626 heartbeat IPC: 0.609042 cumulative IPC: 0.686337 (Simulation time: 3 hr 41 min 24 sec) 
Heartbeat CPU 0 instructions: 720000000 cycles: 1702462673 heartbeat IPC: 0.325466 cumulative IPC: 0.330834 (Simulation time: 3 hr 41 min 38 sec) 
Heartbeat CPU 2 instructions: 1420000000 cycles: 1704250324 heartbeat IPC: 0.653242 cumulative IPC: 0.732203 (Simulation time: 3 hr 41 min 49 sec) 
Heartbeat CPU 3 instructions: 1380000000 cycles: 1717620195 heartbeat IPC: 0.583615 cumulative IPC: 0.685228 (Simulation time: 3 hr 43 min 19 sec) 
Heartbeat CPU 2 instructions: 1430000001 cycles: 1719479722 heartbeat IPC: 0.656625 cumulative IPC: 0.731478 (Simulation time: 3 hr 43 min 31 sec) 
Heartbeat CPU 1 instructions: 700000000 cycles: 1730407901 heartbeat IPC: 0.32222 cumulative IPC: 0.31076 (Simulation time: 3 hr 44 min 44 sec) 
Heartbeat CPU 0 instructions: 730000003 cycles: 1733019784 heartbeat IPC: 0.327256 cumulative IPC: 0.330766 (Simulation time: 3 hr 45 min 1 sec) 
Heartbeat CPU 3 instructions: 1390000001 cycles: 1734698802 heartbeat IPC: 0.585528 cumulative IPC: 0.684166 (Simulation time: 3 hr 45 min 12 sec) 
Heartbeat CPU 2 instructions: 1440000000 cycles: 1734800621 heartbeat IPC: 0.652703 cumulative IPC: 0.730726 (Simulation time: 3 hr 45 min 13 sec) 
Heartbeat CPU 2 instructions: 1450000000 cycles: 1750122203 heartbeat IPC: 0.652674 cumulative IPC: 0.729987 (Simulation time: 3 hr 46 min 55 sec) 
Heartbeat CPU 3 instructions: 1400000000 cycles: 1751767498 heartbeat IPC: 0.585868 cumulative IPC: 0.683131 (Simulation time: 3 hr 47 min 6 sec) 
Heartbeat CPU 1 instructions: 710000000 cycles: 1760555721 heartbeat IPC: 0.331699 cumulative IPC: 0.311147 (Simulation time: 3 hr 48 min 5 sec) 
Heartbeat CPU 0 instructions: 740000000 cycles: 1763144063 heartbeat IPC: 0.331958 cumulative IPC: 0.330788 (Simulation time: 3 hr 48 min 22 sec) 
Heartbeat CPU 2 instructions: 1460000000 cycles: 1765426480 heartbeat IPC: 0.653412 cumulative IPC: 0.72927 (Simulation time: 3 hr 48 min 38 sec) 
Heartbeat CPU 3 instructions: 1410000003 cycles: 1767710985 heartbeat IPC: 0.627216 cumulative IPC: 0.682587 (Simulation time: 3 hr 48 min 54 sec) 
Heartbeat CPU 2 instructions: 1470000002 cycles: 1780787754 heartbeat IPC: 0.650988 cumulative IPC: 0.728542 (Simulation time: 3 hr 50 min 22 sec) 
Heartbeat CPU 3 instructions: 1420000000 cycles: 1784725415 heartbeat IPC: 0.587736 cumulative IPC: 0.681611 (Simulation time: 3 hr 50 min 48 sec) 
Heartbeat CPU 1 instructions: 720000000 cycles: 1790939608 heartbeat IPC: 0.329122 cumulative IPC: 0.311476 (Simulation time: 3 hr 51 min 29 sec) 
Heartbeat CPU 0 instructions: 750000000 cycles: 1793217771 heartbeat IPC: 0.332516 cumulative IPC: 0.330819 (Simulation time: 3 hr 51 min 45 sec) 
Heartbeat CPU 2 instructions: 1480000000 cycles: 1796084263 heartbeat IPC: 0.653744 cumulative IPC: 0.727855 (Simulation time: 3 hr 52 min 4 sec) 
Heartbeat CPU 3 instructions: 1430000001 cycles: 1801880759 heartbeat IPC: 0.582909 cumulative IPC: 0.680598 (Simulation time: 3 hr 52 min 42 sec) 
Heartbeat CPU 2 instructions: 1490000001 cycles: 1811419187 heartbeat IPC: 0.652106 cumulative IPC: 0.727164 (Simulation time: 3 hr 53 min 46 sec) 
Heartbeat CPU 3 instructions: 1440000000 cycles: 1819168889 heartbeat IPC: 0.578431 cumulative IPC: 0.679552 (Simulation time: 3 hr 54 min 38 sec) 
Heartbeat CPU 1 instructions: 730000000 cycles: 1820969000 heartbeat IPC: 0.333007 cumulative IPC: 0.311859 (Simulation time: 3 hr 54 min 50 sec) 
Heartbeat CPU 0 instructions: 760000000 cycles: 1823571681 heartbeat IPC: 0.329447 cumulative IPC: 0.330795 (Simulation time: 3 hr 55 min 7 sec) 
Heartbeat CPU 2 instructions: 1500000000 cycles: 1826773216 heartbeat IPC: 0.651295 cumulative IPC: 0.726477 (Simulation time: 3 hr 55 min 29 sec) 
Heartbeat CPU 3 instructions: 1450000001 cycles: 1835879256 heartbeat IPC: 0.598431 cumulative IPC: 0.678757 (Simulation time: 3 hr 56 min 30 sec) 
Heartbeat CPU 2 instructions: 1510000002 cycles: 1842058319 heartbeat IPC: 0.654232 cumulative IPC: 0.725831 (Simulation time: 3 hr 57 min 11 sec) 
Heartbeat CPU 1 instructions: 740000000 cycles: 1851163318 heartbeat IPC: 0.331188 cumulative IPC: 0.312198 (Simulation time: 3 hr 58 min 12 sec) 
Heartbeat CPU 3 instructions: 1460000000 cycles: 1853025737 heartbeat IPC: 0.58321 cumulative IPC: 0.677806 (Simulation time: 3 hr 58 min 24 sec) 
Heartbeat CPU 0 instructions: 770000001 cycles: 1854051369 heartbeat IPC: 0.328087 cumulative IPC: 0.330747 (Simulation time: 3 hr 58 min 31 sec) 
Heartbeat CPU 2 instructions: 1520000000 cycles: 1857404445 heartbeat IPC: 0.65163 cumulative IPC: 0.725172 (Simulation time: 3 hr 58 min 53 sec) 
Heartbeat CPU 3 instructions: 1470000000 cycles: 1869685698 heartbeat IPC: 0.600241 cumulative IPC: 0.677062 (Simulation time: 4 hr 0 min 16 sec) 
Heartbeat CPU 2 instructions: 1530000000 cycles: 1872736985 heartbeat IPC: 0.652208 cumulative IPC: 0.72453 (Simulation time: 4 hr 0 min 36 sec) 
Heartbeat CPU 1 instructions: 750000001 cycles: 1881456624 heartbeat IPC: 0.330106 cumulative IPC: 0.312508 (Simulation time: 4 hr 1 min 34 sec) 
Heartbeat CPU 0 instructions: 780000000 cycles: 1884494237 heartbeat IPC: 0.328484 cumulative IPC: 0.330707 (Simulation time: 4 hr 1 min 54 sec) 
Heartbeat CPU 3 instructions: 1480000000 cycles: 1886481219 heartbeat IPC: 0.595397 cumulative IPC: 0.676281 (Simulation time: 4 hr 2 min 8 sec) 
Heartbeat CPU 2 instructions: 1540000000 cycles: 1887980262 heartbeat IPC: 0.656027 cumulative IPC: 0.723936 (Simulation time: 4 hr 2 min 18 sec) 
Heartbeat CPU 2 instructions: 1550000002 cycles: 1903268141 heartbeat IPC: 0.654113 cumulative IPC: 0.723333 (Simulation time: 4 hr 3 min 59 sec) 
Heartbeat CPU 3 instructions: 1490000003 cycles: 1903438046 heartbeat IPC: 0.589733 cumulative IPC: 0.675453 (Simulation time: 4 hr 4 min 0 sec) 
Heartbeat CPU 1 instructions: 760000000 cycles: 1912856877 heartbeat IPC: 0.318469 cumulative IPC: 0.312613 (Simulation time: 4 hr 5 min 4 sec) 
Heartbeat CPU 0 instructions: 790000000 cycles: 1915035961 heartbeat IPC: 0.327421 cumulative IPC: 0.330651 (Simulation time: 4 hr 5 min 18 sec) 
Heartbeat CPU 2 instructions: 1560000000 cycles: 1918486593 heartbeat IPC: 0.657097 cumulative IPC: 0.72277 (Simulation time: 4 hr 5 min 41 sec) 
Heartbeat CPU 3 instructions: 1500000000 cycles: 1920852372 heartbeat IPC: 0.57424 cumulative IPC: 0.674469 (Simulation time: 4 hr 5 min 57 sec) 
Heartbeat CPU 2 instructions: 1570000002 cycles: 1933748460 heartbeat IPC: 0.655228 cumulative IPC: 0.722198 (Simulation time: 4 hr 7 min 24 sec) 
Heartbeat CPU 3 instructions: 1510000001 cycles: 1938027671 heartbeat IPC: 0.582232 cumulative IPC: 0.673592 (Simulation time: 4 hr 7 min 52 sec) 
Heartbeat CPU 1 instructions: 770000003 cycles: 1944576911 heartbeat IPC: 0.315258 cumulative IPC: 0.312659 (Simulation time: 4 hr 8 min 34 sec) 
Heartbeat CPU 0 instructions: 800000000 cycles: 1946913209 heartbeat IPC: 0.313703 cumulative IPC: 0.330354 (Simulation time: 4 hr 8 min 49 sec) 
Heartbeat CPU 2 instructions: 1580000000 cycles: 1948944953 heartbeat IPC: 0.658046 cumulative IPC: 0.721662 (Simulation time: 4 hr 9 min 2 sec) 
Heartbeat CPU 3 instructions: 1520000000 cycles: 1955172916 heartbeat IPC: 0.583252 cumulative IPC: 0.672743 (Simulation time: 4 hr 9 min 41 sec) 
Heartbeat CPU 2 instructions: 1590000001 cycles: 1964200364 heartbeat IPC: 0.655505 cumulative IPC: 0.721111 (Simulation time: 4 hr 10 min 38 sec) 
Heartbeat CPU 3 instructions: 1530000002 cycles: 1972162702 heartbeat IPC: 0.588589 cumulative IPC: 0.671967 (Simulation time: 4 hr 11 min 29 sec) 
Heartbeat CPU 1 instructions: 780000000 cycles: 1976401749 heartbeat IPC: 0.31422 cumulative IPC: 0.312686 (Simulation time: 4 hr 11 min 55 sec) 
Heartbeat CPU 0 instructions: 810000002 cycles: 1978302210 heartbeat IPC: 0.318583 cumulative IPC: 0.330154 (Simulation time: 4 hr 12 min 7 sec) 
Heartbeat CPU 2 instructions: 1600000000 cycles: 1979453562 heartbeat IPC: 0.6556 cumulative IPC: 0.720571 (Simulation time: 4 hr 12 min 14 sec) 
Heartbeat CPU 3 instructions: 1540000000 cycles: 1989713517 heartbeat IPC: 0.569774 cumulative IPC: 0.671002 (Simulation time: 4 hr 13 min 19 sec) 
Heartbeat CPU 2 instructions: 1610000000 cycles: 1994669077 heartbeat IPC: 0.657224 cumulative IPC: 0.720054 (Simulation time: 4 hr 13 min 50 sec) 
Heartbeat CPU 3 instructions: 1550000001 cycles: 2006918624 heartbeat IPC: 0.581223 cumulative IPC: 0.670179 (Simulation time: 4 hr 15 min 8 sec) 
Heartbeat CPU 1 instructions: 790000002 cycles: 2008792932 heartbeat IPC: 0.308726 cumulative IPC: 0.312618 (Simulation time: 4 hr 15 min 20 sec) 
Heartbeat CPU 0 instructions: 820000000 cycles: 2009735467 heartbeat IPC: 0.318134 cumulative IPC: 0.329953 (Simulation time: 4 hr 15 min 26 sec) 
Heartbeat CPU 2 instructions: 1620000000 cycles: 2009907901 heartbeat IPC: 0.656219 cumulative IPC: 0.719536 (Simulation time: 4 hr 15 min 27 sec) 
Heartbeat CPU 3 instructions: 1560000000 cycles: 2024043969 heartbeat IPC: 0.58393 cumulative IPC: 0.669399 (Simulation time: 4 hr 17 min 0 sec) 
Heartbeat CPU 2 instructions: 1630000001 cycles: 2025084872 heartbeat IPC: 0.658893 cumulative IPC: 0.71905 (Simulation time: 4 hr 17 min 7 sec) 
Heartbeat CPU 2 instructions: 1640000000 cycles: 2040371413 heartbeat IPC: 0.65417 cumulative IPC: 0.718531 (Simulation time: 4 hr 18 min 50 sec) 
Heartbeat CPU 0 instructions: 830000003 cycles: 2041220806 heartbeat IPC: 0.317608 cumulative IPC: 0.329749 (Simulation time: 4 hr 18 min 56 sec) 
Heartbeat CPU 3 instructions: 1570000003 cycles: 2041275431 heartbeat IPC: 0.580334 cumulative IPC: 0.668595 (Simulation time: 4 hr 18 min 56 sec) 
Heartbeat CPU 1 instructions: 800000000 cycles: 2041452706 heartbeat IPC: 0.306187 cumulative IPC: 0.312508 (Simulation time: 4 hr 18 min 57 sec) 
Heartbeat CPU 2 instructions: 1650000000 cycles: 2055678639 heartbeat IPC: 0.653286 cumulative IPC: 0.718012 (Simulation time: 4 hr 20 min 33 sec) 
Heartbeat CPU 3 instructions: 1580000000 cycles: 2059712074 heartbeat IPC: 0.542398 cumulative IPC: 0.667389 (Simulation time: 4 hr 20 min 59 sec) 
Heartbeat CPU 2 instructions: 1660000000 cycles: 2070954551 heartbeat IPC: 0.654625 cumulative IPC: 0.717513 (Simulation time: 4 hr 22 min 11 sec) 
Heartbeat CPU 0 instructions: 840000000 cycles: 2072807424 heartbeat IPC: 0.31659 cumulative IPC: 0.329535 (Simulation time: 4 hr 22 min 22 sec) 
Heartbeat CPU 1 instructions: 810000002 cycles: 2075097583 heartbeat IPC: 0.297222 cumulative IPC: 0.312243 (Simulation time: 4 hr 22 min 38 sec) 
Heartbeat CPU 3 instructions: 1590000003 cycles: 2079483329 heartbeat IPC: 0.505785 cumulative IPC: 0.66575 (Simulation time: 4 hr 23 min 5 sec) 
Heartbeat CPU 2 instructions: 1670000001 cycles: 2086275242 heartbeat IPC: 0.652712 cumulative IPC: 0.717005 (Simulation time: 4 hr 23 min 49 sec) 
Heartbeat CPU 3 instructions: 1600000000 cycles: 2099816499 heartbeat IPC: 0.491807 cumulative IPC: 0.663954 (Simulation time: 4 hr 25 min 10 sec) 
Heartbeat CPU 2 instructions: 1680000000 cycles: 2101514471 heartbeat IPC: 0.656201 cumulative IPC: 0.716535 (Simulation time: 4 hr 25 min 20 sec) 
Heartbeat CPU 0 instructions: 850000000 cycles: 2105843115 heartbeat IPC: 0.302703 cumulative IPC: 0.329086 (Simulation time: 4 hr 25 min 46 sec) 
Heartbeat CPU 1 instructions: 820000000 cycles: 2108744987 heartbeat IPC: 0.2972 cumulative IPC: 0.311987 (Simulation time: 4 hr 26 min 4 sec) 
Heartbeat CPU 3 instructions: 1610000000 cycles: 2116545478 heartbeat IPC: 0.597765 cumulative IPC: 0.663396 (Simulation time: 4 hr 26 min 58 sec) 
Heartbeat CPU 2 instructions: 1690000001 cycles: 2116827091 heartbeat IPC: 0.653056 cumulative IPC: 0.716046 (Simulation time: 4 hr 27 min 0 sec) 
Heartbeat CPU 3 instructions: 1620000000 cycles: 2131513674 heartbeat IPC: 0.668083 cumulative IPC: 0.663431 (Simulation time: 4 hr 28 min 42 sec) 
Heartbeat CPU 2 instructions: 1700000000 cycles: 2132135913 heartbeat IPC: 0.653218 cumulative IPC: 0.715565 (Simulation time: 4 hr 28 min 47 sec) 
Heartbeat CPU 0 instructions: 860000000 cycles: 2137460893 heartbeat IPC: 0.316278 cumulative IPC: 0.328885 (Simulation time: 4 hr 29 min 26 sec) 
Heartbeat CPU 1 instructions: 830000003 cycles: 2141272203 heartbeat IPC: 0.307435 cumulative IPC: 0.311914 (Simulation time: 4 hr 29 min 54 sec) 
Heartbeat CPU 3 instructions: 1630000001 cycles: 2146506070 heartbeat IPC: 0.667005 cumulative IPC: 0.663458 (Simulation time: 4 hr 30 min 32 sec) 
Heartbeat CPU 2 instructions: 1710000002 cycles: 2147375518 heartbeat IPC: 0.656185 cumulative IPC: 0.715117 (Simulation time: 4 hr 30 min 39 sec) 
Heartbeat CPU 2 instructions: 1720000000 cycles: 2162690929 heartbeat IPC: 0.652937 cumulative IPC: 0.714648 (Simulation time: 4 hr 32 min 26 sec) 
Heartbeat CPU 3 instructions: 1640000000 cycles: 2162881968 heartbeat IPC: 0.610653 cumulative IPC: 0.663032 (Simulation time: 4 hr 32 min 27 sec) 
Heartbeat CPU 0 instructions: 870000001 cycles: 2169365731 heartbeat IPC: 0.313432 cumulative IPC: 0.328643 (Simulation time: 4 hr 33 min 9 sec) 
Heartbeat CPU 1 instructions: 840000000 cycles: 2174368330 heartbeat IPC: 0.30215 cumulative IPC: 0.311756 (Simulation time: 4 hr 33 min 41 sec) 
Heartbeat CPU 2 instructions: 1730000002 cycles: 2177951842 heartbeat IPC: 0.655269 cumulative IPC: 0.714205 (Simulation time: 4 hr 34 min 5 sec) 
Heartbeat CPU 3 instructions: 1650000002 cycles: 2181168030 heartbeat IPC: 0.546865 cumulative IPC: 0.661996 (Simulation time: 4 hr 34 min 27 sec) 
Heartbeat CPU 2 instructions: 1740000000 cycles: 2193276156 heartbeat IPC: 0.652558 cumulative IPC: 0.713747 (Simulation time: 4 hr 35 min 47 sec) 
Heartbeat CPU 3 instructions: 1660000000 cycles: 2199507049 heartbeat IPC: 0.545285 cumulative IPC: 0.660962 (Simulation time: 4 hr 36 min 32 sec) 
Heartbeat CPU 0 instructions: 880000000 cycles: 2201472790 heartbeat IPC: 0.311458 cumulative IPC: 0.328376 (Simulation time: 4 hr 36 min 45 sec) 
Heartbeat CPU 1 instructions: 850000000 cycles: 2207246182 heartbeat IPC: 0.304156 cumulative IPC: 0.311635 (Simulation time: 4 hr 37 min 25 sec) 
Heartbeat CPU 2 instructions: 1750000000 cycles: 2208561104 heartbeat IPC: 0.654238 cumulative IPC: 0.713309 (Simulation time: 4 hr 37 min 35 sec) 
Heartbeat CPU 3 instructions: 1670000003 cycles: 2216159204 heartbeat IPC: 0.600523 cumulative IPC: 0.660479 (Simulation time: 4 hr 38 min 31 sec) 
Heartbeat CPU 2 instructions: 1760000000 cycles: 2223748965 heartbeat IPC: 0.658421 cumulative IPC: 0.712911 (Simulation time: 4 hr 39 min 27 sec) 
Heartbeat CPU 3 instructions: 1680000000 cycles: 2232764457 heartbeat IPC: 0.602219 cumulative IPC: 0.660019 (Simulation time: 4 hr 40 min 31 sec) 
Heartbeat CPU 0 instructions: 890000001 cycles: 2233594701 heartbeat IPC: 0.311314 cumulative IPC: 0.328116 (Simulation time: 4 hr 40 min 37 sec) 
Heartbeat CPU 2 instructions: 1770000001 cycles: 2238985334 heartbeat IPC: 0.656324 cumulative IPC: 0.712502 (Simulation time: 4 hr 41 min 14 sec) 
Heartbeat CPU 1 instructions: 860000000 cycles: 2240397873 heartbeat IPC: 0.301644 cumulative IPC: 0.311478 (Simulation time: 4 hr 41 min 23 sec) 
Heartbeat CPU 3 instructions: 1690000000 cycles: 2253554113 heartbeat IPC: 0.481008 cumulative IPC: 0.658266 (Simulation time: 4 hr 42 min 54 sec) 
Heartbeat CPU 2 instructions: 1780000000 cycles: 2254188244 heartbeat IPC: 0.657769 cumulative IPC: 0.71211 (Simulation time: 4 hr 42 min 58 sec) 
Heartbeat CPU 0 instructions: 900000000 cycles: 2265930540 heartbeat IPC: 0.309254 cumulative IPC: 0.32783 (Simulation time: 4 hr 44 min 26 sec) 
Heartbeat CPU 2 instructions: 1790000001 cycles: 2269466920 heartbeat IPC: 0.654507 cumulative IPC: 0.711699 (Simulation time: 4 hr 44 min 52 sec) 
Heartbeat CPU 1 instructions: 870000002 cycles: 2273672901 heartbeat IPC: 0.300526 cumulative IPC: 0.311308 (Simulation time: 4 hr 45 min 23 sec) 
Heartbeat CPU 3 instructions: 1700000000 cycles: 2274911116 heartbeat IPC: 0.46823 cumulative IPC: 0.656373 (Simulation time: 4 hr 45 min 32 sec) 
Heartbeat CPU 2 instructions: 1800000000 cycles: 2284675181 heartbeat IPC: 0.657537 cumulative IPC: 0.711316 (Simulation time: 4 hr 46 min 42 sec) 
Heartbeat CPU 3 instructions: 1710000003 cycles: 2296178685 heartbeat IPC: 0.4702 cumulative IPC: 0.654545 (Simulation time: 4 hr 47 min 58 sec) 
Heartbeat CPU 0 instructions: 910000000 cycles: 2298177852 heartbeat IPC: 0.310103 cumulative IPC: 0.327566 (Simulation time: 4 hr 48 min 11 sec) 
Heartbeat CPU 2 instructions: 1810000002 cycles: 2299911110 heartbeat IPC: 0.656343 cumulative IPC: 0.71093 (Simulation time: 4 hr 48 min 22 sec) 
Heartbeat CPU 1 instructions: 880000000 cycles: 2307591472 heartbeat IPC: 0.294824 cumulative IPC: 0.311051 (Simulation time: 4 hr 49 min 13 sec) 
Heartbeat CPU 2 instructions: 1820000000 cycles: 2315182547 heartbeat IPC: 0.654817 cumulative IPC: 0.710538 (Simulation time: 4 hr 50 min 2 sec) 
Heartbeat CPU 3 instructions: 1720000000 cycles: 2317641124 heartbeat IPC: 0.46593 cumulative IPC: 0.652694 (Simulation time: 4 hr 50 min 18 sec) 
Heartbeat CPU 2 instructions: 1830000002 cycles: 2330407610 heartbeat IPC: 0.656812 cumulative IPC: 0.710166 (Simulation time: 4 hr 51 min 43 sec) 
Heartbeat CPU 0 instructions: 920000000 cycles: 2331027514 heartbeat IPC: 0.304417 cumulative IPC: 0.327221 (Simulation time: 4 hr 51 min 47 sec) 
Heartbeat CPU 3 instructions: 1730000001 cycles: 2337943691 heartbeat IPC: 0.492549 cumulative IPC: 0.651221 (Simulation time: 4 hr 52 min 32 sec) 
Heartbeat CPU 1 instructions: 890000000 cycles: 2341484991 heartbeat IPC: 0.295042 cumulative IPC: 0.310806 (Simulation time: 4 hr 52 min 54 sec) 
Heartbeat CPU 2 instructions: 1840000000 cycles: 2345699798 heartbeat IPC: 0.653929 cumulative IPC: 0.709778 (Simulation time: 4 hr 53 min 23 sec) 
Heartbeat CPU 3 instructions: 1740000000 cycles: 2356885325 heartbeat IPC: 0.527938 cumulative IPC: 0.650172 (Simulation time: 4 hr 54 min 35 sec) 
[...]
Heartbeat CPU 1 instructions: 1150000000 cycles: 3230855478 heartbeat IPC: 0.300355 cumulative IPC: 0.305509 (Simulation time: 6 hr 41 min 3 sec) 
Heartbeat CPU 3 instructions: 2280000000 cycles: 3232041039 heartbeat IPC: 0.760078 cumulative IPC: 0.64082 (Simulation time: 6 hr 41 min 11 sec) 
Heartbeat CPU 2 instructions: 2650000002 cycles: 3243880336 heartbeat IPC: 0.63829 cumulative IPC: 0.765184 (Simulation time: 6 hr 42 min 36 sec) 
Heartbeat CPU 3 instructions: 2290000000 cycles: 3245324340 heartbeat IPC: 0.752825 cumulative IPC: 0.641298 (Simulation time: 6 hr 42 min 46 sec) 
Heartbeat CPU 0 instructions: 1200000000 cycles: 3245900846 heartbeat IPC: 0.322492 cumulative IPC: 0.321004 (Simulation time: 6 hr 42 min 50 sec) 
Finished CPU 0 instructions: 1000000000 cycles: 3115223062 cumulative IPC: 0.321004 (Simulation time: 6 hr 42 min 50 sec) 
Heartbeat CPU 3 instructions: 2300000000 cycles: 3259295935 heartbeat IPC: 0.715738 cumulative IPC: 0.641631 (Simulation time: 6 hr 44 min 25 sec) 
Heartbeat CPU 2 instructions: 2660000000 cycles: 3259477416 heartbeat IPC: 0.641146 cumulative IPC: 0.764566 (Simulation time: 6 hr 44 min 26 sec) 
Heartbeat CPU 1 instructions: 1160000000 cycles: 3263273351 heartbeat IPC: 0.308472 cumulative IPC: 0.30554 (Simulation time: 6 hr 44 min 53 sec) 
Heartbeat CPU 3 instructions: 2310000001 cycles: 3272744640 heartbeat IPC: 0.743566 cumulative IPC: 0.642067 (Simulation time: 6 hr 46 min 0 sec) 
Heartbeat CPU 2 instructions: 2670000001 cycles: 3275141625 heartbeat IPC: 0.638398 cumulative IPC: 0.763937 (Simulation time: 6 hr 46 min 17 sec) 
Heartbeat CPU 0 instructions: 1210000000 cycles: 3277378332 heartbeat IPC: 0.317687 cumulative IPC: 0.320971 (Simulation time: 6 hr 46 min 33 sec) 
Heartbeat CPU 3 instructions: 2320000000 cycles: 3284556596 heartbeat IPC: 0.8466 cumulative IPC: 0.642833 (Simulation time: 6 hr 47 min 26 sec) 
Heartbeat CPU 2 instructions: 2680000000 cycles: 3290835228 heartbeat IPC: 0.637202 cumulative IPC: 0.763308 (Simulation time: 6 hr 48 min 13 sec) 
Heartbeat CPU 1 instructions: 1170000001 cycles: 3294888384 heartbeat IPC: 0.316305 cumulative IPC: 0.305647 (Simulation time: 6 hr 48 min 43 sec) 
Heartbeat CPU 3 instructions: 2330000001 cycles: 3295413206 heartbeat IPC: 0.921098 cumulative IPC: 0.643787 (Simulation time: 6 hr 48 min 47 sec) 
Heartbeat CPU 2 instructions: 2690000001 cycles: 3306306678 heartbeat IPC: 0.646352 cumulative IPC: 0.762738 (Simulation time: 6 hr 50 min 5 sec) 
Heartbeat CPU 3 instructions: 2340000000 cycles: 3308418623 heartbeat IPC: 0.76891 cumulative IPC: 0.6443 (Simulation time: 6 hr 50 min 20 sec) 
Heartbeat CPU 0 instructions: 1220000000 cycles: 3309066024 heartbeat IPC: 0.31558 cumulative IPC: 0.320917 (Simulation time: 6 hr 50 min 24 sec) 
Heartbeat CPU 3 instructions: 2350000000 cycles: 3320127432 heartbeat IPC: 0.854058 cumulative IPC: 0.64507 (Simulation time: 6 hr 51 min 45 sec) 
Heartbeat CPU 2 instructions: 2700000000 cycles: 3321974528 heartbeat IPC: 0.63825 cumulative IPC: 0.762127 (Simulation time: 6 hr 51 min 57 sec) 
Heartbeat CPU 1 instructions: 1180000000 cycles: 3328096780 heartbeat IPC: 0.301129 cumulative IPC: 0.3056 (Simulation time: 6 hr 52 min 39 sec) 
Heartbeat CPU 3 instructions: 2360000000 cycles: 3333303717 heartbeat IPC: 0.758939 cumulative IPC: 0.645538 (Simulation time: 6 hr 53 min 14 sec) 
Heartbeat CPU 2 instructions: 2710000001 cycles: 3337555847 heartbeat IPC: 0.641794 cumulative IPC: 0.761542 (Simulation time: 6 hr 53 min 43 sec) 
Heartbeat CPU 0 instructions: 1230000000 cycles: 3339720496 heartbeat IPC: 0.326217 cumulative IPC: 0.320968 (Simulation time: 6 hr 53 min 58 sec) 
Heartbeat CPU 3 instructions: 2370000000 cycles: 3344668932 heartbeat IPC: 0.879878 cumulative IPC: 0.646367 (Simulation time: 6 hr 54 min 32 sec) 
Heartbeat CPU 2 instructions: 2720000000 cycles: 3353205478 heartbeat IPC: 0.638993 cumulative IPC: 0.760947 (Simulation time: 6 hr 55 min 34 sec) 
Heartbeat CPU 3 instructions: 2380000000 cycles: 3355623762 heartbeat IPC: 0.912839 cumulative IPC: 0.647272 (Simulation time: 6 hr 55 min 53 sec) 
Heartbeat CPU 1 instructions: 1190000003 cycles: 3360044202 heartbeat IPC: 0.313014 cumulative IPC: 0.305674 (Simulation time: 6 hr 56 min 25 sec) 
Heartbeat CPU 3 instructions: 2390000002 cycles: 3366644730 heartbeat IPC: 0.907362 cumulative IPC: 0.648158 (Simulation time: 6 hr 57 min 14 sec) 
Heartbeat CPU 2 instructions: 2730000000 cycles: 3368673771 heartbeat IPC: 0.646484 cumulative IPC: 0.760401 (Simulation time: 6 hr 57 min 29 sec) 
Heartbeat CPU 0 instructions: 1240000000 cycles: 3370237554 heartbeat IPC: 0.327686 cumulative IPC: 0.321031 (Simulation time: 6 hr 57 min 41 sec) 
Heartbeat CPU 3 instructions: 2400000000 cycles: 3377429387 heartbeat IPC: 0.927243 cumulative IPC: 0.649085 (Simulation time: 6 hr 58 min 34 sec) 
Heartbeat CPU 2 instructions: 2740000000 cycles: 3384325499 heartbeat IPC: 0.638907 cumulative IPC: 0.759816 (Simulation time: 6 hr 59 min 23 sec) 
Heartbeat CPU 3 instructions: 2410000002 cycles: 3390268719 heartbeat IPC: 0.778857 cumulative IPC: 0.649596 (Simulation time: 7 hr 0 min 6 sec) 
Heartbeat CPU 1 instructions: 1200000000 cycles: 3391695145 heartbeat IPC: 0.315946 cumulative IPC: 0.305773 (Simulation time: 7 hr 0 min 16 sec) 
Heartbeat CPU 2 instructions: 2750000000 cycles: 3399990930 heartbeat IPC: 0.638348 cumulative IPC: 0.759234 (Simulation time: 7 hr 1 min 15 sec) 
Heartbeat CPU 0 instructions: 1250000002 cycles: 3400740965 heartbeat IPC: 0.327832 cumulative IPC: 0.321095 (Simulation time: 7 hr 1 min 21 sec) 
Finished CPU 1 instructions: 1000000000 cycles: 3270228042 cumulative IPC: 0.305789 (Simulation time: 7 hr 1 min 22 sec) 

CPU 0 Branch Prediction Accuracy: 90.4779% MPKI: 18.9426

CPU 1 Branch Prediction Accuracy: 92.7869% MPKI: 15.7748

CPU 2 Branch Prediction Accuracy: 99.9524% MPKI: 0.0360813

CPU 3 Branch Prediction Accuracy: 90.6356% MPKI: 12.0607

ChampSim completed all CPUs

Total Simulation Statistics (not including warmup)

CPU 0 cumulative IPC: 0.321099 instructions: 1050066444 cycles: 3270228041
L1D TOTAL     ACCESS:  403408795  HIT:  356672526  MISS:   46736269
L1D LOAD      ACCESS:  289373595  HIT:  246711955  MISS:   42661640
L1D RFO       ACCESS:  114035200  HIT:  109960571  MISS:    4074629
L1D PREFETCH  ACCESS:          0  HIT:          0  MISS:          0
L1D WRITEBACK ACCESS:          0  HIT:          0  MISS:          0
L1I TOTAL     ACCESS:  254010916  HIT:  254010916  MISS:          0
L1I LOAD      ACCESS:  254010916  HIT:  254010916  MISS:          0
L1I RFO       ACCESS:          0  HIT:          0  MISS:          0
L1I PREFETCH  ACCESS:          0  HIT:          0  MISS:          0
L1I WRITEBACK ACCESS:          0  HIT:          0  MISS:          0
L2C TOTAL     ACCESS:   78351089  HIT:   28289099  MISS:   50061990
L2C LOAD      ACCESS:   42661539  HIT:   19602976  MISS:   23058563
L2C RFO       ACCESS:    4074525  HIT:     761911  MISS:    3312614
L2C PREFETCH  ACCESS:   25370481  HIT:    1691656  MISS:   23678825
L2C WRITEBACK ACCESS:    6244544  HIT:    6232556  MISS:      11988

L2C Best-offset prefetcher final stats
LLC TOTAL     ACCESS:   56117326  HIT:   35913651  MISS:   20203675
LLC LOAD      ACCESS:   22863055  HIT:   17308129  MISS:    5554926
LLC RFO       ACCESS:    3312571  HIT:    3289897  MISS:      22674
LLC PREFETCH  ACCESS:   25169992  HIT:   10545015  MISS:   14624977
LLC WRITEBACK ACCESS:    4771708  HIT:    4770610  MISS:       1098

CPU 1 cumulative IPC: 0.305789 instructions: 1000000000 cycles: 3270228042
L1D TOTAL     ACCESS:  342969709  HIT:  270700740  MISS:   72268969
L1D LOAD      ACCESS:  260240120  HIT:  191117783  MISS:   69122337
L1D RFO       ACCESS:   82729589  HIT:   79582957  MISS:    3146632
L1D PREFETCH  ACCESS:          0  HIT:          0  MISS:          0
L1D WRITEBACK ACCESS:          0  HIT:          0  MISS:          0
L1I TOTAL     ACCESS:  234058241  HIT:  234058239  MISS:          2
L1I LOAD      ACCESS:  234058241  HIT:  234058239  MISS:          2
L1I RFO       ACCESS:          0  HIT:          0  MISS:          0
L1I PREFETCH  ACCESS:          0  HIT:          0  MISS:          0
L1I WRITEBACK ACCESS:          0  HIT:          0  MISS:          0
L2C TOTAL     ACCESS:  122443334  HIT:   32052337  MISS:   90390997
L2C LOAD      ACCESS:   69122024  HIT:   24693368  MISS:   44428656
L2C RFO       ACCESS:    3146581  HIT:     359410  MISS:    2787171
L2C PREFETCH  ACCESS:   45054703  HIT:    1889416  MISS:   43165287
L2C WRITEBACK ACCESS:    5120026  HIT:    5110143  MISS:       9883

L2C Best-offset prefetcher final stats
LLC TOTAL     ACCESS:   99122813  HIT:   65606954  MISS:   33515859
LLC LOAD      ACCESS:   43662835  HIT:   36415503  MISS:    7247332
LLC RFO       ACCESS:    2787161  HIT:    2771067  MISS:      16094
LLC PREFETCH  ACCESS:   48221117  HIT:   21969317  MISS:   26251800
LLC WRITEBACK ACCESS:    4451700  HIT:    4451067  MISS:        633

CPU 2 cumulative IPC: 0.759213 instructions: 2482800417 cycles: 3270228042
L1D TOTAL     ACCESS:  730378410  HIT:  708516400  MISS:   21862010
L1D LOAD      ACCESS:  536275152  HIT:  515402326  MISS:   20872826
L1D RFO       ACCESS:  194103258  HIT:  193114074  MISS:     989184
L1D PREFETCH  ACCESS:          0  HIT:          0  MISS:          0
L1D WRITEBACK ACCESS:          0  HIT:          0  MISS:          0
L1I TOTAL     ACCESS:  853706950  HIT:  853704057  MISS:       2893
L1I LOAD      ACCESS:  853706950  HIT:  853704057  MISS:       2893
L1I RFO       ACCESS:          0  HIT:          0  MISS:          0
L1I PREFETCH  ACCESS:          0  HIT:          0  MISS:          0
L1I WRITEBACK ACCESS:          0  HIT:          0  MISS:          0
L2C TOTAL     ACCESS:   39306929  HIT:   25619641  MISS:   13687288
L2C LOAD      ACCESS:   20874222  HIT:   19855607  MISS:    1018615
L2C RFO       ACCESS:     988290  HIT:     714428  MISS:     273862
L2C PREFETCH  ACCESS:   12426598  HIT:      36625  MISS:   12389973
L2C WRITEBACK ACCESS:    5017819  HIT:    5012981  MISS:       4838

L2C Best-offset prefetcher final stats
LLC TOTAL     ACCESS:   13973221  HIT:    2253986  MISS:   11719235
LLC LOAD      ACCESS:     865204  HIT:     143892  MISS:     721312
LLC RFO       ACCESS:     273862  HIT:      23996  MISS:     249866
LLC PREFETCH  ACCESS:   12552550  HIT:    1962397  MISS:   10590153
LLC WRITEBACK ACCESS:     281605  HIT:     123701  MISS:     157904

CPU 3 cumulative IPC: 0.650123 instructions: 2126049809 cycles: 3270228042
L1D TOTAL     ACCESS:  452667320  HIT:  437231193  MISS:   15436127
L1D LOAD      ACCESS:  298237384  HIT:  285196482  MISS:   13040902
L1D RFO       ACCESS:  154429936  HIT:  152034711  MISS:    2395225
L1D PREFETCH  ACCESS:          0  HIT:          0  MISS:          0
L1D WRITEBACK ACCESS:          0  HIT:          0  MISS:          0
L1I TOTAL     ACCESS:  405498071  HIT:  405493379  MISS:       4692
L1I LOAD      ACCESS:  405498071  HIT:  405493379  MISS:       4692
L1I RFO       ACCESS:          0  HIT:          0  MISS:          0
L1I PREFETCH  ACCESS:          0  HIT:          0  MISS:          0
L1I WRITEBACK ACCESS:          0  HIT:          0  MISS:          0
L2C TOTAL     ACCESS:   33537861  HIT:   17470944  MISS:   16066917
L2C LOAD      ACCESS:   13045181  HIT:    5335011  MISS:    7710170
L2C RFO       ACCESS:    2393868  HIT:    1178357  MISS:    1215511
L2C PREFETCH  ACCESS:    7901557  HIT:     818558  MISS:    7082999
L2C WRITEBACK ACCESS:   10197255  HIT:   10139018  MISS:      58237

L2C Best-offset prefetcher final stats
LLC TOTAL     ACCESS:   22749902  HIT:   12478859  MISS:   10271043
LLC LOAD      ACCESS:    7684277  HIT:    2997770  MISS:    4686507
LLC RFO       ACCESS:    1215359  HIT:     493771  MISS:     721588
LLC PREFETCH  ACCESS:    7121593  HIT:    2428058  MISS:    4693535
LLC WRITEBACK ACCESS:    6728673  HIT:    6559260  MISS:     169413

Region of Interest Statistics

CPU 0 cumulative IPC: 0.321004 instructions: 1000000000 cycles: 3115223062
L1D TOTAL     ACCESS:  384671425  HIT:  340363782  MISS:   44307643
L1D LOAD      ACCESS:  275864535  HIT:  235440304  MISS:   40424231
L1D RFO       ACCESS:  108806890  HIT:  104923478  MISS:    3883412
L1D PREFETCH  ACCESS:          0  HIT:          0  MISS:          0
L1D WRITEBACK ACCESS:          0  HIT:          0  MISS:          0
L1D PREFETCH  REQUESTED:          0  ISSUED:          0  USEFUL:          0  USELESS:          0
L1I TOTAL     ACCESS:  242180525  HIT:  242180525  MISS:          0
L1I LOAD      ACCESS:  242180525  HIT:  242180525  MISS:          0
L1I RFO       ACCESS:          0  HIT:          0  MISS:          0
L1I PREFETCH  ACCESS:          0  HIT:          0  MISS:          0
L1I WRITEBACK ACCESS:          0  HIT:          0  MISS:          0
L1I PREFETCH  REQUESTED:          0  ISSUED:          0  USEFUL:          0  USELESS:          0
L2C TOTAL     ACCESS:   74237133  HIT:   26978531  MISS:   47258602
L2C LOAD      ACCESS:   40424143  HIT:   18676054  MISS:   21748089
L2C RFO       ACCESS:    3883310  HIT:     729298  MISS:    3154012
L2C PREFETCH  ACCESS:   23958370  HIT:    1613044  MISS:   22345326
L2C WRITEBACK ACCESS:    5971310  HIT:    5960135  MISS:      11175
L2C PREFETCH  REQUESTED:   31625703  ISSUED:   31625703  USEFUL:   10796499  USELESS:   17147647
LLC TOTAL     ACCESS:   52988406  HIT:   33944624  MISS:   19043782
LLC LOAD      ACCESS:   21568129  HIT:   16298599  MISS:    5269530
LLC RFO       ACCESS:    3153969  HIT:    3131933  MISS:      22036
LLC PREFETCH  ACCESS:   23710476  HIT:    9959326  MISS:   13751150
LLC WRITEBACK ACCESS:    4555832  HIT:    4554766  MISS:       1066
LLC PREFETCH  REQUESTED:          0  ISSUED:          0  USEFUL:    5780319  USELESS:   61560100
Major fault: 0 Minor fault: 178896

CPU 1 cumulative IPC: 0.305789 instructions: 1000000000 cycles: 3270228042
L1D TOTAL     ACCESS:  342969709  HIT:  270700740  MISS:   72268969
L1D LOAD      ACCESS:  260240120  HIT:  191117783  MISS:   69122337
L1D RFO       ACCESS:   82729589  HIT:   79582957  MISS:    3146632
L1D PREFETCH  ACCESS:          0  HIT:          0  MISS:          0
L1D WRITEBACK ACCESS:          0  HIT:          0  MISS:          0
L1D PREFETCH  REQUESTED:          0  ISSUED:          0  USEFUL:          0  USELESS:          0
L1I TOTAL     ACCESS:  234058241  HIT:  234058239  MISS:          2
L1I LOAD      ACCESS:  234058241  HIT:  234058239  MISS:          2
L1I RFO       ACCESS:          0  HIT:          0  MISS:          0
L1I PREFETCH  ACCESS:          0  HIT:          0  MISS:          0
L1I WRITEBACK ACCESS:          0  HIT:          0  MISS:          0
L1I PREFETCH  REQUESTED:          0  ISSUED:          0  USEFUL:          0  USELESS:          0
L2C TOTAL     ACCESS:  122443334  HIT:   32052337  MISS:   90390997
L2C LOAD      ACCESS:   69122024  HIT:   24693368  MISS:   44428656
L2C RFO       ACCESS:    3146581  HIT:     359410  MISS:    2787171
L2C PREFETCH  ACCESS:   45054703  HIT:    1889416  MISS:   43165287
L2C WRITEBACK ACCESS:    5120026  HIT:    5110143  MISS:       9883
L2C PREFETCH  REQUESTED:   60336928  ISSUED:   60336928  USEFUL:   20812341  USELESS:   31846592
LLC TOTAL     ACCESS:   99122813  HIT:   65606954  MISS:   33515859
LLC LOAD      ACCESS:   43662835  HIT:   36415503  MISS:    7247332
LLC RFO       ACCESS:    2787161  HIT:    2771067  MISS:      16094
LLC PREFETCH  ACCESS:   48221117  HIT:   21969317  MISS:   26251800
LLC WRITEBACK ACCESS:    4451700  HIT:    4451067  MISS:        633
LLC PREFETCH  REQUESTED:          0  ISSUED:          0  USEFUL:    5780319  USELESS:   61560100
Major fault: 0 Minor fault: 393671

CPU 2 cumulative IPC: 0.745838 instructions: 1000000000 cycles: 1340774351
L1D TOTAL     ACCESS:  294607585  HIT:  286429211  MISS:    8178374
L1D LOAD      ACCESS:  213426345  HIT:  205665723  MISS:    7760622
L1D RFO       ACCESS:   81181240  HIT:   80763488  MISS:     417752
L1D PREFETCH  ACCESS:          0  HIT:          0  MISS:          0
L1D WRITEBACK ACCESS:          0  HIT:          0  MISS:          0
L1D PREFETCH  REQUESTED:          0  ISSUED:          0  USEFUL:          0  USELESS:          0
L1I TOTAL     ACCESS:  349955574  HIT:  349954134  MISS:       1440
L1I LOAD      ACCESS:  349955574  HIT:  349954134  MISS:       1440
L1I RFO       ACCESS:          0  HIT:          0  MISS:          0
L1I PREFETCH  ACCESS:          0  HIT:          0  MISS:          0
L1I WRITEBACK ACCESS:          0  HIT:          0  MISS:          0
L1I PREFETCH  REQUESTED:          0  ISSUED:          0  USEFUL:          0  USELESS:          0
L2C TOTAL     ACCESS:   14658381  HIT:    9615304  MISS:    5043077
L2C LOAD      ACCESS:    7761426  HIT:    7394392  MISS:     367034
L2C RFO       ACCESS:     417426  HIT:     306462  MISS:     110964
L2C PREFETCH  ACCESS:    4576679  HIT:      14009  MISS:    4562670
L2C WRITEBACK ACCESS:    1902850  HIT:    1900441  MISS:       2409
L2C PREFETCH  REQUESTED:   15915712  ISSUED:   15915712  USEFUL:   15204234  USELESS:     488433
LLC TOTAL     ACCESS:    5156673  HIT:     823260  MISS:    4333413
LLC LOAD      ACCESS:     319421  HIT:      51813  MISS:     267608
LLC RFO       ACCESS:     110964  HIT:      10134  MISS:     100830
LLC PREFETCH  ACCESS:    4612982  HIT:     713997  MISS:    3898985
LLC WRITEBACK ACCESS:     113306  HIT:      47316  MISS:      65990
LLC PREFETCH  REQUESTED:          0  ISSUED:          0  USEFUL:    5780319  USELESS:   61560100
Major fault: 0 Minor fault: 213839

CPU 3 cumulative IPC: 0.694497 instructions: 1000000003 cycles: 1439891283
L1D TOTAL     ACCESS:  215765672  HIT:  209547660  MISS:    6218012
L1D LOAD      ACCESS:  142590196  HIT:  137301483  MISS:    5288713
L1D RFO       ACCESS:   73175476  HIT:   72246177  MISS:     929299
L1D PREFETCH  ACCESS:          0  HIT:          0  MISS:          0
L1D WRITEBACK ACCESS:          0  HIT:          0  MISS:          0
L1D PREFETCH  REQUESTED:          0  ISSUED:          0  USEFUL:          0  USELESS:          0
L1I TOTAL     ACCESS:  192487130  HIT:  192484889  MISS:       2241
L1I LOAD      ACCESS:  192487130  HIT:  192484889  MISS:       2241
L1I RFO       ACCESS:          0  HIT:          0  MISS:          0
L1I PREFETCH  ACCESS:          0  HIT:          0  MISS:          0
L1I WRITEBACK ACCESS:          0  HIT:          0  MISS:          0
L1I PREFETCH  REQUESTED:          0  ISSUED:          0  USEFUL:          0  USELESS:          0
L2C TOTAL     ACCESS:   13001685  HIT:    7196827  MISS:    5804858
L2C LOAD      ACCESS:    5290754  HIT:    2330569  MISS:    2960185
L2C RFO       ACCESS:     928874  HIT:     510241  MISS:     418633
L2C PREFETCH  ACCESS:    2687082  HIT:     285680  MISS:    2401402
L2C WRITEBACK ACCESS:    4094975  HIT:    4070337  MISS:      24638
L2C PREFETCH  REQUESTED:    8979686  ISSUED:    8979686  USEFUL:    1075797  USELESS:    6867062
LLC TOTAL     ACCESS:    8235644  HIT:    4466819  MISS:    3768825
LLC LOAD      ACCESS:    2954026  HIT:    1166535  MISS:    1787491
LLC RFO       ACCESS:     418578  HIT:     128248  MISS:     290330
LLC PREFETCH  ACCESS:    2414503  HIT:     820087  MISS:    1594416
LLC WRITEBACK ACCESS:    2448537  HIT:    2351949  MISS:      96588
LLC PREFETCH  REQUESTED:          0  ISSUED:          0  USEFUL:    5780319  USELESS:   61560100
Major fault: 0 Minor fault: 12493

L2C Best-offset prefetcher final stats

L2C Best-offset prefetcher final stats

L2C Best-offset prefetcher final stats

L2C Best-offset prefetcher final stats

DRAM Statistics
 CHANNEL 0
 RQ ROW_BUFFER_HIT:   17780953  ROW_BUFFER_MISS:   19892696
 DBUS_CONGESTED:   34286864
 WQ ROW_BUFFER_HIT:      67002  ROW_BUFFER_MISS:    2601954  FULL:          0

 CHANNEL 1
 RQ ROW_BUFFER_HIT:   17781174  ROW_BUFFER_MISS:   19907145
 DBUS_CONGESTED:   34286864
 WQ ROW_BUFFER_HIT:      66201  ROW_BUFFER_MISS:    2568303  FULL:          0

 AVG_CONGESTED_CYCLE: 12
