
*** ChampSim Multicore Out-of-Order Simulator ***

Warmup Instructions: 20000000
Simulation Instructions: 100000000
Number of CPUs: 8
LLC sets: 16384
LLC ways: 16
Off-chip DRAM Size: 8192 MB Channels: 2 Width: 64-bit Data Rate: 1600 MT/s

CPU 0 runs /scratch/user/djimenez/champsim-traces/speccpu2017/xz/605.mcf_s/605.mcf_s-1536B.champsimtrace.xz
CPU 1 runs /scratch/user/djimenez/champsim-traces/speccpu2017/xz/619.lbm_s/619.lbm_s-3766B.champsimtrace.xz
CPU 2 runs /scratch/user/djimenez/champsim-traces/speccpu2017/xz/602.gcc_s/602.gcc_s-734B.champsimtrace.xz
CPU 3 runs /scratch/user/djimenez/champsim-traces/speccpu2017/xz/605.mcf_s/605.mcf_s-665B.champsimtrace.xz
CPU 4 runs /scratch/user/djimenez/champsim-traces/speccpu2017/xz/654.roms_s/654.roms_s-294B.champsimtrace.xz
CPU 5 runs /scratch/user/djimenez/champsim-traces/speccpu2017/xz/603.bwaves_s/603.bwaves_s-1740B.champsimtrace.xz
CPU 6 runs /scratch/user/djimenez/champsim-traces/speccpu2017/xz/623.xalancbmk_s/623.xalancbmk_s-325B.champsimtrace.xz
CPU 7 runs /scratch/user/djimenez/champsim-traces/speccpu2017/xz/621.wrf_s/621.wrf_s-6673B.champsimtrace.xz
L2C Best-offset prefetcher
L2C Best-offset prefetcher
L2C Best-offset prefetcher
L2C Best-offset prefetcher
L2C Best-offset prefetcher
L2C Best-offset prefetcher
L2C Best-offset prefetcher
L2C Best-offset prefetcher
Heartbeat CPU 0 instructions: 10000002 cycles: 3657693 heartbeat IPC: 2.73396 cumulative IPC: 2.73396 (Simulation time: 0 hr 3 min 45 sec) 
Heartbeat CPU 1 instructions: 10000000 cycles: 4276611 heartbeat IPC: 2.3383 cumulative IPC: 2.3383 (Simulation time: 0 hr 4 min 24 sec) 
Heartbeat CPU 4 instructions: 10000003 cycles: 4879354 heartbeat IPC: 2.04945 cumulative IPC: 2.04945 (Simulation time: 0 hr 5 min 0 sec) 
Heartbeat CPU 5 instructions: 10000001 cycles: 5273904 heartbeat IPC: 1.89613 cumulative IPC: 1.89613 (Simulation time: 0 hr 5 min 24 sec) 
Heartbeat CPU 7 instructions: 10000001 cycles: 5375016 heartbeat IPC: 1.86046 cumulative IPC: 1.86046 (Simulation time: 0 hr 5 min 30 sec) 
Heartbeat CPU 2 instructions: 10000000 cycles: 5381822 heartbeat IPC: 1.85811 cumulative IPC: 1.85811 (Simulation time: 0 hr 5 min 30 sec) 
Heartbeat CPU 6 instructions: 10000000 cycles: 6130106 heartbeat IPC: 1.63129 cumulative IPC: 1.63129 (Simulation time: 0 hr 6 min 23 sec) 
Heartbeat CPU 3 instructions: 10000001 cycles: 6521386 heartbeat IPC: 1.53342 cumulative IPC: 1.53342 (Simulation time: 0 hr 6 min 49 sec) 
Heartbeat CPU 0 instructions: 20000000 cycles: 7309706 heartbeat IPC: 2.73822 cumulative IPC: 2.73609 (Simulation time: 0 hr 7 min 38 sec) 
Heartbeat CPU 1 instructions: 20000000 cycles: 8563613 heartbeat IPC: 2.33263 cumulative IPC: 2.33546 (Simulation time: 0 hr 9 min 3 sec) 
Heartbeat CPU 7 instructions: 20000000 cycles: 9444991 heartbeat IPC: 2.45702 cumulative IPC: 2.11752 (Simulation time: 0 hr 10 min 0 sec) 
Heartbeat CPU 4 instructions: 20000000 cycles: 9758388 heartbeat IPC: 2.04959 cumulative IPC: 2.04952 (Simulation time: 0 hr 10 min 22 sec) 
Heartbeat CPU 5 instructions: 20000000 cycles: 10550146 heartbeat IPC: 1.89529 cumulative IPC: 1.89571 (Simulation time: 0 hr 11 min 8 sec) 
Heartbeat CPU 2 instructions: 20000000 cycles: 10780863 heartbeat IPC: 1.85218 cumulative IPC: 1.85514 (Simulation time: 0 hr 11 min 25 sec) 
Heartbeat CPU 0 instructions: 30000002 cycles: 10975882 heartbeat IPC: 2.72764 cumulative IPC: 0.911089 (Simulation time: 0 hr 11 min 39 sec) 
Heartbeat CPU 6 instructions: 20000000 cycles: 12347254 heartbeat IPC: 1.60845 cumulative IPC: 1.61979 (Simulation time: 0 hr 12 min 56 sec) 
Heartbeat CPU 1 instructions: 30000001 cycles: 12841767 heartbeat IPC: 2.33746 cumulative IPC: 0.778709 (Simulation time: 0 hr 13 min 26 sec) 
Heartbeat CPU 3 instructions: 20000000 cycles: 13032074 heartbeat IPC: 1.53594 cumulative IPC: 1.53468 (Simulation time: 0 hr 13 min 39 sec) 

Warmup complete CPU 0 instructions: 35603366 cycles: 13032076 (Simulation time: 0 hr 13 min 39 sec) 
Warmup complete CPU 1 instructions: 30444802 cycles: 13032076 (Simulation time: 0 hr 13 min 39 sec) 
Warmup complete CPU 2 instructions: 24190960 cycles: 13032076 (Simulation time: 0 hr 13 min 39 sec) 
Warmup complete CPU 3 instructions: 20000001 cycles: 13032076 (Simulation time: 0 hr 13 min 39 sec) 
Warmup complete CPU 4 instructions: 26709681 cycles: 13032075 (Simulation time: 0 hr 13 min 39 sec) 
Warmup complete CPU 5 instructions: 24705303 cycles: 13032075 (Simulation time: 0 hr 13 min 39 sec) 
Warmup complete CPU 6 instructions: 21059338 cycles: 13032075 (Simulation time: 0 hr 13 min 39 sec) 
Warmup complete CPU 7 instructions: 29583156 cycles: 13032075 (Simulation time: 0 hr 13 min 39 sec) 

Heartbeat CPU 7 instructions: 30000000 cycles: 13527335 heartbeat IPC: 2.44957 cumulative IPC: 0.841667 (Simulation time: 0 hr 13 min 50 sec) 
Heartbeat CPU 4 instructions: 30000002 cycles: 17398008 heartbeat IPC: 1.30897 cumulative IPC: 0.753635 (Simulation time: 0 hr 15 min 29 sec) 
Heartbeat CPU 5 instructions: 30000003 cycles: 19164110 heartbeat IPC: 1.16091 cumulative IPC: 0.863449 (Simulation time: 0 hr 16 min 6 sec) 
Heartbeat CPU 1 instructions: 40000000 cycles: 24604593 heartbeat IPC: 0.850136 cumulative IPC: 0.82568 (Simulation time: 0 hr 18 min 11 sec) 
Heartbeat CPU 5 instructions: 40000000 cycles: 32070990 heartbeat IPC: 0.77478 cumulative IPC: 0.803339 (Simulation time: 0 hr 20 min 59 sec) 
Heartbeat CPU 2 instructions: 30000003 cycles: 32778636 heartbeat IPC: 0.454592 cumulative IPC: 0.29418 (Simulation time: 0 hr 21 min 15 sec) 
Heartbeat CPU 4 instructions: 40000000 cycles: 32817797 heartbeat IPC: 0.648517 cumulative IPC: 0.671713 (Simulation time: 0 hr 21 min 16 sec) 
Heartbeat CPU 7 instructions: 40000000 cycles: 33000201 heartbeat IPC: 0.513535 cumulative IPC: 0.521674 (Simulation time: 0 hr 21 min 20 sec) 
Heartbeat CPU 6 instructions: 30000001 cycles: 37324943 heartbeat IPC: 0.400357 cumulative IPC: 0.368037 (Simulation time: 0 hr 22 min 49 sec) 
Heartbeat CPU 1 instructions: 50000003 cycles: 37546124 heartbeat IPC: 0.772706 cumulative IPC: 0.797714 (Simulation time: 0 hr 22 min 54 sec) 
Heartbeat CPU 5 instructions: 50000003 cycles: 44497281 heartbeat IPC: 0.804746 cumulative IPC: 0.803894 (Simulation time: 0 hr 25 min 20 sec) 
Heartbeat CPU 0 instructions: 40000000 cycles: 45522438 heartbeat IPC: 0.289464 cumulative IPC: 0.135321 (Simulation time: 0 hr 25 min 43 sec) 
Heartbeat CPU 4 instructions: 50000001 cycles: 46414446 heartbeat IPC: 0.735475 cumulative IPC: 0.697683 (Simulation time: 0 hr 26 min 2 sec) 
Heartbeat CPU 7 instructions: 50000003 cycles: 47371678 heartbeat IPC: 0.695823 cumulative IPC: 0.594557 (Simulation time: 0 hr 26 min 22 sec) 
Heartbeat CPU 1 instructions: 60000000 cycles: 49161005 heartbeat IPC: 0.860964 cumulative IPC: 0.818048 (Simulation time: 0 hr 27 min 1 sec) 
Heartbeat CPU 3 instructions: 30000001 cycles: 51790624 heartbeat IPC: 0.258008 cumulative IPC: 0.258008 (Simulation time: 0 hr 27 min 57 sec) 
Heartbeat CPU 5 instructions: 60000000 cycles: 56683605 heartbeat IPC: 0.820592 cumulative IPC: 0.808556 (Simulation time: 0 hr 29 min 48 sec) 
Heartbeat CPU 4 instructions: 60000000 cycles: 59588644 heartbeat IPC: 0.759059 cumulative IPC: 0.715051 (Simulation time: 0 hr 30 min 58 sec) 
Heartbeat CPU 1 instructions: 70000003 cycles: 60944215 heartbeat IPC: 0.848665 cumulative IPC: 0.825578 (Simulation time: 0 hr 31 min 28 sec) 
Heartbeat CPU 6 instructions: 40000000 cycles: 62203419 heartbeat IPC: 0.401954 cumulative IPC: 0.385197 (Simulation time: 0 hr 31 min 56 sec) 
Heartbeat CPU 7 instructions: 60000000 cycles: 62448577 heartbeat IPC: 0.663266 cumulative IPC: 0.61552 (Simulation time: 0 hr 32 min 1 sec) 
Heartbeat CPU 2 instructions: 40000000 cycles: 65615719 heartbeat IPC: 0.304534 cumulative IPC: 0.300646 (Simulation time: 0 hr 33 min 10 sec) 
Heartbeat CPU 5 instructions: 70000001 cycles: 67792391 heartbeat IPC: 0.900188 cumulative IPC: 0.827145 (Simulation time: 0 hr 33 min 59 sec) 
Heartbeat CPU 1 instructions: 80000000 cycles: 72302419 heartbeat IPC: 0.880421 cumulative IPC: 0.836088 (Simulation time: 0 hr 35 min 44 sec) 
Heartbeat CPU 4 instructions: 70000000 cycles: 72482243 heartbeat IPC: 0.775579 cumulative IPC: 0.728178 (Simulation time: 0 hr 35 min 49 sec) 
Heartbeat CPU 6 instructions: 50000001 cycles: 78991535 heartbeat IPC: 0.595659 cumulative IPC: 0.438764 (Simulation time: 0 hr 38 min 19 sec) 
Heartbeat CPU 5 instructions: 80000000 cycles: 79678744 heartbeat IPC: 0.841301 cumulative IPC: 0.829669 (Simulation time: 0 hr 38 min 34 sec) 
Heartbeat CPU 7 instructions: 70000003 cycles: 80876310 heartbeat IPC: 0.542661 cumulative IPC: 0.59573 (Simulation time: 0 hr 39 min 0 sec) 
Heartbeat CPU 1 instructions: 90000000 cycles: 84443634 heartbeat IPC: 0.823641 cumulative IPC: 0.833971 (Simulation time: 0 hr 40 min 20 sec) 
Heartbeat CPU 4 instructions: 80000000 cycles: 86399754 heartbeat IPC: 0.718519 cumulative IPC: 0.726346 (Simulation time: 0 hr 41 min 5 sec) 
Heartbeat CPU 3 instructions: 40000000 cycles: 90015475 heartbeat IPC: 0.26161 cumulative IPC: 0.259796 (Simulation time: 0 hr 42 min 24 sec) 
Heartbeat CPU 5 instructions: 90000000 cycles: 90883811 heartbeat IPC: 0.892453 cumulative IPC: 0.838706 (Simulation time: 0 hr 42 min 44 sec) 
Heartbeat CPU 7 instructions: 80000000 cycles: 94745392 heartbeat IPC: 0.721028 cumulative IPC: 0.616997 (Simulation time: 0 hr 44 min 8 sec) 
Heartbeat CPU 1 instructions: 100000000 cycles: 95809440 heartbeat IPC: 0.879832 cumulative IPC: 0.840268 (Simulation time: 0 hr 44 min 31 sec) 
Heartbeat CPU 6 instructions: 60000000 cycles: 97174448 heartbeat IPC: 0.549967 cumulative IPC: 0.462795 (Simulation time: 0 hr 45 min 1 sec) 
Heartbeat CPU 2 instructions: 50000000 cycles: 97632598 heartbeat IPC: 0.312335 cumulative IPC: 0.30507 (Simulation time: 0 hr 45 min 11 sec) 
Heartbeat CPU 4 instructions: 90000000 cycles: 99766298 heartbeat IPC: 0.748137 cumulative IPC: 0.729704 (Simulation time: 0 hr 46 min 2 sec) 
Heartbeat CPU 5 instructions: 100000000 cycles: 102051973 heartbeat IPC: 0.895402 cumulative IPC: 0.845819 (Simulation time: 0 hr 46 min 52 sec) 
Heartbeat CPU 1 instructions: 110000001 cycles: 107929476 heartbeat IPC: 0.82508 cumulative IPC: 0.838329 (Simulation time: 0 hr 48 min 59 sec) 
Heartbeat CPU 7 instructions: 90000003 cycles: 111355607 heartbeat IPC: 0.602039 cumulative IPC: 0.61447 (Simulation time: 0 hr 50 min 11 sec) 
Heartbeat CPU 4 instructions: 100000000 cycles: 113057939 heartbeat IPC: 0.752353 cumulative IPC: 0.732714 (Simulation time: 0 hr 50 min 47 sec) 
Heartbeat CPU 5 instructions: 110000000 cycles: 113103380 heartbeat IPC: 0.904862 cumulative IPC: 0.852339 (Simulation time: 0 hr 50 min 48 sec) 
Heartbeat CPU 0 instructions: 50000003 cycles: 113989630 heartbeat IPC: 0.146055 cumulative IPC: 0.142601 (Simulation time: 0 hr 51 min 9 sec) 
Heartbeat CPU 1 instructions: 120000000 cycles: 120310976 heartbeat IPC: 0.807657 cumulative IPC: 0.834789 (Simulation time: 0 hr 53 min 35 sec) 
Heartbeat CPU 5 instructions: 120000000 cycles: 124885599 heartbeat IPC: 0.848737 cumulative IPC: 0.85196 (Simulation time: 0 hr 55 min 6 sec) 
Heartbeat CPU 6 instructions: 70000000 cycles: 126294387 heartbeat IPC: 0.343407 cumulative IPC: 0.4321 (Simulation time: 0 hr 55 min 33 sec) 
Heartbeat CPU 4 instructions: 110000002 cycles: 127317378 heartbeat IPC: 0.70129 cumulative IPC: 0.728793 (Simulation time: 0 hr 55 min 54 sec) 
Heartbeat CPU 3 instructions: 50000003 cycles: 127479966 heartbeat IPC: 0.266919 cumulative IPC: 0.262128 (Simulation time: 0 hr 55 min 57 sec) 
Heartbeat CPU 2 instructions: 60000000 cycles: 130344369 heartbeat IPC: 0.3057 cumulative IPC: 0.305245 (Simulation time: 0 hr 56 min 52 sec) 
Finished CPU 5 instructions: 100000001 cycles: 117404503 cumulative IPC: 0.851756 (Simulation time: 0 hr 56 min 53 sec) 
Heartbeat CPU 7 instructions: 100000000 cycles: 134001128 heartbeat IPC: 0.441588 cumulative IPC: 0.582106 (Simulation time: 0 hr 58 min 0 sec) 
Heartbeat CPU 1 instructions: 130000000 cycles: 135583905 heartbeat IPC: 0.654753 cumulative IPC: 0.812352 (Simulation time: 0 hr 58 min 33 sec) 
Finished CPU 1 instructions: 100000002 cycles: 123187492 cumulative IPC: 0.811771 (Simulation time: 0 hr 58 min 47 sec) 
Heartbeat CPU 5 instructions: 130000003 cycles: 137239450 heartbeat IPC: 0.809464 cumulative IPC: 0.847733 (Simulation time: 0 hr 59 min 10 sec) 
Heartbeat CPU 4 instructions: 120000000 cycles: 141140402 heartbeat IPC: 0.723431 cumulative IPC: 0.728214 (Simulation time: 1 hr 0 min 34 sec) 
Heartbeat CPU 7 instructions: 110000001 cycles: 142978341 heartbeat IPC: 1.11393 cumulative IPC: 0.618847 (Simulation time: 1 hr 1 min 15 sec) 
Heartbeat CPU 5 instructions: 140000000 cycles: 149111710 heartbeat IPC: 0.842299 cumulative IPC: 0.847259 (Simulation time: 1 hr 3 min 28 sec) 
Finished CPU 4 instructions: 100000000 cycles: 136517881 cumulative IPC: 0.732505 (Simulation time: 1 hr 3 min 36 sec) 
Heartbeat CPU 1 instructions: 140000000 cycles: 150975649 heartbeat IPC: 0.649699 cumulative IPC: 0.794203 (Simulation time: 1 hr 4 min 4 sec) 
Heartbeat CPU 7 instructions: 120000000 cycles: 154251836 heartbeat IPC: 0.887036 cumulative IPC: 0.640256 (Simulation time: 1 hr 5 min 11 sec) 
Heartbeat CPU 4 instructions: 130000000 cycles: 154272383 heartbeat IPC: 0.7615 cumulative IPC: 0.731309 (Simulation time: 1 hr 5 min 11 sec) 
Heartbeat CPU 6 instructions: 80000000 cycles: 156846871 heartbeat IPC: 0.327306 cumulative IPC: 0.409837 (Simulation time: 1 hr 6 min 7 sec) 
Heartbeat CPU 5 instructions: 150000001 cycles: 160509435 heartbeat IPC: 0.877368 cumulative IPC: 0.849586 (Simulation time: 1 hr 7 min 26 sec) 
Finished CPU 7 instructions: 100000002 cycles: 149672578 cumulative IPC: 0.668125 (Simulation time: 1 hr 8 min 15 sec) 
Heartbeat CPU 7 instructions: 130000001 cycles: 163114401 heartbeat IPC: 1.12834 cumulative IPC: 0.669078 (Simulation time: 1 hr 8 min 23 sec) 
Heartbeat CPU 2 instructions: 70000001 cycles: 163470563 heartbeat IPC: 0.301876 cumulative IPC: 0.304503 (Simulation time: 1 hr 8 min 31 sec) 
Heartbeat CPU 3 instructions: 60000000 cycles: 165811471 heartbeat IPC: 0.260882 cumulative IPC: 0.261815 (Simulation time: 1 hr 9 min 19 sec) 
Heartbeat CPU 4 instructions: 140000000 cycles: 167464598 heartbeat IPC: 0.758023 cumulative IPC: 0.733591 (Simulation time: 1 hr 9 min 59 sec) 
Heartbeat CPU 1 instructions: 150000001 cycles: 168756082 heartbeat IPC: 0.562416 cumulative IPC: 0.767738 (Simulation time: 1 hr 10 min 28 sec) 
Heartbeat CPU 5 instructions: 160000000 cycles: 171736036 heartbeat IPC: 0.890741 cumulative IPC: 0.852497 (Simulation time: 1 hr 11 min 37 sec) 
Heartbeat CPU 7 instructions: 140000000 cycles: 174456918 heartbeat IPC: 0.881638 cumulative IPC: 0.684014 (Simulation time: 1 hr 12 min 38 sec) 
Heartbeat CPU 4 instructions: 150000000 cycles: 181142099 heartbeat IPC: 0.731128 cumulative IPC: 0.733391 (Simulation time: 1 hr 15 min 13 sec) 
Heartbeat CPU 5 instructions: 170000000 cycles: 182958505 heartbeat IPC: 0.89107 cumulative IPC: 0.855045 (Simulation time: 1 hr 15 min 55 sec) 
Heartbeat CPU 0 instructions: 60000000 cycles: 184340459 heartbeat IPC: 0.142145 cumulative IPC: 0.142414 (Simulation time: 1 hr 16 min 25 sec) 
Heartbeat CPU 7 instructions: 150000000 cycles: 184679047 heartbeat IPC: 0.97827 cumulative IPC: 0.701538 (Simulation time: 1 hr 16 min 32 sec) 
Heartbeat CPU 6 instructions: 90000002 cycles: 186224082 heartbeat IPC: 0.3404 cumulative IPC: 0.398059 (Simulation time: 1 hr 17 min 6 sec) 
Heartbeat CPU 1 instructions: 160000000 cycles: 190329323 heartbeat IPC: 0.463537 cumulative IPC: 0.730723 (Simulation time: 1 hr 18 min 41 sec) 
Heartbeat CPU 5 instructions: 180000000 cycles: 194272993 heartbeat IPC: 0.883823 cumulative IPC: 0.856841 (Simulation time: 1 hr 20 min 9 sec) 
Heartbeat CPU 7 instructions: 160000000 cycles: 194884538 heartbeat IPC: 0.979865 cumulative IPC: 0.717157 (Simulation time: 1 hr 20 min 21 sec) 
Heartbeat CPU 4 instructions: 160000000 cycles: 195097391 heartbeat IPC: 0.716574 cumulative IPC: 0.732102 (Simulation time: 1 hr 20 min 25 sec) 
Heartbeat CPU 2 instructions: 80000000 cycles: 195976602 heartbeat IPC: 0.307635 cumulative IPC: 0.30506 (Simulation time: 1 hr 20 min 44 sec) 
Heartbeat CPU 3 instructions: 70000000 cycles: 204204886 heartbeat IPC: 0.260461 cumulative IPC: 0.261543 (Simulation time: 1 hr 23 min 48 sec) 
Heartbeat CPU 5 instructions: 190000002 cycles: 205556920 heartbeat IPC: 0.886216 cumulative IPC: 0.858563 (Simulation time: 1 hr 24 min 16 sec) 
Heartbeat CPU 7 instructions: 170000000 cycles: 206517033 heartbeat IPC: 0.859661 cumulative IPC: 0.725725 (Simulation time: 1 hr 24 min 41 sec) 
Heartbeat CPU 4 instructions: 170000003 cycles: 208970715 heartbeat IPC: 0.720808 cumulative IPC: 0.731302 (Simulation time: 1 hr 25 min 39 sec) 
Heartbeat CPU 6 instructions: 100000000 cycles: 212478657 heartbeat IPC: 0.380886 cumulative IPC: 0.395799 (Simulation time: 1 hr 26 min 57 sec) 
Heartbeat CPU 1 instructions: 170000002 cycles: 215726412 heartbeat IPC: 0.393746 cumulative IPC: 0.688501 (Simulation time: 1 hr 28 min 9 sec) 
Heartbeat CPU 7 instructions: 180000000 cycles: 216055923 heartbeat IPC: 1.04834 cumulative IPC: 0.740883 (Simulation time: 1 hr 28 min 16 sec) 
Heartbeat CPU 5 instructions: 200000000 cycles: 217317564 heartbeat IPC: 0.850293 cumulative IPC: 0.858087 (Simulation time: 1 hr 28 min 45 sec) 
Heartbeat CPU 4 instructions: 180000000 cycles: 221630655 heartbeat IPC: 0.789893 cumulative IPC: 0.734858 (Simulation time: 1 hr 30 min 21 sec) 
Heartbeat CPU 2 instructions: 90000003 cycles: 228508156 heartbeat IPC: 0.307394 cumulative IPC: 0.305412 (Simulation time: 1 hr 32 min 47 sec) 
Heartbeat CPU 5 instructions: 210000002 cycles: 229094181 heartbeat IPC: 0.84914 cumulative IPC: 0.857599 (Simulation time: 1 hr 32 min 59 sec) 
Heartbeat CPU 7 instructions: 190000002 cycles: 231095210 heartbeat IPC: 0.664925 cumulative IPC: 0.735644 (Simulation time: 1 hr 33 min 40 sec) 
Heartbeat CPU 4 instructions: 190000001 cycles: 234904085 heartbeat IPC: 0.753385 cumulative IPC: 0.735966 (Simulation time: 1 hr 34 min 57 sec) 
Heartbeat CPU 6 instructions: 110000000 cycles: 235741221 heartbeat IPC: 0.429875 cumulative IPC: 0.399358 (Simulation time: 1 hr 35 min 16 sec) 
Heartbeat CPU 5 instructions: 220000000 cycles: 240293715 heartbeat IPC: 0.892894 cumulative IPC: 0.859339 (Simulation time: 1 hr 37 min 0 sec) 
Heartbeat CPU 3 instructions: 80000000 cycles: 241973858 heartbeat IPC: 0.264768 cumulative IPC: 0.262075 (Simulation time: 1 hr 37 min 38 sec) 
Heartbeat CPU 1 instructions: 180000000 cycles: 242221815 heartbeat IPC: 0.377424 cumulative IPC: 0.652539 (Simulation time: 1 hr 37 min 43 sec) 
Heartbeat CPU 7 instructions: 200000000 cycles: 246236662 heartbeat IPC: 0.660439 cumulative IPC: 0.730761 (Simulation time: 1 hr 39 min 13 sec) 
Heartbeat CPU 4 instructions: 200000000 cycles: 247735527 heartbeat IPC: 0.779336 cumulative IPC: 0.738337 (Simulation time: 1 hr 39 min 44 sec) 
Heartbeat CPU 6 instructions: 120000000 cycles: 250992486 heartbeat IPC: 0.655683 cumulative IPC: 0.415786 (Simulation time: 1 hr 40 min 56 sec) 
Heartbeat CPU 5 instructions: 230000002 cycles: 251548625 heartbeat IPC: 0.888501 cumulative IPC: 0.860715 (Simulation time: 1 hr 41 min 8 sec) 
Finished CPU 6 instructions: 100000001 cycles: 239742659 cumulative IPC: 0.417114 (Simulation time: 1 hr 41 min 35 sec) 
Heartbeat CPU 0 instructions: 70000002 cycles: 253994550 heartbeat IPC: 0.143567 cumulative IPC: 0.142747 (Simulation time: 1 hr 41 min 59 sec) 
Heartbeat CPU 4 instructions: 210000001 cycles: 260881409 heartbeat IPC: 0.760695 cumulative IPC: 0.739523 (Simulation time: 1 hr 44 min 10 sec) 
Heartbeat CPU 7 instructions: 210000003 cycles: 261389915 heartbeat IPC: 0.659925 cumulative IPC: 0.726439 (Simulation time: 1 hr 44 min 19 sec) 
Heartbeat CPU 5 instructions: 240000000 cycles: 262774997 heartbeat IPC: 0.89076 cumulative IPC: 0.862065 (Simulation time: 1 hr 44 min 45 sec) 
Heartbeat CPU 1 instructions: 190000000 cycles: 269277111 heartbeat IPC: 0.369613 cumulative IPC: 0.622666 (Simulation time: 1 hr 46 min 46 sec) 
Heartbeat CPU 6 instructions: 130000000 cycles: 272648242 heartbeat IPC: 0.461771 cumulative IPC: 0.419622 (Simulation time: 1 hr 47 min 49 sec) 
Heartbeat CPU 5 instructions: 250000003 cycles: 273737797 heartbeat IPC: 0.912176 cumulative IPC: 0.864172 (Simulation time: 1 hr 48 min 8 sec) 
Heartbeat CPU 4 instructions: 220000000 cycles: 273759589 heartbeat IPC: 0.776507 cumulative IPC: 0.74135 (Simulation time: 1 hr 48 min 8 sec) 
Heartbeat CPU 7 instructions: 220000000 cycles: 276777373 heartbeat IPC: 0.64988 cumulative IPC: 0.721972 (Simulation time: 1 hr 49 min 10 sec) 
Heartbeat CPU 3 instructions: 90000000 cycles: 280684787 heartbeat IPC: 0.258325 cumulative IPC: 0.261533 (Simulation time: 1 hr 50 min 23 sec) 
Heartbeat CPU 5 instructions: 260000000 cycles: 285773442 heartbeat IPC: 0.830865 cumulative IPC: 0.862703 (Simulation time: 1 hr 52 min 2 sec) 
Heartbeat CPU 4 instructions: 230000000 cycles: 288469211 heartbeat IPC: 0.679827 cumulative IPC: 0.738064 (Simulation time: 1 hr 52 min 59 sec) 
Heartbeat CPU 2 instructions: 100000000 cycles: 292727131 heartbeat IPC: 0.155717 cumulative IPC: 0.271042 (Simulation time: 1 hr 54 min 20 sec) 
Heartbeat CPU 7 instructions: 230000003 cycles: 294492539 heartbeat IPC: 0.564488 cumulative IPC: 0.71206 (Simulation time: 1 hr 54 min 53 sec) 
Heartbeat CPU 1 instructions: 200000000 cycles: 296219403 heartbeat IPC: 0.371164 cumulative IPC: 0.598739 (Simulation time: 1 hr 55 min 24 sec) 
Heartbeat CPU 5 instructions: 270000001 cycles: 297806526 heartbeat IPC: 0.831042 cumulative IPC: 0.861365 (Simulation time: 1 hr 55 min 54 sec) 
Heartbeat CPU 4 instructions: 240000000 cycles: 301396131 heartbeat IPC: 0.773579 cumulative IPC: 0.739656 (Simulation time: 1 hr 57 min 0 sec) 
Heartbeat CPU 6 instructions: 140000000 cycles: 301807298 heartbeat IPC: 0.342947 cumulative IPC: 0.41188 (Simulation time: 1 hr 57 min 7 sec) 
Heartbeat CPU 5 instructions: 280000000 cycles: 310573861 heartbeat IPC: 0.783249 cumulative IPC: 0.858013 (Simulation time: 1 hr 59 min 37 sec) 
Heartbeat CPU 4 instructions: 250000003 cycles: 316665229 heartbeat IPC: 0.654918 cumulative IPC: 0.735395 (Simulation time: 2 hr 1 min 31 sec) 
Heartbeat CPU 7 instructions: 240000000 cycles: 317087116 heartbeat IPC: 0.442584 cumulative IPC: 0.692035 (Simulation time: 2 hr 1 min 40 sec) 
Heartbeat CPU 3 instructions: 100000000 cycles: 319394333 heartbeat IPC: 0.258334 cumulative IPC: 0.261129 (Simulation time: 2 hr 2 min 25 sec) 
Heartbeat CPU 1 instructions: 210000002 cycles: 322223786 heartbeat IPC: 0.384551 cumulative IPC: 0.580724 (Simulation time: 2 hr 3 min 22 sec) 
Heartbeat CPU 5 instructions: 290000002 cycles: 322721315 heartbeat IPC: 0.823218 cumulative IPC: 0.856648 (Simulation time: 2 hr 3 min 32 sec) 
Heartbeat CPU 0 instructions: 80000000 cycles: 325160088 heartbeat IPC: 0.140517 cumulative IPC: 0.142239 (Simulation time: 2 hr 4 min 21 sec) 
Heartbeat CPU 2 instructions: 110000002 cycles: 326233240 heartbeat IPC: 0.298453 cumulative IPC: 0.273974 (Simulation time: 2 hr 4 min 43 sec) 
Heartbeat CPU 6 instructions: 150000000 cycles: 328142223 heartbeat IPC: 0.379724 cumulative IPC: 0.409192 (Simulation time: 2 hr 5 min 20 sec) 
Heartbeat CPU 4 instructions: 260000000 cycles: 329499814 heartbeat IPC: 0.779145 cumulative IPC: 0.737169 (Simulation time: 2 hr 5 min 47 sec) 
Heartbeat CPU 7 instructions: 250000003 cycles: 331598320 heartbeat IPC: 0.689123 cumulative IPC: 0.691903 (Simulation time: 2 hr 6 min 28 sec) 
Heartbeat CPU 5 instructions: 300000000 cycles: 333927437 heartbeat IPC: 0.892369 cumulative IPC: 0.857896 (Simulation time: 2 hr 7 min 14 sec) 
Heartbeat CPU 4 instructions: 270000003 cycles: 342323415 heartbeat IPC: 0.779812 cumulative IPC: 0.73883 (Simulation time: 2 hr 10 min 7 sec) 
Heartbeat CPU 1 instructions: 220000000 cycles: 344260664 heartbeat IPC: 0.453785 cumulative IPC: 0.572279 (Simulation time: 2 hr 10 min 47 sec) 
Heartbeat CPU 5 instructions: 310000001 cycles: 345199481 heartbeat IPC: 0.887151 cumulative IPC: 0.858888 (Simulation time: 2 hr 11 min 7 sec) 
Heartbeat CPU 7 instructions: 260000000 cycles: 346202076 heartbeat IPC: 0.684755 cumulative IPC: 0.691589 (Simulation time: 2 hr 11 min 27 sec) 
Heartbeat CPU 6 instructions: 160000000 cycles: 346358218 heartbeat IPC: 0.548968 cumulative IPC: 0.416831 (Simulation time: 2 hr 11 min 30 sec) 
Heartbeat CPU 4 instructions: 280000000 cycles: 354841117 heartbeat IPC: 0.798868 cumulative IPC: 0.741029 (Simulation time: 2 hr 14 min 21 sec) 
Heartbeat CPU 3 instructions: 110000000 cycles: 355773108 heartbeat IPC: 0.274886 cumulative IPC: 0.262589 (Simulation time: 2 hr 14 min 39 sec) 
Heartbeat CPU 5 instructions: 320000000 cycles: 356594310 heartbeat IPC: 0.877591 cumulative IPC: 0.859509 (Simulation time: 2 hr 14 min 56 sec) 
Heartbeat CPU 2 instructions: 120000000 cycles: 357078812 heartbeat IPC: 0.324196 cumulative IPC: 0.278477 (Simulation time: 2 hr 15 min 6 sec) 
Heartbeat CPU 7 instructions: 270000000 cycles: 361683762 heartbeat IPC: 0.645925 cumulative IPC: 0.689562 (Simulation time: 2 hr 16 min 37 sec) 
Heartbeat CPU 1 instructions: 230000003 cycles: 365689632 heartbeat IPC: 0.466658 cumulative IPC: 0.565861 (Simulation time: 2 hr 17 min 54 sec) 
Heartbeat CPU 4 instructions: 290000002 cycles: 367486156 heartbeat IPC: 0.790824 cumulative IPC: 0.742805 (Simulation time: 2 hr 18 min 30 sec) 
Heartbeat CPU 5 instructions: 330000003 cycles: 367818080 heartbeat IPC: 0.890966 cumulative IPC: 0.860504 (Simulation time: 2 hr 18 min 36 sec) 
Finished CPU 2 instructions: 100000000 cycles: 357001715 cumulative IPC: 0.280111 (Simulation time: 2 hr 19 min 21 sec) 
Heartbeat CPU 6 instructions: 170000000 cycles: 370404653 heartbeat IPC: 0.415862 cumulative IPC: 0.416766 (Simulation time: 2 hr 19 min 28 sec) 
Heartbeat CPU 7 instructions: 280000000 cycles: 375296273 heartbeat IPC: 0.734618 cumulative IPC: 0.691255 (Simulation time: 2 hr 21 min 3 sec) 
Heartbeat CPU 5 instructions: 340000000 cycles: 379218554 heartbeat IPC: 0.877156 cumulative IPC: 0.861022 (Simulation time: 2 hr 22 min 18 sec) 
Heartbeat CPU 4 instructions: 300000000 cycles: 380166103 heartbeat IPC: 0.788647 cumulative IPC: 0.744388 (Simulation time: 2 hr 22 min 35 sec) 
Heartbeat CPU 1 instructions: 240000000 cycles: 386431502 heartbeat IPC: 0.482116 cumulative IPC: 0.561209 (Simulation time: 2 hr 24 min 39 sec) 
Heartbeat CPU 7 instructions: 290000003 cycles: 390257208 heartbeat IPC: 0.668408 cumulative IPC: 0.690349 (Simulation time: 2 hr 25 min 55 sec) 
Heartbeat CPU 2 instructions: 130000002 cycles: 390283599 heartbeat IPC: 0.301161 cumulative IPC: 0.280473 (Simulation time: 2 hr 25 min 56 sec) 
Heartbeat CPU 5 instructions: 350000002 cycles: 390708236 heartbeat IPC: 0.870346 cumulative IPC: 0.861306 (Simulation time: 2 hr 26 min 4 sec) 
Heartbeat CPU 3 instructions: 120000000 cycles: 391749320 heartbeat IPC: 0.277961 cumulative IPC: 0.264049 (Simulation time: 2 hr 26 min 24 sec) 
Finished CPU 3 instructions: 100000001 cycles: 378717253 cumulative IPC: 0.264049 (Simulation time: 2 hr 26 min 24 sec) 
Heartbeat CPU 4 instructions: 310000002 cycles: 392758656 heartbeat IPC: 0.79412 cumulative IPC: 0.746038 (Simulation time: 2 hr 26 min 45 sec) 
Heartbeat CPU 0 instructions: 90000003 cycles: 393595804 heartbeat IPC: 0.146123 cumulative IPC: 0.142937 (Simulation time: 2 hr 27 min 2 sec) 
Heartbeat CPU 6 instructions: 180000000 cycles: 397959623 heartbeat IPC: 0.362911 cumulative IPC: 0.412911 (Simulation time: 2 hr 28 min 27 sec) 
Heartbeat CPU 5 instructions: 360000000 cycles: 401832798 heartbeat IPC: 0.898912 cumulative IPC: 0.862382 (Simulation time: 2 hr 29 min 40 sec) 
Heartbeat CPU 4 instructions: 320000000 cycles: 405676009 heartbeat IPC: 0.774152 cumulative IPC: 0.746963 (Simulation time: 2 hr 30 min 50 sec) 
Heartbeat CPU 1 instructions: 250000001 cycles: 407452453 heartbeat IPC: 0.475716 cumulative IPC: 0.556653 (Simulation time: 2 hr 31 min 23 sec) 
Heartbeat CPU 7 instructions: 300000000 cycles: 408197567 heartbeat IPC: 0.557402 cumulative IPC: 0.684313 (Simulation time: 2 hr 31 min 37 sec) 
Heartbeat CPU 5 instructions: 370000000 cycles: 412833749 heartbeat IPC: 0.909012 cumulative IPC: 0.863665 (Simulation time: 2 hr 33 min 3 sec) 
Heartbeat CPU 4 instructions: 330000001 cycles: 418771808 heartbeat IPC: 0.763604 cumulative IPC: 0.7475 (Simulation time: 2 hr 34 min 48 sec) 
Heartbeat CPU 6 instructions: 190000001 cycles: 420842767 heartbeat IPC: 0.437003 cumulative IPC: 0.414262 (Simulation time: 2 hr 35 min 25 sec) 
Heartbeat CPU 2 instructions: 140000000 cycles: 421789843 heartbeat IPC: 0.317397 cumulative IPC: 0.283319 (Simulation time: 2 hr 35 min 43 sec) 
Heartbeat CPU 5 instructions: 380000000 cycles: 424367545 heartbeat IPC: 0.867017 cumulative IPC: 0.863759 (Simulation time: 2 hr 36 min 30 sec) 
Heartbeat CPU 7 instructions: 310000001 cycles: 428228642 heartbeat IPC: 0.499224 cumulative IPC: 0.675383 (Simulation time: 2 hr 37 min 39 sec) 
Heartbeat CPU 3 instructions: 130000000 cycles: 428493705 heartbeat IPC: 0.27215 cumulative IPC: 0.264766 (Simulation time: 2 hr 37 min 44 sec) 
Heartbeat CPU 1 instructions: 260000000 cycles: 428773679 heartbeat IPC: 0.469016 cumulative IPC: 0.552158 (Simulation time: 2 hr 37 min 48 sec) 
Heartbeat CPU 4 instructions: 340000000 cycles: 432762698 heartbeat IPC: 0.714751 cumulative IPC: 0.746408 (Simulation time: 2 hr 39 min 2 sec) 
Heartbeat CPU 5 instructions: 390000001 cycles: 435819058 heartbeat IPC: 0.873247 cumulative IPC: 0.864016 (Simulation time: 2 hr 40 min 1 sec) 
Heartbeat CPU 7 instructions: 320000000 cycles: 443638942 heartbeat IPC: 0.648917 cumulative IPC: 0.674436 (Simulation time: 2 hr 42 min 33 sec) 
Heartbeat CPU 4 instructions: 350000002 cycles: 445824408 heartbeat IPC: 0.765597 cumulative IPC: 0.746987 (Simulation time: 2 hr 43 min 14 sec) 
Heartbeat CPU 5 instructions: 400000000 cycles: 447094431 heartbeat IPC: 0.886889 cumulative IPC: 0.86461 (Simulation time: 2 hr 43 min 38 sec) 
Heartbeat CPU 1 instructions: 270000000 cycles: 449271263 heartbeat IPC: 0.487862 cumulative IPC: 0.549137 (Simulation time: 2 hr 44 min 19 sec) 
Heartbeat CPU 6 instructions: 200000000 cycles: 449409882 heartbeat IPC: 0.350053 cumulative IPC: 0.410059 (Simulation time: 2 hr 44 min 21 sec) 
Heartbeat CPU 2 instructions: 150000002 cycles: 453960312 heartbeat IPC: 0.310844 cumulative IPC: 0.285328 (Simulation time: 2 hr 45 min 45 sec) 
Heartbeat CPU 5 instructions: 410000000 cycles: 459016078 heartbeat IPC: 0.83881 cumulative IPC: 0.86392 (Simulation time: 2 hr 47 min 16 sec) 
Heartbeat CPU 4 instructions: 360000000 cycles: 459205748 heartbeat IPC: 0.747309 cumulative IPC: 0.746997 (Simulation time: 2 hr 47 min 20 sec) 
Heartbeat CPU 7 instructions: 330000000 cycles: 459273839 heartbeat IPC: 0.639595 cumulative IPC: 0.673215 (Simulation time: 2 hr 47 min 21 sec) 
Heartbeat CPU 0 instructions: 100000000 cycles: 463553566 heartbeat IPC: 0.142943 cumulative IPC: 0.142938 (Simulation time: 2 hr 48 min 37 sec) 
Heartbeat CPU 3 instructions: 140000000 cycles: 466495707 heartbeat IPC: 0.263144 cumulative IPC: 0.26463 (Simulation time: 2 hr 49 min 31 sec) 
Heartbeat CPU 1 instructions: 280000000 cycles: 470409093 heartbeat IPC: 0.473085 cumulative IPC: 0.545623 (Simulation time: 2 hr 50 min 44 sec) 
Heartbeat CPU 5 instructions: 420000000 cycles: 470503133 heartbeat IPC: 0.870545 cumulative IPC: 0.864087 (Simulation time: 2 hr 50 min 46 sec) 
Heartbeat CPU 7 instructions: 340000000 cycles: 471631334 heartbeat IPC: 0.809225 cumulative IPC: 0.67688 (Simulation time: 2 hr 51 min 7 sec) 
Heartbeat CPU 4 instructions: 370000001 cycles: 472805468 heartbeat IPC: 0.735309 cumulative IPC: 0.746651 (Simulation time: 2 hr 51 min 29 sec) 
Heartbeat CPU 6 instructions: 210000003 cycles: 475308580 heartbeat IPC: 0.38612 cumulative IPC: 0.408718 (Simulation time: 2 hr 52 min 13 sec) 
Heartbeat CPU 5 instructions: 430000000 cycles: 482800322 heartbeat IPC: 0.813194 cumulative IPC: 0.862755 (Simulation time: 2 hr 54 min 17 sec) 
Heartbeat CPU 4 instructions: 380000000 cycles: 489020424 heartbeat IPC: 0.616715 cumulative IPC: 0.742225 (Simulation time: 2 hr 55 min 56 sec) 
Heartbeat CPU 2 instructions: 160000000 cycles: 489114331 heartbeat IPC: 0.284462 cumulative IPC: 0.285264 (Simulation time: 2 hr 55 min 57 sec) 
Heartbeat CPU 7 instructions: 350000000 cycles: 491678441 heartbeat IPC: 0.498825 cumulative IPC: 0.669423 (Simulation time: 2 hr 56 min 44 sec) 
Heartbeat CPU 1 instructions: 290000002 cycles: 493569804 heartbeat IPC: 0.431766 cumulative IPC: 0.540135 (Simulation time: 2 hr 57 min 20 sec) 
Heartbeat CPU 5 instructions: 440000000 cycles: 496013286 heartbeat IPC: 0.756832 cumulative IPC: 0.859857 (Simulation time: 2 hr 58 min 0 sec) 
Heartbeat CPU 6 instructions: 220000000 cycles: 500583069 heartbeat IPC: 0.395656 cumulative IPC: 0.408041 (Simulation time: 2 hr 59 min 20 sec) 
Heartbeat CPU 4 instructions: 390000001 cycles: 503649730 heartbeat IPC: 0.683559 cumulative IPC: 0.740475 (Simulation time: 3 hr 0 min 15 sec) 
Heartbeat CPU 3 instructions: 150000000 cycles: 506227445 heartbeat IPC: 0.251688 cumulative IPC: 0.263587 (Simulation time: 3 hr 1 min 3 sec) 
Heartbeat CPU 7 instructions: 360000000 cycles: 506569195 heartbeat IPC: 0.671558 cumulative IPC: 0.669487 (Simulation time: 3 hr 1 min 9 sec) 
Heartbeat CPU 5 instructions: 450000000 cycles: 508332232 heartbeat IPC: 0.811758 cumulative IPC: 0.858661 (Simulation time: 3 hr 1 min 40 sec) 
Heartbeat CPU 1 instructions: 300000000 cycles: 515900129 heartbeat IPC: 0.447821 cumulative IPC: 0.536036 (Simulation time: 3 hr 4 min 5 sec) 
Heartbeat CPU 4 instructions: 400000000 cycles: 517444502 heartbeat IPC: 0.724912 cumulative IPC: 0.74005 (Simulation time: 3 hr 4 min 34 sec) 
Heartbeat CPU 6 instructions: 230000001 cycles: 518025565 heartbeat IPC: 0.573313 cumulative IPC: 0.413749 (Simulation time: 3 hr 4 min 45 sec) 
Heartbeat CPU 5 instructions: 460000000 cycles: 520101822 heartbeat IPC: 0.849647 cumulative IPC: 0.858451 (Simulation time: 3 hr 5 min 23 sec) 
Heartbeat CPU 2 instructions: 170000003 cycles: 522489051 heartbeat IPC: 0.299628 cumulative IPC: 0.286205 (Simulation time: 3 hr 6 min 8 sec) 
Heartbeat CPU 7 instructions: 370000001 cycles: 522547300 heartbeat IPC: 0.625857 cumulative IPC: 0.668119 (Simulation time: 3 hr 6 min 9 sec) 
Heartbeat CPU 4 instructions: 410000000 cycles: 530822618 heartbeat IPC: 0.747489 cumulative IPC: 0.740242 (Simulation time: 3 hr 8 min 44 sec) 
Heartbeat CPU 5 instructions: 470000000 cycles: 531634682 heartbeat IPC: 0.867088 cumulative IPC: 0.858643 (Simulation time: 3 hr 8 min 59 sec) 
Heartbeat CPU 6 instructions: 240000000 cycles: 533752899 heartbeat IPC: 0.635836 cumulative IPC: 0.420457 (Simulation time: 3 hr 9 min 37 sec) 
Heartbeat CPU 0 instructions: 110000001 cycles: 535428446 heartbeat IPC: 0.139131 cumulative IPC: 0.142414 (Simulation time: 3 hr 10 min 5 sec) 
Heartbeat CPU 1 instructions: 310000002 cycles: 538527284 heartbeat IPC: 0.441947 cumulative IPC: 0.531984 (Simulation time: 3 hr 10 min 58 sec) 
Heartbeat CPU 7 instructions: 380000000 cycles: 542735223 heartbeat IPC: 0.495346 cumulative IPC: 0.661534 (Simulation time: 3 hr 12 min 11 sec) 
Heartbeat CPU 5 instructions: 480000000 cycles: 543498466 heartbeat IPC: 0.842901 cumulative IPC: 0.858291 (Simulation time: 3 hr 12 min 24 sec) 
Heartbeat CPU 3 instructions: 160000000 cycles: 544727647 heartbeat IPC: 0.259739 cumulative IPC: 0.263309 (Simulation time: 3 hr 12 min 46 sec) 
Heartbeat CPU 4 instructions: 420000000 cycles: 545417800 heartbeat IPC: 0.685158 cumulative IPC: 0.738732 (Simulation time: 3 hr 12 min 58 sec) 
Heartbeat CPU 6 instructions: 250000001 cycles: 555261690 heartbeat IPC: 0.464926 cumulative IPC: 0.422221 (Simulation time: 3 hr 15 min 50 sec) 
Heartbeat CPU 5 instructions: 490000003 cycles: 555286290 heartbeat IPC: 0.848333 cumulative IPC: 0.858075 (Simulation time: 3 hr 15 min 50 sec) 
Heartbeat CPU 2 instructions: 180000000 cycles: 556507817 heartbeat IPC: 0.293955 cumulative IPC: 0.28669 (Simulation time: 3 hr 16 min 8 sec) 
Heartbeat CPU 7 instructions: 390000000 cycles: 558217331 heartbeat IPC: 0.645907 cumulative IPC: 0.661091 (Simulation time: 3 hr 16 min 39 sec) 
Heartbeat CPU 4 instructions: 430000000 cycles: 559388365 heartbeat IPC: 0.715791 cumulative IPC: 0.738145 (Simulation time: 3 hr 16 min 59 sec) 
Heartbeat CPU 1 instructions: 320000000 cycles: 561359872 heartbeat IPC: 0.43797 cumulative IPC: 0.528069 (Simulation time: 3 hr 17 min 32 sec) 
Heartbeat CPU 5 instructions: 500000000 cycles: 566756257 heartbeat IPC: 0.871842 cumulative IPC: 0.85836 (Simulation time: 3 hr 19 min 0 sec) 
Heartbeat CPU 4 instructions: 440000000 cycles: 573403828 heartbeat IPC: 0.713498 cumulative IPC: 0.737529 (Simulation time: 3 hr 20 min 47 sec) 
Heartbeat CPU 7 instructions: 400000000 cycles: 574394792 heartbeat IPC: 0.618144 cumulative IPC: 0.659853 (Simulation time: 3 hr 21 min 4 sec) 
Heartbeat CPU 5 instructions: 510000002 cycles: 579206608 heartbeat IPC: 0.80319 cumulative IPC: 0.857147 (Simulation time: 3 hr 22 min 22 sec) 
Heartbeat CPU 3 instructions: 170000003 cycles: 584018942 heartbeat IPC: 0.254509 cumulative IPC: 0.262703 (Simulation time: 3 hr 23 min 32 sec) 
Heartbeat CPU 1 instructions: 330000003 cycles: 584136117 heartbeat IPC: 0.439054 cumulative IPC: 0.52452 (Simulation time: 3 hr 23 min 34 sec) 
Heartbeat CPU 6 instructions: 260000000 cycles: 586063744 heartbeat IPC: 0.324654 cumulative IPC: 0.416976 (Simulation time: 3 hr 24 min 3 sec) 
Heartbeat CPU 4 instructions: 450000001 cycles: 587161699 heartbeat IPC: 0.726857 cumulative IPC: 0.737273 (Simulation time: 3 hr 24 min 20 sec) 
Heartbeat CPU 5 instructions: 520000000 cycles: 592755898 heartbeat IPC: 0.738046 cumulative IPC: 0.854363 (Simulation time: 3 hr 25 min 50 sec) 
Heartbeat CPU 7 instructions: 410000001 cycles: 594959580 heartbeat IPC: 0.486268 cumulative IPC: 0.653719 (Simulation time: 3 hr 26 min 26 sec) 
Heartbeat CPU 4 instructions: 460000000 cycles: 600138589 heartbeat IPC: 0.770601 cumulative IPC: 0.73801 (Simulation time: 3 hr 27 min 52 sec) 
Heartbeat CPU 5 instructions: 530000003 cycles: 604545205 heartbeat IPC: 0.848227 cumulative IPC: 0.854241 (Simulation time: 3 hr 29 min 3 sec) 
Heartbeat CPU 1 instructions: 340000000 cycles: 605908821 heartbeat IPC: 0.459291 cumulative IPC: 0.522124 (Simulation time: 3 hr 29 min 26 sec) 
Heartbeat CPU 0 instructions: 120000000 cycles: 607255481 heartbeat IPC: 0.139223 cumulative IPC: 0.142028 (Simulation time: 3 hr 29 min 47 sec) 
Heartbeat CPU 6 instructions: 270000001 cycles: 612798547 heartbeat IPC: 0.374044 cumulative IPC: 0.415063 (Simulation time: 3 hr 31 min 18 sec) 
Heartbeat CPU 2 instructions: 190000001 cycles: 613097377 heartbeat IPC: 0.176711 cumulative IPC: 0.276318 (Simulation time: 3 hr 31 min 23 sec) 
Heartbeat CPU 4 instructions: 470000001 cycles: 613716190 heartbeat IPC: 0.736507 cumulative IPC: 0.737976 (Simulation time: 3 hr 31 min 33 sec) 
Heartbeat CPU 7 instructions: 420000000 cycles: 614440395 heartbeat IPC: 0.513326 cumulative IPC: 0.649171 (Simulation time: 3 hr 31 min 45 sec) 
Heartbeat CPU 5 instructions: 540000000 cycles: 616194603 heartbeat IPC: 0.858413 cumulative IPC: 0.854321 (Simulation time: 3 hr 32 min 13 sec) 
Heartbeat CPU 3 instructions: 180000000 cycles: 621512267 heartbeat IPC: 0.266714 cumulative IPC: 0.26295 (Simulation time: 3 hr 33 min 40 sec) 
Heartbeat CPU 4 instructions: 480000000 cycles: 627083202 heartbeat IPC: 0.74811 cumulative IPC: 0.738196 (Simulation time: 3 hr 35 min 11 sec) 
Heartbeat CPU 1 instructions: 350000000 cycles: 627926715 heartbeat IPC: 0.454176 cumulative IPC: 0.519691 (Simulation time: 3 hr 35 min 25 sec) 
Heartbeat CPU 5 instructions: 550000001 cycles: 628042908 heartbeat IPC: 0.844003 cumulative IPC: 0.854123 (Simulation time: 3 hr 35 min 27 sec) 
Heartbeat CPU 7 instructions: 430000002 cycles: 633077846 heartbeat IPC: 0.536554 cumulative IPC: 0.645786 (Simulation time: 3 hr 36 min 45 sec) 
Heartbeat CPU 5 instructions: 560000000 cycles: 640336153 heartbeat IPC: 0.813455 cumulative IPC: 0.853326 (Simulation time: 3 hr 38 min 46 sec) 
Heartbeat CPU 6 instructions: 280000000 cycles: 641216894 heartbeat IPC: 0.351885 cumulative IPC: 0.412205 (Simulation time: 3 hr 39 min 2 sec) 
Heartbeat CPU 4 instructions: 490000000 cycles: 641904249 heartbeat IPC: 0.674716 cumulative IPC: 0.7367 (Simulation time: 3 hr 39 min 14 sec) 
Heartbeat CPU 7 instructions: 440000000 cycles: 649574732 heartbeat IPC: 0.606175 cumulative IPC: 0.644759 (Simulation time: 3 hr 41 min 33 sec) 
Heartbeat CPU 1 instructions: 360000000 cycles: 650747189 heartbeat IPC: 0.438203 cumulative IPC: 0.516775 (Simulation time: 3 hr 41 min 53 sec) 
Heartbeat CPU 5 instructions: 570000003 cycles: 652253075 heartbeat IPC: 0.839143 cumulative IPC: 0.853061 (Simulation time: 3 hr 42 min 21 sec) 
Heartbeat CPU 2 instructions: 200000000 cycles: 654544944 heartbeat IPC: 0.241269 cumulative IPC: 0.274054 (Simulation time: 3 hr 43 min 3 sec) 
Heartbeat CPU 4 instructions: 500000000 cycles: 655711115 heartbeat IPC: 0.724277 cumulative IPC: 0.736433 (Simulation time: 3 hr 43 min 24 sec) 
Heartbeat CPU 3 instructions: 190000001 cycles: 659806488 heartbeat IPC: 0.261136 cumulative IPC: 0.262843 (Simulation time: 3 hr 44 min 34 sec) 
Heartbeat CPU 5 instructions: 580000000 cycles: 663968498 heartbeat IPC: 0.853575 cumulative IPC: 0.853071 (Simulation time: 3 hr 45 min 45 sec) 
Heartbeat CPU 6 instructions: 290000000 cycles: 665117001 heartbeat IPC: 0.418408 cumulative IPC: 0.412432 (Simulation time: 3 hr 46 min 6 sec) 
Heartbeat CPU 7 instructions: 450000000 cycles: 665891371 heartbeat IPC: 0.612871 cumulative IPC: 0.643962 (Simulation time: 3 hr 46 min 19 sec) 
Heartbeat CPU 4 instructions: 510000003 cycles: 669816030 heartbeat IPC: 0.708973 cumulative IPC: 0.735844 (Simulation time: 3 hr 47 min 27 sec) 
Heartbeat CPU 1 instructions: 370000001 cycles: 672740547 heartbeat IPC: 0.454683 cumulative IPC: 0.514705 (Simulation time: 3 hr 48 min 19 sec) 
Heartbeat CPU 5 instructions: 590000001 cycles: 675895566 heartbeat IPC: 0.838429 cumulative IPC: 0.852807 (Simulation time: 3 hr 49 min 12 sec) 
Heartbeat CPU 0 instructions: 130000002 cycles: 678782879 heartbeat IPC: 0.139807 cumulative IPC: 0.14179 (Simulation time: 3 hr 49 min 59 sec) 
Heartbeat CPU 4 instructions: 520000000 cycles: 683805674 heartbeat IPC: 0.714814 cumulative IPC: 0.735405 (Simulation time: 3 hr 51 min 22 sec) 
Heartbeat CPU 7 instructions: 460000000 cycles: 687076540 heartbeat IPC: 0.472028 cumulative IPC: 0.638559 (Simulation time: 3 hr 52 min 17 sec) 
Heartbeat CPU 5 instructions: 600000000 cycles: 687833209 heartbeat IPC: 0.837686 cumulative IPC: 0.85254 (Simulation time: 3 hr 52 min 29 sec) 
Heartbeat CPU 2 instructions: 210000003 cycles: 688505106 heartbeat IPC: 0.294463 cumulative IPC: 0.27508 (Simulation time: 3 hr 52 min 41 sec) 
Heartbeat CPU 6 instructions: 300000000 cycles: 694101333 heartbeat IPC: 0.345014 cumulative IPC: 0.409563 (Simulation time: 3 hr 54 min 11 sec) 
Heartbeat CPU 1 instructions: 380000000 cycles: 696195165 heartbeat IPC: 0.426355 cumulative IPC: 0.511672 (Simulation time: 3 hr 54 min 44 sec) 
Heartbeat CPU 4 instructions: 530000003 cycles: 699192064 heartbeat IPC: 0.649925 cumulative IPC: 0.733488 (Simulation time: 3 hr 55 min 36 sec) 
Heartbeat CPU 5 instructions: 610000000 cycles: 699601451 heartbeat IPC: 0.849745 cumulative IPC: 0.852492 (Simulation time: 3 hr 55 min 43 sec) 
Heartbeat CPU 3 instructions: 200000000 cycles: 699792461 heartbeat IPC: 0.250088 cumulative IPC: 0.2621 (Simulation time: 3 hr 55 min 46 sec) 
Heartbeat CPU 7 instructions: 470000001 cycles: 709399008 heartbeat IPC: 0.447979 cumulative IPC: 0.632449 (Simulation time: 3 hr 58 min 28 sec) 
Heartbeat CPU 5 instructions: 620000000 cycles: 712061948 heartbeat IPC: 0.802536 cumulative IPC: 0.851601 (Simulation time: 3 hr 59 min 18 sec) 
Heartbeat CPU 4 instructions: 540000000 cycles: 713845837 heartbeat IPC: 0.682418 cumulative IPC: 0.73242 (Simulation time: 3 hr 59 min 53 sec) 
Heartbeat CPU 1 instructions: 390000000 cycles: 718374598 heartbeat IPC: 0.450868 cumulative IPC: 0.50976 (Simulation time: 4 hr 1 min 22 sec) 
Heartbeat CPU 7 instructions: 480000000 cycles: 718558820 heartbeat IPC: 1.09173 cumulative IPC: 0.638412 (Simulation time: 4 hr 1 min 25 sec) 
Finished CPU 0 instructions: 100000002 cycles: 706797390 cumulative IPC: 0.141483 (Simulation time: 4 hr 1 min 49 sec) 

CPU 0 Branch Prediction Accuracy: 99.9786% MPKI: 0.0206136

CPU 1 Branch Prediction Accuracy: 97.4679% MPKI: 0.398557

CPU 2 Branch Prediction Accuracy: 99.6131% MPKI: 0.816977

CPU 3 Branch Prediction Accuracy: 89.79% MPKI: 19.6702

CPU 4 Branch Prediction Accuracy: 99.9304% MPKI: 0.0345079

CPU 5 Branch Prediction Accuracy: 99.9708% MPKI: 0.00724399

CPU 6 Branch Prediction Accuracy: 99.1886% MPKI: 1.99488

CPU 7 Branch Prediction Accuracy: 99.2828% MPKI: 0.358922

ChampSim completed all CPUs

Total Simulation Statistics (not including warmup)

CPU 0 cumulative IPC: 0.141483 instructions: 100000002 cycles: 706797390
L1D TOTAL     ACCESS:   19716791  HIT:   14255678  MISS:    5461113
L1D LOAD      ACCESS:   15282411  HIT:   10098559  MISS:    5183852
L1D RFO       ACCESS:    4434380  HIT:    4157119  MISS:     277261
L1D PREFETCH  ACCESS:          0  HIT:          0  MISS:          0
L1D WRITEBACK ACCESS:          0  HIT:          0  MISS:          0
L1I TOTAL     ACCESS:   25270912  HIT:   25270912  MISS:          0
L1I LOAD      ACCESS:   25270912  HIT:   25270912  MISS:          0
L1I RFO       ACCESS:          0  HIT:          0  MISS:          0
L1I PREFETCH  ACCESS:          0  HIT:          0  MISS:          0
L1I WRITEBACK ACCESS:          0  HIT:          0  MISS:          0
L2C TOTAL     ACCESS:    7678302  HIT:    4265429  MISS:    3412873
L2C LOAD      ACCESS:    5183851  HIT:    1990234  MISS:    3193617
L2C RFO       ACCESS:     277261  HIT:      58006  MISS:     219255
L2C PREFETCH  ACCESS:          0  HIT:          0  MISS:          0
L2C WRITEBACK ACCESS:    2217190  HIT:    2217189  MISS:          1

L2C Best-offset prefetcher final stats
LLC TOTAL     ACCESS:    5629935  HIT:    3056138  MISS:    2573797
LLC LOAD      ACCESS:    3193617  HIT:     621192  MISS:    2572425
LLC RFO       ACCESS:     219255  HIT:     219249  MISS:          6
LLC PREFETCH  ACCESS:          0  HIT:          0  MISS:          0
LLC WRITEBACK ACCESS:    2217063  HIT:    2215697  MISS:       1366

CPU 1 cumulative IPC: 0.509491 instructions: 360106941 cycles: 706797390
L1D TOTAL     ACCESS:   99657501  HIT:   75119099  MISS:   24538402
L1D LOAD      ACCESS:   36919087  HIT:   33198535  MISS:    3720552
L1D RFO       ACCESS:   62738414  HIT:   41920564  MISS:   20817850
L1D PREFETCH  ACCESS:          0  HIT:          0  MISS:          0
L1D WRITEBACK ACCESS:          0  HIT:          0  MISS:          0
L1I TOTAL     ACCESS:   86074960  HIT:   86074960  MISS:          0
L1I LOAD      ACCESS:   86074960  HIT:   86074960  MISS:          0
L1I RFO       ACCESS:          0  HIT:          0  MISS:          0
L1I PREFETCH  ACCESS:          0  HIT:          0  MISS:          0
L1I WRITEBACK ACCESS:          0  HIT:          0  MISS:          0
L2C TOTAL     ACCESS:   48476981  HIT:   30014170  MISS:   18462811
L2C LOAD      ACCESS:    3720552  HIT:    3120536  MISS:     600016
L2C RFO       ACCESS:   20817831  HIT:    6080554  MISS:   14737277
L2C PREFETCH  ACCESS:    3120752  HIT:         93  MISS:    3120659
L2C WRITEBACK ACCESS:   20817846  HIT:   20812987  MISS:       4859

L2C Best-offset prefetcher final stats
LLC TOTAL     ACCESS:   33261311  HIT:   18397114  MISS:   14864197
LLC LOAD      ACCESS:     540166  HIT:      71541  MISS:     468625
LLC RFO       ACCESS:   14728760  HIT:    3581208  MISS:   11147552
LLC PREFETCH  ACCESS:    3250408  HIT:       3073  MISS:    3247335
LLC WRITEBACK ACCESS:   14741977  HIT:   14741292  MISS:        685

CPU 2 cumulative IPC: 0.275594 instructions: 194788864 cycles: 706797390
L1D TOTAL     ACCESS:   61081681  HIT:   57513531  MISS:    3568150
L1D LOAD      ACCESS:   39730471  HIT:   36166132  MISS:    3564339
L1D RFO       ACCESS:   21351210  HIT:   21347399  MISS:       3811
L1D PREFETCH  ACCESS:          0  HIT:          0  MISS:          0
L1D WRITEBACK ACCESS:          0  HIT:          0  MISS:          0
L1I TOTAL     ACCESS:   73951936  HIT:   73951847  MISS:         89
L1I LOAD      ACCESS:   73951936  HIT:   73951847  MISS:         89
L1I RFO       ACCESS:          0  HIT:          0  MISS:          0
L1I PREFETCH  ACCESS:          0  HIT:          0  MISS:          0
L1I WRITEBACK ACCESS:          0  HIT:          0  MISS:          0
L2C TOTAL     ACCESS:    4463048  HIT:    2566446  MISS:    1896602
L2C LOAD      ACCESS:    3564428  HIT:    2520770  MISS:    1043658
L2C RFO       ACCESS:       3811  HIT:       1135  MISS:       2676
L2C PREFETCH  ACCESS:     856938  HIT:       6737  MISS:     850201
L2C WRITEBACK ACCESS:      37871  HIT:      37804  MISS:         67

L2C Best-offset prefetcher final stats
LLC TOTAL     ACCESS:    1917013  HIT:      26342  MISS:    1890671
LLC LOAD      ACCESS:      91975  HIT:       4190  MISS:      87785
LLC RFO       ACCESS:       2652  HIT:         27  MISS:       2625
LLC PREFETCH  ACCESS:    1801908  HIT:       5898  MISS:    1796010
LLC WRITEBACK ACCESS:      20478  HIT:      16227  MISS:       4251

CPU 3 cumulative IPC: 0.26193 instructions: 185131290 cycles: 706797390
L1D TOTAL     ACCESS:   72517707  HIT:   65349979  MISS:    7167728
L1D LOAD      ACCESS:   51994300  HIT:   45558563  MISS:    6435737
L1D RFO       ACCESS:   20523407  HIT:   19791416  MISS:     731991
L1D PREFETCH  ACCESS:          0  HIT:          0  MISS:          0
L1D WRITEBACK ACCESS:          0  HIT:          0  MISS:          0
L1I TOTAL     ACCESS:   44307504  HIT:   44307502  MISS:          2
L1I LOAD      ACCESS:   44307504  HIT:   44307502  MISS:          2
L1I RFO       ACCESS:          0  HIT:          0  MISS:          0
L1I PREFETCH  ACCESS:          0  HIT:          0  MISS:          0
L1I WRITEBACK ACCESS:          0  HIT:          0  MISS:          0
L2C TOTAL     ACCESS:   12156073  HIT:    4580945  MISS:    7575128
L2C LOAD      ACCESS:    6435702  HIT:    3041122  MISS:    3394580
L2C RFO       ACCESS:     731964  HIT:     141137  MISS:     590827
L2C PREFETCH  ACCESS:    3952354  HIT:     371784  MISS:    3580570
L2C WRITEBACK ACCESS:    1036053  HIT:    1026902  MISS:       9151

L2C Best-offset prefetcher final stats
LLC TOTAL     ACCESS:    8542395  HIT:    5708458  MISS:    2833937
LLC LOAD      ACCESS:    3228998  HIT:    2311380  MISS:     917618
LLC RFO       ACCESS:     590814  HIT:     584452  MISS:       6362
LLC PREFETCH  ACCESS:    3949572  HIT:    2040004  MISS:    1909568
LLC WRITEBACK ACCESS:     773011  HIT:     772622  MISS:        389

CPU 4 cumulative IPC: 0.732652 instructions: 517836369 cycles: 706797391
L1D TOTAL     ACCESS:  155802932  HIT:  146108587  MISS:    9694345
L1D LOAD      ACCESS:  138448881  HIT:  128809111  MISS:    9639770
L1D RFO       ACCESS:   17354051  HIT:   17299476  MISS:      54575
L1D PREFETCH  ACCESS:          0  HIT:          0  MISS:          0
L1D WRITEBACK ACCESS:          0  HIT:          0  MISS:          0
L1I TOTAL     ACCESS:  131332997  HIT:  131332997  MISS:          0
L1I LOAD      ACCESS:  131332997  HIT:  131332997  MISS:          0
L1I RFO       ACCESS:          0  HIT:          0  MISS:          0
L1I PREFETCH  ACCESS:          0  HIT:          0  MISS:          0
L1I WRITEBACK ACCESS:          0  HIT:          0  MISS:          0
L2C TOTAL     ACCESS:   17014401  HIT:   10241459  MISS:    6772942
L2C LOAD      ACCESS:    9639340  HIT:    8214443  MISS:    1424897
L2C RFO       ACCESS:      54575  HIT:          0  MISS:      54575
L2C PREFETCH  ACCESS:    5297375  HIT:       3906  MISS:    5293469
L2C WRITEBACK ACCESS:    2023111  HIT:    2023110  MISS:          1

L2C Best-offset prefetcher final stats
LLC TOTAL     ACCESS:    6845290  HIT:    1176838  MISS:    5668452
LLC LOAD      ACCESS:     294048  HIT:      62800  MISS:     231248
LLC RFO       ACCESS:      54575  HIT:        520  MISS:      54055
LLC PREFETCH  ACCESS:    6441986  HIT:    1060077  MISS:    5381909
LLC WRITEBACK ACCESS:      54681  HIT:      53441  MISS:       1240

CPU 5 cumulative IPC: 0.852126 instructions: 602280431 cycles: 706797391
L1D TOTAL     ACCESS:  228806853  HIT:  216307774  MISS:   12499079
L1D LOAD      ACCESS:  195554531  HIT:  183431529  MISS:   12123002
L1D RFO       ACCESS:   33252322  HIT:   32876245  MISS:     376077
L1D PREFETCH  ACCESS:          0  HIT:          0  MISS:          0
L1D WRITEBACK ACCESS:          0  HIT:          0  MISS:          0
L1I TOTAL     ACCESS:  149853407  HIT:  149853407  MISS:          0
L1I LOAD      ACCESS:  149853407  HIT:  149853407  MISS:          0
L1I RFO       ACCESS:          0  HIT:          0  MISS:          0
L1I PREFETCH  ACCESS:          0  HIT:          0  MISS:          0
L1I WRITEBACK ACCESS:          0  HIT:          0  MISS:          0
L2C TOTAL     ACCESS:   18768286  HIT:    7289467  MISS:   11478819
L2C LOAD      ACCESS:   12119670  HIT:    6773512  MISS:    5346158
L2C RFO       ACCESS:     369088  HIT:      75631  MISS:     293457
L2C PREFETCH  ACCESS:    5869543  HIT:      33248  MISS:    5836295
L2C WRITEBACK ACCESS:     409985  HIT:     407076  MISS:       2909

L2C Best-offset prefetcher final stats
LLC TOTAL     ACCESS:   14797636  HIT:    3351660  MISS:   11445976
LLC LOAD      ACCESS:    4014353  HIT:    3023912  MISS:     990441
LLC RFO       ACCESS:     293457  HIT:          0  MISS:     293457
LLC PREFETCH  ACCESS:   10193066  HIT:      31575  MISS:   10161491
LLC WRITEBACK ACCESS:     296760  HIT:     296173  MISS:        587

CPU 6 cumulative IPC: 0.40869 instructions: 288860710 cycles: 706797391
L1D TOTAL     ACCESS:   75930981  HIT:   64295467  MISS:   11635514
L1D LOAD      ACCESS:   52252022  HIT:   41145180  MISS:   11106842
L1D RFO       ACCESS:   23678959  HIT:   23150287  MISS:     528672
L1D PREFETCH  ACCESS:          0  HIT:          0  MISS:          0
L1D WRITEBACK ACCESS:          0  HIT:          0  MISS:          0
L1I TOTAL     ACCESS:  123756368  HIT:  122905016  MISS:     851352
L1I LOAD      ACCESS:  123756368  HIT:  122905016  MISS:     851352
L1I RFO       ACCESS:          0  HIT:          0  MISS:          0
L1I PREFETCH  ACCESS:          0  HIT:          0  MISS:          0
L1I WRITEBACK ACCESS:          0  HIT:          0  MISS:          0
L2C TOTAL     ACCESS:   14796179  HIT:   11986997  MISS:    2809182
L2C LOAD      ACCESS:   11958143  HIT:   10273787  MISS:    1684356
L2C RFO       ACCESS:     528660  HIT:     148299  MISS:     380361
L2C PREFETCH  ACCESS:    1427924  HIT:     683831  MISS:     744093
L2C WRITEBACK ACCESS:     881452  HIT:     881080  MISS:        372

L2C Best-offset prefetcher final stats
LLC TOTAL     ACCESS:    3338385  HIT:    2638172  MISS:     700213
LLC LOAD      ACCESS:    1565117  HIT:    1419311  MISS:     145806
LLC RFO       ACCESS:     372582  HIT:       9572  MISS:     363010
LLC PREFETCH  ACCESS:     872448  HIT:     766767  MISS:     105681
LLC WRITEBACK ACCESS:     528238  HIT:     442522  MISS:      85716

CPU 7 cumulative IPC: 0.63903 instructions: 451664890 cycles: 706797391
L1D TOTAL     ACCESS:  114526340  HIT:  104163364  MISS:   10362976
L1D LOAD      ACCESS:   94667817  HIT:   85946111  MISS:    8721706
L1D RFO       ACCESS:   19858523  HIT:   18217253  MISS:    1641270
L1D PREFETCH  ACCESS:          0  HIT:          0  MISS:          0
L1D WRITEBACK ACCESS:          0  HIT:          0  MISS:          0
L1I TOTAL     ACCESS:  116637284  HIT:  116620653  MISS:      16631
L1I LOAD      ACCESS:  116637284  HIT:  116620653  MISS:      16631
L1I RFO       ACCESS:          0  HIT:          0  MISS:          0
L1I PREFETCH  ACCESS:          0  HIT:          0  MISS:          0
L1I WRITEBACK ACCESS:          0  HIT:          0  MISS:          0
L2C TOTAL     ACCESS:   17977082  HIT:   10206496  MISS:    7770586
L2C LOAD      ACCESS:    8738021  HIT:    5926374  MISS:    2811647
L2C RFO       ACCESS:    1641260  HIT:     493016  MISS:    1148244
L2C PREFETCH  ACCESS:    3896028  HIT:      91543  MISS:    3804485
L2C WRITEBACK ACCESS:    3701773  HIT:    3695563  MISS:       6210

L2C Best-offset prefetcher final stats
LLC TOTAL     ACCESS:   11340008  HIT:    4651925  MISS:    6688083
LLC LOAD      ACCESS:    1976644  HIT:     860835  MISS:    1115809
LLC RFO       ACCESS:    1145551  HIT:     146117  MISS:     999434
LLC PREFETCH  ACCESS:    5336362  HIT:     778482  MISS:    4557880
LLC WRITEBACK ACCESS:    2881451  HIT:    2866491  MISS:      14960

Region of Interest Statistics

CPU 0 cumulative IPC: 0.141483 instructions: 100000002 cycles: 706797390
L1D TOTAL     ACCESS:   19716791  HIT:   14255678  MISS:    5461113
L1D LOAD      ACCESS:   15282411  HIT:   10098559  MISS:    5183852
L1D RFO       ACCESS:    4434380  HIT:    4157119  MISS:     277261
L1D PREFETCH  ACCESS:          0  HIT:          0  MISS:          0
L1D WRITEBACK ACCESS:          0  HIT:          0  MISS:          0
L1D PREFETCH  REQUESTED:          0  ISSUED:          0  USEFUL:          0  USELESS:          0
L1I TOTAL     ACCESS:   25270912  HIT:   25270912  MISS:          0
L1I LOAD      ACCESS:   25270912  HIT:   25270912  MISS:          0
L1I RFO       ACCESS:          0  HIT:          0  MISS:          0
L1I PREFETCH  ACCESS:          0  HIT:          0  MISS:          0
L1I WRITEBACK ACCESS:          0  HIT:          0  MISS:          0
L1I PREFETCH  REQUESTED:          0  ISSUED:          0  USEFUL:          0  USELESS:          0
L2C TOTAL     ACCESS:    7678302  HIT:    4265429  MISS:    3412873
L2C LOAD      ACCESS:    5183851  HIT:    1990234  MISS:    3193617
L2C RFO       ACCESS:     277261  HIT:      58006  MISS:     219255
L2C PREFETCH  ACCESS:          0  HIT:          0  MISS:          0
L2C WRITEBACK ACCESS:    2217190  HIT:    2217189  MISS:          1
L2C PREFETCH  REQUESTED:     643377  ISSUED:     643377  USEFUL:       7500  USELESS:     590612
LLC TOTAL     ACCESS:    5629935  HIT:    3056138  MISS:    2573797
LLC LOAD      ACCESS:    3193617  HIT:     621192  MISS:    2572425
LLC RFO       ACCESS:     219255  HIT:     219249  MISS:          6
LLC PREFETCH  ACCESS:          0  HIT:          0  MISS:          0
LLC WRITEBACK ACCESS:    2217063  HIT:    2215697  MISS:       1366
LLC PREFETCH  REQUESTED:          0  ISSUED:          0  USEFUL:    4693973  USELESS:   24578277
Major fault: 0 Minor fault: 56122

CPU 1 cumulative IPC: 0.811771 instructions: 100000002 cycles: 123187492
L1D TOTAL     ACCESS:   25683472  HIT:   21948346  MISS:    3735126
L1D LOAD      ACCESS:   10708220  HIT:   10142282  MISS:     565938
L1D RFO       ACCESS:   14975252  HIT:   11806064  MISS:    3169188
L1D PREFETCH  ACCESS:          0  HIT:          0  MISS:          0
L1D WRITEBACK ACCESS:          0  HIT:          0  MISS:          0
L1D PREFETCH  REQUESTED:          0  ISSUED:          0  USEFUL:          0  USELESS:          0
L1I TOTAL     ACCESS:   23496131  HIT:   23496131  MISS:          0
L1I LOAD      ACCESS:   23496131  HIT:   23496131  MISS:          0
L1I RFO       ACCESS:          0  HIT:          0  MISS:          0
L1I PREFETCH  ACCESS:          0  HIT:          0  MISS:          0
L1I WRITEBACK ACCESS:          0  HIT:          0  MISS:          0
L1I PREFETCH  REQUESTED:          0  ISSUED:          0  USEFUL:          0  USELESS:          0
L2C TOTAL     ACCESS:    7391977  HIT:    4586505  MISS:    2805472
L2C LOAD      ACCESS:     565938  HIT:     487654  MISS:      78284
L2C RFO       ACCESS:    3169188  HIT:     929700  MISS:    2239488
L2C PREFETCH  ACCESS:     487664  HIT:          0  MISS:     487664
L2C WRITEBACK ACCESS:    3169187  HIT:    3169151  MISS:         36
L2C PREFETCH  REQUESTED:    3404572  ISSUED:    3404572  USEFUL:    3240186  USELESS:       2324
LLC TOTAL     ACCESS:    5047965  HIT:    2784220  MISS:    2263745
LLC LOAD      ACCESS:      75498  HIT:       4396  MISS:      71102
LLC RFO       ACCESS:    2238008  HIT:     540248  MISS:    1697760
LLC PREFETCH  ACCESS:     494882  HIT:         35  MISS:     494847
LLC WRITEBACK ACCESS:    2239577  HIT:    2239541  MISS:         36
LLC PREFETCH  REQUESTED:          0  ISSUED:          0  USEFUL:    4693973  USELESS:   24578277
Major fault: 0 Minor fault: 124380

CPU 2 cumulative IPC: 0.280111 instructions: 100000000 cycles: 357001715
L1D TOTAL     ACCESS:   31305869  HIT:   29563293  MISS:    1742576
L1D LOAD      ACCESS:   20330531  HIT:   18590649  MISS:    1739882
L1D RFO       ACCESS:   10975338  HIT:   10972644  MISS:       2694
L1D PREFETCH  ACCESS:          0  HIT:          0  MISS:          0
L1D WRITEBACK ACCESS:          0  HIT:          0  MISS:          0
L1D PREFETCH  REQUESTED:          0  ISSUED:          0  USEFUL:          0  USELESS:          0
L1I TOTAL     ACCESS:   38857627  HIT:   38857538  MISS:         89
L1I LOAD      ACCESS:   38857627  HIT:   38857538  MISS:         89
L1I RFO       ACCESS:          0  HIT:          0  MISS:          0
L1I PREFETCH  ACCESS:          0  HIT:          0  MISS:          0
L1I WRITEBACK ACCESS:          0  HIT:          0  MISS:          0
L1I PREFETCH  REQUESTED:          0  ISSUED:          0  USEFUL:          0  USELESS:          0
L2C TOTAL     ACCESS:    2214254  HIT:    1226807  MISS:     987447
L2C LOAD      ACCESS:    1739971  HIT:    1203673  MISS:     536298
L2C RFO       ACCESS:       2694  HIT:        416  MISS:       2278
L2C PREFETCH  ACCESS:     452842  HIT:       4031  MISS:     448811
L2C WRITEBACK ACCESS:      18747  HIT:      18687  MISS:         60
L2C PREFETCH  REQUESTED:    2015737  ISSUED:    2015737  USEFUL:     995797  USELESS:      47629
LLC TOTAL     ACCESS:     997886  HIT:      16457  MISS:     981429
LLC LOAD      ACCESS:      53270  HIT:       3371  MISS:      49899
LLC RFO       ACCESS:       2269  HIT:         14  MISS:       2255
LLC PREFETCH  ACCESS:     931848  HIT:       4546  MISS:     927302
LLC WRITEBACK ACCESS:      10499  HIT:       8526  MISS:       1973
LLC PREFETCH  REQUESTED:          0  ISSUED:          0  USEFUL:    4693973  USELESS:   24578277
Major fault: 0 Minor fault: 9075

CPU 3 cumulative IPC: 0.264049 instructions: 100000001 cycles: 378717253
L1D TOTAL     ACCESS:   38875317  HIT:   34840449  MISS:    4034868
L1D LOAD      ACCESS:   27917657  HIT:   24276308  MISS:    3641349
L1D RFO       ACCESS:   10957660  HIT:   10564141  MISS:     393519
L1D PREFETCH  ACCESS:          0  HIT:          0  MISS:          0
L1D WRITEBACK ACCESS:          0  HIT:          0  MISS:          0
L1D PREFETCH  REQUESTED:          0  ISSUED:          0  USEFUL:          0  USELESS:          0
L1I TOTAL     ACCESS:   23870438  HIT:   23870438  MISS:          0
L1I LOAD      ACCESS:   23870438  HIT:   23870438  MISS:          0
L1I RFO       ACCESS:          0  HIT:          0  MISS:          0
L1I PREFETCH  ACCESS:          0  HIT:          0  MISS:          0
L1I WRITEBACK ACCESS:          0  HIT:          0  MISS:          0
L1I PREFETCH  REQUESTED:          0  ISSUED:          0  USEFUL:          0  USELESS:          0
L2C TOTAL     ACCESS:    6855650  HIT:    2480079  MISS:    4375571
L2C LOAD      ACCESS:    3641321  HIT:    1652420  MISS:    1988901
L2C RFO       ACCESS:     393506  HIT:      71672  MISS:     321834
L2C PREFETCH  ACCESS:    2259697  HIT:     199814  MISS:    2059883
L2C WRITEBACK ACCESS:     561126  HIT:     556173  MISS:       4953
L2C PREFETCH  REQUESTED:    4908733  ISSUED:    4908733  USEFUL:    1548970  USELESS:    2526823
LLC TOTAL     ACCESS:    4929649  HIT:    3335505  MISS:    1594144
LLC LOAD      ACCESS:    1879589  HIT:    1371147  MISS:     508442
LLC RFO       ACCESS:     321828  HIT:     319457  MISS:       2371
LLC PREFETCH  ACCESS:    2302379  HIT:    1219204  MISS:    1083175
LLC WRITEBACK ACCESS:     425853  HIT:     425697  MISS:        156
LLC PREFETCH  REQUESTED:          0  ISSUED:          0  USEFUL:    4693973  USELESS:   24578277
Major fault: 0 Minor fault: 26117

CPU 4 cumulative IPC: 0.732505 instructions: 100000000 cycles: 136517881
L1D TOTAL     ACCESS:   30085500  HIT:   28213428  MISS:    1872072
L1D LOAD      ACCESS:   26734187  HIT:   24872666  MISS:    1861521
L1D RFO       ACCESS:    3351313  HIT:    3340762  MISS:      10551
L1D PREFETCH  ACCESS:          0  HIT:          0  MISS:          0
L1D WRITEBACK ACCESS:          0  HIT:          0  MISS:          0
L1D PREFETCH  REQUESTED:          0  ISSUED:          0  USEFUL:          0  USELESS:          0
L1I TOTAL     ACCESS:   25365382  HIT:   25365382  MISS:          0
L1I LOAD      ACCESS:   25365382  HIT:   25365382  MISS:          0
L1I RFO       ACCESS:          0  HIT:          0  MISS:          0
L1I PREFETCH  ACCESS:          0  HIT:          0  MISS:          0
L1I WRITEBACK ACCESS:          0  HIT:          0  MISS:          0
L1I PREFETCH  REQUESTED:          0  ISSUED:          0  USEFUL:          0  USELESS:          0
L2C TOTAL     ACCESS:    3283227  HIT:    1976011  MISS:    1307216
L2C LOAD      ACCESS:    1861430  HIT:    1584659  MISS:     276771
L2C RFO       ACCESS:      10551  HIT:          0  MISS:      10551
L2C PREFETCH  ACCESS:    1020581  HIT:        687  MISS:    1019894
L2C WRITEBACK ACCESS:     390665  HIT:     390665  MISS:          0
L2C PREFETCH  REQUESTED:    6797700  ISSUED:    6797700  USEFUL:    5498057  USELESS:     129826
LLC TOTAL     ACCESS:    1320963  HIT:     227052  MISS:    1093911
LLC LOAD      ACCESS:      54921  HIT:      11650  MISS:      43271
LLC RFO       ACCESS:      10551  HIT:        101  MISS:      10450
LLC PREFETCH  ACCESS:    1244920  HIT:     204904  MISS:    1040016
LLC WRITEBACK ACCESS:      10571  HIT:      10397  MISS:        174
LLC PREFETCH  REQUESTED:          0  ISSUED:          0  USEFUL:    4693973  USELESS:   24578277
Major fault: 0 Minor fault: 179007

CPU 5 cumulative IPC: 0.851756 instructions: 100000001 cycles: 117404503
L1D TOTAL     ACCESS:   37994192  HIT:   35918859  MISS:    2075333
L1D LOAD      ACCESS:   32472052  HIT:   30459189  MISS:    2012863
L1D RFO       ACCESS:    5522140  HIT:    5459670  MISS:      62470
L1D PREFETCH  ACCESS:          0  HIT:          0  MISS:          0
L1D WRITEBACK ACCESS:          0  HIT:          0  MISS:          0
L1D PREFETCH  REQUESTED:          0  ISSUED:          0  USEFUL:          0  USELESS:          0
L1I TOTAL     ACCESS:   24880140  HIT:   24880140  MISS:          0
L1I LOAD      ACCESS:   24880140  HIT:   24880140  MISS:          0
L1I RFO       ACCESS:          0  HIT:          0  MISS:          0
L1I PREFETCH  ACCESS:          0  HIT:          0  MISS:          0
L1I WRITEBACK ACCESS:          0  HIT:          0  MISS:          0
L1I PREFETCH  REQUESTED:          0  ISSUED:          0  USEFUL:          0  USELESS:          0
L2C TOTAL     ACCESS:    3118811  HIT:    1211698  MISS:    1907113
L2C LOAD      ACCESS:    2012322  HIT:    1126365  MISS:     885957
L2C RFO       ACCESS:      61312  HIT:      12587  MISS:      48725
L2C PREFETCH  ACCESS:     977091  HIT:       5157  MISS:     971934
L2C WRITEBACK ACCESS:      68086  HIT:      67589  MISS:        497
L2C PREFETCH  REQUESTED:   10784665  ISSUED:   10784613  USEFUL:    6273448  USELESS:        476
LLC TOTAL     ACCESS:    2456638  HIT:     556200  MISS:    1900438
LLC LOAD      ACCESS:     668646  HIT:     500988  MISS:     167658
LLC RFO       ACCESS:      48725  HIT:          0  MISS:      48725
LLC PREFETCH  ACCESS:    1689977  HIT:       6021  MISS:    1683956
LLC WRITEBACK ACCESS:      49290  HIT:      49191  MISS:         99
LLC PREFETCH  REQUESTED:          0  ISSUED:          0  USEFUL:    4693973  USELESS:   24578277
Major fault: 0 Minor fault: 176904

CPU 6 cumulative IPC: 0.417114 instructions: 100000001 cycles: 239742659
L1D TOTAL     ACCESS:   25647018  HIT:   21669758  MISS:    3977260
L1D LOAD      ACCESS:   17693951  HIT:   13894916  MISS:    3799035
L1D RFO       ACCESS:    7953067  HIT:    7774842  MISS:     178225
L1D PREFETCH  ACCESS:          0  HIT:          0  MISS:          0
L1D WRITEBACK ACCESS:          0  HIT:          0  MISS:          0
L1D PREFETCH  REQUESTED:          0  ISSUED:          0  USEFUL:          0  USELESS:          0
L1I TOTAL     ACCESS:   43398061  HIT:   43113583  MISS:     284478
L1I LOAD      ACCESS:   43398061  HIT:   43113583  MISS:     284478
L1I RFO       ACCESS:          0  HIT:          0  MISS:          0
L1I PREFETCH  ACCESS:          0  HIT:          0  MISS:          0
L1I WRITEBACK ACCESS:          0  HIT:          0  MISS:          0
L1I PREFETCH  REQUESTED:          0  ISSUED:          0  USEFUL:          0  USELESS:          0
L2C TOTAL     ACCESS:    5044383  HIT:    4095795  MISS:     948588
L2C LOAD      ACCESS:    4083496  HIT:    3512356  MISS:     571140
L2C RFO       ACCESS:     178224  HIT:      53133  MISS:     125091
L2C PREFETCH  ACCESS:     482902  HIT:     230687  MISS:     252215
L2C WRITEBACK ACCESS:     299761  HIT:     299619  MISS:        142
L2C PREFETCH  REQUESTED:    1930712  ISSUED:    1930712  USEFUL:     158264  USELESS:     651964
LLC TOTAL     ACCESS:    1122874  HIT:     888943  MISS:     233931
LLC LOAD      ACCESS:     528866  HIT:     478711  MISS:      50155
LLC RFO       ACCESS:     122564  HIT:       3154  MISS:     119410
LLC PREFETCH  ACCESS:     297498  HIT:     260829  MISS:      36669
LLC WRITEBACK ACCESS:     173946  HIT:     146249  MISS:      27697
LLC PREFETCH  REQUESTED:          0  ISSUED:          0  USEFUL:    4693973  USELESS:   24578277
Major fault: 0 Minor fault: 2664

CPU 7 cumulative IPC: 0.668125 instructions: 100000002 cycles: 149672578
L1D TOTAL     ACCESS:   26031045  HIT:   23213886  MISS:    2817159
L1D LOAD      ACCESS:   21203962  HIT:   18863558  MISS:    2340404
L1D RFO       ACCESS:    4827083  HIT:    4350328  MISS:     476755
L1D PREFETCH  ACCESS:          0  HIT:          0  MISS:          0
L1D WRITEBACK ACCESS:          0  HIT:          0  MISS:          0
L1D PREFETCH  REQUESTED:          0  ISSUED:          0  USEFUL:          0  USELESS:          0
L1I TOTAL     ACCESS:   23805941  HIT:   23801468  MISS:       4473
L1I LOAD      ACCESS:   23805941  HIT:   23801468  MISS:       4473
L1I RFO       ACCESS:          0  HIT:          0  MISS:          0
L1I PREFETCH  ACCESS:          0  HIT:          0  MISS:          0
L1I WRITEBACK ACCESS:          0  HIT:          0  MISS:          0
L1I PREFETCH  REQUESTED:          0  ISSUED:          0  USEFUL:          0  USELESS:          0
L2C TOTAL     ACCESS:    4956445  HIT:    2810881  MISS:    2145564
L2C LOAD      ACCESS:    2344783  HIT:    1591094  MISS:     753689
L2C RFO       ACCESS:     476755  HIT:     145232  MISS:     331523
L2C PREFETCH  ACCESS:    1083926  HIT:      24912  MISS:    1059014
L2C WRITEBACK ACCESS:    1050981  HIT:    1049643  MISS:       1338
L2C PREFETCH  REQUESTED:    5904650  ISSUED:    5898187  USEFUL:    3905888  USELESS:     249132
LLC TOTAL     ACCESS:    3191340  HIT:    1339843  MISS:    1851497
LLC LOAD      ACCESS:     512424  HIT:     278451  MISS:     233973
LLC RFO       ACCESS:     331350  HIT:      29730  MISS:     301620
LLC PREFETCH  ACCESS:    1540775  HIT:     227368  MISS:    1313407
LLC WRITEBACK ACCESS:     806791  HIT:     804294  MISS:       2497
LLC PREFETCH  REQUESTED:          0  ISSUED:          0  USEFUL:    4693973  USELESS:   24578277
Major fault: 0 Minor fault: 11091

L2C Best-offset prefetcher final stats

L2C Best-offset prefetcher final stats

L2C Best-offset prefetcher final stats

L2C Best-offset prefetcher final stats

L2C Best-offset prefetcher final stats

L2C Best-offset prefetcher final stats

L2C Best-offset prefetcher final stats

L2C Best-offset prefetcher final stats

DRAM Statistics
 CHANNEL 0
 RQ ROW_BUFFER_HIT:    8884252  ROW_BUFFER_MISS:   14387970
 DBUS_CONGESTED:   50839583
 WQ ROW_BUFFER_HIT:     617794  ROW_BUFFER_MISS:    7675580  FULL:          0

 CHANNEL 1
 RQ ROW_BUFFER_HIT:    8846446  ROW_BUFFER_MISS:   14437062
 DBUS_CONGESTED:   50839583
 WQ ROW_BUFFER_HIT:     619674  ROW_BUFFER_MISS:    7673807  FULL:          0

 AVG_CONGESTED_CYCLE: 13
