
*** ChampSim Multicore Out-of-Order Simulator ***

Warmup Instructions: 20000000
Simulation Instructions: 100000000
Number of CPUs: 8
LLC sets: 16384
LLC ways: 16
Off-chip DRAM Size: 8192 MB Channels: 2 Width: 64-bit Data Rate: 1600 MT/s

CPU 0 runs /scratch/user/djimenez/champsim-traces/speccpu2017/xz/605.mcf_s/605.mcf_s-1644B.champsimtrace.xz
CPU 1 runs /scratch/user/djimenez/champsim-traces/speccpu2017/xz/649.fotonik3d_s/649.fotonik3d_s-1176B.champsimtrace.xz
CPU 2 runs /scratch/user/djimenez/champsim-traces/speccpu2017/xz/654.roms_s/654.roms_s-293B.champsimtrace.xz
CPU 3 runs /scratch/user/djimenez/champsim-traces/speccpu2017/xz/607.cactuBSSN_s/607.cactuBSSN_s-3477B.champsimtrace.xz
CPU 4 runs /scratch/user/djimenez/champsim-traces/speccpu2017/xz/602.gcc_s/602.gcc_s-2226B.champsimtrace.xz
CPU 5 runs /scratch/user/djimenez/champsim-traces/speccpu2017/xz/605.mcf_s/605.mcf_s-782B.champsimtrace.xz
CPU 6 runs /scratch/user/djimenez/champsim-traces/speccpu2017/xz/619.lbm_s/619.lbm_s-2677B.champsimtrace.xz
CPU 7 runs /scratch/user/djimenez/champsim-traces/speccpu2017/xz/602.gcc_s/602.gcc_s-1850B.champsimtrace.xz
L2C Best-offset prefetcher
L2C Best-offset prefetcher
L2C Best-offset prefetcher
L2C Best-offset prefetcher
L2C Best-offset prefetcher
L2C Best-offset prefetcher
L2C Best-offset prefetcher
L2C Best-offset prefetcher
Heartbeat CPU 1 instructions: 10000000 cycles: 4401165 heartbeat IPC: 2.27213 cumulative IPC: 2.27213 (Simulation time: 0 hr 3 min 59 sec) 
Heartbeat CPU 2 instructions: 10000002 cycles: 4483975 heartbeat IPC: 2.23016 cumulative IPC: 2.23016 (Simulation time: 0 hr 4 min 4 sec) 
Heartbeat CPU 4 instructions: 10000000 cycles: 4924791 heartbeat IPC: 2.03054 cumulative IPC: 2.03054 (Simulation time: 0 hr 4 min 27 sec) 
Heartbeat CPU 6 instructions: 10000001 cycles: 4927001 heartbeat IPC: 2.02963 cumulative IPC: 2.02963 (Simulation time: 0 hr 4 min 27 sec) 
Heartbeat CPU 7 instructions: 10000001 cycles: 5628468 heartbeat IPC: 1.77668 cumulative IPC: 1.77668 (Simulation time: 0 hr 5 min 5 sec) 
Heartbeat CPU 3 instructions: 10000003 cycles: 5769824 heartbeat IPC: 1.73316 cumulative IPC: 1.73316 (Simulation time: 0 hr 5 min 13 sec) 
Heartbeat CPU 5 instructions: 10000001 cycles: 6244589 heartbeat IPC: 1.60139 cumulative IPC: 1.60139 (Simulation time: 0 hr 5 min 39 sec) 
Heartbeat CPU 1 instructions: 20000000 cycles: 8801435 heartbeat IPC: 2.27259 cumulative IPC: 2.27236 (Simulation time: 0 hr 7 min 57 sec) 
Heartbeat CPU 2 instructions: 20000000 cycles: 9135040 heartbeat IPC: 2.15004 cumulative IPC: 2.18937 (Simulation time: 0 hr 8 min 15 sec) 
Heartbeat CPU 6 instructions: 20000000 cycles: 9823235 heartbeat IPC: 2.04239 cumulative IPC: 2.03599 (Simulation time: 0 hr 8 min 53 sec) 
Heartbeat CPU 4 instructions: 20000000 cycles: 9834829 heartbeat IPC: 2.03664 cumulative IPC: 2.03359 (Simulation time: 0 hr 8 min 54 sec) 
Heartbeat CPU 0 instructions: 10000002 cycles: 10574879 heartbeat IPC: 0.945637 cumulative IPC: 0.945637 (Simulation time: 0 hr 9 min 34 sec) 
Heartbeat CPU 7 instructions: 20000000 cycles: 11256112 heartbeat IPC: 1.77694 cumulative IPC: 1.77681 (Simulation time: 0 hr 10 min 11 sec) 
Heartbeat CPU 3 instructions: 20000000 cycles: 11538503 heartbeat IPC: 1.7335 cumulative IPC: 1.73333 (Simulation time: 0 hr 10 min 26 sec) 
Heartbeat CPU 5 instructions: 20000000 cycles: 12398737 heartbeat IPC: 1.62492 cumulative IPC: 1.61307 (Simulation time: 0 hr 11 min 13 sec) 
Heartbeat CPU 1 instructions: 30000002 cycles: 13202511 heartbeat IPC: 2.27217 cumulative IPC: 0.757432 (Simulation time: 0 hr 11 min 57 sec) 
Heartbeat CPU 2 instructions: 30000003 cycles: 13619482 heartbeat IPC: 2.22993 cumulative IPC: 0.734243 (Simulation time: 0 hr 12 min 20 sec) 
Heartbeat CPU 6 instructions: 30000000 cycles: 14746794 heartbeat IPC: 2.03105 cumulative IPC: 0.678114 (Simulation time: 0 hr 13 min 20 sec) 
Heartbeat CPU 4 instructions: 30000000 cycles: 14750037 heartbeat IPC: 2.0345 cumulative IPC: 0.677964 (Simulation time: 0 hr 13 min 20 sec) 
Heartbeat CPU 7 instructions: 30000003 cycles: 16886535 heartbeat IPC: 1.77607 cumulative IPC: 0.592188 (Simulation time: 0 hr 15 min 15 sec) 
Heartbeat CPU 3 instructions: 30000000 cycles: 17308305 heartbeat IPC: 1.73316 cumulative IPC: 0.577757 (Simulation time: 0 hr 15 min 37 sec) 
Heartbeat CPU 1 instructions: 40000000 cycles: 17604680 heartbeat IPC: 2.27161 cumulative IPC: 1.13606 (Simulation time: 0 hr 15 min 53 sec) 
Heartbeat CPU 2 instructions: 40000000 cycles: 18270010 heartbeat IPC: 2.15029 cumulative IPC: 1.09469 (Simulation time: 0 hr 16 min 28 sec) 
Heartbeat CPU 5 instructions: 30000000 cycles: 18718510 heartbeat IPC: 1.58234 cumulative IPC: 0.534231 (Simulation time: 0 hr 16 min 51 sec) 
Heartbeat CPU 6 instructions: 40000000 cycles: 19657186 heartbeat IPC: 2.0365 cumulative IPC: 1.01744 (Simulation time: 0 hr 17 min 41 sec) 
Heartbeat CPU 4 instructions: 40000000 cycles: 19662410 heartbeat IPC: 2.03568 cumulative IPC: 1.01717 (Simulation time: 0 hr 17 min 41 sec) 
Heartbeat CPU 0 instructions: 20000000 cycles: 21090952 heartbeat IPC: 0.950925 cumulative IPC: 0.948274 (Simulation time: 0 hr 18 min 56 sec) 

Warmup complete CPU 0 instructions: 20000001 cycles: 21090955 (Simulation time: 0 hr 18 min 56 sec) 
Warmup complete CPU 1 instructions: 47921414 cycles: 21090954 (Simulation time: 0 hr 18 min 56 sec) 
Warmup complete CPU 2 instructions: 46149238 cycles: 21090954 (Simulation time: 0 hr 18 min 56 sec) 
Warmup complete CPU 3 instructions: 36554521 cycles: 21090954 (Simulation time: 0 hr 18 min 56 sec) 
Warmup complete CPU 4 instructions: 42899362 cycles: 21090954 (Simulation time: 0 hr 18 min 56 sec) 
Warmup complete CPU 5 instructions: 33784028 cycles: 21090954 (Simulation time: 0 hr 18 min 56 sec) 
Warmup complete CPU 6 instructions: 42872794 cycles: 21090954 (Simulation time: 0 hr 18 min 56 sec) 
Warmup complete CPU 7 instructions: 37469956 cycles: 21090954 (Simulation time: 0 hr 18 min 56 sec) 

Heartbeat CPU 2 instructions: 50000003 cycles: 24285903 heartbeat IPC: 1.66226 cumulative IPC: 1.20527 (Simulation time: 0 hr 19 min 56 sec) 
Heartbeat CPU 3 instructions: 40000000 cycles: 24456025 heartbeat IPC: 1.39905 cumulative IPC: 1.02389 (Simulation time: 0 hr 19 min 59 sec) 
Heartbeat CPU 1 instructions: 50000001 cycles: 25754004 heartbeat IPC: 1.2271 cumulative IPC: 0.445757 (Simulation time: 0 hr 20 min 22 sec) 
Heartbeat CPU 3 instructions: 50000000 cycles: 34406197 heartbeat IPC: 1.00501 cumulative IPC: 1.00978 (Simulation time: 0 hr 22 min 54 sec) 
Heartbeat CPU 2 instructions: 60000000 cycles: 34896311 heartbeat IPC: 0.942471 cumulative IPC: 1.00329 (Simulation time: 0 hr 23 min 3 sec) 
Heartbeat CPU 7 instructions: 40000000 cycles: 35318204 heartbeat IPC: 0.542544 cumulative IPC: 0.177831 (Simulation time: 0 hr 23 min 10 sec) 
Heartbeat CPU 6 instructions: 50000002 cycles: 43083990 heartbeat IPC: 0.426862 cumulative IPC: 0.324067 (Simulation time: 0 hr 25 min 29 sec) 
Heartbeat CPU 3 instructions: 60000000 cycles: 44190257 heartbeat IPC: 1.02207 cumulative IPC: 1.01499 (Simulation time: 0 hr 25 min 50 sec) 
Heartbeat CPU 2 instructions: 70000001 cycles: 44210037 heartbeat IPC: 1.07368 cumulative IPC: 1.03165 (Simulation time: 0 hr 25 min 50 sec) 
Heartbeat CPU 1 instructions: 60000000 cycles: 47778161 heartbeat IPC: 0.454047 cumulative IPC: 0.452598 (Simulation time: 0 hr 26 min 52 sec) 
Heartbeat CPU 3 instructions: 70000001 cycles: 53953639 heartbeat IPC: 1.02424 cumulative IPC: 1.01773 (Simulation time: 0 hr 28 min 44 sec) 
Heartbeat CPU 2 instructions: 80000000 cycles: 54663825 heartbeat IPC: 0.956591 cumulative IPC: 1.00828 (Simulation time: 0 hr 28 min 58 sec) 
Heartbeat CPU 3 instructions: 80000000 cycles: 63774695 heartbeat IPC: 1.01822 cumulative IPC: 1.01785 (Simulation time: 0 hr 31 min 35 sec) 
Heartbeat CPU 2 instructions: 90000002 cycles: 64415559 heartbeat IPC: 1.02546 cumulative IPC: 1.01214 (Simulation time: 0 hr 31 min 46 sec) 
Heartbeat CPU 1 instructions: 70000000 cycles: 68391314 heartbeat IPC: 0.485127 cumulative IPC: 0.466774 (Simulation time: 0 hr 32 min 55 sec) 
Heartbeat CPU 5 instructions: 40000000 cycles: 71536506 heartbeat IPC: 0.189329 cumulative IPC: 0.123221 (Simulation time: 0 hr 33 min 52 sec) 
Heartbeat CPU 3 instructions: 90000002 cycles: 73528557 heartbeat IPC: 1.02524 cumulative IPC: 1.01922 (Simulation time: 0 hr 34 min 27 sec) 
Heartbeat CPU 2 instructions: 100000000 cycles: 74662731 heartbeat IPC: 0.975879 cumulative IPC: 1.00521 (Simulation time: 0 hr 34 min 46 sec) 
Heartbeat CPU 6 instructions: 60000000 cycles: 74850947 heartbeat IPC: 0.314792 cumulative IPC: 0.318586 (Simulation time: 0 hr 34 min 49 sec) 
Heartbeat CPU 3 instructions: 100000000 cycles: 83268202 heartbeat IPC: 1.02673 cumulative IPC: 1.0204 (Simulation time: 0 hr 37 min 20 sec) 
Heartbeat CPU 2 instructions: 110000000 cycles: 84389201 heartbeat IPC: 1.02812 cumulative IPC: 1.00873 (Simulation time: 0 hr 37 min 40 sec) 
Heartbeat CPU 7 instructions: 50000003 cycles: 91210824 heartbeat IPC: 0.178915 cumulative IPC: 0.178695 (Simulation time: 0 hr 39 min 39 sec) 
Heartbeat CPU 3 instructions: 110000001 cycles: 92956143 heartbeat IPC: 1.03221 cumulative IPC: 1.02199 (Simulation time: 0 hr 40 min 10 sec) 
Heartbeat CPU 1 instructions: 80000000 cycles: 93242377 heartbeat IPC: 0.402397 cumulative IPC: 0.444601 (Simulation time: 0 hr 40 min 15 sec) 
Heartbeat CPU 2 instructions: 120000000 cycles: 93907415 heartbeat IPC: 1.05062 cumulative IPC: 1.0142 (Simulation time: 0 hr 40 min 26 sec) 
Heartbeat CPU 4 instructions: 50000003 cycles: 98145388 heartbeat IPC: 0.127416 cumulative IPC: 0.092151 (Simulation time: 0 hr 41 min 41 sec) 
Heartbeat CPU 0 instructions: 30000003 cycles: 101301606 heartbeat IPC: 0.124672 cumulative IPC: 0.124672 (Simulation time: 0 hr 42 min 35 sec) 
Heartbeat CPU 3 instructions: 120000000 cycles: 102790538 heartbeat IPC: 1.01684 cumulative IPC: 1.02137 (Simulation time: 0 hr 43 min 1 sec) 
Heartbeat CPU 2 instructions: 130000003 cycles: 104934496 heartbeat IPC: 0.906859 cumulative IPC: 1.00009 (Simulation time: 0 hr 43 min 37 sec) 
Heartbeat CPU 6 instructions: 70000001 cycles: 105941821 heartbeat IPC: 0.321638 cumulative IPC: 0.319705 (Simulation time: 0 hr 43 min 54 sec) 
Heartbeat CPU 3 instructions: 130000001 cycles: 112571252 heartbeat IPC: 1.02242 cumulative IPC: 1.02148 (Simulation time: 0 hr 45 min 49 sec) 
Heartbeat CPU 2 instructions: 140000000 cycles: 117437973 heartbeat IPC: 0.799777 cumulative IPC: 0.974091 (Simulation time: 0 hr 47 min 13 sec) 
Heartbeat CPU 1 instructions: 90000001 cycles: 117980016 heartbeat IPC: 0.404242 cumulative IPC: 0.434297 (Simulation time: 0 hr 47 min 23 sec) 
Finished CPU 3 instructions: 100000001 cycles: 97823851 cumulative IPC: 1.02225 (Simulation time: 0 hr 47 min 39 sec) 
Heartbeat CPU 3 instructions: 140000000 cycles: 122238623 heartbeat IPC: 1.03441 cumulative IPC: 1.02272 (Simulation time: 0 hr 48 min 36 sec) 
Finished CPU 2 instructions: 100000000 cycles: 104355511 cumulative IPC: 0.958263 (Simulation time: 0 hr 49 min 30 sec) 
Heartbeat CPU 2 instructions: 150000003 cycles: 130092703 heartbeat IPC: 0.790219 cumulative IPC: 0.952744 (Simulation time: 0 hr 50 min 48 sec) 
Heartbeat CPU 3 instructions: 150000001 cycles: 131962290 heartbeat IPC: 1.02842 cumulative IPC: 1.02322 (Simulation time: 0 hr 51 min 20 sec) 
Heartbeat CPU 6 instructions: 80000000 cycles: 135016639 heartbeat IPC: 0.34394 cumulative IPC: 0.32589 (Simulation time: 0 hr 52 min 11 sec) 
Heartbeat CPU 1 instructions: 100000000 cycles: 141561115 heartbeat IPC: 0.424068 cumulative IPC: 0.432294 (Simulation time: 0 hr 54 min 0 sec) 
Heartbeat CPU 3 instructions: 160000000 cycles: 141725596 heartbeat IPC: 1.02424 cumulative IPC: 1.0233 (Simulation time: 0 hr 54 min 3 sec) 
Heartbeat CPU 2 instructions: 160000000 cycles: 142750201 heartbeat IPC: 0.790045 cumulative IPC: 0.935817 (Simulation time: 0 hr 54 min 20 sec) 
Heartbeat CPU 7 instructions: 60000000 cycles: 145105002 heartbeat IPC: 0.185549 cumulative IPC: 0.181673 (Simulation time: 0 hr 55 min 0 sec) 
Heartbeat CPU 3 instructions: 170000001 cycles: 151445474 heartbeat IPC: 1.02882 cumulative IPC: 1.02371 (Simulation time: 0 hr 56 min 45 sec) 
Heartbeat CPU 2 instructions: 170000002 cycles: 155307983 heartbeat IPC: 0.796319 cumulative IPC: 0.922765 (Simulation time: 0 hr 57 min 48 sec) 
Heartbeat CPU 3 instructions: 180000000 cycles: 161132339 heartbeat IPC: 1.03233 cumulative IPC: 1.02431 (Simulation time: 0 hr 59 min 21 sec) 
Heartbeat CPU 5 instructions: 50000000 cycles: 162064818 heartbeat IPC: 0.110463 cumulative IPC: 0.115028 (Simulation time: 0 hr 59 min 36 sec) 
Heartbeat CPU 6 instructions: 90000001 cycles: 164590546 heartbeat IPC: 0.338136 cumulative IPC: 0.328414 (Simulation time: 1 hr 0 min 16 sec) 
Heartbeat CPU 1 instructions: 110000001 cycles: 165129579 heartbeat IPC: 0.424296 cumulative IPC: 0.430986 (Simulation time: 1 hr 0 min 25 sec) 
Heartbeat CPU 2 instructions: 180000000 cycles: 168117212 heartbeat IPC: 0.780687 cumulative IPC: 0.910387 (Simulation time: 1 hr 1 min 12 sec) 
Heartbeat CPU 3 instructions: 190000003 cycles: 170847405 heartbeat IPC: 1.02933 cumulative IPC: 1.02463 (Simulation time: 1 hr 1 min 56 sec) 
Heartbeat CPU 0 instructions: 40000000 cycles: 178709601 heartbeat IPC: 0.129186 cumulative IPC: 0.126889 (Simulation time: 1 hr 4 min 2 sec) 
Heartbeat CPU 3 instructions: 200000000 cycles: 180603889 heartbeat IPC: 1.02496 cumulative IPC: 1.02465 (Simulation time: 1 hr 4 min 32 sec) 
Heartbeat CPU 2 instructions: 190000002 cycles: 180745032 heartbeat IPC: 0.791902 cumulative IPC: 0.901015 (Simulation time: 1 hr 4 min 34 sec) 
Heartbeat CPU 1 instructions: 120000000 cycles: 188842316 heartbeat IPC: 0.421714 cumulative IPC: 0.429675 (Simulation time: 1 hr 6 min 47 sec) 
Heartbeat CPU 3 instructions: 210000000 cycles: 190304567 heartbeat IPC: 1.03086 cumulative IPC: 1.02501 (Simulation time: 1 hr 7 min 12 sec) 
Heartbeat CPU 2 instructions: 200000000 cycles: 193233859 heartbeat IPC: 0.800716 cumulative IPC: 0.893739 (Simulation time: 1 hr 8 min 1 sec) 
Heartbeat CPU 6 instructions: 100000000 cycles: 194200856 heartbeat IPC: 0.33772 cumulative IPC: 0.330005 (Simulation time: 1 hr 8 min 17 sec) 
Heartbeat CPU 7 instructions: 70000001 cycles: 197825125 heartbeat IPC: 0.189681 cumulative IPC: 0.184062 (Simulation time: 1 hr 9 min 18 sec) 
Heartbeat CPU 3 instructions: 220000000 cycles: 199979374 heartbeat IPC: 1.03361 cumulative IPC: 1.02547 (Simulation time: 1 hr 9 min 54 sec) 
Heartbeat CPU 2 instructions: 210000000 cycles: 205929281 heartbeat IPC: 0.787686 cumulative IPC: 0.886454 (Simulation time: 1 hr 11 min 35 sec) 
Heartbeat CPU 4 instructions: 60000000 cycles: 208261101 heartbeat IPC: 0.0908135 cumulative IPC: 0.0913641 (Simulation time: 1 hr 12 min 14 sec) 
Heartbeat CPU 3 instructions: 230000003 cycles: 209652147 heartbeat IPC: 1.03383 cumulative IPC: 1.0259 (Simulation time: 1 hr 12 min 37 sec) 
Heartbeat CPU 1 instructions: 130000003 cycles: 212468548 heartbeat IPC: 0.423258 cumulative IPC: 0.428883 (Simulation time: 1 hr 13 min 24 sec) 
Heartbeat CPU 2 instructions: 220000000 cycles: 218617793 heartbeat IPC: 0.788114 cumulative IPC: 0.880137 (Simulation time: 1 hr 15 min 7 sec) 
Heartbeat CPU 3 instructions: 240000000 cycles: 219334163 heartbeat IPC: 1.03284 cumulative IPC: 1.02624 (Simulation time: 1 hr 15 min 19 sec) 
Heartbeat CPU 6 instructions: 110000000 cycles: 223954783 heartbeat IPC: 0.33609 cumulative IPC: 0.330898 (Simulation time: 1 hr 16 min 36 sec) 
Heartbeat CPU 3 instructions: 250000002 cycles: 229001983 heartbeat IPC: 1.03436 cumulative IPC: 1.02662 (Simulation time: 1 hr 18 min 2 sec) 
Heartbeat CPU 2 instructions: 230000000 cycles: 231326771 heartbeat IPC: 0.786845 cumulative IPC: 0.874498 (Simulation time: 1 hr 18 min 41 sec) 
Heartbeat CPU 1 instructions: 140000000 cycles: 235992865 heartbeat IPC: 0.425092 cumulative IPC: 0.428468 (Simulation time: 1 hr 19 min 59 sec) 
Heartbeat CPU 3 instructions: 260000000 cycles: 238671262 heartbeat IPC: 1.0342 cumulative IPC: 1.02696 (Simulation time: 1 hr 20 min 44 sec) 
Heartbeat CPU 2 instructions: 240000000 cycles: 244054373 heartbeat IPC: 0.785694 cumulative IPC: 0.869429 (Simulation time: 1 hr 22 min 15 sec) 
Heartbeat CPU 5 instructions: 60000000 cycles: 246080777 heartbeat IPC: 0.119025 cumulative IPC: 0.116521 (Simulation time: 1 hr 22 min 49 sec) 
Heartbeat CPU 3 instructions: 270000000 cycles: 248392191 heartbeat IPC: 1.02871 cumulative IPC: 1.02703 (Simulation time: 1 hr 23 min 26 sec) 
Heartbeat CPU 7 instructions: 80000000 cycles: 250270016 heartbeat IPC: 0.190676 cumulative IPC: 0.185576 (Simulation time: 1 hr 23 min 58 sec) 
Heartbeat CPU 6 instructions: 120000000 cycles: 253208846 heartbeat IPC: 0.341833 cumulative IPC: 0.332276 (Simulation time: 1 hr 24 min 47 sec) 
Finished CPU 1 instructions: 100000000 cycles: 233551566 cumulative IPC: 0.428171 (Simulation time: 1 hr 25 min 12 sec) 
Heartbeat CPU 0 instructions: 50000000 cycles: 256121691 heartbeat IPC: 0.129179 cumulative IPC: 0.127643 (Simulation time: 1 hr 25 min 37 sec) 
Heartbeat CPU 2 instructions: 250000001 cycles: 256896439 heartbeat IPC: 0.778691 cumulative IPC: 0.864487 (Simulation time: 1 hr 25 min 50 sec) 
Heartbeat CPU 3 instructions: 280000000 cycles: 258058194 heartbeat IPC: 1.03455 cumulative IPC: 1.02734 (Simulation time: 1 hr 26 min 9 sec) 
Heartbeat CPU 1 instructions: 150000001 cycles: 259514321 heartbeat IPC: 0.425144 cumulative IPC: 0.42814 (Simulation time: 1 hr 26 min 34 sec) 
Heartbeat CPU 3 instructions: 290000003 cycles: 267731899 heartbeat IPC: 1.03373 cumulative IPC: 1.02759 (Simulation time: 1 hr 28 min 52 sec) 
Heartbeat CPU 2 instructions: 260000000 cycles: 269339440 heartbeat IPC: 0.803665 cumulative IPC: 0.861438 (Simulation time: 1 hr 29 min 19 sec) 
Heartbeat CPU 3 instructions: 300000000 cycles: 277442132 heartbeat IPC: 1.02984 cumulative IPC: 1.02767 (Simulation time: 1 hr 31 min 35 sec) 
Heartbeat CPU 2 instructions: 270000002 cycles: 282033070 heartbeat IPC: 0.787797 cumulative IPC: 0.857856 (Simulation time: 1 hr 32 min 53 sec) 
Heartbeat CPU 6 instructions: 130000000 cycles: 282289286 heartbeat IPC: 0.343874 cumulative IPC: 0.333567 (Simulation time: 1 hr 32 min 57 sec) 
Heartbeat CPU 1 instructions: 160000000 cycles: 283006146 heartbeat IPC: 0.42568 cumulative IPC: 0.427919 (Simulation time: 1 hr 33 min 9 sec) 
Heartbeat CPU 3 instructions: 310000003 cycles: 287134727 heartbeat IPC: 1.03172 cumulative IPC: 1.02782 (Simulation time: 1 hr 34 min 18 sec) 
Heartbeat CPU 2 instructions: 280000000 cycles: 294859755 heartbeat IPC: 0.779625 cumulative IPC: 0.854191 (Simulation time: 1 hr 36 min 27 sec) 
Heartbeat CPU 3 instructions: 320000000 cycles: 296875488 heartbeat IPC: 1.02661 cumulative IPC: 1.02778 (Simulation time: 1 hr 37 min 1 sec) 
Heartbeat CPU 7 instructions: 90000000 cycles: 302844594 heartbeat IPC: 0.190206 cumulative IPC: 0.18644 (Simulation time: 1 hr 39 min 3 sec) 
Heartbeat CPU 1 instructions: 170000003 cycles: 306580755 heartbeat IPC: 0.424185 cumulative IPC: 0.427611 (Simulation time: 1 hr 40 min 19 sec) 
Heartbeat CPU 3 instructions: 330000002 cycles: 306582207 heartbeat IPC: 1.03021 cumulative IPC: 1.02786 (Simulation time: 1 hr 40 min 19 sec) 
Heartbeat CPU 2 instructions: 290000003 cycles: 307404297 heartbeat IPC: 0.79716 cumulative IPC: 0.851692 (Simulation time: 1 hr 40 min 34 sec) 
Heartbeat CPU 6 instructions: 140000000 cycles: 311761168 heartbeat IPC: 0.339306 cumulative IPC: 0.334149 (Simulation time: 1 hr 41 min 56 sec) 
Heartbeat CPU 4 instructions: 70000000 cycles: 314132115 heartbeat IPC: 0.0944546 cumulative IPC: 0.0924807 (Simulation time: 1 hr 42 min 40 sec) 
Heartbeat CPU 3 instructions: 340000000 cycles: 316313809 heartbeat IPC: 1.02758 cumulative IPC: 1.02785 (Simulation time: 1 hr 43 min 22 sec) 
Heartbeat CPU 2 instructions: 300000000 cycles: 320019146 heartbeat IPC: 0.792716 cumulative IPC: 0.849203 (Simulation time: 1 hr 44 min 29 sec) 
Finished CPU 6 instructions: 100000001 cycles: 299426711 cumulative IPC: 0.333972 (Simulation time: 1 hr 44 min 38 sec) 
Heartbeat CPU 3 instructions: 350000003 cycles: 326003333 heartbeat IPC: 1.03204 cumulative IPC: 1.02799 (Simulation time: 1 hr 46 min 19 sec) 
Heartbeat CPU 5 instructions: 70000001 cycles: 329672401 heartbeat IPC: 0.119629 cumulative IPC: 0.117363 (Simulation time: 1 hr 47 min 25 sec) 
Heartbeat CPU 1 instructions: 180000000 cycles: 330193591 heartbeat IPC: 0.423498 cumulative IPC: 0.427297 (Simulation time: 1 hr 47 min 34 sec) 
Heartbeat CPU 2 instructions: 310000003 cycles: 332700374 heartbeat IPC: 0.788567 cumulative IPC: 0.846736 (Simulation time: 1 hr 48 min 15 sec) 
Heartbeat CPU 0 instructions: 60000000 cycles: 333253067 heartbeat IPC: 0.129649 cumulative IPC: 0.128139 (Simulation time: 1 hr 48 min 24 sec) 
Heartbeat CPU 3 instructions: 360000000 cycles: 335807969 heartbeat IPC: 1.01993 cumulative IPC: 1.02773 (Simulation time: 1 hr 49 min 6 sec) 
Heartbeat CPU 6 instructions: 150000000 cycles: 341407747 heartbeat IPC: 0.337307 cumulative IPC: 0.334441 (Simulation time: 1 hr 50 min 38 sec) 
Heartbeat CPU 2 instructions: 320000000 cycles: 345295504 heartbeat IPC: 0.793957 cumulative IPC: 0.844685 (Simulation time: 1 hr 51 min 43 sec) 
Heartbeat CPU 3 instructions: 370000000 cycles: 345512354 heartbeat IPC: 1.03046 cumulative IPC: 1.02782 (Simulation time: 1 hr 51 min 46 sec) 
Heartbeat CPU 1 instructions: 190000001 cycles: 353782088 heartbeat IPC: 0.423936 cumulative IPC: 0.427059 (Simulation time: 1 hr 54 min 3 sec) 
Heartbeat CPU 3 instructions: 380000000 cycles: 355138304 heartbeat IPC: 1.03886 cumulative IPC: 1.02813 (Simulation time: 1 hr 54 min 25 sec) 
Heartbeat CPU 7 instructions: 100000000 cycles: 355460876 heartbeat IPC: 0.190055 cumulative IPC: 0.187009 (Simulation time: 1 hr 54 min 30 sec) 
Heartbeat CPU 2 instructions: 330000002 cycles: 357825368 heartbeat IPC: 0.798093 cumulative IPC: 0.842951 (Simulation time: 1 hr 55 min 9 sec) 
Heartbeat CPU 3 instructions: 390000000 cycles: 364788304 heartbeat IPC: 1.03627 cumulative IPC: 1.02836 (Simulation time: 1 hr 57 min 4 sec) 
Heartbeat CPU 2 instructions: 340000000 cycles: 370500453 heartbeat IPC: 0.788949 cumulative IPC: 0.840993 (Simulation time: 1 hr 58 min 37 sec) 
Heartbeat CPU 6 instructions: 160000000 cycles: 370568746 heartbeat IPC: 0.342924 cumulative IPC: 0.335149 (Simulation time: 1 hr 58 min 38 sec) 
Heartbeat CPU 3 instructions: 400000000 cycles: 374432040 heartbeat IPC: 1.03694 cumulative IPC: 1.0286 (Simulation time: 1 hr 59 min 48 sec) 
Heartbeat CPU 1 instructions: 200000000 cycles: 377329654 heartbeat IPC: 0.424672 cumulative IPC: 0.426901 (Simulation time: 2 hr 0 min 42 sec) 
Heartbeat CPU 2 instructions: 350000001 cycles: 382918287 heartbeat IPC: 0.805294 cumulative IPC: 0.839767 (Simulation time: 2 hr 2 min 29 sec) 
Heartbeat CPU 3 instructions: 410000000 cycles: 384105963 heartbeat IPC: 1.03371 cumulative IPC: 1.02873 (Simulation time: 2 hr 2 min 51 sec) 
Heartbeat CPU 3 instructions: 420000000 cycles: 393774784 heartbeat IPC: 1.03425 cumulative IPC: 1.02888 (Simulation time: 2 hr 5 min 49 sec) 
Heartbeat CPU 2 instructions: 360000000 cycles: 395491763 heartbeat IPC: 0.795325 cumulative IPC: 0.838275 (Simulation time: 2 hr 6 min 20 sec) 
Heartbeat CPU 6 instructions: 170000000 cycles: 399692293 heartbeat IPC: 0.343365 cumulative IPC: 0.335781 (Simulation time: 2 hr 7 min 35 sec) 
Heartbeat CPU 1 instructions: 210000002 cycles: 400842422 heartbeat IPC: 0.425301 cumulative IPC: 0.426802 (Simulation time: 2 hr 7 min 56 sec) 
Heartbeat CPU 3 instructions: 430000000 cycles: 403439522 heartbeat IPC: 1.03469 cumulative IPC: 1.02902 (Simulation time: 2 hr 8 min 48 sec) 
Heartbeat CPU 7 instructions: 110000003 cycles: 408124701 heartbeat IPC: 0.189884 cumulative IPC: 0.1874 (Simulation time: 2 hr 10 min 14 sec) 
Heartbeat CPU 2 instructions: 370000003 cycles: 408200000 heartbeat IPC: 0.786891 cumulative IPC: 0.836588 (Simulation time: 2 hr 10 min 15 sec) 
Heartbeat CPU 0 instructions: 70000000 cycles: 410357851 heartbeat IPC: 0.129694 cumulative IPC: 0.128447 (Simulation time: 2 hr 10 min 55 sec) 
Heartbeat CPU 3 instructions: 440000000 cycles: 413114665 heartbeat IPC: 1.03358 cumulative IPC: 1.02914 (Simulation time: 2 hr 11 min 49 sec) 
Heartbeat CPU 5 instructions: 80000000 cycles: 413602296 heartbeat IPC: 0.119147 cumulative IPC: 0.117744 (Simulation time: 2 hr 11 min 57 sec) 
Heartbeat CPU 2 instructions: 380000000 cycles: 420910554 heartbeat IPC: 0.786748 cumulative IPC: 0.835003 (Simulation time: 2 hr 14 min 16 sec) 
Heartbeat CPU 3 instructions: 450000003 cycles: 422756470 heartbeat IPC: 1.03715 cumulative IPC: 1.02933 (Simulation time: 2 hr 14 min 49 sec) 
Heartbeat CPU 4 instructions: 80000000 cycles: 423009485 heartbeat IPC: 0.0918465 cumulative IPC: 0.0923088 (Simulation time: 2 hr 14 min 54 sec) 
Heartbeat CPU 1 instructions: 220000000 cycles: 424330824 heartbeat IPC: 0.425742 cumulative IPC: 0.42674 (Simulation time: 2 hr 15 min 17 sec) 
Heartbeat CPU 6 instructions: 180000000 cycles: 428123117 heartbeat IPC: 0.351731 cumulative IPC: 0.336895 (Simulation time: 2 hr 16 min 27 sec) 
Heartbeat CPU 3 instructions: 460000000 cycles: 432434216 heartbeat IPC: 1.0333 cumulative IPC: 1.02942 (Simulation time: 2 hr 17 min 47 sec) 
Heartbeat CPU 2 instructions: 390000003 cycles: 433327564 heartbeat IPC: 0.805347 cumulative IPC: 0.83411 (Simulation time: 2 hr 18 min 3 sec) 
Heartbeat CPU 3 instructions: 470000003 cycles: 442157766 heartbeat IPC: 1.02843 cumulative IPC: 1.0294 (Simulation time: 2 hr 20 min 45 sec) 
Heartbeat CPU 2 instructions: 400000000 cycles: 446153998 heartbeat IPC: 0.77964 cumulative IPC: 0.832467 (Simulation time: 2 hr 21 min 52 sec) 
Heartbeat CPU 1 instructions: 230000002 cycles: 447938984 heartbeat IPC: 0.423582 cumulative IPC: 0.426565 (Simulation time: 2 hr 22 min 21 sec) 
Heartbeat CPU 3 instructions: 480000000 cycles: 451852089 heartbeat IPC: 1.03153 cumulative IPC: 1.02945 (Simulation time: 2 hr 23 min 28 sec) 
Heartbeat CPU 6 instructions: 190000000 cycles: 457408647 heartbeat IPC: 0.341466 cumulative IPC: 0.337202 (Simulation time: 2 hr 25 min 0 sec) 
Heartbeat CPU 2 instructions: 410000003 cycles: 458831327 heartbeat IPC: 0.78881 cumulative IPC: 0.831202 (Simulation time: 2 hr 25 min 23 sec) 
Heartbeat CPU 7 instructions: 120000000 cycles: 460954286 heartbeat IPC: 0.189288 cumulative IPC: 0.187627 (Simulation time: 2 hr 25 min 59 sec) 
Heartbeat CPU 3 instructions: 490000000 cycles: 461547638 heartbeat IPC: 1.0314 cumulative IPC: 1.02949 (Simulation time: 2 hr 26 min 8 sec) 
Heartbeat CPU 3 instructions: 500000000 cycles: 471247685 heartbeat IPC: 1.03092 cumulative IPC: 1.02952 (Simulation time: 2 hr 28 min 48 sec) 
Heartbeat CPU 1 instructions: 240000000 cycles: 471444431 heartbeat IPC: 0.425433 cumulative IPC: 0.426506 (Simulation time: 2 hr 28 min 51 sec) 
Heartbeat CPU 2 instructions: 420000000 cycles: 471646102 heartbeat IPC: 0.780349 cumulative IPC: 0.829756 (Simulation time: 2 hr 28 min 54 sec) 
Heartbeat CPU 3 instructions: 510000000 cycles: 481046039 heartbeat IPC: 1.02058 cumulative IPC: 1.02933 (Simulation time: 2 hr 31 min 24 sec) 
Heartbeat CPU 2 instructions: 430000002 cycles: 484328268 heartbeat IPC: 0.788509 cumulative IPC: 0.828627 (Simulation time: 2 hr 32 min 16 sec) 
Heartbeat CPU 6 instructions: 200000000 cycles: 486616442 heartbeat IPC: 0.342374 cumulative IPC: 0.337527 (Simulation time: 2 hr 32 min 53 sec) 
Heartbeat CPU 0 instructions: 80000000 cycles: 487660858 heartbeat IPC: 0.129361 cumulative IPC: 0.128598 (Simulation time: 2 hr 33 min 10 sec) 
Heartbeat CPU 3 instructions: 520000000 cycles: 490707345 heartbeat IPC: 1.03506 cumulative IPC: 1.02945 (Simulation time: 2 hr 33 min 57 sec) 
Heartbeat CPU 1 instructions: 250000000 cycles: 494945668 heartbeat IPC: 0.42551 cumulative IPC: 0.426457 (Simulation time: 2 hr 35 min 3 sec) 
Heartbeat CPU 2 instructions: 440000000 cycles: 496917070 heartbeat IPC: 0.794357 cumulative IPC: 0.82772 (Simulation time: 2 hr 35 min 34 sec) 
Heartbeat CPU 3 instructions: 530000002 cycles: 500378481 heartbeat IPC: 1.034 cumulative IPC: 1.02954 (Simulation time: 2 hr 36 min 28 sec) 
Heartbeat CPU 5 instructions: 90000002 cycles: 503365765 heartbeat IPC: 0.111404 cumulative IPC: 0.116564 (Simulation time: 2 hr 37 min 15 sec) 
Heartbeat CPU 2 instructions: 450000002 cycles: 509250328 heartbeat IPC: 0.810816 cumulative IPC: 0.827293 (Simulation time: 2 hr 38 min 47 sec) 
Heartbeat CPU 3 instructions: 540000000 cycles: 510064199 heartbeat IPC: 1.03245 cumulative IPC: 1.0296 (Simulation time: 2 hr 38 min 59 sec) 
Heartbeat CPU 7 instructions: 130000002 cycles: 513418949 heartbeat IPC: 0.190605 cumulative IPC: 0.187944 (Simulation time: 2 hr 39 min 51 sec) 
Heartbeat CPU 6 instructions: 210000002 cycles: 515531795 heartbeat IPC: 0.345837 cumulative IPC: 0.338013 (Simulation time: 2 hr 40 min 22 sec) 
Heartbeat CPU 1 instructions: 260000000 cycles: 518487496 heartbeat IPC: 0.424776 cumulative IPC: 0.426377 (Simulation time: 2 hr 41 min 8 sec) 
Heartbeat CPU 3 instructions: 550000002 cycles: 519768367 heartbeat IPC: 1.03049 cumulative IPC: 1.02961 (Simulation time: 2 hr 41 min 28 sec) 
Heartbeat CPU 2 instructions: 460000000 cycles: 521900982 heartbeat IPC: 0.790473 cumulative IPC: 0.826363 (Simulation time: 2 hr 42 min 0 sec) 
Heartbeat CPU 3 instructions: 560000000 cycles: 529454891 heartbeat IPC: 1.03236 cumulative IPC: 1.02967 (Simulation time: 2 hr 43 min 58 sec) 
Heartbeat CPU 4 instructions: 90000000 cycles: 532452100 heartbeat IPC: 0.0913721 cumulative IPC: 0.0921084 (Simulation time: 2 hr 44 min 45 sec) 
Heartbeat CPU 2 instructions: 470000002 cycles: 534778152 heartbeat IPC: 0.776568 cumulative IPC: 0.825114 (Simulation time: 2 hr 45 min 21 sec) 
Heartbeat CPU 3 instructions: 570000003 cycles: 539135846 heartbeat IPC: 1.03296 cumulative IPC: 1.02973 (Simulation time: 2 hr 46 min 29 sec) 
Heartbeat CPU 1 instructions: 270000000 cycles: 541406344 heartbeat IPC: 0.436322 cumulative IPC: 0.426815 (Simulation time: 2 hr 47 min 6 sec) 
Heartbeat CPU 6 instructions: 220000000 cycles: 545274890 heartbeat IPC: 0.336212 cumulative IPC: 0.33791 (Simulation time: 2 hr 48 min 9 sec) 
Heartbeat CPU 2 instructions: 480000000 cycles: 547152724 heartbeat IPC: 0.808109 cumulative IPC: 0.824714 (Simulation time: 2 hr 48 min 38 sec) 
Heartbeat CPU 3 instructions: 580000000 cycles: 548768410 heartbeat IPC: 1.03814 cumulative IPC: 1.02988 (Simulation time: 2 hr 49 min 3 sec) 
Finished CPU 7 instructions: 100000000 cycles: 531470188 cumulative IPC: 0.188157 (Simulation time: 2 hr 50 min 3 sec) 
Heartbeat CPU 3 instructions: 590000003 cycles: 558467182 heartbeat IPC: 1.03106 cumulative IPC: 1.0299 (Simulation time: 2 hr 51 min 34 sec) 
Heartbeat CPU 2 instructions: 490000001 cycles: 559895113 heartbeat IPC: 0.784782 cumulative IPC: 0.82377 (Simulation time: 2 hr 51 min 57 sec) 
Heartbeat CPU 1 instructions: 280000000 cycles: 563667896 heartbeat IPC: 0.449205 cumulative IPC: 0.427734 (Simulation time: 2 hr 52 min 55 sec) 
Heartbeat CPU 0 instructions: 90000003 cycles: 564712574 heartbeat IPC: 0.129783 cumulative IPC: 0.128766 (Simulation time: 2 hr 53 min 12 sec) 
Heartbeat CPU 7 instructions: 140000000 cycles: 565803401 heartbeat IPC: 0.190896 cumulative IPC: 0.188228 (Simulation time: 2 hr 53 min 29 sec) 
Heartbeat CPU 3 instructions: 600000000 cycles: 568108975 heartbeat IPC: 1.03715 cumulative IPC: 1.03003 (Simulation time: 2 hr 54 min 4 sec) 
Heartbeat CPU 2 instructions: 500000000 cycles: 572682216 heartbeat IPC: 0.782038 cumulative IPC: 0.822803 (Simulation time: 2 hr 55 min 15 sec) 
Heartbeat CPU 6 instructions: 230000003 cycles: 574996793 heartbeat IPC: 0.336452 cumulative IPC: 0.337832 (Simulation time: 2 hr 55 min 51 sec) 
Heartbeat CPU 3 instructions: 610000000 cycles: 577776851 heartbeat IPC: 1.03435 cumulative IPC: 1.03011 (Simulation time: 2 hr 56 min 34 sec) 
Heartbeat CPU 2 instructions: 510000000 cycles: 585328514 heartbeat IPC: 0.790745 cumulative IPC: 0.822084 (Simulation time: 2 hr 58 min 30 sec) 
Heartbeat CPU 1 instructions: 290000002 cycles: 587341684 heartbeat IPC: 0.422408 cumulative IPC: 0.427511 (Simulation time: 2 hr 59 min 1 sec) 
Heartbeat CPU 3 instructions: 620000000 cycles: 587529918 heartbeat IPC: 1.02532 cumulative IPC: 1.03002 (Simulation time: 2 hr 59 min 3 sec) 
Heartbeat CPU 5 instructions: 100000000 cycles: 596430683 heartbeat IPC: 0.107452 cumulative IPC: 0.11509 (Simulation time: 3 hr 1 min 21 sec) 
Heartbeat CPU 3 instructions: 630000003 cycles: 597280805 heartbeat IPC: 1.02555 cumulative IPC: 1.02995 (Simulation time: 3 hr 1 min 34 sec) 
Heartbeat CPU 2 instructions: 520000000 cycles: 597805995 heartbeat IPC: 0.801444 cumulative IPC: 0.821638 (Simulation time: 3 hr 1 min 43 sec) 
Heartbeat CPU 6 instructions: 240000000 cycles: 605721731 heartbeat IPC: 0.325468 cumulative IPC: 0.337182 (Simulation time: 3 hr 3 min 44 sec) 
Heartbeat CPU 3 instructions: 640000000 cycles: 606951772 heartbeat IPC: 1.03402 cumulative IPC: 1.03002 (Simulation time: 3 hr 4 min 3 sec) 
Heartbeat CPU 2 instructions: 530000002 cycles: 610402418 heartbeat IPC: 0.793876 cumulative IPC: 0.821044 (Simulation time: 3 hr 4 min 56 sec) 
Heartbeat CPU 1 instructions: 300000000 cycles: 611013437 heartbeat IPC: 0.422444 cumulative IPC: 0.427308 (Simulation time: 3 hr 5 min 5 sec) 
Heartbeat CPU 3 instructions: 650000002 cycles: 616654440 heartbeat IPC: 1.03064 cumulative IPC: 1.03003 (Simulation time: 3 hr 6 min 32 sec) 
Heartbeat CPU 7 instructions: 150000000 cycles: 618407922 heartbeat IPC: 0.190098 cumulative IPC: 0.188393 (Simulation time: 3 hr 6 min 59 sec) 
Heartbeat CPU 2 instructions: 540000000 cycles: 623040789 heartbeat IPC: 0.791241 cumulative IPC: 0.820418 (Simulation time: 3 hr 8 min 10 sec) 
Heartbeat CPU 3 instructions: 660000000 cycles: 626487279 heartbeat IPC: 1.017 cumulative IPC: 1.02981 (Simulation time: 3 hr 9 min 2 sec) 
Heartbeat CPU 1 instructions: 310000000 cycles: 634510312 heartbeat IPC: 0.425589 cumulative IPC: 0.427242 (Simulation time: 3 hr 11 min 3 sec) 
Heartbeat CPU 2 instructions: 550000001 cycles: 635643191 heartbeat IPC: 0.7935 cumulative IPC: 0.819866 (Simulation time: 3 hr 11 min 21 sec) 
Heartbeat CPU 6 instructions: 250000002 cycles: 636055045 heartbeat IPC: 0.329671 cumulative IPC: 0.336812 (Simulation time: 3 hr 11 min 27 sec) 
Heartbeat CPU 3 instructions: 670000000 cycles: 636116367 heartbeat IPC: 1.03852 cumulative IPC: 1.02995 (Simulation time: 3 hr 11 min 28 sec) 
Heartbeat CPU 4 instructions: 100000000 cycles: 640064210 heartbeat IPC: 0.0929263 cumulative IPC: 0.0922506 (Simulation time: 3 hr 12 min 26 sec) 
Heartbeat CPU 0 instructions: 100000000 cycles: 643039266 heartbeat IPC: 0.12767 cumulative IPC: 0.128628 (Simulation time: 3 hr 13 min 10 sec) 
Heartbeat CPU 3 instructions: 680000000 cycles: 645805503 heartbeat IPC: 1.03208 cumulative IPC: 1.02998 (Simulation time: 3 hr 13 min 51 sec) 
Heartbeat CPU 2 instructions: 560000000 cycles: 648363889 heartbeat IPC: 0.78612 cumulative IPC: 0.819182 (Simulation time: 3 hr 14 min 31 sec) 
Heartbeat CPU 3 instructions: 690000001 cycles: 655476533 heartbeat IPC: 1.03402 cumulative IPC: 1.03004 (Simulation time: 3 hr 16 min 17 sec) 
Heartbeat CPU 1 instructions: 320000000 cycles: 658480680 heartbeat IPC: 0.417182 cumulative IPC: 0.426864 (Simulation time: 3 hr 17 min 2 sec) 
Heartbeat CPU 2 instructions: 570000001 cycles: 661259790 heartbeat IPC: 0.77544 cumulative IPC: 0.818301 (Simulation time: 3 hr 17 min 46 sec) 
Heartbeat CPU 3 instructions: 700000000 cycles: 665186420 heartbeat IPC: 1.02988 cumulative IPC: 1.03004 (Simulation time: 3 hr 18 min 45 sec) 
Heartbeat CPU 6 instructions: 260000000 cycles: 666668518 heartbeat IPC: 0.326654 cumulative IPC: 0.33633 (Simulation time: 3 hr 19 min 8 sec) 
Heartbeat CPU 7 instructions: 160000000 cycles: 671482163 heartbeat IPC: 0.188415 cumulative IPC: 0.188394 (Simulation time: 3 hr 20 min 21 sec) 
Heartbeat CPU 2 instructions: 580000000 cycles: 674116356 heartbeat IPC: 0.777813 cumulative IPC: 0.817504 (Simulation time: 3 hr 21 min 2 sec) 
Heartbeat CPU 3 instructions: 710000003 cycles: 674860608 heartbeat IPC: 1.03368 cumulative IPC: 1.0301 (Simulation time: 3 hr 21 min 13 sec) 
Heartbeat CPU 1 instructions: 330000002 cycles: 682090905 heartbeat IPC: 0.423545 cumulative IPC: 0.426745 (Simulation time: 3 hr 23 min 3 sec) 
Heartbeat CPU 3 instructions: 720000000 cycles: 684538075 heartbeat IPC: 1.03333 cumulative IPC: 1.03014 (Simulation time: 3 hr 23 min 40 sec) 
Heartbeat CPU 2 instructions: 590000000 cycles: 686714559 heartbeat IPC: 0.793764 cumulative IPC: 0.817055 (Simulation time: 3 hr 24 min 13 sec) 
Heartbeat CPU 5 instructions: 110000001 cycles: 693010350 heartbeat IPC: 0.103541 cumulative IPC: 0.11343 (Simulation time: 3 hr 25 min 50 sec) 
Heartbeat CPU 3 instructions: 730000000 cycles: 694238758 heartbeat IPC: 1.03086 cumulative IPC: 1.03015 (Simulation time: 3 hr 26 min 9 sec) 
Heartbeat CPU 6 instructions: 270000001 cycles: 696458092 heartbeat IPC: 0.335688 cumulative IPC: 0.336302 (Simulation time: 3 hr 26 min 42 sec) 
Heartbeat CPU 2 instructions: 600000000 cycles: 699297889 heartbeat IPC: 0.794702 cumulative IPC: 0.81664 (Simulation time: 3 hr 27 min 26 sec) 
Heartbeat CPU 3 instructions: 740000000 cycles: 703893517 heartbeat IPC: 1.03576 cumulative IPC: 1.03023 (Simulation time: 3 hr 28 min 35 sec) 
Heartbeat CPU 1 instructions: 340000000 cycles: 705631123 heartbeat IPC: 0.424805 cumulative IPC: 0.426679 (Simulation time: 3 hr 29 min 2 sec) 
Heartbeat CPU 2 instructions: 610000003 cycles: 711750614 heartbeat IPC: 0.803037 cumulative IPC: 0.816395 (Simulation time: 3 hr 30 min 35 sec) 
Heartbeat CPU 3 instructions: 750000001 cycles: 713588801 heartbeat IPC: 1.03143 cumulative IPC: 1.03025 (Simulation time: 3 hr 31 min 3 sec) 
Heartbeat CPU 0 instructions: 110000002 cycles: 722096376 heartbeat IPC: 0.126491 cumulative IPC: 0.128387 (Simulation time: 3 hr 33 min 13 sec) 
Heartbeat CPU 3 instructions: 760000000 cycles: 723269015 heartbeat IPC: 1.03303 cumulative IPC: 1.03029 (Simulation time: 3 hr 33 min 31 sec) 
Heartbeat CPU 7 instructions: 170000002 cycles: 724062063 heartbeat IPC: 0.190187 cumulative IPC: 0.188528 (Simulation time: 3 hr 33 min 43 sec) 
Heartbeat CPU 2 instructions: 620000000 cycles: 724398132 heartbeat IPC: 0.790669 cumulative IPC: 0.815932 (Simulation time: 3 hr 33 min 48 sec) 
Heartbeat CPU 6 instructions: 280000000 cycles: 725805375 heartbeat IPC: 0.340747 cumulative IPC: 0.336487 (Simulation time: 3 hr 34 min 10 sec) 
Heartbeat CPU 1 instructions: 350000003 cycles: 728993820 heartbeat IPC: 0.428033 cumulative IPC: 0.426723 (Simulation time: 3 hr 34 min 58 sec) 
Heartbeat CPU 3 instructions: 770000003 cycles: 732942742 heartbeat IPC: 1.03373 cumulative IPC: 1.03033 (Simulation time: 3 hr 35 min 59 sec) 
Heartbeat CPU 2 instructions: 630000003 cycles: 736995608 heartbeat IPC: 0.79381 cumulative IPC: 0.815543 (Simulation time: 3 hr 37 min 0 sec) 
Heartbeat CPU 3 instructions: 780000000 cycles: 742639857 heartbeat IPC: 1.03123 cumulative IPC: 1.03035 (Simulation time: 3 hr 38 min 25 sec) 
Heartbeat CPU 4 instructions: 110000001 cycles: 746598231 heartbeat IPC: 0.0938667 cumulative IPC: 0.0924879 (Simulation time: 3 hr 39 min 26 sec) 
Heartbeat CPU 2 instructions: 640000000 cycles: 749688792 heartbeat IPC: 0.787824 cumulative IPC: 0.81506 (Simulation time: 3 hr 40 min 12 sec) 
Heartbeat CPU 3 instructions: 790000001 cycles: 752289975 heartbeat IPC: 1.03626 cumulative IPC: 1.03042 (Simulation time: 3 hr 40 min 52 sec) 
Heartbeat CPU 1 instructions: 360000000 cycles: 752443670 heartbeat IPC: 0.426442 cumulative IPC: 0.426714 (Simulation time: 3 hr 40 min 54 sec) 
Heartbeat CPU 6 instructions: 290000002 cycles: 754752639 heartbeat IPC: 0.345456 cumulative IPC: 0.336841 (Simulation time: 3 hr 41 min 29 sec) 
Heartbeat CPU 3 instructions: 800000000 cycles: 761935214 heartbeat IPC: 1.03678 cumulative IPC: 1.03051 (Simulation time: 3 hr 43 min 20 sec) 
Heartbeat CPU 2 instructions: 650000003 cycles: 762071220 heartbeat IPC: 0.807596 cumulative IPC: 0.814935 (Simulation time: 3 hr 43 min 22 sec) 
Heartbeat CPU 3 instructions: 810000001 cycles: 771708793 heartbeat IPC: 1.02317 cumulative IPC: 1.03041 (Simulation time: 3 hr 45 min 48 sec) 
Heartbeat CPU 2 instructions: 660000000 cycles: 774855424 heartbeat IPC: 0.782215 cumulative IPC: 0.81438 (Simulation time: 3 hr 46 min 36 sec) 
Heartbeat CPU 1 instructions: 370000001 cycles: 776123996 heartbeat IPC: 0.422292 cumulative IPC: 0.426575 (Simulation time: 3 hr 46 min 55 sec) 
Heartbeat CPU 7 instructions: 180000000 cycles: 776643373 heartbeat IPC: 0.190182 cumulative IPC: 0.188643 (Simulation time: 3 hr 47 min 3 sec) 
Heartbeat CPU 3 instructions: 820000000 cycles: 781415237 heartbeat IPC: 1.03024 cumulative IPC: 1.03041 (Simulation time: 3 hr 48 min 16 sec) 
Heartbeat CPU 5 instructions: 120000000 cycles: 783448354 heartbeat IPC: 0.110573 cumulative IPC: 0.113091 (Simulation time: 3 hr 48 min 47 sec) 
Heartbeat CPU 6 instructions: 300000000 cycles: 783940313 heartbeat IPC: 0.34261 cumulative IPC: 0.337062 (Simulation time: 3 hr 48 min 55 sec) 
Heartbeat CPU 2 instructions: 670000001 cycles: 787589960 heartbeat IPC: 0.785266 cumulative IPC: 0.813896 (Simulation time: 3 hr 49 min 50 sec) 
Heartbeat CPU 3 instructions: 830000003 cycles: 791112146 heartbeat IPC: 1.03126 cumulative IPC: 1.03042 (Simulation time: 3 hr 50 min 45 sec) 
Heartbeat CPU 1 instructions: 380000000 cycles: 799657508 heartbeat IPC: 0.424926 cumulative IPC: 0.426526 (Simulation time: 3 hr 52 min 56 sec) 
Heartbeat CPU 2 instructions: 680000000 cycles: 800231192 heartbeat IPC: 0.791062 cumulative IPC: 0.813526 (Simulation time: 3 hr 53 min 5 sec) 
Heartbeat CPU 3 instructions: 840000000 cycles: 800782072 heartbeat IPC: 1.03413 cumulative IPC: 1.03047 (Simulation time: 3 hr 53 min 13 sec) 
Heartbeat CPU 0 instructions: 120000000 cycles: 801810917 heartbeat IPC: 0.125448 cumulative IPC: 0.128087 (Simulation time: 3 hr 53 min 29 sec) 
Finished CPU 0 instructions: 100000000 cycles: 780719976 cumulative IPC: 0.128087 (Simulation time: 3 hr 53 min 29 sec) 
Heartbeat CPU 3 instructions: 850000000 cycles: 810429569 heartbeat IPC: 1.03654 cumulative IPC: 1.03054 (Simulation time: 3 hr 55 min 40 sec) 
Heartbeat CPU 6 instructions: 310000001 cycles: 812959374 heartbeat IPC: 0.344601 cumulative IPC: 0.337338 (Simulation time: 3 hr 56 min 19 sec) 
Heartbeat CPU 2 instructions: 690000003 cycles: 812963011 heartbeat IPC: 0.785434 cumulative IPC: 0.813074 (Simulation time: 3 hr 56 min 19 sec) 
Heartbeat CPU 3 instructions: 860000000 cycles: 820104460 heartbeat IPC: 1.0336 cumulative IPC: 1.03058 (Simulation time: 3 hr 58 min 7 sec) 
Heartbeat CPU 1 instructions: 390000003 cycles: 823236102 heartbeat IPC: 0.424114 cumulative IPC: 0.426455 (Simulation time: 3 hr 58 min 54 sec) 
Heartbeat CPU 2 instructions: 700000000 cycles: 825671651 heartbeat IPC: 0.786866 cumulative IPC: 0.81266 (Simulation time: 3 hr 59 min 31 sec) 
Heartbeat CPU 7 instructions: 190000001 cycles: 829536487 heartbeat IPC: 0.189061 cumulative IPC: 0.188671 (Simulation time: 4 hr 0 min 30 sec) 
Heartbeat CPU 3 instructions: 870000000 cycles: 829759116 heartbeat IPC: 1.03577 cumulative IPC: 1.03064 (Simulation time: 4 hr 0 min 33 sec) 
Heartbeat CPU 2 instructions: 710000002 cycles: 838198072 heartbeat IPC: 0.798313 cumulative IPC: 0.81244 (Simulation time: 4 hr 2 min 40 sec) 
Heartbeat CPU 3 instructions: 880000000 cycles: 839586491 heartbeat IPC: 1.01757 cumulative IPC: 1.03048 (Simulation time: 4 hr 3 min 1 sec) 
Heartbeat CPU 6 instructions: 320000000 cycles: 841528220 heartbeat IPC: 0.350032 cumulative IPC: 0.33778 (Simulation time: 4 hr 3 min 30 sec) 
Heartbeat CPU 1 instructions: 400000000 cycles: 846847249 heartbeat IPC: 0.423529 cumulative IPC: 0.426371 (Simulation time: 4 hr 4 min 52 sec) 
Heartbeat CPU 3 instructions: 890000000 cycles: 849269571 heartbeat IPC: 1.03273 cumulative IPC: 1.03051 (Simulation time: 4 hr 5 min 28 sec) 
Heartbeat CPU 2 instructions: 720000000 cycles: 850815138 heartbeat IPC: 0.792577 cumulative IPC: 0.812138 (Simulation time: 4 hr 5 min 52 sec) 
Heartbeat CPU 4 instructions: 120000000 cycles: 855508396 heartbeat IPC: 0.0918188 cumulative IPC: 0.0924006 (Simulation time: 4 hr 7 min 3 sec) 
Heartbeat CPU 3 instructions: 900000000 cycles: 858931868 heartbeat IPC: 1.03495 cumulative IPC: 1.03056 (Simulation time: 4 hr 7 min 55 sec) 
Heartbeat CPU 2 instructions: 730000002 cycles: 863375831 heartbeat IPC: 0.796135 cumulative IPC: 0.8119 (Simulation time: 4 hr 9 min 2 sec) 
Heartbeat CPU 3 instructions: 910000000 cycles: 868593709 heartbeat IPC: 1.035 cumulative IPC: 1.03061 (Simulation time: 4 hr 10 min 22 sec) 
Heartbeat CPU 6 instructions: 330000002 cycles: 869894094 heartbeat IPC: 0.352536 cumulative IPC: 0.338273 (Simulation time: 4 hr 10 min 42 sec) 
Heartbeat CPU 5 instructions: 130000000 cycles: 869997794 heartbeat IPC: 0.115541 cumulative IPC: 0.113341 (Simulation time: 4 hr 10 min 44 sec) 
Heartbeat CPU 1 instructions: 410000001 cycles: 870293657 heartbeat IPC: 0.426505 cumulative IPC: 0.426375 (Simulation time: 4 hr 10 min 48 sec) 
Heartbeat CPU 2 instructions: 740000000 cycles: 876000088 heartbeat IPC: 0.792126 cumulative IPC: 0.811608 (Simulation time: 4 hr 12 min 16 sec) 
Heartbeat CPU 3 instructions: 920000000 cycles: 878258940 heartbeat IPC: 1.03464 cumulative IPC: 1.03066 (Simulation time: 4 hr 12 min 49 sec) 
Heartbeat CPU 0 instructions: 130000000 cycles: 881748880 heartbeat IPC: 0.125097 cumulative IPC: 0.127809 (Simulation time: 4 hr 13 min 42 sec) 
Heartbeat CPU 7 instructions: 200000000 cycles: 881967564 heartbeat IPC: 0.190727 cumulative IPC: 0.188796 (Simulation time: 4 hr 13 min 45 sec) 
Heartbeat CPU 3 instructions: 930000002 cycles: 887927889 heartbeat IPC: 1.03424 cumulative IPC: 1.0307 (Simulation time: 4 hr 15 min 15 sec) 
Heartbeat CPU 2 instructions: 750000003 cycles: 888328862 heartbeat IPC: 0.811111 cumulative IPC: 0.811601 (Simulation time: 4 hr 15 min 21 sec) 
Heartbeat CPU 1 instructions: 420000000 cycles: 894201439 heartbeat IPC: 0.418274 cumulative IPC: 0.426153 (Simulation time: 4 hr 16 min 49 sec) 
Heartbeat CPU 3 instructions: 940000000 cycles: 897628166 heartbeat IPC: 1.0309 cumulative IPC: 1.0307 (Simulation time: 4 hr 17 min 40 sec) 
Heartbeat CPU 6 instructions: 340000000 cycles: 898839801 heartbeat IPC: 0.345474 cumulative IPC: 0.338511 (Simulation time: 4 hr 17 min 58 sec) 
Heartbeat CPU 2 instructions: 760000000 cycles: 900790712 heartbeat IPC: 0.802449 cumulative IPC: 0.811471 (Simulation time: 4 hr 18 min 27 sec) 
Finished CPU 5 instructions: 100000001 cycles: 880596389 cumulative IPC: 0.113559 (Simulation time: 4 hr 18 min 41 sec) 
Heartbeat CPU 3 instructions: 950000000 cycles: 907341513 heartbeat IPC: 1.02951 cumulative IPC: 1.03069 (Simulation time: 4 hr 19 min 58 sec) 
Heartbeat CPU 3 instructions: 960000000 cycles: 917006967 heartbeat IPC: 1.03461 cumulative IPC: 1.03073 (Simulation time: 4 hr 22 min 9 sec) 
Heartbeat CPU 1 instructions: 430000002 cycles: 918507360 heartbeat IPC: 0.411422 cumulative IPC: 0.425754 (Simulation time: 4 hr 22 min 29 sec) 
Heartbeat CPU 2 instructions: 770000000 cycles: 926243481 heartbeat IPC: 0.392885 cumulative IPC: 0.7997 (Simulation time: 4 hr 24 min 10 sec) 
Heartbeat CPU 3 instructions: 970000003 cycles: 926884706 heartbeat IPC: 1.01238 cumulative IPC: 1.03053 (Simulation time: 4 hr 24 min 18 sec) 
Heartbeat CPU 6 instructions: 350000000 cycles: 929344868 heartbeat IPC: 0.327814 cumulative IPC: 0.338151 (Simulation time: 4 hr 24 min 50 sec) 
Heartbeat CPU 3 instructions: 980000000 cycles: 936693099 heartbeat IPC: 1.01953 cumulative IPC: 1.03041 (Simulation time: 4 hr 26 min 25 sec) 
Heartbeat CPU 7 instructions: 210000003 cycles: 936718013 heartbeat IPC: 0.182647 cumulative IPC: 0.188428 (Simulation time: 4 hr 26 min 25 sec) 
Heartbeat CPU 1 instructions: 440000000 cycles: 943900548 heartbeat IPC: 0.393806 cumulative IPC: 0.424875 (Simulation time: 4 hr 27 min 58 sec) 
Heartbeat CPU 3 instructions: 990000001 cycles: 946524461 heartbeat IPC: 1.01715 cumulative IPC: 1.03027 (Simulation time: 4 hr 28 min 32 sec) 
Heartbeat CPU 3 instructions: 1000000000 cycles: 956341257 heartbeat IPC: 1.01866 cumulative IPC: 1.03015 (Simulation time: 4 hr 30 min 39 sec) 
Heartbeat CPU 2 instructions: 780000000 cycles: 957225820 heartbeat IPC: 0.322765 cumulative IPC: 0.783916 (Simulation time: 4 hr 30 min 51 sec) 
Heartbeat CPU 5 instructions: 140000000 cycles: 957847435 heartbeat IPC: 0.113831 cumulative IPC: 0.113387 (Simulation time: 4 hr 30 min 59 sec) 
Heartbeat CPU 6 instructions: 360000000 cycles: 960588476 heartbeat IPC: 0.320065 cumulative IPC: 0.33755 (Simulation time: 4 hr 31 min 34 sec) 
Heartbeat CPU 0 instructions: 140000000 cycles: 963615791 heartbeat IPC: 0.122149 cumulative IPC: 0.127318 (Simulation time: 4 hr 32 min 13 sec) 
Heartbeat CPU 3 instructions: 1010000002 cycles: 966110223 heartbeat IPC: 1.02365 cumulative IPC: 1.03008 (Simulation time: 4 hr 32 min 46 sec) 
Heartbeat CPU 4 instructions: 130000000 cycles: 967873482 heartbeat IPC: 0.0889956 cumulative IPC: 0.0919965 (Simulation time: 4 hr 33 min 9 sec) 
Heartbeat CPU 1 instructions: 450000003 cycles: 969431563 heartbeat IPC: 0.391681 cumulative IPC: 0.423981 (Simulation time: 4 hr 33 min 28 sec) 
Heartbeat CPU 3 instructions: 1020000000 cycles: 975853757 heartbeat IPC: 1.02632 cumulative IPC: 1.03004 (Simulation time: 4 hr 34 min 52 sec) 
Heartbeat CPU 3 instructions: 1030000000 cycles: 985655281 heartbeat IPC: 1.02025 cumulative IPC: 1.02994 (Simulation time: 4 hr 36 min 58 sec) 
Heartbeat CPU 2 instructions: 790000000 cycles: 987850433 heartbeat IPC: 0.326535 cumulative IPC: 0.769427 (Simulation time: 4 hr 37 min 27 sec) 
Heartbeat CPU 6 instructions: 370000000 cycles: 992331471 heartbeat IPC: 0.31503 cumulative IPC: 0.336814 (Simulation time: 4 hr 38 min 25 sec) 
Heartbeat CPU 7 instructions: 220000000 cycles: 993424681 heartbeat IPC: 0.176346 cumulative IPC: 0.187724 (Simulation time: 4 hr 38 min 39 sec) 
Heartbeat CPU 1 instructions: 460000000 cycles: 994825268 heartbeat IPC: 0.393798 cumulative IPC: 0.423194 (Simulation time: 4 hr 38 min 57 sec) 
Heartbeat CPU 3 instructions: 1040000000 cycles: 995413606 heartbeat IPC: 1.02477 cumulative IPC: 1.02989 (Simulation time: 4 hr 39 min 5 sec) 
Heartbeat CPU 3 instructions: 1050000000 cycles: 1005150955 heartbeat IPC: 1.02697 cumulative IPC: 1.02986 (Simulation time: 4 hr 41 min 12 sec) 
Heartbeat CPU 3 instructions: 1060000000 cycles: 1014929800 heartbeat IPC: 1.02262 cumulative IPC: 1.02979 (Simulation time: 4 hr 43 min 17 sec) 
Heartbeat CPU 2 instructions: 800000000 cycles: 1019064646 heartbeat IPC: 0.320367 cumulative IPC: 0.755381 (Simulation time: 4 hr 44 min 11 sec) 
Heartbeat CPU 1 instructions: 470000003 cycles: 1020460308 heartbeat IPC: 0.390091 cumulative IPC: 0.422345 (Simulation time: 4 hr 44 min 29 sec) 
Heartbeat CPU 6 instructions: 380000000 cycles: 1024020753 heartbeat IPC: 0.315564 cumulative IPC: 0.336142 (Simulation time: 4 hr 45 min 16 sec) 
Heartbeat CPU 3 instructions: 1070000001 cycles: 1024758969 heartbeat IPC: 1.01738 cumulative IPC: 1.02967 (Simulation time: 4 hr 45 min 26 sec) 
Heartbeat CPU 3 instructions: 1080000000 cycles: 1034532709 heartbeat IPC: 1.02315 cumulative IPC: 1.02961 (Simulation time: 4 hr 47 min 33 sec) 
Heartbeat CPU 0 instructions: 150000000 cycles: 1044276437 heartbeat IPC: 0.123976 cumulative IPC: 0.127054 (Simulation time: 4 hr 49 min 40 sec) 
Heartbeat CPU 3 instructions: 1090000002 cycles: 1044317764 heartbeat IPC: 1.02197 cumulative IPC: 1.02953 (Simulation time: 4 hr 49 min 40 sec) 
Heartbeat CPU 1 instructions: 480000000 cycles: 1045913369 heartbeat IPC: 0.39288 cumulative IPC: 0.421613 (Simulation time: 4 hr 50 min 1 sec) 
Heartbeat CPU 2 instructions: 810000000 cycles: 1049916705 heartbeat IPC: 0.324127 cumulative IPC: 0.742449 (Simulation time: 4 hr 50 min 53 sec) 
Heartbeat CPU 5 instructions: 150000003 cycles: 1050245800 heartbeat IPC: 0.108227 cumulative IPC: 0.112924 (Simulation time: 4 hr 50 min 58 sec) 
Heartbeat CPU 7 instructions: 230000002 cycles: 1050499044 heartbeat IPC: 0.17521 cumulative IPC: 0.18703 (Simulation time: 4 hr 51 min 1 sec) 
Heartbeat CPU 3 instructions: 1100000000 cycles: 1054083446 heartbeat IPC: 1.02399 cumulative IPC: 1.02948 (Simulation time: 4 hr 51 min 48 sec) 
Heartbeat CPU 6 instructions: 390000001 cycles: 1054991253 heartbeat IPC: 0.322888 cumulative IPC: 0.335745 (Simulation time: 4 hr 52 min 0 sec) 
Heartbeat CPU 3 instructions: 1110000002 cycles: 1063842713 heartbeat IPC: 1.02467 cumulative IPC: 1.02944 (Simulation time: 4 hr 53 min 55 sec) 
Heartbeat CPU 1 instructions: 490000001 cycles: 1071577324 heartbeat IPC: 0.389652 cumulative IPC: 0.420832 (Simulation time: 4 hr 55 min 35 sec) 
Heartbeat CPU 3 instructions: 1120000000 cycles: 1073728819 heartbeat IPC: 1.01152 cumulative IPC: 1.02927 (Simulation time: 4 hr 56 min 3 sec) 
Heartbeat CPU 4 instructions: 140000000 cycles: 1081061092 heartbeat IPC: 0.0883489 cumulative IPC: 0.091607 (Simulation time: 4 hr 57 min 39 sec) 
Heartbeat CPU 2 instructions: 820000000 cycles: 1081292048 heartbeat IPC: 0.318722 cumulative IPC: 0.729909 (Simulation time: 4 hr 57 min 42 sec) 
Heartbeat CPU 3 instructions: 1130000003 cycles: 1083518336 heartbeat IPC: 1.0215 cumulative IPC: 1.0292 (Simulation time: 4 hr 58 min 11 sec) 
Heartbeat CPU 6 instructions: 400000000 cycles: 1086878424 heartbeat IPC: 0.313606 cumulative IPC: 0.335083 (Simulation time: 4 hr 58 min 54 sec) 
Heartbeat CPU 3 instructions: 1140000000 cycles: 1093332836 heartbeat IPC: 1.0189 cumulative IPC: 1.0291 (Simulation time: 5 hr 0 min 18 sec) 
Heartbeat CPU 1 instructions: 500000000 cycles: 1097392935 heartbeat IPC: 0.387362 cumulative IPC: 0.420029 (Simulation time: 5 hr 1 min 11 sec) 
Heartbeat CPU 3 instructions: 1150000002 cycles: 1103155285 heartbeat IPC: 1.01808 cumulative IPC: 1.029 (Simulation time: 5 hr 2 min 26 sec) 
Heartbeat CPU 7 instructions: 240000000 cycles: 1107523268 heartbeat IPC: 0.175364 cumulative IPC: 0.186418 (Simulation time: 5 hr 3 min 24 sec) 
Heartbeat CPU 3 instructions: 1160000000 cycles: 1112919667 heartbeat IPC: 1.02413 cumulative IPC: 1.02896 (Simulation time: 5 hr 4 min 34 sec) 
Heartbeat CPU 2 instructions: 830000002 cycles: 1113348661 heartbeat IPC: 0.311948 cumulative IPC: 0.717643 (Simulation time: 5 hr 4 min 39 sec) 
Finished CPU 4 instructions: 100000002 cycles: 1092969410 cumulative IPC: 0.0914939 (Simulation time: 5 hr 4 min 48 sec) 

CPU 0 Branch Prediction Accuracy: 92.5641% MPKI: 5.98785

CPU 1 Branch Prediction Accuracy: 99.8888% MPKI: 0.0192113

CPU 2 Branch Prediction Accuracy: 99.9083% MPKI: 0.0434247

CPU 3 Branch Prediction Accuracy: 99.9824% MPKI: 0.00116285

CPU 4 Branch Prediction Accuracy: 99.5571% MPKI: 1.27239

CPU 5 Branch Prediction Accuracy: 96.7024% MPKI: 8.74637

CPU 6 Branch Prediction Accuracy: 97.0752% MPKI: 0.494792

CPU 7 Branch Prediction Accuracy: 96.3191% MPKI: 7.9601

ChampSim completed all CPUs

Total Simulation Statistics (not including warmup)

CPU 0 cumulative IPC: 0.127012 instructions: 138819781 cycles: 1092969409
L1D TOTAL     ACCESS:   73948212  HIT:   61435846  MISS:   12512366
L1D LOAD      ACCESS:   46540000  HIT:   40098931  MISS:    6441069
L1D RFO       ACCESS:   27408212  HIT:   21336915  MISS:    6071297
L1D PREFETCH  ACCESS:          0  HIT:          0  MISS:          0
L1D WRITEBACK ACCESS:          0  HIT:          0  MISS:          0
L1I TOTAL     ACCESS:   33823422  HIT:   33823422  MISS:          0
L1I LOAD      ACCESS:   33823422  HIT:   33823422  MISS:          0
L1I RFO       ACCESS:          0  HIT:          0  MISS:          0
L1I PREFETCH  ACCESS:          0  HIT:          0  MISS:          0
L1I WRITEBACK ACCESS:          0  HIT:          0  MISS:          0
L2C TOTAL     ACCESS:   28743795  HIT:   14389133  MISS:   14354662
L2C LOAD      ACCESS:    6440996  HIT:    1690183  MISS:    4750813
L2C RFO       ACCESS:    6071297  HIT:        115  MISS:    6071182
L2C PREFETCH  ACCESS:    3719136  HIT:     193566  MISS:    3525570
L2C WRITEBACK ACCESS:   12512366  HIT:   12505269  MISS:       7097

L2C Best-offset prefetcher final stats
LLC TOTAL     ACCESS:   26406060  HIT:   16016439  MISS:   10389621
LLC LOAD      ACCESS:    3738607  HIT:    2017853  MISS:    1720754
LLC RFO       ACCESS:    6071182  HIT:      73466  MISS:    5997716
LLC PREFETCH  ACCESS:    4537966  HIT:    1867162  MISS:    2670804
LLC WRITEBACK ACCESS:   12058305  HIT:   12057958  MISS:        347

CPU 1 cumulative IPC: 0.419557 instructions: 458563163 cycles: 1092969410
L1D TOTAL     ACCESS:   96437367  HIT:   90411398  MISS:    6025969
L1D LOAD      ACCESS:   64157533  HIT:   58140555  MISS:    6016978
L1D RFO       ACCESS:   32279834  HIT:   32270843  MISS:       8991
L1D PREFETCH  ACCESS:          0  HIT:          0  MISS:          0
L1D WRITEBACK ACCESS:          0  HIT:          0  MISS:          0
L1I TOTAL     ACCESS:   93155739  HIT:   93155462  MISS:        277
L1I LOAD      ACCESS:   93155739  HIT:   93155462  MISS:        277
L1I RFO       ACCESS:          0  HIT:          0  MISS:          0
L1I PREFETCH  ACCESS:          0  HIT:          0  MISS:          0
L1I WRITEBACK ACCESS:          0  HIT:          0  MISS:          0
L2C TOTAL     ACCESS:   13047604  HIT:    7194448  MISS:    5853156
L2C LOAD      ACCESS:    6017255  HIT:    3187451  MISS:    2829804
L2C RFO       ACCESS:       8991  HIT:       2029  MISS:       6962
L2C PREFETCH  ACCESS:    3021239  HIT:       4855  MISS:    3016384
L2C WRITEBACK ACCESS:    4000119  HIT:    4000113  MISS:          6

L2C Best-offset prefetcher final stats
LLC TOTAL     ACCESS:    9851492  HIT:    5838531  MISS:    4012961
LLC LOAD      ACCESS:     120731  HIT:      52833  MISS:      67898
LLC RFO       ACCESS:       6959  HIT:       6348  MISS:        611
LLC PREFETCH  ACCESS:    5725524  HIT:    1784695  MISS:    3940829
LLC WRITEBACK ACCESS:    3998278  HIT:    3994655  MISS:       3623

CPU 2 cumulative IPC: 0.717364 instructions: 784057227 cycles: 1092969410
L1D TOTAL     ACCESS:  233711618  HIT:  218027681  MISS:   15683937
L1D LOAD      ACCESS:  204078224  HIT:  189545232  MISS:   14532992
L1D RFO       ACCESS:   29633394  HIT:   28482449  MISS:    1150945
L1D PREFETCH  ACCESS:          0  HIT:          0  MISS:          0
L1D WRITEBACK ACCESS:          0  HIT:          0  MISS:          0
L1I TOTAL     ACCESS:  196250291  HIT:  196250043  MISS:        248
L1I LOAD      ACCESS:  196250291  HIT:  196250043  MISS:        248
L1I RFO       ACCESS:          0  HIT:          0  MISS:          0
L1I PREFETCH  ACCESS:          0  HIT:          0  MISS:          0
L1I WRITEBACK ACCESS:          0  HIT:          0  MISS:          0
L2C TOTAL     ACCESS:   28077851  HIT:   15951806  MISS:   12126045
L2C LOAD      ACCESS:   14532468  HIT:   12358658  MISS:    2173810
L2C RFO       ACCESS:    1150945  HIT:         58  MISS:    1150887
L2C PREFETCH  ACCESS:    8819545  HIT:      21918  MISS:    8797627
L2C WRITEBACK ACCESS:    3574893  HIT:    3571172  MISS:       3721

L2C Best-offset prefetcher final stats
LLC TOTAL     ACCESS:   13401076  HIT:    2909984  MISS:   10491092
LLC LOAD      ACCESS:     850599  HIT:     210459  MISS:     640140
LLC RFO       ACCESS:    1150887  HIT:     109976  MISS:    1040911
LLC PREFETCH  ACCESS:   10244651  HIT:    1435579  MISS:    8809072
LLC WRITEBACK ACCESS:    1154939  HIT:    1153970  MISS:        969

CPU 3 cumulative IPC: 1.02895 instructions: 1124611188 cycles: 1092969410
L1D TOTAL     ACCESS:  447922436  HIT:  358488527  MISS:   89433909
L1D LOAD      ACCESS:  359226338  HIT:  277204347  MISS:   82021991
L1D RFO       ACCESS:   88696098  HIT:   81284180  MISS:    7411918
L1D PREFETCH  ACCESS:          0  HIT:          0  MISS:          0
L1D WRITEBACK ACCESS:          0  HIT:          0  MISS:          0
L1I TOTAL     ACCESS:  263020563  HIT:  230596102  MISS:   32424461
L1I LOAD      ACCESS:  263020563  HIT:  230596102  MISS:   32424461
L1I RFO       ACCESS:          0  HIT:          0  MISS:          0
L1I PREFETCH  ACCESS:          0  HIT:          0  MISS:          0
L1I WRITEBACK ACCESS:          0  HIT:          0  MISS:          0
L2C TOTAL     ACCESS:  137494268  HIT:  126751766  MISS:   10742502
L2C LOAD      ACCESS:  114440510  HIT:  111447381  MISS:    2993129
L2C RFO       ACCESS:    7406101  HIT:    6326523  MISS:    1079578
L2C PREFETCH  ACCESS:    7394564  HIT:     741045  MISS:    6653519
L2C WRITEBACK ACCESS:    8253093  HIT:    8236817  MISS:      16276

L2C Best-offset prefetcher final stats
LLC TOTAL     ACCESS:   13543725  HIT:   10536680  MISS:    3007045
LLC LOAD      ACCESS:    2987652  HIT:    2920448  MISS:      67204
LLC RFO       ACCESS:     986454  HIT:     328191  MISS:     658263
LLC PREFETCH  ACCESS:    8465913  HIT:    6189959  MISS:    2275954
LLC WRITEBACK ACCESS:    1103706  HIT:    1098082  MISS:       5624

CPU 4 cumulative IPC: 0.0914939 instructions: 100000002 cycles: 1092969410
L1D TOTAL     ACCESS:   17564616  HIT:   10322655  MISS:    7241961
L1D LOAD      ACCESS:   16096824  HIT:    8857601  MISS:    7239223
L1D RFO       ACCESS:    1467792  HIT:    1465054  MISS:       2738
L1D PREFETCH  ACCESS:          0  HIT:          0  MISS:          0
L1D WRITEBACK ACCESS:          0  HIT:          0  MISS:          0
L1I TOTAL     ACCESS:   36325628  HIT:   36325603  MISS:         25
L1I LOAD      ACCESS:   36325628  HIT:   36325603  MISS:         25
L1I RFO       ACCESS:          0  HIT:          0  MISS:          0
L1I PREFETCH  ACCESS:          0  HIT:          0  MISS:          0
L1I WRITEBACK ACCESS:          0  HIT:          0  MISS:          0
L2C TOTAL     ACCESS:   11995846  HIT:    4784487  MISS:    7211359
L2C LOAD      ACCESS:    7239248  HIT:    4755142  MISS:    2484106
L2C RFO       ACCESS:       2738  HIT:        151  MISS:       2587
L2C PREFETCH  ACCESS:    4728402  HIT:       3736  MISS:    4724666
L2C WRITEBACK ACCESS:      25458  HIT:      25458  MISS:          0

L2C Best-offset prefetcher final stats
LLC TOTAL     ACCESS:    7456041  HIT:     245852  MISS:    7210189
LLC LOAD      ACCESS:    2158160  HIT:     232909  MISS:    1925251
LLC RFO       ACCESS:       2587  HIT:         76  MISS:       2511
LLC PREFETCH  ACCESS:    5284073  HIT:       1658  MISS:    5282415
LLC WRITEBACK ACCESS:      11221  HIT:      11209  MISS:         12

CPU 5 cumulative IPC: 0.113235 instructions: 123762618 cycles: 1092969410
L1D TOTAL     ACCESS:   28669338  HIT:    9881190  MISS:   18788148
L1D LOAD      ACCESS:   26235535  HIT:    7492967  MISS:   18742568
L1D RFO       ACCESS:    2433803  HIT:    2388223  MISS:      45580
L1D PREFETCH  ACCESS:          0  HIT:          0  MISS:          0
L1D WRITEBACK ACCESS:          0  HIT:          0  MISS:          0
L1I TOTAL     ACCESS:   26925568  HIT:   26925568  MISS:          0
L1I LOAD      ACCESS:   26925568  HIT:   26925568  MISS:          0
L1I RFO       ACCESS:          0  HIT:          0  MISS:          0
L1I PREFETCH  ACCESS:          0  HIT:          0  MISS:          0
L1I WRITEBACK ACCESS:          0  HIT:          0  MISS:          0
L2C TOTAL     ACCESS:   29494715  HIT:    5739292  MISS:   23755423
L2C LOAD      ACCESS:   18742531  HIT:    5122187  MISS:   13620344
L2C RFO       ACCESS:      45579  HIT:        846  MISS:      44733
L2C PREFETCH  ACCESS:   10325044  HIT:     234916  MISS:   10090128
L2C WRITEBACK ACCESS:     381561  HIT:     381343  MISS:        218

L2C Best-offset prefetcher final stats
LLC TOTAL     ACCESS:   25261768  HIT:   15392545  MISS:    9869223
LLC LOAD      ACCESS:   13559035  HIT:    9264531  MISS:    4294504
LLC RFO       ACCESS:      44733  HIT:      40232  MISS:       4501
LLC PREFETCH  ACCESS:   11290742  HIT:    5720524  MISS:    5570218
LLC WRITEBACK ACCESS:     367258  HIT:     367258  MISS:          0

CPU 6 cumulative IPC: 0.334677 instructions: 365791648 cycles: 1092969410
L1D TOTAL     ACCESS:  104014880  HIT:   75237041  MISS:   28777839
L1D LOAD      ACCESS:   36841988  HIT:   32478385  MISS:    4363603
L1D RFO       ACCESS:   67172892  HIT:   42758656  MISS:   24414236
L1D PREFETCH  ACCESS:          0  HIT:          0  MISS:          0
L1D WRITEBACK ACCESS:          0  HIT:          0  MISS:          0
L1I TOTAL     ACCESS:   84958285  HIT:   84958285  MISS:          0
L1I LOAD      ACCESS:   84958285  HIT:   84958285  MISS:          0
L1I RFO       ACCESS:          0  HIT:          0  MISS:          0
L1I PREFETCH  ACCESS:          0  HIT:          0  MISS:          0
L1I WRITEBACK ACCESS:          0  HIT:          0  MISS:          0
L2C TOTAL     ACCESS:   55013288  HIT:   33277902  MISS:   21735386
L2C LOAD      ACCESS:    4363603  HIT:    1364879  MISS:    2998724
L2C RFO       ACCESS:   24414209  HIT:    7047556  MISS:   17366653
L2C PREFETCH  ACCESS:    1821243  HIT:     457593  MISS:    1363650
L2C WRITEBACK ACCESS:   24414233  HIT:   24407874  MISS:       6359

L2C Best-offset prefetcher final stats
LLC TOTAL     ACCESS:   39091652  HIT:   21659630  MISS:   17432022
LLC LOAD      ACCESS:    2362462  HIT:       2343  MISS:    2360119
LLC RFO       ACCESS:   17356480  HIT:    4283468  MISS:   13073012
LLC PREFETCH  ACCESS:    1999912  HIT:       2278  MISS:    1997634
LLC WRITEBACK ACCESS:   17372798  HIT:   17371541  MISS:       1257

CPU 7 cumulative IPC: 0.186355 instructions: 203680772 cycles: 1092969410
L1D TOTAL     ACCESS:   62112242  HIT:   56579825  MISS:    5532417
L1D LOAD      ACCESS:   42346915  HIT:   36816054  MISS:    5530861
L1D RFO       ACCESS:   19765327  HIT:   19763771  MISS:       1556
L1D PREFETCH  ACCESS:          0  HIT:          0  MISS:          0
L1D WRITEBACK ACCESS:          0  HIT:          0  MISS:          0
L1I TOTAL     ACCESS:   50809655  HIT:   50809655  MISS:          0
L1I LOAD      ACCESS:   50809655  HIT:   50809655  MISS:          0
L1I RFO       ACCESS:          0  HIT:          0  MISS:          0
L1I PREFETCH  ACCESS:          0  HIT:          0  MISS:          0
L1I WRITEBACK ACCESS:          0  HIT:          0  MISS:          0
L2C TOTAL     ACCESS:    7006920  HIT:    3372458  MISS:    3634462
L2C LOAD      ACCESS:    5530862  HIT:    3349890  MISS:    2180972
L2C RFO       ACCESS:       1556  HIT:       1075  MISS:        481
L2C PREFETCH  ACCESS:    1461367  HIT:       8358  MISS:    1453009
L2C WRITEBACK ACCESS:      13135  HIT:      13135  MISS:          0

L2C Best-offset prefetcher final stats
LLC TOTAL     ACCESS:    3639453  HIT:       7284  MISS:    3632169
LLC LOAD      ACCESS:      95630  HIT:       1569  MISS:      94061
LLC RFO       ACCESS:        280  HIT:          1  MISS:        279
LLC PREFETCH  ACCESS:    3538552  HIT:        757  MISS:    3537795
LLC WRITEBACK ACCESS:       4991  HIT:       4957  MISS:         34

Region of Interest Statistics

CPU 0 cumulative IPC: 0.128087 instructions: 100000000 cycles: 780719976
L1D TOTAL     ACCESS:   53252250  HIT:   44229380  MISS:    9022870
L1D LOAD      ACCESS:   33537918  HIT:   28888480  MISS:    4649438
L1D RFO       ACCESS:   19714332  HIT:   15340900  MISS:    4373432
L1D PREFETCH  ACCESS:          0  HIT:          0  MISS:          0
L1D WRITEBACK ACCESS:          0  HIT:          0  MISS:          0
L1D PREFETCH  REQUESTED:          0  ISSUED:          0  USEFUL:          0  USELESS:          0
L1I TOTAL     ACCESS:   24145855  HIT:   24145855  MISS:          0
L1I LOAD      ACCESS:   24145855  HIT:   24145855  MISS:          0
L1I RFO       ACCESS:          0  HIT:          0  MISS:          0
L1I PREFETCH  ACCESS:          0  HIT:          0  MISS:          0
L1I WRITEBACK ACCESS:          0  HIT:          0  MISS:          0
L1I PREFETCH  REQUESTED:          0  ISSUED:          0  USEFUL:          0  USELESS:          0
L2C TOTAL     ACCESS:   20850564  HIT:   10275096  MISS:   10575468
L2C LOAD      ACCESS:    4649401  HIT:    1114072  MISS:    3535329
L2C RFO       ACCESS:    4373432  HIT:          7  MISS:    4373425
L2C PREFETCH  ACCESS:    2804862  HIT:     143638  MISS:    2661224
L2C WRITEBACK ACCESS:    9022869  HIT:    9017379  MISS:       5490
L2C PREFETCH  REQUESTED:    6693717  ISSUED:    6693717  USEFUL:    1660660  USELESS:    2580412
LLC TOTAL     ACCESS:   19378098  HIT:   11896575  MISS:    7481523
LLC LOAD      ACCESS:    2812877  HIT:    1589034  MISS:    1223843
LLC RFO       ACCESS:    4373425  HIT:      22884  MISS:    4350541
LLC PREFETCH  ACCESS:    3383817  HIT:    1476704  MISS:    1907113
LLC WRITEBACK ACCESS:    8807979  HIT:    8807953  MISS:         26
LLC PREFETCH  REQUESTED:          0  ISSUED:          0  USEFUL:    2396583  USELESS:   38404619
Major fault: 0 Minor fault: 274672

CPU 1 cumulative IPC: 0.428171 instructions: 100000000 cycles: 233551566
L1D TOTAL     ACCESS:   21017087  HIT:   19693706  MISS:    1323381
L1D LOAD      ACCESS:   13999879  HIT:   12678031  MISS:    1321848
L1D RFO       ACCESS:    7017208  HIT:    7015675  MISS:       1533
L1D PREFETCH  ACCESS:          0  HIT:          0  MISS:          0
L1D WRITEBACK ACCESS:          0  HIT:          0  MISS:          0
L1D PREFETCH  REQUESTED:          0  ISSUED:          0  USEFUL:          0  USELESS:          0
L1I TOTAL     ACCESS:   20237602  HIT:   20237602  MISS:          0
L1I LOAD      ACCESS:   20237602  HIT:   20237602  MISS:          0
L1I RFO       ACCESS:          0  HIT:          0  MISS:          0
L1I PREFETCH  ACCESS:          0  HIT:          0  MISS:          0
L1I WRITEBACK ACCESS:          0  HIT:          0  MISS:          0
L1I PREFETCH  REQUESTED:          0  ISSUED:          0  USEFUL:          0  USELESS:          0
L2C TOTAL     ACCESS:    2889931  HIT:    1603206  MISS:    1286725
L2C LOAD      ACCESS:    1321848  HIT:     723260  MISS:     598588
L2C RFO       ACCESS:       1533  HIT:        286  MISS:       1247
L2C PREFETCH  ACCESS:     688052  HIT:       1162  MISS:     686890
L2C WRITEBACK ACCESS:     878498  HIT:     878498  MISS:          0
L2C PREFETCH  REQUESTED:    6342000  ISSUED:    6342000  USEFUL:    3604469  USELESS:      16510
LLC TOTAL     ACCESS:    2164910  HIT:    1284665  MISS:     880245
LLC LOAD      ACCESS:      30641  HIT:      13068  MISS:      17573
LLC RFO       ACCESS:       1246  HIT:       1245  MISS:          1
LLC PREFETCH  ACCESS:    1254880  HIT:     392270  MISS:     862610
LLC WRITEBACK ACCESS:     878143  HIT:     878082  MISS:         61
LLC PREFETCH  REQUESTED:          0  ISSUED:          0  USEFUL:    2396583  USELESS:   38404619
Major fault: 0 Minor fault: 69109

CPU 2 cumulative IPC: 0.958263 instructions: 100000000 cycles: 104355511
L1D TOTAL     ACCESS:   29896584  HIT:   28586101  MISS:    1310483
L1D LOAD      ACCESS:   22589299  HIT:   21691242  MISS:     898057
L1D RFO       ACCESS:    7307285  HIT:    6894859  MISS:     412426
L1D PREFETCH  ACCESS:          0  HIT:          0  MISS:          0
L1D WRITEBACK ACCESS:          0  HIT:          0  MISS:          0
L1D PREFETCH  REQUESTED:          0  ISSUED:          0  USEFUL:          0  USELESS:          0
L1I TOTAL     ACCESS:   24976555  HIT:   24976382  MISS:        173
L1I LOAD      ACCESS:   24976555  HIT:   24976382  MISS:        173
L1I RFO       ACCESS:          0  HIT:          0  MISS:          0
L1I PREFETCH  ACCESS:          0  HIT:          0  MISS:          0
L1I WRITEBACK ACCESS:          0  HIT:          0  MISS:          0
L1I PREFETCH  REQUESTED:          0  ISSUED:          0  USEFUL:          0  USELESS:          0
L2C TOTAL     ACCESS:    2336050  HIT:    1272280  MISS:    1063770
L2C LOAD      ACCESS:     898213  HIT:     789173  MISS:     109040
L2C RFO       ACCESS:     412426  HIT:         58  MISS:     412368
L2C PREFETCH  ACCESS:     543411  HIT:       2604  MISS:     540807
L2C WRITEBACK ACCESS:     482000  HIT:     480445  MISS:       1555
L2C PREFETCH  REQUESTED:   10523364  ISSUED:   10523364  USEFUL:    8707476  USELESS:     320584
LLC TOTAL     ACCESS:    1486563  HIT:     741843  MISS:     744720
LLC LOAD      ACCESS:      53998  HIT:      23945  MISS:      30053
LLC RFO       ACCESS:     412368  HIT:     109359  MISS:     303009
LLC PREFETCH  ACCESS:     605635  HIT:     194037  MISS:     411598
LLC WRITEBACK ACCESS:     414562  HIT:     414502  MISS:         60
LLC PREFETCH  REQUESTED:          0  ISSUED:          0  USEFUL:    2396583  USELESS:   38404619
Major fault: 0 Minor fault: 255387

CPU 3 cumulative IPC: 1.02225 instructions: 100000001 cycles: 97823851
L1D TOTAL     ACCESS:   39825318  HIT:   31873869  MISS:    7951449
L1D LOAD      ACCESS:   31938535  HIT:   24646217  MISS:    7292318
L1D RFO       ACCESS:    7886783  HIT:    7227652  MISS:     659131
L1D PREFETCH  ACCESS:          0  HIT:          0  MISS:          0
L1D WRITEBACK ACCESS:          0  HIT:          0  MISS:          0
L1D PREFETCH  REQUESTED:          0  ISSUED:          0  USEFUL:          0  USELESS:          0
L1I TOTAL     ACCESS:   23388415  HIT:   20504795  MISS:    2883620
L1I LOAD      ACCESS:   23388415  HIT:   20504795  MISS:    2883620
L1I RFO       ACCESS:          0  HIT:          0  MISS:          0
L1I PREFETCH  ACCESS:          0  HIT:          0  MISS:          0
L1I WRITEBACK ACCESS:          0  HIT:          0  MISS:          0
L1I PREFETCH  REQUESTED:          0  ISSUED:          0  USEFUL:          0  USELESS:          0
L2C TOTAL     ACCESS:   12217366  HIT:   11263753  MISS:     953613
L2C LOAD      ACCESS:   10175431  HIT:    9901181  MISS:     274250
L2C RFO       ACCESS:     658620  HIT:     563266  MISS:      95354
L2C PREFETCH  ACCESS:     649431  HIT:      66825  MISS:     582606
L2C WRITEBACK ACCESS:     733884  HIT:     732481  MISS:       1403
L2C PREFETCH  REQUESTED:    9577373  ISSUED:    9567579  USEFUL:    6636629  USELESS:     309694
LLC TOTAL     ACCESS:    1209595  HIT:     938640  MISS:     270955
LLC LOAD      ACCESS:     273735  HIT:     267106  MISS:       6629
LLC RFO       ACCESS:      87249  HIT:      28687  MISS:      58562
LLC PREFETCH  ACCESS:     751215  HIT:     545930  MISS:     205285
LLC WRITEBACK ACCESS:      97396  HIT:      96917  MISS:        479
LLC PREFETCH  REQUESTED:          0  ISSUED:          0  USEFUL:    2396583  USELESS:   38404619
Major fault: 0 Minor fault: 25762

CPU 4 cumulative IPC: 0.0914939 instructions: 100000002 cycles: 1092969410
L1D TOTAL     ACCESS:   17564616  HIT:   10322655  MISS:    7241961
L1D LOAD      ACCESS:   16096824  HIT:    8857601  MISS:    7239223
L1D RFO       ACCESS:    1467792  HIT:    1465054  MISS:       2738
L1D PREFETCH  ACCESS:          0  HIT:          0  MISS:          0
L1D WRITEBACK ACCESS:          0  HIT:          0  MISS:          0
L1D PREFETCH  REQUESTED:          0  ISSUED:          0  USEFUL:          0  USELESS:          0
L1I TOTAL     ACCESS:   36325628  HIT:   36325603  MISS:         25
L1I LOAD      ACCESS:   36325628  HIT:   36325603  MISS:         25
L1I RFO       ACCESS:          0  HIT:          0  MISS:          0
L1I PREFETCH  ACCESS:          0  HIT:          0  MISS:          0
L1I WRITEBACK ACCESS:          0  HIT:          0  MISS:          0
L1I PREFETCH  REQUESTED:          0  ISSUED:          0  USEFUL:          0  USELESS:          0
L2C TOTAL     ACCESS:   11995846  HIT:    4784487  MISS:    7211359
L2C LOAD      ACCESS:    7239248  HIT:    4755142  MISS:    2484106
L2C RFO       ACCESS:       2738  HIT:        151  MISS:       2587
L2C PREFETCH  ACCESS:    4728402  HIT:       3736  MISS:    4724666
L2C WRITEBACK ACCESS:      25458  HIT:      25458  MISS:          0
L2C PREFETCH  REQUESTED:    8010186  ISSUED:    8010186  USEFUL:    7155402  USELESS:     263230
LLC TOTAL     ACCESS:    7456041  HIT:     245852  MISS:    7210189
LLC LOAD      ACCESS:    2158160  HIT:     232909  MISS:    1925251
LLC RFO       ACCESS:       2587  HIT:         76  MISS:       2511
LLC PREFETCH  ACCESS:    5284073  HIT:       1658  MISS:    5282415
LLC WRITEBACK ACCESS:      11221  HIT:      11209  MISS:         12
LLC PREFETCH  REQUESTED:          0  ISSUED:          0  USEFUL:    2396583  USELESS:   38404619
Major fault: 0 Minor fault: 48146

CPU 5 cumulative IPC: 0.113559 instructions: 100000001 cycles: 880596389
L1D TOTAL     ACCESS:   23137730  HIT:    7955685  MISS:   15182045
L1D LOAD      ACCESS:   21161386  HIT:    6016801  MISS:   15144585
L1D RFO       ACCESS:    1976344  HIT:    1938884  MISS:      37460
L1D PREFETCH  ACCESS:          0  HIT:          0  MISS:          0
L1D WRITEBACK ACCESS:          0  HIT:          0  MISS:          0
L1D PREFETCH  REQUESTED:          0  ISSUED:          0  USEFUL:          0  USELESS:          0
L1I TOTAL     ACCESS:   21732342  HIT:   21732342  MISS:          0
L1I LOAD      ACCESS:   21732342  HIT:   21732342  MISS:          0
L1I RFO       ACCESS:          0  HIT:          0  MISS:          0
L1I PREFETCH  ACCESS:          0  HIT:          0  MISS:          0
L1I WRITEBACK ACCESS:          0  HIT:          0  MISS:          0
L1I PREFETCH  REQUESTED:          0  ISSUED:          0  USEFUL:          0  USELESS:          0
L2C TOTAL     ACCESS:   23830155  HIT:    4633726  MISS:   19196429
L2C LOAD      ACCESS:   15144558  HIT:    4122774  MISS:   11021784
L2C RFO       ACCESS:      37459  HIT:        779  MISS:      36680
L2C PREFETCH  ACCESS:    8326137  HIT:     188359  MISS:    8137778
L2C WRITEBACK ACCESS:     322001  HIT:     321814  MISS:        187
L2C PREFETCH  REQUESTED:   15187426  ISSUED:   15187426  USEFUL:    5672400  USELESS:    7940070
LLC TOTAL     ACCESS:   20382942  HIT:   12424231  MISS:    7958711
LLC LOAD      ACCESS:   10981923  HIT:    7488874  MISS:    3493049
LLC RFO       ACCESS:      36680  HIT:      32934  MISS:       3746
LLC PREFETCH  ACCESS:    9054587  HIT:    4592671  MISS:    4461916
LLC WRITEBACK ACCESS:     309752  HIT:     309752  MISS:          0
LLC PREFETCH  REQUESTED:          0  ISSUED:          0  USEFUL:    2396583  USELESS:   38404619
Major fault: 0 Minor fault: 134386

CPU 6 cumulative IPC: 0.333972 instructions: 100000001 cycles: 299426711
L1D TOTAL     ACCESS:   28455915  HIT:   20564187  MISS:    7891728
L1D LOAD      ACCESS:   10070139  HIT:    8873628  MISS:    1196511
L1D RFO       ACCESS:   18385776  HIT:   11690559  MISS:    6695217
L1D PREFETCH  ACCESS:          0  HIT:          0  MISS:          0
L1D WRITEBACK ACCESS:          0  HIT:          0  MISS:          0
L1D PREFETCH  REQUESTED:          0  ISSUED:          0  USEFUL:          0  USELESS:          0
L1I TOTAL     ACCESS:   23236166  HIT:   23236166  MISS:          0
L1I LOAD      ACCESS:   23236166  HIT:   23236166  MISS:          0
L1I RFO       ACCESS:          0  HIT:          0  MISS:          0
L1I PREFETCH  ACCESS:          0  HIT:          0  MISS:          0
L1I WRITEBACK ACCESS:          0  HIT:          0  MISS:          0
L1I PREFETCH  REQUESTED:          0  ISSUED:          0  USEFUL:          0  USELESS:          0
L2C TOTAL     ACCESS:   15085843  HIT:    9122748  MISS:    5963095
L2C LOAD      ACCESS:    1196511  HIT:     373891  MISS:     822620
L2C RFO       ACCESS:    6695208  HIT:    1930069  MISS:    4765139
L2C PREFETCH  ACCESS:     498912  HIT:     125213  MISS:     373699
L2C WRITEBACK ACCESS:    6695212  HIT:    6693575  MISS:       1637
L2C PREFETCH  REQUESTED:    4791558  ISSUED:    4791558  USEFUL:    1623778  USELESS:       1576
LLC TOTAL     ACCESS:   10725478  HIT:    5944685  MISS:    4780793
LLC LOAD      ACCESS:     648167  HIT:        601  MISS:     647566
LLC RFO       ACCESS:    4762425  HIT:    1177111  MISS:    3585314
LLC PREFETCH  ACCESS:     548152  HIT:        592  MISS:     547560
LLC WRITEBACK ACCESS:    4766734  HIT:    4766381  MISS:        353
LLC PREFETCH  REQUESTED:          0  ISSUED:          0  USEFUL:    2396583  USELESS:   38404619
Major fault: 0 Minor fault: 155140

CPU 7 cumulative IPC: 0.188157 instructions: 100000000 cycles: 531470188
L1D TOTAL     ACCESS:   30503859  HIT:   27787988  MISS:    2715871
L1D LOAD      ACCESS:   20800029  HIT:   18084906  MISS:    2715123
L1D RFO       ACCESS:    9703830  HIT:    9703082  MISS:        748
L1D PREFETCH  ACCESS:          0  HIT:          0  MISS:          0
L1D WRITEBACK ACCESS:          0  HIT:          0  MISS:          0
L1D PREFETCH  REQUESTED:          0  ISSUED:          0  USEFUL:          0  USELESS:          0
L1I TOTAL     ACCESS:   24910445  HIT:   24910445  MISS:          0
L1I LOAD      ACCESS:   24910445  HIT:   24910445  MISS:          0
L1I RFO       ACCESS:          0  HIT:          0  MISS:          0
L1I PREFETCH  ACCESS:          0  HIT:          0  MISS:          0
L1I WRITEBACK ACCESS:          0  HIT:          0  MISS:          0
L1I PREFETCH  REQUESTED:          0  ISSUED:          0  USEFUL:          0  USELESS:          0
L2C TOTAL     ACCESS:    3442909  HIT:    1659257  MISS:    1783652
L2C LOAD      ACCESS:    2715123  HIT:    1649076  MISS:    1066047
L2C RFO       ACCESS:        748  HIT:        498  MISS:        250
L2C PREFETCH  ACCESS:     720589  HIT:       3234  MISS:     717355
L2C WRITEBACK ACCESS:       6449  HIT:       6449  MISS:          0
L2C PREFETCH  REQUESTED:    4219115  ISSUED:    4219115  USEFUL:    2045219  USELESS:      16975
LLC TOTAL     ACCESS:    1786075  HIT:       3520  MISS:    1782555
LLC LOAD      ACCESS:      45441  HIT:        752  MISS:      44689
LLC RFO       ACCESS:        157  HIT:          0  MISS:        157
LLC PREFETCH  ACCESS:    1738054  HIT:        362  MISS:    1737692
LLC WRITEBACK ACCESS:       2423  HIT:       2406  MISS:         17
LLC PREFETCH  REQUESTED:          0  ISSUED:          0  USEFUL:    2396583  USELESS:   38404619
Major fault: 0 Minor fault: 73048

L2C Best-offset prefetcher final stats

L2C Best-offset prefetcher final stats

L2C Best-offset prefetcher final stats

L2C Best-offset prefetcher final stats

L2C Best-offset prefetcher final stats

L2C Best-offset prefetcher final stats

L2C Best-offset prefetcher final stats

L2C Best-offset prefetcher final stats

DRAM Statistics
 CHANNEL 0
 RQ ROW_BUFFER_HIT:   12076629  ROW_BUFFER_MISS:   20929970
 DBUS_CONGESTED:   76960897
 WQ ROW_BUFFER_HIT:    1002918  ROW_BUFFER_MISS:   13451461  FULL:          0

 CHANNEL 1
 RQ ROW_BUFFER_HIT:   12048459  ROW_BUFFER_MISS:   20976842
 DBUS_CONGESTED:   76960897
 WQ ROW_BUFFER_HIT:     999610  ROW_BUFFER_MISS:   13457553  FULL:          0

 AVG_CONGESTED_CYCLE: 14
