
*** ChampSim Multicore Out-of-Order Simulator ***

Warmup Instructions: 20000000
Simulation Instructions: 100000000
Number of CPUs: 8
LLC sets: 16384
LLC ways: 16
Off-chip DRAM Size: 8192 MB Channels: 2 Width: 64-bit Data Rate: 1600 MT/s

CPU 0 runs /scratch/user/djimenez/champsim-traces/speccpu2017/xz/603.bwaves_s/603.bwaves_s-2609B.champsimtrace.xz
CPU 1 runs /scratch/user/djimenez/champsim-traces/speccpu2017/xz/619.lbm_s/619.lbm_s-2676B.champsimtrace.xz
CPU 2 runs /scratch/user/djimenez/champsim-traces/speccpu2017/xz/649.fotonik3d_s/649.fotonik3d_s-8225B.champsimtrace.xz
CPU 3 runs /scratch/user/djimenez/champsim-traces/speccpu2017/xz/623.xalancbmk_s/623.xalancbmk_s-325B.champsimtrace.xz
CPU 4 runs /scratch/user/djimenez/champsim-traces/speccpu2017/xz/619.lbm_s/619.lbm_s-3766B.champsimtrace.xz
CPU 5 runs /scratch/user/djimenez/champsim-traces/speccpu2017/xz/602.gcc_s/602.gcc_s-2226B.champsimtrace.xz
CPU 6 runs /scratch/user/djimenez/champsim-traces/speccpu2017/xz/623.xalancbmk_s/623.xalancbmk_s-165B.champsimtrace.xz
CPU 7 runs /scratch/user/djimenez/champsim-traces/speccpu2017/xz/602.gcc_s/602.gcc_s-2375B.champsimtrace.xz
L2C Best-offset prefetcher
L2C Best-offset prefetcher
L2C Best-offset prefetcher
L2C Best-offset prefetcher
L2C Best-offset prefetcher
L2C Best-offset prefetcher
L2C Best-offset prefetcher
L2C Best-offset prefetcher
Heartbeat CPU 6 instructions: 10000001 cycles: 4211146 heartbeat IPC: 2.37465 cumulative IPC: 2.37465 (Simulation time: 0 hr 3 min 59 sec) 
Heartbeat CPU 4 instructions: 10000000 cycles: 4276552 heartbeat IPC: 2.33833 cumulative IPC: 2.33833 (Simulation time: 0 hr 4 min 3 sec) 
Heartbeat CPU 2 instructions: 10000001 cycles: 4399966 heartbeat IPC: 2.27275 cumulative IPC: 2.27275 (Simulation time: 0 hr 4 min 10 sec) 
Heartbeat CPU 1 instructions: 10000000 cycles: 4849897 heartbeat IPC: 2.0619 cumulative IPC: 2.0619 (Simulation time: 0 hr 4 min 36 sec) 
Heartbeat CPU 5 instructions: 10000000 cycles: 4881331 heartbeat IPC: 2.04862 cumulative IPC: 2.04862 (Simulation time: 0 hr 4 min 38 sec) 
Heartbeat CPU 0 instructions: 10000001 cycles: 5272598 heartbeat IPC: 1.8966 cumulative IPC: 1.8966 (Simulation time: 0 hr 5 min 1 sec) 
Heartbeat CPU 3 instructions: 10000000 cycles: 6129320 heartbeat IPC: 1.6315 cumulative IPC: 1.6315 (Simulation time: 0 hr 5 min 51 sec) 
Heartbeat CPU 7 instructions: 10000002 cycles: 6802429 heartbeat IPC: 1.47006 cumulative IPC: 1.47006 (Simulation time: 0 hr 6 min 31 sec) 
Heartbeat CPU 6 instructions: 20000000 cycles: 8393678 heartbeat IPC: 2.3909 cumulative IPC: 2.38275 (Simulation time: 0 hr 8 min 4 sec) 
Heartbeat CPU 4 instructions: 20000000 cycles: 8562102 heartbeat IPC: 2.33342 cumulative IPC: 2.33588 (Simulation time: 0 hr 8 min 13 sec) 
Heartbeat CPU 2 instructions: 20000000 cycles: 8799136 heartbeat IPC: 2.27316 cumulative IPC: 2.27295 (Simulation time: 0 hr 8 min 27 sec) 
Heartbeat CPU 1 instructions: 20000000 cycles: 9678333 heartbeat IPC: 2.07106 cumulative IPC: 2.06647 (Simulation time: 0 hr 9 min 19 sec) 
Heartbeat CPU 5 instructions: 20000000 cycles: 9758716 heartbeat IPC: 2.05028 cumulative IPC: 2.04945 (Simulation time: 0 hr 9 min 24 sec) 
Heartbeat CPU 0 instructions: 20000000 cycles: 10546540 heartbeat IPC: 1.89611 cumulative IPC: 1.89636 (Simulation time: 0 hr 10 min 9 sec) 
Heartbeat CPU 3 instructions: 20000000 cycles: 12345490 heartbeat IPC: 1.60871 cumulative IPC: 1.62002 (Simulation time: 0 hr 11 min 52 sec) 
Heartbeat CPU 6 instructions: 30000001 cycles: 12568279 heartbeat IPC: 2.39544 cumulative IPC: 0.795654 (Simulation time: 0 hr 12 min 5 sec) 
Heartbeat CPU 4 instructions: 30000001 cycles: 12838488 heartbeat IPC: 2.33842 cumulative IPC: 0.778908 (Simulation time: 0 hr 12 min 20 sec) 
Heartbeat CPU 2 instructions: 30000003 cycles: 13198057 heartbeat IPC: 2.27329 cumulative IPC: 0.757688 (Simulation time: 0 hr 12 min 40 sec) 
Heartbeat CPU 7 instructions: 20000000 cycles: 13357295 heartbeat IPC: 1.52558 cumulative IPC: 1.49731 (Simulation time: 0 hr 12 min 49 sec) 

Warmup complete CPU 0 instructions: 25334616 cycles: 13357296 (Simulation time: 0 hr 12 min 49 sec) 
Warmup complete CPU 1 instructions: 27592228 cycles: 13357296 (Simulation time: 0 hr 12 min 49 sec) 
Warmup complete CPU 2 instructions: 30361787 cycles: 13357296 (Simulation time: 0 hr 12 min 49 sec) 
Warmup complete CPU 3 instructions: 21567702 cycles: 13357296 (Simulation time: 0 hr 12 min 49 sec) 
Warmup complete CPU 4 instructions: 31192067 cycles: 13357296 (Simulation time: 0 hr 12 min 49 sec) 
Warmup complete CPU 5 instructions: 27379900 cycles: 13357296 (Simulation time: 0 hr 12 min 49 sec) 
Warmup complete CPU 6 instructions: 31889005 cycles: 13357296 (Simulation time: 0 hr 12 min 49 sec) 
Warmup complete CPU 7 instructions: 20000001 cycles: 13357296 (Simulation time: 0 hr 12 min 49 sec) 

Heartbeat CPU 0 instructions: 30000000 cycles: 18766677 heartbeat IPC: 1.21652 cumulative IPC: 0.862462 (Simulation time: 0 hr 14 min 38 sec) 
Heartbeat CPU 1 instructions: 30000001 cycles: 19066918 heartbeat IPC: 1.06512 cumulative IPC: 0.421704 (Simulation time: 0 hr 14 min 44 sec) 
Heartbeat CPU 6 instructions: 40000000 cycles: 24670032 heartbeat IPC: 0.826326 cumulative IPC: 0.716979 (Simulation time: 0 hr 16 min 41 sec) 
Heartbeat CPU 4 instructions: 40000000 cycles: 28551826 heartbeat IPC: 0.636402 cumulative IPC: 0.579678 (Simulation time: 0 hr 18 min 2 sec) 
Heartbeat CPU 0 instructions: 40000000 cycles: 32326215 heartbeat IPC: 0.737488 cumulative IPC: 0.773127 (Simulation time: 0 hr 19 min 21 sec) 
Heartbeat CPU 2 instructions: 40000000 cycles: 34904194 heartbeat IPC: 0.460699 cumulative IPC: 0.447313 (Simulation time: 0 hr 20 min 15 sec) 
Heartbeat CPU 3 instructions: 30000001 cycles: 35528785 heartbeat IPC: 0.431345 cumulative IPC: 0.380322 (Simulation time: 0 hr 20 min 28 sec) 
Heartbeat CPU 6 instructions: 50000003 cycles: 35691744 heartbeat IPC: 0.9073 cumulative IPC: 0.8109 (Simulation time: 0 hr 20 min 32 sec) 
Heartbeat CPU 5 instructions: 30000000 cycles: 36415900 heartbeat IPC: 0.375133 cumulative IPC: 0.113628 (Simulation time: 0 hr 20 min 47 sec) 
Heartbeat CPU 1 instructions: 40000000 cycles: 44433793 heartbeat IPC: 0.394215 cumulative IPC: 0.399265 (Simulation time: 0 hr 23 min 38 sec) 
Heartbeat CPU 0 instructions: 50000001 cycles: 45860045 heartbeat IPC: 0.738889 cumulative IPC: 0.758871 (Simulation time: 0 hr 24 min 8 sec) 
Heartbeat CPU 4 instructions: 50000003 cycles: 46145891 heartbeat IPC: 0.568374 cumulative IPC: 0.573612 (Simulation time: 0 hr 24 min 13 sec) 
Heartbeat CPU 6 instructions: 60000000 cycles: 46733397 heartbeat IPC: 0.905661 cumulative IPC: 0.842249 (Simulation time: 0 hr 24 min 25 sec) 
Heartbeat CPU 7 instructions: 30000001 cycles: 47265740 heartbeat IPC: 0.294912 cumulative IPC: 0.294912 (Simulation time: 0 hr 24 min 36 sec) 
Heartbeat CPU 2 instructions: 50000000 cycles: 57317933 heartbeat IPC: 0.446155 cumulative IPC: 0.446723 (Simulation time: 0 hr 28 min 5 sec) 
Heartbeat CPU 6 instructions: 70000000 cycles: 57934734 heartbeat IPC: 0.892751 cumulative IPC: 0.854939 (Simulation time: 0 hr 28 min 18 sec) 
Heartbeat CPU 0 instructions: 60000000 cycles: 59459719 heartbeat IPC: 0.735312 cumulative IPC: 0.751921 (Simulation time: 0 hr 28 min 51 sec) 
Heartbeat CPU 3 instructions: 40000000 cycles: 60163401 heartbeat IPC: 0.405933 cumulative IPC: 0.393801 (Simulation time: 0 hr 29 min 5 sec) 
Heartbeat CPU 4 instructions: 60000000 cycles: 63612312 heartbeat IPC: 0.572527 cumulative IPC: 0.573235 (Simulation time: 0 hr 30 min 16 sec) 
Heartbeat CPU 1 instructions: 50000001 cycles: 68934262 heartbeat IPC: 0.408156 cumulative IPC: 0.403185 (Simulation time: 0 hr 32 min 12 sec) 
Heartbeat CPU 6 instructions: 80000000 cycles: 68993127 heartbeat IPC: 0.90429 cumulative IPC: 0.864748 (Simulation time: 0 hr 32 min 14 sec) 
Heartbeat CPU 0 instructions: 70000003 cycles: 71981123 heartbeat IPC: 0.798633 cumulative IPC: 0.761898 (Simulation time: 0 hr 33 min 20 sec) 
Heartbeat CPU 3 instructions: 50000001 cycles: 76526927 heartbeat IPC: 0.611115 cumulative IPC: 0.450094 (Simulation time: 0 hr 34 min 58 sec) 
Heartbeat CPU 7 instructions: 40000000 cycles: 78997906 heartbeat IPC: 0.315138 cumulative IPC: 0.304689 (Simulation time: 0 hr 35 min 51 sec) 
Heartbeat CPU 2 instructions: 60000000 cycles: 79621408 heartbeat IPC: 0.448361 cumulative IPC: 0.447274 (Simulation time: 0 hr 36 min 5 sec) 
Heartbeat CPU 6 instructions: 90000000 cycles: 80353331 heartbeat IPC: 0.880266 cumulative IPC: 0.86738 (Simulation time: 0 hr 36 min 21 sec) 
Heartbeat CPU 4 instructions: 70000003 cycles: 80991161 heartbeat IPC: 0.575412 cumulative IPC: 0.573794 (Simulation time: 0 hr 36 min 35 sec) 
Heartbeat CPU 0 instructions: 80000000 cycles: 85371435 heartbeat IPC: 0.746808 cumulative IPC: 0.759092 (Simulation time: 0 hr 38 min 6 sec) 
Heartbeat CPU 6 instructions: 100000000 cycles: 91363994 heartbeat IPC: 0.908211 cumulative IPC: 0.873143 (Simulation time: 0 hr 40 min 17 sec) 
Heartbeat CPU 1 instructions: 60000000 cycles: 92497238 heartbeat IPC: 0.424395 cumulative IPC: 0.4095 (Simulation time: 0 hr 40 min 43 sec) 
Heartbeat CPU 3 instructions: 60000000 cycles: 94572794 heartbeat IPC: 0.554143 cumulative IPC: 0.473214 (Simulation time: 0 hr 41 min 28 sec) 
Heartbeat CPU 4 instructions: 80000000 cycles: 98374930 heartbeat IPC: 0.575249 cumulative IPC: 0.574092 (Simulation time: 0 hr 42 min 50 sec) 
Heartbeat CPU 0 instructions: 90000002 cycles: 98797285 heartbeat IPC: 0.744832 cumulative IPC: 0.756852 (Simulation time: 0 hr 42 min 59 sec) 
Heartbeat CPU 2 instructions: 70000002 cycles: 101956461 heartbeat IPC: 0.447727 cumulative IPC: 0.447388 (Simulation time: 0 hr 44 min 4 sec) 
Heartbeat CPU 6 instructions: 110000001 cycles: 102297577 heartbeat IPC: 0.914613 cumulative IPC: 0.878241 (Simulation time: 0 hr 44 min 11 sec) 
Heartbeat CPU 7 instructions: 50000000 cycles: 105140380 heartbeat IPC: 0.382519 cumulative IPC: 0.326858 (Simulation time: 0 hr 45 min 10 sec) 
Heartbeat CPU 0 instructions: 100000000 cycles: 112044239 heartbeat IPC: 0.75489 cumulative IPC: 0.756588 (Simulation time: 0 hr 47 min 33 sec) 
Heartbeat CPU 6 instructions: 120000000 cycles: 113279181 heartbeat IPC: 0.910614 cumulative IPC: 0.881799 (Simulation time: 0 hr 48 min 1 sec) 
Heartbeat CPU 1 instructions: 70000000 cycles: 115757853 heartbeat IPC: 0.429911 cumulative IPC: 0.414136 (Simulation time: 0 hr 48 min 53 sec) 
Heartbeat CPU 4 instructions: 90000000 cycles: 116037264 heartbeat IPC: 0.566177 cumulative IPC: 0.57273 (Simulation time: 0 hr 48 min 59 sec) 
Heartbeat CPU 3 instructions: 70000000 cycles: 123104136 heartbeat IPC: 0.350492 cumulative IPC: 0.441309 (Simulation time: 0 hr 51 min 28 sec) 
Heartbeat CPU 6 instructions: 130000003 cycles: 124233396 heartbeat IPC: 0.912891 cumulative IPC: 0.884871 (Simulation time: 0 hr 51 min 52 sec) 
Heartbeat CPU 2 instructions: 80000000 cycles: 124625940 heartbeat IPC: 0.441122 cumulative IPC: 0.446111 (Simulation time: 0 hr 52 min 0 sec) 
Heartbeat CPU 0 instructions: 110000002 cycles: 125271278 heartbeat IPC: 0.756027 cumulative IPC: 0.756522 (Simulation time: 0 hr 52 min 14 sec) 
Finished CPU 6 instructions: 100000002 cycles: 112925946 cumulative IPC: 0.885536 (Simulation time: 0 hr 52 min 36 sec) 
Heartbeat CPU 5 instructions: 40000000 cycles: 127607042 heartbeat IPC: 0.10966 cumulative IPC: 0.110461 (Simulation time: 0 hr 53 min 4 sec) 
Heartbeat CPU 7 instructions: 60000000 cycles: 128937716 heartbeat IPC: 0.420215 cumulative IPC: 0.346079 (Simulation time: 0 hr 53 min 32 sec) 
Heartbeat CPU 4 instructions: 100000000 cycles: 133385783 heartbeat IPC: 0.576418 cumulative IPC: 0.573263 (Simulation time: 0 hr 55 min 4 sec) 
Heartbeat CPU 6 instructions: 140000000 cycles: 135117815 heartbeat IPC: 0.918744 cumulative IPC: 0.887899 (Simulation time: 0 hr 55 min 40 sec) 
Heartbeat CPU 1 instructions: 80000000 cycles: 137590207 heartbeat IPC: 0.458036 cumulative IPC: 0.421851 (Simulation time: 0 hr 56 min 31 sec) 
Heartbeat CPU 0 instructions: 120000000 cycles: 138437404 heartbeat IPC: 0.759525 cumulative IPC: 0.756838 (Simulation time: 0 hr 56 min 48 sec) 
Finished CPU 0 instructions: 100000000 cycles: 131383649 cumulative IPC: 0.76113 (Simulation time: 0 hr 59 min 21 sec) 
Heartbeat CPU 6 instructions: 150000001 cycles: 146299247 heartbeat IPC: 0.89434 cumulative IPC: 0.88844 (Simulation time: 0 hr 59 min 58 sec) 
Heartbeat CPU 2 instructions: 90000000 cycles: 147756973 heartbeat IPC: 0.43232 cumulative IPC: 0.443738 (Simulation time: 1 hr 0 min 32 sec) 
Heartbeat CPU 0 instructions: 130000002 cycles: 150145447 heartbeat IPC: 0.854114 cumulative IPC: 0.765164 (Simulation time: 1 hr 1 min 31 sec) 
Heartbeat CPU 4 instructions: 110000001 cycles: 151603374 heartbeat IPC: 0.54892 cumulative IPC: 0.570055 (Simulation time: 1 hr 2 min 5 sec) 
Heartbeat CPU 3 instructions: 80000000 cycles: 153429196 heartbeat IPC: 0.32976 cumulative IPC: 0.417159 (Simulation time: 1 hr 2 min 48 sec) 
Heartbeat CPU 6 instructions: 160000000 cycles: 157512113 heartbeat IPC: 0.891833 cumulative IPC: 0.888704 (Simulation time: 1 hr 4 min 18 sec) 
Heartbeat CPU 1 instructions: 90000000 cycles: 159805123 heartbeat IPC: 0.450148 cumulative IPC: 0.426143 (Simulation time: 1 hr 5 min 12 sec) 
Heartbeat CPU 0 instructions: 140000000 cycles: 162569652 heartbeat IPC: 0.80488 cumulative IPC: 0.768471 (Simulation time: 1 hr 6 min 17 sec) 
Heartbeat CPU 7 instructions: 70000000 cycles: 165543350 heartbeat IPC: 0.273182 cumulative IPC: 0.328545 (Simulation time: 1 hr 7 min 23 sec) 
Heartbeat CPU 6 instructions: 170000001 cycles: 168896604 heartbeat IPC: 0.878388 cumulative IPC: 0.887949 (Simulation time: 1 hr 8 min 32 sec) 
Heartbeat CPU 4 instructions: 120000000 cycles: 170249214 heartbeat IPC: 0.536313 cumulative IPC: 0.566045 (Simulation time: 1 hr 9 min 1 sec) 
Heartbeat CPU 2 instructions: 100000000 cycles: 171105371 heartbeat IPC: 0.428295 cumulative IPC: 0.441452 (Simulation time: 1 hr 9 min 20 sec) 
Heartbeat CPU 0 instructions: 150000002 cycles: 173339119 heartbeat IPC: 0.928551 cumulative IPC: 0.779247 (Simulation time: 1 hr 10 min 10 sec) 
Heartbeat CPU 6 instructions: 180000000 cycles: 180055766 heartbeat IPC: 0.896125 cumulative IPC: 0.888496 (Simulation time: 1 hr 12 min 32 sec) 
Heartbeat CPU 1 instructions: 100000000 cycles: 181096021 heartbeat IPC: 0.469684 cumulative IPC: 0.43167 (Simulation time: 1 hr 12 min 53 sec) 
Heartbeat CPU 3 instructions: 90000002 cycles: 182556266 heartbeat IPC: 0.343323 cumulative IPC: 0.404449 (Simulation time: 1 hr 13 min 23 sec) 
Heartbeat CPU 0 instructions: 160000000 cycles: 186559523 heartbeat IPC: 0.756406 cumulative IPC: 0.777504 (Simulation time: 1 hr 14 min 47 sec) 
Heartbeat CPU 7 instructions: 80000000 cycles: 189007961 heartbeat IPC: 0.426174 cumulative IPC: 0.341587 (Simulation time: 1 hr 15 min 39 sec) 
Heartbeat CPU 4 instructions: 130000000 cycles: 190984583 heartbeat IPC: 0.482268 cumulative IPC: 0.556266 (Simulation time: 1 hr 16 min 20 sec) 
Heartbeat CPU 6 instructions: 190000001 cycles: 191248500 heartbeat IPC: 0.893437 cumulative IPC: 0.888807 (Simulation time: 1 hr 16 min 25 sec) 
Finished CPU 4 instructions: 100000001 cycles: 180101989 cumulative IPC: 0.555241 (Simulation time: 1 hr 17 min 12 sec) 
Heartbeat CPU 2 instructions: 110000002 cycles: 194268137 heartbeat IPC: 0.431727 cumulative IPC: 0.440207 (Simulation time: 1 hr 17 min 29 sec) 
Heartbeat CPU 0 instructions: 170000002 cycles: 198638771 heartbeat IPC: 0.827866 cumulative IPC: 0.780787 (Simulation time: 1 hr 19 min 4 sec) 
Heartbeat CPU 1 instructions: 110000002 cycles: 202229203 heartbeat IPC: 0.47319 cumulative IPC: 0.436316 (Simulation time: 1 hr 20 min 21 sec) 
Heartbeat CPU 6 instructions: 200000000 cycles: 202285146 heartbeat IPC: 0.906072 cumulative IPC: 0.889816 (Simulation time: 1 hr 20 min 22 sec) 
Heartbeat CPU 3 instructions: 100000000 cycles: 208367707 heartbeat IPC: 0.387425 cumulative IPC: 0.402195 (Simulation time: 1 hr 22 min 45 sec) 
Heartbeat CPU 7 instructions: 90000003 cycles: 209530065 heartbeat IPC: 0.48728 cumulative IPC: 0.356828 (Simulation time: 1 hr 23 min 11 sec) 
Heartbeat CPU 0 instructions: 180000000 cycles: 211947336 heartbeat IPC: 0.751396 cumulative IPC: 0.778817 (Simulation time: 1 hr 24 min 8 sec) 
Heartbeat CPU 4 instructions: 140000000 cycles: 213197762 heartbeat IPC: 0.450183 cumulative IPC: 0.544474 (Simulation time: 1 hr 24 min 37 sec) 
Heartbeat CPU 6 instructions: 210000002 cycles: 213372434 heartbeat IPC: 0.901934 cumulative IPC: 0.890488 (Simulation time: 1 hr 24 min 41 sec) 
Heartbeat CPU 2 instructions: 120000000 cycles: 217602174 heartbeat IPC: 0.428558 cumulative IPC: 0.438876 (Simulation time: 1 hr 26 min 15 sec) 
Heartbeat CPU 5 instructions: 50000003 cycles: 222106966 heartbeat IPC: 0.10582 cumulative IPC: 0.10836 (Simulation time: 1 hr 27 min 54 sec) 
Heartbeat CPU 1 instructions: 120000000 cycles: 222816714 heartbeat IPC: 0.485731 cumulative IPC: 0.441173 (Simulation time: 1 hr 28 min 9 sec) 
Heartbeat CPU 0 instructions: 190000000 cycles: 224763152 heartbeat IPC: 0.780286 cumulative IPC: 0.778906 (Simulation time: 1 hr 28 min 50 sec) 
Heartbeat CPU 6 instructions: 220000000 cycles: 225115783 heartbeat IPC: 0.851546 cumulative IPC: 0.888328 (Simulation time: 1 hr 28 min 57 sec) 
Heartbeat CPU 3 instructions: 110000000 cycles: 231480705 heartbeat IPC: 0.432657 cumulative IPC: 0.405423 (Simulation time: 1 hr 31 min 14 sec) 
Heartbeat CPU 0 instructions: 200000000 cycles: 235862188 heartbeat IPC: 0.900979 cumulative IPC: 0.784996 (Simulation time: 1 hr 32 min 52 sec) 
Heartbeat CPU 6 instructions: 230000000 cycles: 237322597 heartbeat IPC: 0.819215 cumulative IPC: 0.884561 (Simulation time: 1 hr 33 min 23 sec) 
Heartbeat CPU 4 instructions: 150000001 cycles: 237784861 heartbeat IPC: 0.406717 cumulative IPC: 0.529382 (Simulation time: 1 hr 33 min 33 sec) 
Finished CPU 1 instructions: 100000000 cycles: 224735719 cumulative IPC: 0.444967 (Simulation time: 1 hr 33 min 39 sec) 
Heartbeat CPU 7 instructions: 100000000 cycles: 240412342 heartbeat IPC: 0.32381 cumulative IPC: 0.352337 (Simulation time: 1 hr 34 min 30 sec) 
Heartbeat CPU 2 instructions: 130000000 cycles: 241293264 heartbeat IPC: 0.4221 cumulative IPC: 0.437132 (Simulation time: 1 hr 34 min 49 sec) 
Finished CPU 2 instructions: 100000001 cycles: 228808563 cumulative IPC: 0.437047 (Simulation time: 1 hr 35 min 7 sec) 
Heartbeat CPU 1 instructions: 130000001 cycles: 242905398 heartbeat IPC: 0.497793 cumulative IPC: 0.446128 (Simulation time: 1 hr 35 min 23 sec) 
Heartbeat CPU 3 instructions: 120000000 cycles: 246743889 heartbeat IPC: 0.655171 cumulative IPC: 0.421756 (Simulation time: 1 hr 36 min 46 sec) 
Heartbeat CPU 0 instructions: 210000002 cycles: 247056724 heartbeat IPC: 0.893293 cumulative IPC: 0.790183 (Simulation time: 1 hr 36 min 53 sec) 
Finished CPU 3 instructions: 100000000 cycles: 236078370 cumulative IPC: 0.423588 (Simulation time: 1 hr 37 min 44 sec) 
Heartbeat CPU 6 instructions: 240000000 cycles: 249558635 heartbeat IPC: 0.817258 cumulative IPC: 0.881075 (Simulation time: 1 hr 37 min 47 sec) 
Heartbeat CPU 0 instructions: 220000000 cycles: 258436629 heartbeat IPC: 0.878742 cumulative IPC: 0.794295 (Simulation time: 1 hr 40 min 55 sec) 
Heartbeat CPU 6 instructions: 250000001 cycles: 262062294 heartbeat IPC: 0.799766 cumulative IPC: 0.876987 (Simulation time: 1 hr 42 min 10 sec) 
Heartbeat CPU 1 instructions: 140000000 cycles: 262762425 heartbeat IPC: 0.5036 cumulative IPC: 0.450704 (Simulation time: 1 hr 42 min 24 sec) 
Heartbeat CPU 2 instructions: 140000000 cycles: 264841712 heartbeat IPC: 0.424656 cumulative IPC: 0.435964 (Simulation time: 1 hr 43 min 7 sec) 
Heartbeat CPU 4 instructions: 160000000 cycles: 266492430 heartbeat IPC: 0.34834 cumulative IPC: 0.50885 (Simulation time: 1 hr 43 min 39 sec) 
Heartbeat CPU 3 instructions: 130000000 cycles: 268544263 heartbeat IPC: 0.458708 cumulative IPC: 0.424913 (Simulation time: 1 hr 44 min 21 sec) 
Heartbeat CPU 7 instructions: 110000000 cycles: 269301719 heartbeat IPC: 0.346148 cumulative IPC: 0.351639 (Simulation time: 1 hr 44 min 37 sec) 
Heartbeat CPU 0 instructions: 230000001 cycles: 269652748 heartbeat IPC: 0.891574 cumulative IPC: 0.798553 (Simulation time: 1 hr 44 min 44 sec) 
Heartbeat CPU 6 instructions: 260000000 cycles: 274673494 heartbeat IPC: 0.792946 cumulative IPC: 0.872931 (Simulation time: 1 hr 46 min 35 sec) 
Heartbeat CPU 0 instructions: 240000000 cycles: 280926302 heartbeat IPC: 0.887032 cumulative IPC: 0.80228 (Simulation time: 1 hr 49 min 6 sec) 
Heartbeat CPU 1 instructions: 150000001 cycles: 282345373 heartbeat IPC: 0.510648 cumulative IPC: 0.455068 (Simulation time: 1 hr 49 min 36 sec) 
Heartbeat CPU 6 instructions: 270000002 cycles: 287351351 heartbeat IPC: 0.788777 cumulative IPC: 0.869037 (Simulation time: 1 hr 51 min 30 sec) 
Heartbeat CPU 2 instructions: 150000003 cycles: 289032674 heartbeat IPC: 0.413378 cumulative IPC: 0.433982 (Simulation time: 1 hr 52 min 3 sec) 
Heartbeat CPU 0 instructions: 250000001 cycles: 292626647 heartbeat IPC: 0.854676 cumulative IPC: 0.804476 (Simulation time: 1 hr 53 min 15 sec) 
Heartbeat CPU 3 instructions: 140000000 cycles: 297342233 heartbeat IPC: 0.347247 cumulative IPC: 0.417037 (Simulation time: 1 hr 54 min 48 sec) 
Heartbeat CPU 6 instructions: 280000000 cycles: 300065130 heartbeat IPC: 0.786548 cumulative IPC: 0.865379 (Simulation time: 1 hr 55 min 41 sec) 
Heartbeat CPU 4 instructions: 170000002 cycles: 300134353 heartbeat IPC: 0.297248 cumulative IPC: 0.484027 (Simulation time: 1 hr 55 min 42 sec) 
Heartbeat CPU 1 instructions: 160000000 cycles: 301869029 heartbeat IPC: 0.512199 cumulative IPC: 0.458934 (Simulation time: 1 hr 56 min 16 sec) 
Heartbeat CPU 0 instructions: 260000000 cycles: 304647818 heartbeat IPC: 0.831866 cumulative IPC: 0.805606 (Simulation time: 1 hr 57 min 9 sec) 
Heartbeat CPU 7 instructions: 120000000 cycles: 307282731 heartbeat IPC: 0.263289 cumulative IPC: 0.340222 (Simulation time: 1 hr 57 min 59 sec) 
Finished CPU 7 instructions: 100000001 cycles: 293925443 cumulative IPC: 0.340222 (Simulation time: 1 hr 57 min 59 sec) 
Heartbeat CPU 6 instructions: 290000000 cycles: 312716780 heartbeat IPC: 0.790411 cumulative IPC: 0.862211 (Simulation time: 1 hr 59 min 44 sec) 
Heartbeat CPU 2 instructions: 160000000 cycles: 313282676 heartbeat IPC: 0.412371 cumulative IPC: 0.432235 (Simulation time: 1 hr 59 min 55 sec) 
Heartbeat CPU 0 instructions: 270000003 cycles: 316375700 heartbeat IPC: 0.852669 cumulative IPC: 0.807427 (Simulation time: 2 hr 0 min 53 sec) 
Heartbeat CPU 1 instructions: 170000002 cycles: 321305691 heartbeat IPC: 0.514492 cumulative IPC: 0.46244 (Simulation time: 2 hr 2 min 27 sec) 
Heartbeat CPU 5 instructions: 60000000 cycles: 321363736 heartbeat IPC: 0.100749 cumulative IPC: 0.105907 (Simulation time: 2 hr 2 min 28 sec) 
Heartbeat CPU 3 instructions: 150000000 cycles: 323126240 heartbeat IPC: 0.387837 cumulative IPC: 0.414607 (Simulation time: 2 hr 3 min 2 sec) 
Heartbeat CPU 6 instructions: 300000000 cycles: 325500357 heartbeat IPC: 0.782254 cumulative IPC: 0.858936 (Simulation time: 2 hr 3 min 48 sec) 
Heartbeat CPU 0 instructions: 280000000 cycles: 327795388 heartbeat IPC: 0.87568 cumulative IPC: 0.809906 (Simulation time: 2 hr 4 min 34 sec) 
Heartbeat CPU 4 instructions: 180000000 cycles: 336075524 heartbeat IPC: 0.278232 cumulative IPC: 0.461108 (Simulation time: 2 hr 7 min 19 sec) 
Heartbeat CPU 2 instructions: 170000002 cycles: 337719396 heartbeat IPC: 0.40922 cumulative IPC: 0.430501 (Simulation time: 2 hr 7 min 53 sec) 
Heartbeat CPU 6 instructions: 310000003 cycles: 338161646 heartbeat IPC: 0.789809 cumulative IPC: 0.856242 (Simulation time: 2 hr 8 min 2 sec) 
Heartbeat CPU 0 instructions: 290000003 cycles: 339292218 heartbeat IPC: 0.869805 cumulative IPC: 0.812019 (Simulation time: 2 hr 8 min 25 sec) 
Heartbeat CPU 1 instructions: 180000000 cycles: 340687333 heartbeat IPC: 0.515952 cumulative IPC: 0.465609 (Simulation time: 2 hr 8 min 53 sec) 
Heartbeat CPU 3 instructions: 160000000 cycles: 341393180 heartbeat IPC: 0.547437 cumulative IPC: 0.422004 (Simulation time: 2 hr 9 min 7 sec) 
Heartbeat CPU 7 instructions: 130000003 cycles: 344339312 heartbeat IPC: 0.269858 cumulative IPC: 0.332344 (Simulation time: 2 hr 10 min 5 sec) 
Heartbeat CPU 6 instructions: 320000000 cycles: 350829881 heartbeat IPC: 0.789376 cumulative IPC: 0.853732 (Simulation time: 2 hr 12 min 13 sec) 
Heartbeat CPU 0 instructions: 300000000 cycles: 350993404 heartbeat IPC: 0.854614 cumulative IPC: 0.813495 (Simulation time: 2 hr 12 min 16 sec) 
Heartbeat CPU 1 instructions: 190000002 cycles: 359624253 heartbeat IPC: 0.528069 cumulative IPC: 0.469025 (Simulation time: 2 hr 15 min 1 sec) 
Heartbeat CPU 2 instructions: 180000000 cycles: 362005683 heartbeat IPC: 0.411755 cumulative IPC: 0.429195 (Simulation time: 2 hr 15 min 45 sec) 
Heartbeat CPU 0 instructions: 310000001 cycles: 362613187 heartbeat IPC: 0.860601 cumulative IPC: 0.815063 (Simulation time: 2 hr 15 min 57 sec) 
Heartbeat CPU 6 instructions: 330000000 cycles: 363619324 heartbeat IPC: 0.781895 cumulative IPC: 0.851108 (Simulation time: 2 hr 16 min 16 sec) 
Heartbeat CPU 3 instructions: 170000000 cycles: 365594518 heartbeat IPC: 0.4132 cumulative IPC: 0.421399 (Simulation time: 2 hr 16 min 53 sec) 
Heartbeat CPU 4 instructions: 190000000 cycles: 373195412 heartbeat IPC: 0.269397 cumulative IPC: 0.441332 (Simulation time: 2 hr 19 min 16 sec) 
Heartbeat CPU 0 instructions: 320000000 cycles: 374634303 heartbeat IPC: 0.831869 cumulative IPC: 0.815622 (Simulation time: 2 hr 19 min 43 sec) 
Heartbeat CPU 6 instructions: 340000000 cycles: 376454017 heartbeat IPC: 0.779138 cumulative IPC: 0.848565 (Simulation time: 2 hr 20 min 17 sec) 
Heartbeat CPU 1 instructions: 200000000 cycles: 378329656 heartbeat IPC: 0.534605 cumulative IPC: 0.472386 (Simulation time: 2 hr 20 min 53 sec) 
Heartbeat CPU 7 instructions: 140000000 cycles: 380333895 heartbeat IPC: 0.277819 cumulative IPC: 0.326996 (Simulation time: 2 hr 21 min 30 sec) 
Heartbeat CPU 2 instructions: 190000003 cycles: 385772434 heartbeat IPC: 0.420756 cumulative IPC: 0.428657 (Simulation time: 2 hr 23 min 13 sec) 
Heartbeat CPU 0 instructions: 330000002 cycles: 388101097 heartbeat IPC: 0.742567 cumulative IPC: 0.812996 (Simulation time: 2 hr 23 min 57 sec) 
Heartbeat CPU 6 instructions: 350000000 cycles: 389047620 heartbeat IPC: 0.794054 cumulative IPC: 0.846737 (Simulation time: 2 hr 24 min 15 sec) 
Heartbeat CPU 3 instructions: 180000000 cycles: 393144480 heartbeat IPC: 0.362977 cumulative IPC: 0.417161 (Simulation time: 2 hr 25 min 33 sec) 
Heartbeat CPU 1 instructions: 210000002 cycles: 396637011 heartbeat IPC: 0.546229 cumulative IPC: 0.475913 (Simulation time: 2 hr 26 min 40 sec) 
Heartbeat CPU 0 instructions: 340000000 cycles: 401515838 heartbeat IPC: 0.745448 cumulative IPC: 0.810662 (Simulation time: 2 hr 28 min 16 sec) 
Heartbeat CPU 6 instructions: 360000000 cycles: 401577400 heartbeat IPC: 0.798099 cumulative IPC: 0.845167 (Simulation time: 2 hr 28 min 17 sec) 
Heartbeat CPU 4 instructions: 200000000 cycles: 407245000 heartbeat IPC: 0.293689 cumulative IPC: 0.428569 (Simulation time: 2 hr 30 min 6 sec) 
Heartbeat CPU 7 instructions: 150000000 cycles: 408579173 heartbeat IPC: 0.354041 cumulative IPC: 0.328929 (Simulation time: 2 hr 30 min 31 sec) 
Heartbeat CPU 2 instructions: 200000000 cycles: 409106058 heartbeat IPC: 0.428566 cumulative IPC: 0.428651 (Simulation time: 2 hr 30 min 41 sec) 
Heartbeat CPU 6 instructions: 370000001 cycles: 414164203 heartbeat IPC: 0.794483 cumulative IPC: 0.843576 (Simulation time: 2 hr 32 min 13 sec) 
Heartbeat CPU 1 instructions: 220000000 cycles: 415007116 heartbeat IPC: 0.544363 cumulative IPC: 0.479044 (Simulation time: 2 hr 32 min 29 sec) 
Heartbeat CPU 0 instructions: 350000000 cycles: 415065637 heartbeat IPC: 0.738018 cumulative IPC: 0.808212 (Simulation time: 2 hr 32 min 30 sec) 
Heartbeat CPU 3 instructions: 190000001 cycles: 415887156 heartbeat IPC: 0.439702 cumulative IPC: 0.418434 (Simulation time: 2 hr 32 min 45 sec) 
Heartbeat CPU 5 instructions: 70000000 cycles: 420716905 heartbeat IPC: 0.100651 cumulative IPC: 0.104625 (Simulation time: 2 hr 34 min 17 sec) 
Heartbeat CPU 6 instructions: 380000000 cycles: 426780478 heartbeat IPC: 0.792627 cumulative IPC: 0.842021 (Simulation time: 2 hr 36 min 13 sec) 
Heartbeat CPU 0 instructions: 360000000 cycles: 428629013 heartbeat IPC: 0.73728 cumulative IPC: 0.805895 (Simulation time: 2 hr 36 min 49 sec) 
Heartbeat CPU 2 instructions: 210000001 cycles: 432598769 heartbeat IPC: 0.425664 cumulative IPC: 0.428484 (Simulation time: 2 hr 38 min 6 sec) 
Heartbeat CPU 1 instructions: 230000003 cycles: 433215811 heartbeat IPC: 0.549188 cumulative IPC: 0.482086 (Simulation time: 2 hr 38 min 17 sec) 
Heartbeat CPU 7 instructions: 160000000 cycles: 436165149 heartbeat IPC: 0.362503 cumulative IPC: 0.33112 (Simulation time: 2 hr 39 min 10 sec) 
Heartbeat CPU 6 instructions: 390000001 cycles: 439443556 heartbeat IPC: 0.789697 cumulative IPC: 0.840466 (Simulation time: 2 hr 40 min 9 sec) 
Heartbeat CPU 4 instructions: 210000002 cycles: 439901224 heartbeat IPC: 0.30622 cumulative IPC: 0.419202 (Simulation time: 2 hr 40 min 18 sec) 
Heartbeat CPU 0 instructions: 370000000 cycles: 442211416 heartbeat IPC: 0.736247 cumulative IPC: 0.803689 (Simulation time: 2 hr 41 min 0 sec) 
Heartbeat CPU 3 instructions: 200000000 cycles: 444247488 heartbeat IPC: 0.352605 cumulative IPC: 0.414102 (Simulation time: 2 hr 41 min 38 sec) 
Heartbeat CPU 1 instructions: 240000000 cycles: 451693025 heartbeat IPC: 0.541207 cumulative IPC: 0.484578 (Simulation time: 2 hr 43 min 57 sec) 
Heartbeat CPU 6 instructions: 400000000 cycles: 452052401 heartbeat IPC: 0.793094 cumulative IPC: 0.839104 (Simulation time: 2 hr 44 min 3 sec) 
Heartbeat CPU 0 instructions: 380000000 cycles: 455775463 heartbeat IPC: 0.737243 cumulative IPC: 0.801652 (Simulation time: 2 hr 45 min 12 sec) 
Heartbeat CPU 2 instructions: 220000000 cycles: 456298405 heartbeat IPC: 0.421947 cumulative IPC: 0.428134 (Simulation time: 2 hr 45 min 22 sec) 
Heartbeat CPU 6 instructions: 410000002 cycles: 464605060 heartbeat IPC: 0.796644 cumulative IPC: 0.837923 (Simulation time: 2 hr 47 min 57 sec) 
Heartbeat CPU 7 instructions: 170000000 cycles: 467343940 heartbeat IPC: 0.320731 cumulative IPC: 0.330406 (Simulation time: 2 hr 48 min 48 sec) 
Heartbeat CPU 0 instructions: 390000003 cycles: 469222179 heartbeat IPC: 0.743676 cumulative IPC: 0.799942 (Simulation time: 2 hr 49 min 24 sec) 
Heartbeat CPU 1 instructions: 250000000 cycles: 469854297 heartbeat IPC: 0.550622 cumulative IPC: 0.487205 (Simulation time: 2 hr 49 min 36 sec) 
Heartbeat CPU 3 instructions: 210000003 cycles: 469859994 heartbeat IPC: 0.390434 cumulative IPC: 0.412774 (Simulation time: 2 hr 49 min 36 sec) 
Heartbeat CPU 4 instructions: 220000000 cycles: 470268818 heartbeat IPC: 0.329298 cumulative IPC: 0.413226 (Simulation time: 2 hr 49 min 43 sec) 
Heartbeat CPU 6 instructions: 420000000 cycles: 477160892 heartbeat IPC: 0.796443 cumulative IPC: 0.8368 (Simulation time: 2 hr 51 min 54 sec) 
Heartbeat CPU 2 instructions: 230000001 cycles: 479779854 heartbeat IPC: 0.425868 cumulative IPC: 0.42802 (Simulation time: 2 hr 52 min 44 sec) 
Heartbeat CPU 0 instructions: 400000000 cycles: 482531874 heartbeat IPC: 0.751332 cumulative IPC: 0.798563 (Simulation time: 2 hr 53 min 37 sec) 
Heartbeat CPU 1 instructions: 260000000 cycles: 488000674 heartbeat IPC: 0.551074 cumulative IPC: 0.489647 (Simulation time: 2 hr 55 min 18 sec) 
Heartbeat CPU 6 instructions: 430000000 cycles: 489687544 heartbeat IPC: 0.798298 cumulative IPC: 0.835788 (Simulation time: 2 hr 55 min 50 sec) 
Heartbeat CPU 7 instructions: 180000000 cycles: 493631203 heartbeat IPC: 0.380412 cumulative IPC: 0.333143 (Simulation time: 2 hr 57 min 5 sec) 
Heartbeat CPU 3 instructions: 220000000 cycles: 493781349 heartbeat IPC: 0.418036 cumulative IPC: 0.413036 (Simulation time: 2 hr 57 min 7 sec) 
Heartbeat CPU 0 instructions: 410000000 cycles: 495985645 heartbeat IPC: 0.743286 cumulative IPC: 0.797022 (Simulation time: 2 hr 57 min 49 sec) 
Heartbeat CPU 4 instructions: 230000003 cycles: 499917764 heartbeat IPC: 0.33728 cumulative IPC: 0.408599 (Simulation time: 2 hr 59 min 2 sec) 
Heartbeat CPU 6 instructions: 440000000 cycles: 502202425 heartbeat IPC: 0.799049 cumulative IPC: 0.834847 (Simulation time: 2 hr 59 min 45 sec) 
Heartbeat CPU 2 instructions: 240000000 cycles: 503147461 heartbeat IPC: 0.427943 cumulative IPC: 0.428016 (Simulation time: 3 hr 0 min 4 sec) 
Heartbeat CPU 1 instructions: 270000002 cycles: 505730003 heartbeat IPC: 0.564037 cumulative IPC: 0.492326 (Simulation time: 3 hr 0 min 54 sec) 
Heartbeat CPU 0 instructions: 420000000 cycles: 509424011 heartbeat IPC: 0.744138 cumulative IPC: 0.795589 (Simulation time: 3 hr 2 min 5 sec) 
Heartbeat CPU 3 instructions: 230000001 cycles: 510952368 heartbeat IPC: 0.582377 cumulative IPC: 0.418879 (Simulation time: 3 hr 2 min 35 sec) 
Heartbeat CPU 6 instructions: 450000000 cycles: 514684416 heartbeat IPC: 0.801154 cumulative IPC: 0.834008 (Simulation time: 3 hr 3 min 47 sec) 
Heartbeat CPU 5 instructions: 80000000 cycles: 516970602 heartbeat IPC: 0.103892 cumulative IPC: 0.104485 (Simulation time: 3 hr 4 min 33 sec) 
Heartbeat CPU 0 instructions: 430000000 cycles: 522128168 heartbeat IPC: 0.787144 cumulative IPC: 0.795378 (Simulation time: 3 hr 6 min 13 sec) 
Heartbeat CPU 1 instructions: 280000000 cycles: 523678079 heartbeat IPC: 0.557163 cumulative IPC: 0.494606 (Simulation time: 3 hr 6 min 44 sec) 
Heartbeat CPU 7 instructions: 190000001 cycles: 526336817 heartbeat IPC: 0.305758 cumulative IPC: 0.331397 (Simulation time: 3 hr 7 min 36 sec) 
Heartbeat CPU 2 instructions: 250000000 cycles: 526392029 heartbeat IPC: 0.430208 cumulative IPC: 0.428116 (Simulation time: 3 hr 7 min 37 sec) 
Heartbeat CPU 3 instructions: 240000000 cycles: 526426418 heartbeat IPC: 0.646243 cumulative IPC: 0.425737 (Simulation time: 3 hr 7 min 38 sec) 
Heartbeat CPU 6 instructions: 460000000 cycles: 527229368 heartbeat IPC: 0.797133 cumulative IPC: 0.833108 (Simulation time: 3 hr 7 min 54 sec) 
Heartbeat CPU 4 instructions: 240000000 cycles: 528476406 heartbeat IPC: 0.350157 cumulative IPC: 0.405359 (Simulation time: 3 hr 8 min 19 sec) 
Heartbeat CPU 0 instructions: 440000000 cycles: 532316377 heartbeat IPC: 0.981527 cumulative IPC: 0.799033 (Simulation time: 3 hr 9 min 35 sec) 
Heartbeat CPU 6 instructions: 470000002 cycles: 539788947 heartbeat IPC: 0.796205 cumulative IPC: 0.832228 (Simulation time: 3 hr 11 min 59 sec) 
Heartbeat CPU 1 instructions: 290000002 cycles: 541491961 heartbeat IPC: 0.56136 cumulative IPC: 0.496858 (Simulation time: 3 hr 12 min 31 sec) 
Heartbeat CPU 0 instructions: 450000002 cycles: 542750771 heartbeat IPC: 0.958369 cumulative IPC: 0.802173 (Simulation time: 3 hr 12 min 54 sec) 
Heartbeat CPU 3 instructions: 250000001 cycles: 547370749 heartbeat IPC: 0.477456 cumulative IPC: 0.427765 (Simulation time: 3 hr 14 min 18 sec) 
Heartbeat CPU 2 instructions: 260000000 cycles: 549720291 heartbeat IPC: 0.428665 cumulative IPC: 0.42814 (Simulation time: 3 hr 14 min 59 sec) 
Heartbeat CPU 6 instructions: 480000000 cycles: 552257000 heartbeat IPC: 0.80205 cumulative IPC: 0.831529 (Simulation time: 3 hr 15 min 45 sec) 
Heartbeat CPU 0 instructions: 460000000 cycles: 556135611 heartbeat IPC: 0.747114 cumulative IPC: 0.800816 (Simulation time: 3 hr 16 min 55 sec) 
Heartbeat CPU 4 instructions: 250000001 cycles: 557045836 heartbeat IPC: 0.350025 cumulative IPC: 0.402451 (Simulation time: 3 hr 17 min 12 sec) 
Heartbeat CPU 7 instructions: 200000000 cycles: 558567224 heartbeat IPC: 0.310266 cumulative IPC: 0.330148 (Simulation time: 3 hr 17 min 40 sec) 
Heartbeat CPU 1 instructions: 300000000 cycles: 559088730 heartbeat IPC: 0.568286 cumulative IPC: 0.499161 (Simulation time: 3 hr 17 min 50 sec) 
Heartbeat CPU 6 instructions: 490000000 cycles: 564683719 heartbeat IPC: 0.804718 cumulative IPC: 0.830925 (Simulation time: 3 hr 19 min 30 sec) 
Heartbeat CPU 0 instructions: 470000000 cycles: 569474549 heartbeat IPC: 0.749685 cumulative IPC: 0.799589 (Simulation time: 3 hr 20 min 57 sec) 
Heartbeat CPU 2 instructions: 270000002 cycles: 572789728 heartbeat IPC: 0.433474 cumulative IPC: 0.42836 (Simulation time: 3 hr 21 min 58 sec) 
Heartbeat CPU 1 instructions: 310000002 cycles: 576750453 heartbeat IPC: 0.566196 cumulative IPC: 0.501262 (Simulation time: 3 hr 23 min 12 sec) 
Heartbeat CPU 6 instructions: 500000000 cycles: 577099523 heartbeat IPC: 0.805425 cumulative IPC: 0.830364 (Simulation time: 3 hr 23 min 19 sec) 
Heartbeat CPU 3 instructions: 260000000 cycles: 577570975 heartbeat IPC: 0.331123 cumulative IPC: 0.422592 (Simulation time: 3 hr 23 min 27 sec) 
Heartbeat CPU 0 instructions: 480000000 cycles: 582788810 heartbeat IPC: 0.751074 cumulative IPC: 0.798455 (Simulation time: 3 hr 25 min 4 sec) 
Heartbeat CPU 4 instructions: 260000000 cycles: 585633897 heartbeat IPC: 0.349796 cumulative IPC: 0.399821 (Simulation time: 3 hr 25 min 56 sec) 
Heartbeat CPU 7 instructions: 210000000 cycles: 588135352 heartbeat IPC: 0.338202 cumulative IPC: 0.330562 (Simulation time: 3 hr 26 min 42 sec) 
Heartbeat CPU 6 instructions: 510000000 cycles: 589562910 heartbeat IPC: 0.80235 cumulative IPC: 0.829758 (Simulation time: 3 hr 27 min 9 sec) 
Heartbeat CPU 1 instructions: 320000000 cycles: 594525720 heartbeat IPC: 0.562579 cumulative IPC: 0.503138 (Simulation time: 3 hr 28 min 42 sec) 
Heartbeat CPU 2 instructions: 280000000 cycles: 595817224 heartbeat IPC: 0.434263 cumulative IPC: 0.428593 (Simulation time: 3 hr 29 min 6 sec) 
Heartbeat CPU 0 instructions: 490000001 cycles: 596212453 heartbeat IPC: 0.744954 cumulative IPC: 0.797223 (Simulation time: 3 hr 29 min 13 sec) 
Heartbeat CPU 6 instructions: 520000000 cycles: 602071613 heartbeat IPC: 0.799443 cumulative IPC: 0.829113 (Simulation time: 3 hr 30 min 59 sec) 
Heartbeat CPU 3 instructions: 270000001 cycles: 603983311 heartbeat IPC: 0.378611 cumulative IPC: 0.420625 (Simulation time: 3 hr 31 min 34 sec) 
Heartbeat CPU 0 instructions: 500000000 cycles: 609530276 heartbeat IPC: 0.750873 cumulative IPC: 0.796187 (Simulation time: 3 hr 33 min 16 sec) 
Heartbeat CPU 5 instructions: 90000000 cycles: 611907482 heartbeat IPC: 0.105333 cumulative IPC: 0.10462 (Simulation time: 3 hr 34 min 0 sec) 
Heartbeat CPU 1 instructions: 330000003 cycles: 612113574 heartbeat IPC: 0.568574 cumulative IPC: 0.50506 (Simulation time: 3 hr 34 min 4 sec) 
Heartbeat CPU 4 instructions: 270000000 cycles: 613494430 heartbeat IPC: 0.358931 cumulative IPC: 0.397922 (Simulation time: 3 hr 34 min 29 sec) 
Heartbeat CPU 6 instructions: 530000000 cycles: 614578833 heartbeat IPC: 0.799538 cumulative IPC: 0.828498 (Simulation time: 3 hr 34 min 49 sec) 
Heartbeat CPU 7 instructions: 220000000 cycles: 618384348 heartbeat IPC: 0.330589 cumulative IPC: 0.330564 (Simulation time: 3 hr 35 min 59 sec) 
Heartbeat CPU 2 instructions: 290000001 cycles: 618920369 heartbeat IPC: 0.432842 cumulative IPC: 0.428755 (Simulation time: 3 hr 36 min 9 sec) 
Heartbeat CPU 0 instructions: 510000001 cycles: 622801663 heartbeat IPC: 0.753501 cumulative IPC: 0.795258 (Simulation time: 3 hr 37 min 21 sec) 
Heartbeat CPU 6 instructions: 540000000 cycles: 627016665 heartbeat IPC: 0.803999 cumulative IPC: 0.828002 (Simulation time: 3 hr 38 min 40 sec) 
Heartbeat CPU 1 instructions: 340000000 cycles: 629979574 heartbeat IPC: 0.559722 cumulative IPC: 0.506644 (Simulation time: 3 hr 39 min 35 sec) 
Heartbeat CPU 3 instructions: 280000000 cycles: 631736155 heartbeat IPC: 0.360323 cumulative IPC: 0.417919 (Simulation time: 3 hr 40 min 8 sec) 
Heartbeat CPU 0 instructions: 520000000 cycles: 636145811 heartbeat IPC: 0.749392 cumulative IPC: 0.794275 (Simulation time: 3 hr 41 min 29 sec) 
Heartbeat CPU 6 instructions: 550000000 cycles: 639471969 heartbeat IPC: 0.802871 cumulative IPC: 0.827502 (Simulation time: 3 hr 42 min 31 sec) 
Heartbeat CPU 4 instructions: 280000000 cycles: 641360369 heartbeat IPC: 0.358861 cumulative IPC: 0.396189 (Simulation time: 3 hr 43 min 7 sec) 
Heartbeat CPU 2 instructions: 300000000 cycles: 642019164 heartbeat IPC: 0.432923 cumulative IPC: 0.428908 (Simulation time: 3 hr 43 min 19 sec) 
Heartbeat CPU 1 instructions: 350000000 cycles: 647504158 heartbeat IPC: 0.570627 cumulative IPC: 0.508412 (Simulation time: 3 hr 44 min 59 sec) 
Heartbeat CPU 0 instructions: 530000002 cycles: 649516690 heartbeat IPC: 0.747894 cumulative IPC: 0.7933 (Simulation time: 3 hr 45 min 34 sec) 
Heartbeat CPU 7 instructions: 230000003 cycles: 649906210 heartbeat IPC: 0.31724 cumulative IPC: 0.329904 (Simulation time: 3 hr 45 min 40 sec) 
Heartbeat CPU 6 instructions: 560000000 cycles: 652008640 heartbeat IPC: 0.79766 cumulative IPC: 0.826916 (Simulation time: 3 hr 46 min 17 sec) 
Heartbeat CPU 3 instructions: 290000000 cycles: 655310491 heartbeat IPC: 0.42419 cumulative IPC: 0.418149 (Simulation time: 3 hr 47 min 17 sec) 
Heartbeat CPU 0 instructions: 540000000 cycles: 662981912 heartbeat IPC: 0.742654 cumulative IPC: 0.79225 (Simulation time: 3 hr 49 min 35 sec) 
Heartbeat CPU 6 instructions: 570000001 cycles: 664518373 heartbeat IPC: 0.799378 cumulative IPC: 0.826387 (Simulation time: 3 hr 50 min 2 sec) 
Heartbeat CPU 1 instructions: 360000000 cycles: 665372064 heartbeat IPC: 0.559663 cumulative IPC: 0.509816 (Simulation time: 3 hr 50 min 17 sec) 
Heartbeat CPU 2 instructions: 310000000 cycles: 665374650 heartbeat IPC: 0.428165 cumulative IPC: 0.428882 (Simulation time: 3 hr 50 min 18 sec) 
Heartbeat CPU 4 instructions: 290000002 cycles: 669746488 heartbeat IPC: 0.352285 cumulative IPC: 0.39429 (Simulation time: 3 hr 51 min 36 sec) 
Heartbeat CPU 0 instructions: 550000000 cycles: 676424654 heartbeat IPC: 0.743896 cumulative IPC: 0.79127 (Simulation time: 3 hr 53 min 37 sec) 
Heartbeat CPU 6 instructions: 580000000 cycles: 676974777 heartbeat IPC: 0.8028 cumulative IPC: 0.825944 (Simulation time: 3 hr 53 min 46 sec) 
Heartbeat CPU 7 instructions: 240000000 cycles: 682289819 heartbeat IPC: 0.308798 cumulative IPC: 0.328882 (Simulation time: 3 hr 55 min 21 sec) 
Heartbeat CPU 1 instructions: 370000002 cycles: 683275723 heartbeat IPC: 0.558545 cumulative IPC: 0.511119 (Simulation time: 3 hr 55 min 39 sec) 
Heartbeat CPU 3 instructions: 300000000 cycles: 683358746 heartbeat IPC: 0.356528 cumulative IPC: 0.41557 (Simulation time: 3 hr 55 min 41 sec) 
Heartbeat CPU 2 instructions: 320000000 cycles: 688601711 heartbeat IPC: 0.430532 cumulative IPC: 0.428938 (Simulation time: 3 hr 57 min 16 sec) 
Heartbeat CPU 6 instructions: 590000002 cycles: 689446090 heartbeat IPC: 0.80184 cumulative IPC: 0.8255 (Simulation time: 3 hr 57 min 31 sec) 
Heartbeat CPU 0 instructions: 560000000 cycles: 689912005 heartbeat IPC: 0.741435 cumulative IPC: 0.790277 (Simulation time: 3 hr 57 min 39 sec) 
Heartbeat CPU 4 instructions: 300000000 cycles: 698559130 heartbeat IPC: 0.34707 cumulative IPC: 0.392305 (Simulation time: 4 hr 0 min 15 sec) 
Heartbeat CPU 1 instructions: 380000000 cycles: 700900547 heartbeat IPC: 0.567381 cumulative IPC: 0.512561 (Simulation time: 4 hr 0 min 57 sec) 
Heartbeat CPU 6 instructions: 600000000 cycles: 701896465 heartbeat IPC: 0.803189 cumulative IPC: 0.825096 (Simulation time: 4 hr 1 min 14 sec) 
Heartbeat CPU 0 instructions: 570000003 cycles: 703374166 heartbeat IPC: 0.742823 cumulative IPC: 0.789351 (Simulation time: 4 hr 1 min 41 sec) 
Heartbeat CPU 5 instructions: 100000000 cycles: 706858638 heartbeat IPC: 0.105317 cumulative IPC: 0.104715 (Simulation time: 4 hr 2 min 44 sec) 
Heartbeat CPU 3 instructions: 310000002 cycles: 708767835 heartbeat IPC: 0.39356 cumulative IPC: 0.414766 (Simulation time: 4 hr 3 min 18 sec) 
Heartbeat CPU 2 instructions: 330000002 cycles: 711756871 heartbeat IPC: 0.431869 cumulative IPC: 0.429036 (Simulation time: 4 hr 4 min 13 sec) 
Heartbeat CPU 7 instructions: 250000001 cycles: 712840935 heartbeat IPC: 0.32732 cumulative IPC: 0.328814 (Simulation time: 4 hr 4 min 33 sec) 
Heartbeat CPU 6 instructions: 610000000 cycles: 714345558 heartbeat IPC: 0.803271 cumulative IPC: 0.824709 (Simulation time: 4 hr 5 min 0 sec) 
Heartbeat CPU 0 instructions: 580000000 cycles: 716801789 heartbeat IPC: 0.744733 cumulative IPC: 0.788499 (Simulation time: 4 hr 5 min 45 sec) 
Heartbeat CPU 1 instructions: 390000001 cycles: 718775062 heartbeat IPC: 0.559456 cumulative IPC: 0.513749 (Simulation time: 4 hr 6 min 21 sec) 
Heartbeat CPU 6 instructions: 620000000 cycles: 726777167 heartbeat IPC: 0.804401 cumulative IPC: 0.824355 (Simulation time: 4 hr 8 min 48 sec) 
Heartbeat CPU 4 instructions: 310000002 cycles: 728129602 heartbeat IPC: 0.338175 cumulative IPC: 0.390065 (Simulation time: 4 hr 9 min 12 sec) 
Heartbeat CPU 0 instructions: 590000003 cycles: 730217173 heartbeat IPC: 0.745413 cumulative IPC: 0.787693 (Simulation time: 4 hr 9 min 50 sec) 
Heartbeat CPU 3 instructions: 320000000 cycles: 731648964 heartbeat IPC: 0.437041 cumulative IPC: 0.415475 (Simulation time: 4 hr 10 min 17 sec) 
Heartbeat CPU 2 instructions: 340000000 cycles: 735108164 heartbeat IPC: 0.428242 cumulative IPC: 0.42901 (Simulation time: 4 hr 11 min 23 sec) 
Heartbeat CPU 1 instructions: 400000000 cycles: 736447643 heartbeat IPC: 0.565848 cumulative IPC: 0.515022 (Simulation time: 4 hr 11 min 49 sec) 
Heartbeat CPU 6 instructions: 630000002 cycles: 739223314 heartbeat IPC: 0.803462 cumulative IPC: 0.823996 (Simulation time: 4 hr 12 min 41 sec) 
Heartbeat CPU 7 instructions: 260000000 cycles: 742057561 heartbeat IPC: 0.342271 cumulative IPC: 0.329354 (Simulation time: 4 hr 13 min 34 sec) 
Heartbeat CPU 0 instructions: 600000000 cycles: 743627707 heartbeat IPC: 0.745682 cumulative IPC: 0.786921 (Simulation time: 4 hr 14 min 4 sec) 
Heartbeat CPU 3 instructions: 330000000 cycles: 746562781 heartbeat IPC: 0.670519 cumulative IPC: 0.420663 (Simulation time: 4 hr 15 min 1 sec) 
Heartbeat CPU 6 instructions: 640000000 cycles: 751609373 heartbeat IPC: 0.807359 cumulative IPC: 0.823717 (Simulation time: 4 hr 16 min 35 sec) 
Heartbeat CPU 1 instructions: 410000003 cycles: 754146672 heartbeat IPC: 0.565003 cumulative IPC: 0.516217 (Simulation time: 4 hr 17 min 20 sec) 
Heartbeat CPU 0 instructions: 610000002 cycles: 757049092 heartbeat IPC: 0.74508 cumulative IPC: 0.786166 (Simulation time: 4 hr 18 min 13 sec) 
Heartbeat CPU 4 instructions: 320000000 cycles: 757704420 heartbeat IPC: 0.338125 cumulative IPC: 0.388002 (Simulation time: 4 hr 18 min 24 sec) 
Heartbeat CPU 2 instructions: 350000000 cycles: 758162822 heartbeat IPC: 0.433752 cumulative IPC: 0.429157 (Simulation time: 4 hr 18 min 33 sec) 
Heartbeat CPU 6 instructions: 650000000 cycles: 764067625 heartbeat IPC: 0.802681 cumulative IPC: 0.823368 (Simulation time: 4 hr 20 min 18 sec) 
Heartbeat CPU 3 instructions: 340000000 cycles: 765527392 heartbeat IPC: 0.527298 cumulative IPC: 0.423351 (Simulation time: 4 hr 20 min 44 sec) 
Heartbeat CPU 0 instructions: 620000000 cycles: 770495072 heartbeat IPC: 0.743717 cumulative IPC: 0.785412 (Simulation time: 4 hr 22 min 9 sec) 
Heartbeat CPU 1 instructions: 420000000 cycles: 771867600 heartbeat IPC: 0.564304 cumulative IPC: 0.51734 (Simulation time: 4 hr 22 min 33 sec) 
Heartbeat CPU 7 instructions: 270000000 cycles: 775012755 heartbeat IPC: 0.303442 cumulative IPC: 0.328232 (Simulation time: 4 hr 23 min 29 sec) 
Heartbeat CPU 6 instructions: 660000000 cycles: 776502932 heartbeat IPC: 0.804162 cumulative IPC: 0.823055 (Simulation time: 4 hr 23 min 56 sec) 
Heartbeat CPU 2 instructions: 360000000 cycles: 781196725 heartbeat IPC: 0.434143 cumulative IPC: 0.429306 (Simulation time: 4 hr 25 min 19 sec) 
Heartbeat CPU 0 instructions: 630000000 cycles: 783940997 heartbeat IPC: 0.74372 cumulative IPC: 0.784685 (Simulation time: 4 hr 26 min 7 sec) 
Heartbeat CPU 4 instructions: 330000003 cycles: 787030056 heartbeat IPC: 0.340999 cumulative IPC: 0.38622 (Simulation time: 4 hr 27 min 2 sec) 
Heartbeat CPU 6 instructions: 670000000 cycles: 788957214 heartbeat IPC: 0.802937 cumulative IPC: 0.822732 (Simulation time: 4 hr 27 min 37 sec) 
Heartbeat CPU 1 instructions: 430000002 cycles: 789603325 heartbeat IPC: 0.563834 cumulative IPC: 0.518402 (Simulation time: 4 hr 27 min 48 sec) 
Heartbeat CPU 3 instructions: 350000000 cycles: 794476956 heartbeat IPC: 0.345428 cumulative IPC: 0.420464 (Simulation time: 4 hr 29 min 13 sec) 
Heartbeat CPU 0 instructions: 640000000 cycles: 797394549 heartbeat IPC: 0.743298 cumulative IPC: 0.783975 (Simulation time: 4 hr 30 min 5 sec) 
Heartbeat CPU 6 instructions: 680000000 cycles: 801580493 heartbeat IPC: 0.792187 cumulative IPC: 0.822243 (Simulation time: 4 hr 31 min 19 sec) 
Heartbeat CPU 5 instructions: 110000001 cycles: 804030390 heartbeat IPC: 0.102911 cumulative IPC: 0.104493 (Simulation time: 4 hr 32 min 4 sec) 
Heartbeat CPU 2 instructions: 370000001 cycles: 804449673 heartbeat IPC: 0.430053 cumulative IPC: 0.429328 (Simulation time: 4 hr 32 min 11 sec) 
Heartbeat CPU 1 instructions: 440000000 cycles: 807259543 heartbeat IPC: 0.566373 cumulative IPC: 0.519469 (Simulation time: 4 hr 33 min 1 sec) 
Heartbeat CPU 7 instructions: 280000000 cycles: 807523979 heartbeat IPC: 0.307586 cumulative IPC: 0.327387 (Simulation time: 4 hr 33 min 5 sec) 
Heartbeat CPU 0 instructions: 650000002 cycles: 810920124 heartbeat IPC: 0.73934 cumulative IPC: 0.783218 (Simulation time: 4 hr 34 min 6 sec) 
Heartbeat CPU 6 instructions: 690000000 cycles: 814203882 heartbeat IPC: 0.79218 cumulative IPC: 0.821769 (Simulation time: 4 hr 35 min 5 sec) 
Heartbeat CPU 4 instructions: 340000000 cycles: 815704957 heartbeat IPC: 0.348737 cumulative IPC: 0.38488 (Simulation time: 4 hr 35 min 32 sec) 
Heartbeat CPU 3 instructions: 360000000 cycles: 822399783 heartbeat IPC: 0.35813 cumulative IPC: 0.418312 (Simulation time: 4 hr 37 min 31 sec) 
Heartbeat CPU 0 instructions: 660000000 cycles: 824327265 heartbeat IPC: 0.745871 cumulative IPC: 0.7826 (Simulation time: 4 hr 38 min 6 sec) 
Heartbeat CPU 1 instructions: 450000002 cycles: 825184151 heartbeat IPC: 0.557892 cumulative IPC: 0.520318 (Simulation time: 4 hr 38 min 22 sec) 
Heartbeat CPU 6 instructions: 700000000 cycles: 826834921 heartbeat IPC: 0.7917 cumulative IPC: 0.821302 (Simulation time: 4 hr 38 min 52 sec) 
Heartbeat CPU 2 instructions: 380000000 cycles: 827881195 heartbeat IPC: 0.426775 cumulative IPC: 0.429255 (Simulation time: 4 hr 39 min 11 sec) 
Heartbeat CPU 0 instructions: 670000003 cycles: 836435265 heartbeat IPC: 0.8259 cumulative IPC: 0.783237 (Simulation time: 4 hr 41 min 47 sec) 
Heartbeat CPU 7 instructions: 290000001 cycles: 839069122 heartbeat IPC: 0.317006 cumulative IPC: 0.326991 (Simulation time: 4 hr 42 min 36 sec) 
Heartbeat CPU 6 instructions: 710000000 cycles: 839491123 heartbeat IPC: 0.790126 cumulative IPC: 0.820825 (Simulation time: 4 hr 42 min 44 sec) 
Heartbeat CPU 1 instructions: 460000000 cycles: 843080031 heartbeat IPC: 0.558788 cumulative IPC: 0.521147 (Simulation time: 4 hr 43 min 50 sec) 
Heartbeat CPU 4 instructions: 350000001 cycles: 845270030 heartbeat IPC: 0.338237 cumulative IPC: 0.383223 (Simulation time: 4 hr 44 min 32 sec) 
Heartbeat CPU 0 instructions: 680000000 cycles: 846624310 heartbeat IPC: 0.981446 cumulative IPC: 0.785661 (Simulation time: 4 hr 44 min 57 sec) 
Heartbeat CPU 3 instructions: 370000001 cycles: 847847126 heartbeat IPC: 0.392968 cumulative IPC: 0.417539 (Simulation time: 4 hr 45 min 20 sec) 
Heartbeat CPU 2 instructions: 390000003 cycles: 851837960 heartbeat IPC: 0.417419 cumulative IPC: 0.428917 (Simulation time: 4 hr 46 min 38 sec) 
Heartbeat CPU 6 instructions: 720000000 cycles: 852202737 heartbeat IPC: 0.786682 cumulative IPC: 0.820307 (Simulation time: 4 hr 46 min 46 sec) 
Heartbeat CPU 0 instructions: 690000002 cycles: 857427430 heartbeat IPC: 0.925659 cumulative IPC: 0.787453 (Simulation time: 4 hr 48 min 26 sec) 
Heartbeat CPU 1 instructions: 470000001 cycles: 860799150 heartbeat IPC: 0.564362 cumulative IPC: 0.522051 (Simulation time: 4 hr 49 min 30 sec) 
Heartbeat CPU 3 instructions: 380000000 cycles: 864741416 heartbeat IPC: 0.591916 cumulative IPC: 0.420999 (Simulation time: 4 hr 50 min 44 sec) 
Heartbeat CPU 6 instructions: 730000001 cycles: 864753781 heartbeat IPC: 0.796747 cumulative IPC: 0.81996 (Simulation time: 4 hr 50 min 45 sec) 
Heartbeat CPU 7 instructions: 300000000 cycles: 869656704 heartbeat IPC: 0.32693 cumulative IPC: 0.326988 (Simulation time: 4 hr 52 min 15 sec) 
Heartbeat CPU 0 instructions: 700000000 cycles: 870846251 heartbeat IPC: 0.745222 cumulative IPC: 0.786792 (Simulation time: 4 hr 52 min 37 sec) 
Heartbeat CPU 4 instructions: 360000000 cycles: 874485124 heartbeat IPC: 0.342289 cumulative IPC: 0.381834 (Simulation time: 4 hr 53 min 42 sec) 
Heartbeat CPU 2 instructions: 400000000 cycles: 874868612 heartbeat IPC: 0.434204 cumulative IPC: 0.429058 (Simulation time: 4 hr 53 min 49 sec) 
Heartbeat CPU 6 instructions: 740000000 cycles: 877289201 heartbeat IPC: 0.797739 cumulative IPC: 0.819638 (Simulation time: 4 hr 54 min 32 sec) 
Heartbeat CPU 1 instructions: 480000000 cycles: 878324198 heartbeat IPC: 0.570612 cumulative IPC: 0.523035 (Simulation time: 4 hr 54 min 50 sec) 
Heartbeat CPU 0 instructions: 710000002 cycles: 884356889 heartbeat IPC: 0.740158 cumulative IPC: 0.786069 (Simulation time: 4 hr 56 min 37 sec) 
Heartbeat CPU 6 instructions: 750000000 cycles: 889850297 heartbeat IPC: 0.796109 cumulative IPC: 0.8193 (Simulation time: 4 hr 58 min 16 sec) 
Heartbeat CPU 3 instructions: 390000001 cycles: 890592468 heartbeat IPC: 0.386831 cumulative IPC: 0.419993 (Simulation time: 4 hr 58 min 29 sec) 
Heartbeat CPU 1 instructions: 490000001 cycles: 896439707 heartbeat IPC: 0.552013 cumulative IPC: 0.523629 (Simulation time: 5 hr 0 min 15 sec) 
Heartbeat CPU 7 instructions: 310000000 cycles: 897561238 heartbeat IPC: 0.358365 cumulative IPC: 0.327979 (Simulation time: 5 hr 0 min 35 sec) 
Heartbeat CPU 0 instructions: 720000000 cycles: 897751222 heartbeat IPC: 0.746584 cumulative IPC: 0.785471 (Simulation time: 5 hr 0 min 38 sec) 
Heartbeat CPU 5 instructions: 120000000 cycles: 897901252 heartbeat IPC: 0.106529 cumulative IPC: 0.104709 (Simulation time: 5 hr 0 min 41 sec) 
Heartbeat CPU 2 instructions: 410000001 cycles: 898063611 heartbeat IPC: 0.431127 cumulative IPC: 0.429112 (Simulation time: 5 hr 0 min 44 sec) 
Heartbeat CPU 6 instructions: 760000000 cycles: 902412937 heartbeat IPC: 0.796011 cumulative IPC: 0.818971 (Simulation time: 5 hr 2 min 1 sec) 
Heartbeat CPU 4 instructions: 370000001 cycles: 903265088 heartbeat IPC: 0.347464 cumulative IPC: 0.380723 (Simulation time: 5 hr 2 min 16 sec) 
Heartbeat CPU 0 instructions: 730000002 cycles: 911216477 heartbeat IPC: 0.742652 cumulative IPC: 0.784828 (Simulation time: 5 hr 4 min 38 sec) 
Heartbeat CPU 6 instructions: 770000001 cycles: 915146995 heartbeat IPC: 0.785296 cumulative IPC: 0.818496 (Simulation time: 5 hr 5 min 44 sec) 
Heartbeat CPU 3 instructions: 400000000 cycles: 919300787 heartbeat IPC: 0.348331 cumulative IPC: 0.417722 (Simulation time: 5 hr 6 min 53 sec) 
Heartbeat CPU 2 instructions: 420000000 cycles: 922576730 heartbeat IPC: 0.407945 cumulative IPC: 0.428541 (Simulation time: 5 hr 7 min 49 sec) 
Heartbeat CPU 0 instructions: 740000000 cycles: 925141176 heartbeat IPC: 0.718148 cumulative IPC: 0.78381 (Simulation time: 5 hr 8 min 31 sec) 
Heartbeat CPU 1 instructions: 500000000 cycles: 927033447 heartbeat IPC: 0.326864 cumulative IPC: 0.517041 (Simulation time: 5 hr 9 min 3 sec) 
Heartbeat CPU 6 instructions: 780000000 cycles: 927959519 heartbeat IPC: 0.780486 cumulative IPC: 0.817963 (Simulation time: 5 hr 9 min 18 sec) 
Heartbeat CPU 7 instructions: 320000000 cycles: 930123450 heartbeat IPC: 0.307104 cumulative IPC: 0.327237 (Simulation time: 5 hr 9 min 54 sec) 
Heartbeat CPU 4 instructions: 380000000 cycles: 934046475 heartbeat IPC: 0.324872 cumulative IPC: 0.378855 (Simulation time: 5 hr 11 min 0 sec) 
Heartbeat CPU 0 instructions: 750000000 cycles: 939039587 heartbeat IPC: 0.719507 cumulative IPC: 0.782845 (Simulation time: 5 hr 12 min 23 sec) 
Heartbeat CPU 6 instructions: 790000002 cycles: 940802779 heartbeat IPC: 0.778619 cumulative IPC: 0.817418 (Simulation time: 5 hr 12 min 52 sec) 
Heartbeat CPU 3 instructions: 410000001 cycles: 946446107 heartbeat IPC: 0.368388 cumulative IPC: 0.416287 (Simulation time: 5 hr 14 min 26 sec) 
Heartbeat CPU 2 instructions: 430000003 cycles: 948715429 heartbeat IPC: 0.382575 cumulative IPC: 0.427257 (Simulation time: 5 hr 15 min 5 sec) 
Heartbeat CPU 0 instructions: 760000000 cycles: 952896868 heartbeat IPC: 0.721642 cumulative IPC: 0.781942 (Simulation time: 5 hr 16 min 17 sec) 
Heartbeat CPU 6 instructions: 800000000 cycles: 953581593 heartbeat IPC: 0.782545 cumulative IPC: 0.816944 (Simulation time: 5 hr 16 min 28 sec) 
Heartbeat CPU 7 instructions: 330000002 cycles: 963251421 heartbeat IPC: 0.30186 cumulative IPC: 0.326352 (Simulation time: 5 hr 19 min 22 sec) 
Heartbeat CPU 4 instructions: 390000000 cycles: 963941708 heartbeat IPC: 0.334502 cumulative IPC: 0.37746 (Simulation time: 5 hr 19 min 34 sec) 
Heartbeat CPU 6 instructions: 810000000 cycles: 966119130 heartbeat IPC: 0.797605 cumulative IPC: 0.81669 (Simulation time: 5 hr 20 min 13 sec) 
Heartbeat CPU 0 instructions: 770000000 cycles: 966448841 heartbeat IPC: 0.7379 cumulative IPC: 0.781316 (Simulation time: 5 hr 20 min 19 sec) 
Heartbeat CPU 1 instructions: 510000003 cycles: 967338087 heartbeat IPC: 0.24811 cumulative IPC: 0.505679 (Simulation time: 5 hr 20 min 35 sec) 
Heartbeat CPU 3 instructions: 420000000 cycles: 971375060 heartbeat IPC: 0.40114 cumulative IPC: 0.415892 (Simulation time: 5 hr 21 min 47 sec) 
Heartbeat CPU 2 instructions: 440000000 cycles: 972690271 heartbeat IPC: 0.417104 cumulative IPC: 0.427003 (Simulation time: 5 hr 22 min 11 sec) 
Finished CPU 5 instructions: 100000000 cycles: 961015007 cumulative IPC: 0.104057 (Simulation time: 5 hr 22 min 41 sec) 

CPU 0 Branch Prediction Accuracy: 99.9708% MPKI: 0.00723807

CPU 1 Branch Prediction Accuracy: 99.4337% MPKI: 0.0689444

CPU 2 Branch Prediction Accuracy: 99.975% MPKI: 0.00427355

CPU 3 Branch Prediction Accuracy: 99.1924% MPKI: 1.99075

CPU 4 Branch Prediction Accuracy: 97.4589% MPKI: 0.399849

CPU 5 Branch Prediction Accuracy: 99.5566% MPKI: 1.45758

CPU 6 Branch Prediction Accuracy: 99.9338% MPKI: 0.169026

CPU 7 Branch Prediction Accuracy: 91.6774% MPKI: 14.9575

ChampSim completed all CPUs

Total Simulation Statistics (not including warmup)

CPU 0 cumulative IPC: 0.780976 instructions: 750529943 cycles: 961015007
L1D TOTAL     ACCESS:  285535689  HIT:  269955508  MISS:   15580181
L1D LOAD      ACCESS:  244015417  HIT:  228905396  MISS:   15110021
L1D RFO       ACCESS:   41520272  HIT:   41050112  MISS:     470160
L1D PREFETCH  ACCESS:          0  HIT:          0  MISS:          0
L1D WRITEBACK ACCESS:          0  HIT:          0  MISS:          0
L1I TOTAL     ACCESS:  187449516  HIT:  187449516  MISS:          0
L1I LOAD      ACCESS:  187449516  HIT:  187449516  MISS:          0
L1I RFO       ACCESS:          0  HIT:          0  MISS:          0
L1I PREFETCH  ACCESS:          0  HIT:          0  MISS:          0
L1I WRITEBACK ACCESS:          0  HIT:          0  MISS:          0
L2C TOTAL     ACCESS:   23023726  HIT:    8716828  MISS:   14306898
L2C LOAD      ACCESS:   15105975  HIT:    8096238  MISS:    7009737
L2C RFO       ACCESS:     461400  HIT:      95709  MISS:     365691
L2C PREFETCH  ACCESS:    6944017  HIT:      16238  MISS:    6927779
L2C WRITEBACK ACCESS:     512334  HIT:     508643  MISS:       3691

L2C Best-offset prefetcher final stats
LLC TOTAL     ACCESS:   17915480  HIT:    3652539  MISS:   14262941
LLC LOAD      ACCESS:    3939104  HIT:    3254239  MISS:     684865
LLC RFO       ACCESS:     365691  HIT:          0  MISS:     365691
LLC PREFETCH  ACCESS:   13240806  HIT:      29168  MISS:   13211638
LLC WRITEBACK ACCESS:     369879  HIT:     369132  MISS:        747

CPU 1 cumulative IPC: 0.506086 instructions: 486356374 cycles: 961015007
L1D TOTAL     ACCESS:  123780218  HIT:  102851778  MISS:   20928440
L1D LOAD      ACCESS:   48298598  HIT:   45127414  MISS:    3171184
L1D RFO       ACCESS:   75481620  HIT:   57724364  MISS:   17757256
L1D PREFETCH  ACCESS:          0  HIT:          0  MISS:          0
L1D WRITEBACK ACCESS:          0  HIT:          0  MISS:          0
L1I TOTAL     ACCESS:  110294870  HIT:  110294867  MISS:          3
L1I LOAD      ACCESS:  110294870  HIT:  110294867  MISS:          3
L1I RFO       ACCESS:          0  HIT:          0  MISS:          0
L1I PREFETCH  ACCESS:          0  HIT:          0  MISS:          0
L1I WRITEBACK ACCESS:          0  HIT:          0  MISS:          0
L2C TOTAL     ACCESS:   40025360  HIT:   24398847  MISS:   15626513
L2C LOAD      ACCESS:    3171187  HIT:    1120894  MISS:    2050293
L2C RFO       ACCESS:   17757256  HIT:    5302388  MISS:   12454868
L2C PREFETCH  ACCESS:    1339663  HIT:     218729  MISS:    1120934
L2C WRITEBACK ACCESS:   17757254  HIT:   17756836  MISS:        418

L2C Best-offset prefetcher final stats
LLC TOTAL     ACCESS:   28072489  HIT:   15387286  MISS:   12685203
LLC LOAD      ACCESS:    1761544  HIT:        119  MISS:    1761425
LLC RFO       ACCESS:   12446013  HIT:    2932015  MISS:    9513998
LLC PREFETCH  ACCESS:    1409684  HIT:        125  MISS:    1409559
LLC WRITEBACK ACCESS:   12455248  HIT:   12455027  MISS:        221

CPU 2 cumulative IPC: 0.427013 instructions: 410365886 cycles: 961015007
L1D TOTAL     ACCESS:   86134470  HIT:   80703785  MISS:    5430685
L1D LOAD      ACCESS:   57337219  HIT:   51911942  MISS:    5425277
L1D RFO       ACCESS:   28797251  HIT:   28791843  MISS:       5408
L1D PREFETCH  ACCESS:          0  HIT:          0  MISS:          0
L1D WRITEBACK ACCESS:          0  HIT:          0  MISS:          0
L1I TOTAL     ACCESS:   82923961  HIT:   82923961  MISS:          0
L1I LOAD      ACCESS:   82923961  HIT:   82923961  MISS:          0
L1I RFO       ACCESS:          0  HIT:          0  MISS:          0
L1I PREFETCH  ACCESS:          0  HIT:          0  MISS:          0
L1I WRITEBACK ACCESS:          0  HIT:          0  MISS:          0
L2C TOTAL     ACCESS:   11731779  HIT:    6438003  MISS:    5293776
L2C LOAD      ACCESS:    5425277  HIT:    2825772  MISS:    2599505
L2C RFO       ACCESS:       5408  HIT:        916  MISS:       4492
L2C PREFETCH  ACCESS:    2695129  HIT:       5350  MISS:    2689779
L2C WRITEBACK ACCESS:    3605965  HIT:    3605965  MISS:          0

L2C Best-offset prefetcher final stats
LLC TOTAL     ACCESS:    8897609  HIT:    5292495  MISS:    3605114
LLC LOAD      ACCESS:     108730  HIT:      52059  MISS:      56671
LLC RFO       ACCESS:       4491  HIT:       4488  MISS:          3
LLC PREFETCH  ACCESS:    5180607  HIT:    1632204  MISS:    3548403
LLC WRITEBACK ACCESS:    3603781  HIT:    3603744  MISS:         37

CPU 3 cumulative IPC: 0.415892 instructions: 399678008 cycles: 961015007
L1D TOTAL     ACCESS:  104561008  HIT:   88487023  MISS:   16073985
L1D LOAD      ACCESS:   72020987  HIT:   56681112  MISS:   15339875
L1D RFO       ACCESS:   32540021  HIT:   31805911  MISS:     734110
L1D PREFETCH  ACCESS:          0  HIT:          0  MISS:          0
L1D WRITEBACK ACCESS:          0  HIT:          0  MISS:          0
L1I TOTAL     ACCESS:  171395677  HIT:  170227712  MISS:    1167965
L1I LOAD      ACCESS:  171395677  HIT:  170227712  MISS:    1167965
L1I RFO       ACCESS:          0  HIT:          0  MISS:          0
L1I PREFETCH  ACCESS:          0  HIT:          0  MISS:          0
L1I WRITEBACK ACCESS:          0  HIT:          0  MISS:          0
L2C TOTAL     ACCESS:   20601473  HIT:   16437674  MISS:    4163799
L2C LOAD      ACCESS:   16507772  HIT:   14033531  MISS:    2474241
L2C RFO       ACCESS:     734099  HIT:     195380  MISS:     538719
L2C PREFETCH  ACCESS:    2138569  HIT:     988444  MISS:    1150125
L2C WRITEBACK ACCESS:    1221033  HIT:    1220319  MISS:        714

L2C Best-offset prefetcher final stats
LLC TOTAL     ACCESS:    4914755  HIT:    3995697  MISS:     919058
LLC LOAD      ACCESS:    2340872  HIT:    2150403  MISS:     190469
LLC RFO       ACCESS:     529579  HIT:      26622  MISS:     502957
LLC PREFETCH  ACCESS:    1293676  HIT:    1155692  MISS:     137984
LLC WRITEBACK ACCESS:     750628  HIT:     662980  MISS:      87648

CPU 4 cumulative IPC: 0.376921 instructions: 362226322 cycles: 961015007
L1D TOTAL     ACCESS:  100383792  HIT:   75647379  MISS:   24736413
L1D LOAD      ACCESS:   36917417  HIT:   33166865  MISS:    3750552
L1D RFO       ACCESS:   63466375  HIT:   42480514  MISS:   20985861
L1D PREFETCH  ACCESS:          0  HIT:          0  MISS:          0
L1D WRITEBACK ACCESS:          0  HIT:          0  MISS:          0
L1I TOTAL     ACCESS:   83572562  HIT:   83572562  MISS:          0
L1I LOAD      ACCESS:   83572562  HIT:   83572562  MISS:          0
L1I RFO       ACCESS:          0  HIT:          0  MISS:          0
L1I PREFETCH  ACCESS:          0  HIT:          0  MISS:          0
L1I WRITEBACK ACCESS:          0  HIT:          0  MISS:          0
L2C TOTAL     ACCESS:   47282315  HIT:   28635781  MISS:   18646534
L2C LOAD      ACCESS:    3750552  HIT:    1202206  MISS:    2548346
L2C RFO       ACCESS:   20985838  HIT:    6093617  MISS:   14892221
L2C PREFETCH  ACCESS:    1560066  HIT:     358838  MISS:    1201228
L2C WRITEBACK ACCESS:   20985859  HIT:   20981120  MISS:       4739

L2C Best-offset prefetcher final stats
LLC TOTAL     ACCESS:   33529933  HIT:   18545765  MISS:   14984168
LLC LOAD      ACCESS:    2045193  HIT:       1907  MISS:    2043286
LLC RFO       ACCESS:   14883705  HIT:    3646202  MISS:   11237503
LLC PREFETCH  ACCESS:    1704382  HIT:       1770  MISS:    1702612
LLC WRITEBACK ACCESS:   14896653  HIT:   14895886  MISS:        767

CPU 5 cumulative IPC: 0.104057 instructions: 100000000 cycles: 961015007
L1D TOTAL     ACCESS:   17169140  HIT:    9933028  MISS:    7236112
L1D LOAD      ACCESS:   15686124  HIT:    8452805  MISS:    7233319
L1D RFO       ACCESS:    1483016  HIT:    1480223  MISS:       2793
L1D PREFETCH  ACCESS:          0  HIT:          0  MISS:          0
L1D WRITEBACK ACCESS:          0  HIT:          0  MISS:          0
L1I TOTAL     ACCESS:   36400231  HIT:   36400206  MISS:         25
L1I LOAD      ACCESS:   36400231  HIT:   36400206  MISS:         25
L1I RFO       ACCESS:          0  HIT:          0  MISS:          0
L1I PREFETCH  ACCESS:          0  HIT:          0  MISS:          0
L1I WRITEBACK ACCESS:          0  HIT:          0  MISS:          0
L2C TOTAL     ACCESS:   10944429  HIT:    3872869  MISS:    7071560
L2C LOAD      ACCESS:    7233344  HIT:    3845432  MISS:    3387912
L2C RFO       ACCESS:       2793  HIT:        590  MISS:       2203
L2C PREFETCH  ACCESS:    3682826  HIT:       1381  MISS:    3681445
L2C WRITEBACK ACCESS:      25466  HIT:      25466  MISS:          0

L2C Best-offset prefetcher final stats
LLC TOTAL     ACCESS:    7082818  HIT:      16562  MISS:    7066256
LLC LOAD      ACCESS:     411672  HIT:       3455  MISS:     408217
LLC RFO       ACCESS:       2203  HIT:         17  MISS:       2186
LLC PREFETCH  ACCESS:    6657686  HIT:       1844  MISS:    6655842
LLC WRITEBACK ACCESS:      11257  HIT:      11246  MISS:         11

CPU 6 cumulative IPC: 0.816515 instructions: 784682901 cycles: 961015007
L1D TOTAL     ACCESS:  164971224  HIT:  146307148  MISS:   18664076
L1D LOAD      ACCESS:  151135981  HIT:  132496978  MISS:   18639003
L1D RFO       ACCESS:   13835243  HIT:   13810170  MISS:      25073
L1D PREFETCH  ACCESS:          0  HIT:          0  MISS:          0
L1D WRITEBACK ACCESS:          0  HIT:          0  MISS:          0
L1I TOTAL     ACCESS:  272215291  HIT:  272215198  MISS:         93
L1I LOAD      ACCESS:  272215291  HIT:  272215198  MISS:         93
L1I RFO       ACCESS:          0  HIT:          0  MISS:          0
L1I PREFETCH  ACCESS:          0  HIT:          0  MISS:          0
L1I WRITEBACK ACCESS:          0  HIT:          0  MISS:          0
L2C TOTAL     ACCESS:   33635840  HIT:   16189536  MISS:   17446304
L2C LOAD      ACCESS:   18639094  HIT:   16023684  MISS:    2615410
L2C RFO       ACCESS:      25073  HIT:      12044  MISS:      13029
L2C PREFETCH  ACCESS:   14935159  HIT:     117297  MISS:   14817862
L2C WRITEBACK ACCESS:      36514  HIT:      36511  MISS:          3

L2C Best-offset prefetcher final stats
LLC TOTAL     ACCESS:   17479558  HIT:   17294165  MISS:     185393
LLC LOAD      ACCESS:    2261513  HIT:    2230954  MISS:      30559
LLC RFO       ACCESS:      12982  HIT:       6229  MISS:       6753
LLC PREFETCH  ACCESS:   15174912  HIT:   15030976  MISS:     143936
LLC WRITEBACK ACCESS:      30151  HIT:      26006  MISS:       4145

CPU 7 cumulative IPC: 0.325888 instructions: 313183334 cycles: 961015007
L1D TOTAL     ACCESS:  106286144  HIT:  102926453  MISS:    3359691
L1D LOAD      ACCESS:   65374818  HIT:   62383981  MISS:    2990837
L1D RFO       ACCESS:   40911326  HIT:   40542472  MISS:     368854
L1D PREFETCH  ACCESS:          0  HIT:          0  MISS:          0
L1D WRITEBACK ACCESS:          0  HIT:          0  MISS:          0
L1I TOTAL     ACCESS:   83453358  HIT:   81951531  MISS:    1501827
L1I LOAD      ACCESS:   83453358  HIT:   81951531  MISS:    1501827
L1I RFO       ACCESS:          0  HIT:          0  MISS:          0
L1I PREFETCH  ACCESS:          0  HIT:          0  MISS:          0
L1I WRITEBACK ACCESS:          0  HIT:          0  MISS:          0
L2C TOTAL     ACCESS:    6916505  HIT:    4806442  MISS:    2110063
L2C LOAD      ACCESS:    4492622  HIT:    3456711  MISS:    1035911
L2C RFO       ACCESS:     368840  HIT:     148248  MISS:     220592
L2C PREFETCH  ACCESS:    1193489  HIT:     348671  MISS:     844818
L2C WRITEBACK ACCESS:     861554  HIT:     852812  MISS:       8742

L2C Best-offset prefetcher final stats
LLC TOTAL     ACCESS:    2573108  HIT:    1348576  MISS:    1224532
LLC LOAD      ACCESS:     932706  HIT:     483376  MISS:     449330
LLC RFO       ACCESS:     216985  HIT:      48100  MISS:     168885
LLC PREFETCH  ACCESS:     952199  HIT:     419993  MISS:     532206
LLC WRITEBACK ACCESS:     471218  HIT:     397107  MISS:      74111

Region of Interest Statistics

CPU 0 cumulative IPC: 0.76113 instructions: 100000000 cycles: 131383649
L1D TOTAL     ACCESS:   38054762  HIT:   35978531  MISS:    2076231
L1D LOAD      ACCESS:   32516389  HIT:   30502924  MISS:    2013465
L1D RFO       ACCESS:    5538373  HIT:    5475607  MISS:      62766
L1D PREFETCH  ACCESS:          0  HIT:          0  MISS:          0
L1D WRITEBACK ACCESS:          0  HIT:          0  MISS:          0
L1D PREFETCH  REQUESTED:          0  ISSUED:          0  USEFUL:          0  USELESS:          0
L1I TOTAL     ACCESS:   25010596  HIT:   25010596  MISS:          0
L1I LOAD      ACCESS:   25010596  HIT:   25010596  MISS:          0
L1I RFO       ACCESS:          0  HIT:          0  MISS:          0
L1I PREFETCH  ACCESS:          0  HIT:          0  MISS:          0
L1I WRITEBACK ACCESS:          0  HIT:          0  MISS:          0
L1I PREFETCH  REQUESTED:          0  ISSUED:          0  USEFUL:          0  USELESS:          0
L2C TOTAL     ACCESS:    3055558  HIT:    1149144  MISS:    1906414
L2C LOAD      ACCESS:    2012939  HIT:    1066704  MISS:     946235
L2C RFO       ACCESS:      61624  HIT:      12900  MISS:      48724
L2C PREFETCH  ACCESS:     912652  HIT:       1677  MISS:     910975
L2C WRITEBACK ACCESS:      68343  HIT:      67863  MISS:        480
L2C PREFETCH  REQUESTED:   13845513  ISSUED:   13845513  USEFUL:    7371128  USELESS:        523
LLC TOTAL     ACCESS:    2366813  HIT:     466391  MISS:    1900422
LLC LOAD      ACCESS:     490175  HIT:     413270  MISS:      76905
LLC RFO       ACCESS:      48724  HIT:          0  MISS:      48724
LLC PREFETCH  ACCESS:    1778603  HIT:       3918  MISS:    1774685
LLC WRITEBACK ACCESS:      49311  HIT:      49203  MISS:        108
LLC PREFETCH  REQUESTED:          0  ISSUED:          0  USEFUL:    3362916  USELESS:   27199170
Major fault: 0 Minor fault: 218839

CPU 1 cumulative IPC: 0.444967 instructions: 100000000 cycles: 224735719
L1D TOTAL     ACCESS:   26226998  HIT:   20749250  MISS:    5477748
L1D LOAD      ACCESS:    9793960  HIT:    8963829  MISS:     830131
L1D RFO       ACCESS:   16433038  HIT:   11785421  MISS:    4647617
L1D PREFETCH  ACCESS:          0  HIT:          0  MISS:          0
L1D WRITEBACK ACCESS:          0  HIT:          0  MISS:          0
L1D PREFETCH  REQUESTED:          0  ISSUED:          0  USEFUL:          0  USELESS:          0
L1I TOTAL     ACCESS:   22814490  HIT:   22814490  MISS:          0
L1I LOAD      ACCESS:   22814490  HIT:   22814490  MISS:          0
L1I RFO       ACCESS:          0  HIT:          0  MISS:          0
L1I PREFETCH  ACCESS:          0  HIT:          0  MISS:          0
L1I WRITEBACK ACCESS:          0  HIT:          0  MISS:          0
L1I PREFETCH  REQUESTED:          0  ISSUED:          0  USEFUL:          0  USELESS:          0
L2C TOTAL     ACCESS:   10474223  HIT:    6368319  MISS:    4105904
L2C LOAD      ACCESS:     830131  HIT:     277888  MISS:     552243
L2C RFO       ACCESS:    4647617  HIT:    1372158  MISS:    3275459
L2C PREFETCH  ACCESS:     348862  HIT:      70963  MISS:     277899
L2C WRITEBACK ACCESS:    4647613  HIT:    4647310  MISS:        303
L2C PREFETCH  REQUESTED:    3423402  ISSUED:    3423402  USEFUL:    1294831  USELESS:        241
LLC TOTAL     ACCESS:    7379263  HIT:    4059720  MISS:    3319543
LLC LOAD      ACCESS:     456432  HIT:        118  MISS:     456314
LLC RFO       ACCESS:    3273367  HIT:     783832  MISS:    2489535
LLC PREFETCH  ACCESS:     373710  HIT:        124  MISS:     373586
LLC WRITEBACK ACCESS:    3275754  HIT:    3275646  MISS:        108
LLC PREFETCH  REQUESTED:          0  ISSUED:          0  USEFUL:    3362916  USELESS:   27199170
Major fault: 0 Minor fault: 114951

CPU 2 cumulative IPC: 0.437047 instructions: 100000001 cycles: 228808563
L1D TOTAL     ACCESS:   20996944  HIT:   19673570  MISS:    1323374
L1D LOAD      ACCESS:   13979473  HIT:   12657417  MISS:    1322056
L1D RFO       ACCESS:    7017471  HIT:    7016153  MISS:       1318
L1D PREFETCH  ACCESS:          0  HIT:          0  MISS:          0
L1D WRITEBACK ACCESS:          0  HIT:          0  MISS:          0
L1D PREFETCH  REQUESTED:          0  ISSUED:          0  USEFUL:          0  USELESS:          0
L1I TOTAL     ACCESS:   20216333  HIT:   20216333  MISS:          0
L1I LOAD      ACCESS:   20216333  HIT:   20216333  MISS:          0
L1I RFO       ACCESS:          0  HIT:          0  MISS:          0
L1I PREFETCH  ACCESS:          0  HIT:          0  MISS:          0
L1I WRITEBACK ACCESS:          0  HIT:          0  MISS:          0
L1I PREFETCH  REQUESTED:          0  ISSUED:          0  USEFUL:          0  USELESS:          0
L2C TOTAL     ACCESS:    2858801  HIT:    1573355  MISS:    1285446
L2C LOAD      ACCESS:    1322056  HIT:     693038  MISS:     629018
L2C RFO       ACCESS:       1318  HIT:        220  MISS:       1098
L2C PREFETCH  ACCESS:     656713  HIT:       1383  MISS:     655330
L2C WRITEBACK ACCESS:     878714  HIT:     878714  MISS:          0
L2C PREFETCH  REQUESTED:    5575046  ISSUED:    5575046  USEFUL:    3055428  USELESS:      16427
LLC TOTAL     ACCESS:    2163570  HIT:    1284187  MISS:     879383
LLC LOAD      ACCESS:      26509  HIT:      12676  MISS:      13833
LLC RFO       ACCESS:       1097  HIT:       1097  MISS:          0
LLC PREFETCH  ACCESS:    1257857  HIT:     392322  MISS:     865535
LLC WRITEBACK ACCESS:     878107  HIT:     878092  MISS:         15
LLC PREFETCH  REQUESTED:          0  ISSUED:          0  USEFUL:    3362916  USELESS:   27199170
Major fault: 0 Minor fault: 60524

CPU 3 cumulative IPC: 0.423588 instructions: 100000000 cycles: 236078370
L1D TOTAL     ACCESS:   25535950  HIT:   21556563  MISS:    3979387
L1D LOAD      ACCESS:   17643684  HIT:   13841008  MISS:    3802676
L1D RFO       ACCESS:    7892266  HIT:    7715555  MISS:     176711
L1D PREFETCH  ACCESS:          0  HIT:          0  MISS:          0
L1D WRITEBACK ACCESS:          0  HIT:          0  MISS:          0
L1D PREFETCH  REQUESTED:          0  ISSUED:          0  USEFUL:          0  USELESS:          0
L1I TOTAL     ACCESS:   43448205  HIT:   43167267  MISS:     280938
L1I LOAD      ACCESS:   43448205  HIT:   43167267  MISS:     280938
L1I RFO       ACCESS:          0  HIT:          0  MISS:          0
L1I PREFETCH  ACCESS:          0  HIT:          0  MISS:          0
L1I WRITEBACK ACCESS:          0  HIT:          0  MISS:          0
L1I PREFETCH  REQUESTED:          0  ISSUED:          0  USEFUL:          0  USELESS:          0
L2C TOTAL     ACCESS:    5080006  HIT:    4065723  MISS:    1014283
L2C LOAD      ACCESS:    4083598  HIT:    3477874  MISS:     605724
L2C RFO       ACCESS:     176711  HIT:      50203  MISS:     126508
L2C PREFETCH  ACCESS:     521650  HIT:     239796  MISS:     281854
L2C WRITEBACK ACCESS:     298047  HIT:     297850  MISS:        197
L2C PREFETCH  REQUESTED:    2846602  ISSUED:    2846602  USEFUL:     274154  USELESS:     953906
LLC TOTAL     ACCESS:    1192084  HIT:     966213  MISS:     225871
LLC LOAD      ACCESS:     570649  HIT:     522258  MISS:      48391
LLC RFO       ACCESS:     124413  HIT:       6380  MISS:     118033
LLC PREFETCH  ACCESS:     319309  HIT:     283816  MISS:      35493
LLC WRITEBACK ACCESS:     177713  HIT:     153759  MISS:      23954
LLC PREFETCH  REQUESTED:          0  ISSUED:          0  USEFUL:    3362916  USELESS:   27199170
Major fault: 0 Minor fault: 2707

CPU 4 cumulative IPC: 0.555241 instructions: 100000001 cycles: 180101989
L1D TOTAL     ACCESS:   25590618  HIT:   21851612  MISS:    3739006
L1D LOAD      ACCESS:   10569820  HIT:   10003291  MISS:     566529
L1D RFO       ACCESS:   15020798  HIT:   11848321  MISS:    3172477
L1D PREFETCH  ACCESS:          0  HIT:          0  MISS:          0
L1D WRITEBACK ACCESS:          0  HIT:          0  MISS:          0
L1D PREFETCH  REQUESTED:          0  ISSUED:          0  USEFUL:          0  USELESS:          0
L1I TOTAL     ACCESS:   22697532  HIT:   22697532  MISS:          0
L1I LOAD      ACCESS:   22697532  HIT:   22697532  MISS:          0
L1I RFO       ACCESS:          0  HIT:          0  MISS:          0
L1I PREFETCH  ACCESS:          0  HIT:          0  MISS:          0
L1I WRITEBACK ACCESS:          0  HIT:          0  MISS:          0
L1I PREFETCH  REQUESTED:          0  ISSUED:          0  USEFUL:          0  USELESS:          0
L2C TOTAL     ACCESS:    7152804  HIT:    4323317  MISS:    2829487
L2C LOAD      ACCESS:     566529  HIT:     208018  MISS:     358511
L2C RFO       ACCESS:    3172477  HIT:     909555  MISS:    2262922
L2C PREFETCH  ACCESS:     241321  HIT:      33297  MISS:     208024
L2C WRITEBACK ACCESS:    3172477  HIT:    3172447  MISS:         30
L2C PREFETCH  REQUESTED:    3855918  ISSUED:    3855918  USEFUL:    1293220  USELESS:       1089
LLC TOTAL     ACCESS:    5090956  HIT:    2824866  MISS:    2266090
LLC LOAD      ACCESS:     316415  HIT:          0  MISS:     316415
LLC RFO       ACCESS:    2261474  HIT:     561949  MISS:    1699525
LLC PREFETCH  ACCESS:     250120  HIT:          0  MISS:     250120
LLC WRITEBACK ACCESS:    2262947  HIT:    2262917  MISS:         30
LLC PREFETCH  REQUESTED:          0  ISSUED:          0  USEFUL:    3362916  USELESS:   27199170
Major fault: 0 Minor fault: 125470

CPU 5 cumulative IPC: 0.104057 instructions: 100000000 cycles: 961015007
L1D TOTAL     ACCESS:   17169140  HIT:    9933028  MISS:    7236112
L1D LOAD      ACCESS:   15686124  HIT:    8452805  MISS:    7233319
L1D RFO       ACCESS:    1483016  HIT:    1480223  MISS:       2793
L1D PREFETCH  ACCESS:          0  HIT:          0  MISS:          0
L1D WRITEBACK ACCESS:          0  HIT:          0  MISS:          0
L1D PREFETCH  REQUESTED:          0  ISSUED:          0  USEFUL:          0  USELESS:          0
L1I TOTAL     ACCESS:   36400231  HIT:   36400206  MISS:         25
L1I LOAD      ACCESS:   36400231  HIT:   36400206  MISS:         25
L1I RFO       ACCESS:          0  HIT:          0  MISS:          0
L1I PREFETCH  ACCESS:          0  HIT:          0  MISS:          0
L1I WRITEBACK ACCESS:          0  HIT:          0  MISS:          0
L1I PREFETCH  REQUESTED:          0  ISSUED:          0  USEFUL:          0  USELESS:          0
L2C TOTAL     ACCESS:   10944429  HIT:    3872869  MISS:    7071560
L2C LOAD      ACCESS:    7233344  HIT:    3845432  MISS:    3387912
L2C RFO       ACCESS:       2793  HIT:        590  MISS:       2203
L2C PREFETCH  ACCESS:    3682826  HIT:       1381  MISS:    3681445
L2C WRITEBACK ACCESS:      25466  HIT:      25466  MISS:          0
L2C PREFETCH  REQUESTED:    8448539  ISSUED:    8448539  USEFUL:    5355792  USELESS:     106297
LLC TOTAL     ACCESS:    7082818  HIT:      16562  MISS:    7066256
LLC LOAD      ACCESS:     411672  HIT:       3455  MISS:     408217
LLC RFO       ACCESS:       2203  HIT:         17  MISS:       2186
LLC PREFETCH  ACCESS:    6657686  HIT:       1844  MISS:    6655842
LLC WRITEBACK ACCESS:      11257  HIT:      11246  MISS:         11
LLC PREFETCH  REQUESTED:          0  ISSUED:          0  USEFUL:    3362916  USELESS:   27199170
Major fault: 0 Minor fault: 48145

CPU 6 cumulative IPC: 0.885536 instructions: 100000002 cycles: 112925946
L1D TOTAL     ACCESS:   19513230  HIT:   17610897  MISS:    1902333
L1D LOAD      ACCESS:   18201706  HIT:   16299934  MISS:    1901772
L1D RFO       ACCESS:    1311524  HIT:    1310963  MISS:        561
L1D PREFETCH  ACCESS:          0  HIT:          0  MISS:          0
L1D WRITEBACK ACCESS:          0  HIT:          0  MISS:          0
L1D PREFETCH  REQUESTED:          0  ISSUED:          0  USEFUL:          0  USELESS:          0
L1I TOTAL     ACCESS:   35106836  HIT:   35106836  MISS:          0
L1I LOAD      ACCESS:   35106836  HIT:   35106836  MISS:          0
L1I RFO       ACCESS:          0  HIT:          0  MISS:          0
L1I PREFETCH  ACCESS:          0  HIT:          0  MISS:          0
L1I WRITEBACK ACCESS:          0  HIT:          0  MISS:          0
L1I PREFETCH  REQUESTED:          0  ISSUED:          0  USEFUL:          0  USELESS:          0
L2C TOTAL     ACCESS:    3574128  HIT:    1579507  MISS:    1994621
L2C LOAD      ACCESS:    1901772  HIT:    1573927  MISS:     327845
L2C RFO       ACCESS:        561  HIT:        270  MISS:        291
L2C PREFETCH  ACCESS:    1670971  HIT:       4486  MISS:    1666485
L2C WRITEBACK ACCESS:        824  HIT:        824  MISS:          0
L2C PREFETCH  REQUESTED:   15837373  ISSUED:   15837373  USEFUL:   14926055  USELESS:     398046
LLC TOTAL     ACCESS:    1995482  HIT:    1917787  MISS:      77695
LLC LOAD      ACCESS:     290338  HIT:     280134  MISS:      10204
LLC RFO       ACCESS:        290  HIT:        213  MISS:         77
LLC PREFETCH  ACCESS:    1704030  HIT:    1636616  MISS:      67414
LLC WRITEBACK ACCESS:        824  HIT:        824  MISS:          0
LLC PREFETCH  REQUESTED:          0  ISSUED:          0  USEFUL:    3362916  USELESS:   27199170
Major fault: 0 Minor fault: 3302

CPU 7 cumulative IPC: 0.340222 instructions: 100000001 cycles: 293925443
L1D TOTAL     ACCESS:   31600058  HIT:   30626635  MISS:     973423
L1D LOAD      ACCESS:   19581810  HIT:   18711932  MISS:     869878
L1D RFO       ACCESS:   12018248  HIT:   11914703  MISS:     103545
L1D PREFETCH  ACCESS:          0  HIT:          0  MISS:          0
L1D WRITEBACK ACCESS:          0  HIT:          0  MISS:          0
L1D PREFETCH  REQUESTED:          0  ISSUED:          0  USEFUL:          0  USELESS:          0
L1I TOTAL     ACCESS:   26927543  HIT:   26556906  MISS:     370637
L1I LOAD      ACCESS:   26927543  HIT:   26556906  MISS:     370637
L1I RFO       ACCESS:          0  HIT:          0  MISS:          0
L1I PREFETCH  ACCESS:          0  HIT:          0  MISS:          0
L1I WRITEBACK ACCESS:          0  HIT:          0  MISS:          0
L1I PREFETCH  REQUESTED:          0  ISSUED:          0  USEFUL:          0  USELESS:          0
L2C TOTAL     ACCESS:    1998129  HIT:    1279123  MISS:     719006
L2C LOAD      ACCESS:    1240508  HIT:     889378  MISS:     351130
L2C RFO       ACCESS:     103539  HIT:      34121  MISS:      69418
L2C PREFETCH  ACCESS:     419335  HIT:     123159  MISS:     296176
L2C WRITEBACK ACCESS:     234747  HIT:     232465  MISS:       2282
L2C PREFETCH  REQUESTED:    1626089  ISSUED:    1626089  USEFUL:     530882  USELESS:     436147
LLC TOTAL     ACCESS:     874085  HIT:     421865  MISS:     452220
LLC LOAD      ACCESS:     317626  HIT:     143984  MISS:     173642
LLC RFO       ACCESS:      67541  HIT:       9573  MISS:      57968
LLC PREFETCH  ACCESS:     331818  HIT:     131773  MISS:     200045
LLC WRITEBACK ACCESS:     157100  HIT:     136535  MISS:      20565
LLC PREFETCH  REQUESTED:          0  ISSUED:          0  USEFUL:    3362916  USELESS:   27199170
Major fault: 0 Minor fault: 12928

L2C Best-offset prefetcher final stats

L2C Best-offset prefetcher final stats

L2C Best-offset prefetcher final stats

L2C Best-offset prefetcher final stats

L2C Best-offset prefetcher final stats

L2C Best-offset prefetcher final stats

L2C Best-offset prefetcher final stats

L2C Best-offset prefetcher final stats

DRAM Statistics
 CHANNEL 0
 RQ ROW_BUFFER_HIT:   10033088  ROW_BUFFER_MISS:   17345262
 DBUS_CONGESTED:   62711635
 WQ ROW_BUFFER_HIT:    1108308  ROW_BUFFER_MISS:   11744086  FULL:          0

 CHANNEL 1
 RQ ROW_BUFFER_HIT:   10023445  ROW_BUFFER_MISS:   17363064
 DBUS_CONGESTED:   62711635
 WQ ROW_BUFFER_HIT:    1111845  ROW_BUFFER_MISS:   11740714  FULL:          0

 AVG_CONGESTED_CYCLE: 13
