
*** ChampSim Multicore Out-of-Order Simulator ***

Warmup Instructions: 20000000
Simulation Instructions: 100000000
Number of CPUs: 8
LLC sets: 16384
LLC ways: 16
Off-chip DRAM Size: 8192 MB Channels: 2 Width: 64-bit Data Rate: 1600 MT/s

CPU 0 runs /scratch/user/djimenez/champsim-traces/speccpu2017/xz/623.xalancbmk_s/623.xalancbmk_s-165B.champsimtrace.xz
CPU 1 runs /scratch/user/djimenez/champsim-traces/speccpu2017/xz/605.mcf_s/605.mcf_s-1644B.champsimtrace.xz
CPU 2 runs /scratch/user/djimenez/champsim-traces/speccpu2017/xz/649.fotonik3d_s/649.fotonik3d_s-8225B.champsimtrace.xz
CPU 3 runs /scratch/user/djimenez/champsim-traces/speccpu2017/xz/619.lbm_s/619.lbm_s-3766B.champsimtrace.xz
CPU 4 runs /scratch/user/djimenez/champsim-traces/speccpu2017/xz/605.mcf_s/605.mcf_s-1554B.champsimtrace.xz
CPU 5 runs /scratch/user/djimenez/champsim-traces/speccpu2017/xz/621.wrf_s/621.wrf_s-6673B.champsimtrace.xz
CPU 6 runs /scratch/user/djimenez/champsim-traces/speccpu2017/xz/654.roms_s/654.roms_s-1007B.champsimtrace.xz
CPU 7 runs /scratch/user/djimenez/champsim-traces/speccpu2017/xz/654.roms_s/654.roms_s-1070B.champsimtrace.xz
L2C Best-offset prefetcher
L2C Best-offset prefetcher
L2C Best-offset prefetcher
L2C Best-offset prefetcher
L2C Best-offset prefetcher
L2C Best-offset prefetcher
L2C Best-offset prefetcher
L2C Best-offset prefetcher
Heartbeat CPU 0 instructions: 10000001 cycles: 4190805 heartbeat IPC: 2.38618 cumulative IPC: 2.38618 (Simulation time: 0 hr 4 min 34 sec) 
Heartbeat CPU 3 instructions: 10000000 cycles: 4276881 heartbeat IPC: 2.33815 cumulative IPC: 2.33815 (Simulation time: 0 hr 4 min 40 sec) 
Heartbeat CPU 2 instructions: 10000001 cycles: 4400074 heartbeat IPC: 2.27269 cumulative IPC: 2.27269 (Simulation time: 0 hr 4 min 48 sec) 
Heartbeat CPU 7 instructions: 10000001 cycles: 4947376 heartbeat IPC: 2.02127 cumulative IPC: 2.02127 (Simulation time: 0 hr 5 min 19 sec) 
Heartbeat CPU 6 instructions: 10000002 cycles: 5109364 heartbeat IPC: 1.95719 cumulative IPC: 1.95719 (Simulation time: 0 hr 5 min 28 sec) 
Heartbeat CPU 5 instructions: 10000001 cycles: 5375151 heartbeat IPC: 1.86041 cumulative IPC: 1.86041 (Simulation time: 0 hr 5 min 43 sec) 
Heartbeat CPU 4 instructions: 10000001 cycles: 5520209 heartbeat IPC: 1.81153 cumulative IPC: 1.81153 (Simulation time: 0 hr 5 min 52 sec) 
Heartbeat CPU 0 instructions: 20000000 cycles: 8354255 heartbeat IPC: 2.40185 cumulative IPC: 2.39399 (Simulation time: 0 hr 9 min 6 sec) 
Heartbeat CPU 3 instructions: 20000000 cycles: 8563032 heartbeat IPC: 2.3331 cumulative IPC: 2.33562 (Simulation time: 0 hr 9 min 18 sec) 
Heartbeat CPU 2 instructions: 20000000 cycles: 8800752 heartbeat IPC: 2.27238 cumulative IPC: 2.27253 (Simulation time: 0 hr 9 min 32 sec) 
Heartbeat CPU 5 instructions: 20000000 cycles: 9446366 heartbeat IPC: 2.45627 cumulative IPC: 2.11722 (Simulation time: 0 hr 10 min 14 sec) 
Heartbeat CPU 7 instructions: 20000000 cycles: 10010410 heartbeat IPC: 1.9751 cumulative IPC: 1.99792 (Simulation time: 0 hr 10 min 47 sec) 
Heartbeat CPU 6 instructions: 20000000 cycles: 10218206 heartbeat IPC: 1.95739 cumulative IPC: 1.95729 (Simulation time: 0 hr 10 min 59 sec) 
Heartbeat CPU 1 instructions: 10000002 cycles: 10572661 heartbeat IPC: 0.945836 cumulative IPC: 0.945836 (Simulation time: 0 hr 11 min 21 sec) 
Heartbeat CPU 4 instructions: 20000000 cycles: 10993473 heartbeat IPC: 1.82706 cumulative IPC: 1.81926 (Simulation time: 0 hr 11 min 46 sec) 
Heartbeat CPU 0 instructions: 30000001 cycles: 12512129 heartbeat IPC: 2.40508 cumulative IPC: 0.799225 (Simulation time: 0 hr 13 min 14 sec) 
Heartbeat CPU 3 instructions: 30000001 cycles: 12839421 heartbeat IPC: 2.33842 cumulative IPC: 0.778851 (Simulation time: 0 hr 13 min 34 sec) 
Heartbeat CPU 5 instructions: 30000000 cycles: 13183172 heartbeat IPC: 2.67608 cumulative IPC: 0.758543 (Simulation time: 0 hr 13 min 54 sec) 
Heartbeat CPU 2 instructions: 30000003 cycles: 13199572 heartbeat IPC: 2.27334 cumulative IPC: 0.757601 (Simulation time: 0 hr 13 min 55 sec) 
Heartbeat CPU 7 instructions: 30000003 cycles: 14939885 heartbeat IPC: 2.02861 cumulative IPC: 0.669349 (Simulation time: 0 hr 15 min 38 sec) 
Heartbeat CPU 6 instructions: 30000000 cycles: 15327179 heartbeat IPC: 1.95734 cumulative IPC: 0.652436 (Simulation time: 0 hr 16 min 1 sec) 
Heartbeat CPU 4 instructions: 30000003 cycles: 16430824 heartbeat IPC: 1.83913 cumulative IPC: 0.608612 (Simulation time: 0 hr 17 min 5 sec) 
Heartbeat CPU 0 instructions: 40000000 cycles: 16668712 heartbeat IPC: 2.40582 cumulative IPC: 1.19985 (Simulation time: 0 hr 17 min 19 sec) 
Heartbeat CPU 3 instructions: 40000000 cycles: 17126886 heartbeat IPC: 2.33238 cumulative IPC: 1.16775 (Simulation time: 0 hr 17 min 45 sec) 
Heartbeat CPU 5 instructions: 40000000 cycles: 17340836 heartbeat IPC: 2.4052 cumulative IPC: 1.15335 (Simulation time: 0 hr 17 min 57 sec) 
Heartbeat CPU 2 instructions: 40000000 cycles: 17598793 heartbeat IPC: 2.27313 cumulative IPC: 1.13644 (Simulation time: 0 hr 18 min 12 sec) 
Heartbeat CPU 7 instructions: 40000000 cycles: 20017247 heartbeat IPC: 1.96953 cumulative IPC: 0.999138 (Simulation time: 0 hr 20 min 31 sec) 
Heartbeat CPU 6 instructions: 40000000 cycles: 20436217 heartbeat IPC: 1.95732 cumulative IPC: 0.978655 (Simulation time: 0 hr 20 min 55 sec) 
Heartbeat CPU 0 instructions: 50000000 cycles: 20824580 heartbeat IPC: 2.40624 cumulative IPC: 1.44061 (Simulation time: 0 hr 21 min 17 sec) 
Heartbeat CPU 1 instructions: 20000000 cycles: 21082173 heartbeat IPC: 0.951519 cumulative IPC: 0.948669 (Simulation time: 0 hr 21 min 32 sec) 

Warmup complete CPU 0 instructions: 50622322 cycles: 21082176 (Simulation time: 0 hr 21 min 32 sec) 
Warmup complete CPU 1 instructions: 20000001 cycles: 21082176 (Simulation time: 0 hr 21 min 32 sec) 
Warmup complete CPU 2 instructions: 47918616 cycles: 21082175 (Simulation time: 0 hr 21 min 32 sec) 
Warmup complete CPU 3 instructions: 49247542 cycles: 21082175 (Simulation time: 0 hr 21 min 32 sec) 
Warmup complete CPU 4 instructions: 38539147 cycles: 21082175 (Simulation time: 0 hr 21 min 32 sec) 
Warmup complete CPU 5 instructions: 49145473 cycles: 21082175 (Simulation time: 0 hr 21 min 32 sec) 
Warmup complete CPU 6 instructions: 41264597 cycles: 21082175 (Simulation time: 0 hr 21 min 32 sec) 
Warmup complete CPU 7 instructions: 42115504 cycles: 21082175 (Simulation time: 0 hr 21 min 32 sec) 

Heartbeat CPU 5 instructions: 50000003 cycles: 22561358 heartbeat IPC: 1.91552 cumulative IPC: 0.577704 (Simulation time: 0 hr 22 min 1 sec) 
Heartbeat CPU 3 instructions: 50000003 cycles: 22742726 heartbeat IPC: 1.78068 cumulative IPC: 0.453139 (Simulation time: 0 hr 22 min 4 sec) 
Heartbeat CPU 4 instructions: 40000000 cycles: 26380506 heartbeat IPC: 1.00506 cumulative IPC: 0.275719 (Simulation time: 0 hr 23 min 14 sec) 
Heartbeat CPU 2 instructions: 50000000 cycles: 26906931 heartbeat IPC: 1.07433 cumulative IPC: 0.357334 (Simulation time: 0 hr 23 min 24 sec) 
Heartbeat CPU 7 instructions: 50000000 cycles: 33640552 heartbeat IPC: 0.734036 cumulative IPC: 0.627828 (Simulation time: 0 hr 25 min 26 sec) 
Heartbeat CPU 6 instructions: 50000003 cycles: 39878150 heartbeat IPC: 0.514352 cumulative IPC: 0.464749 (Simulation time: 0 hr 27 min 9 sec) 
Heartbeat CPU 5 instructions: 60000000 cycles: 42060454 heartbeat IPC: 0.512844 cumulative IPC: 0.517417 (Simulation time: 0 hr 27 min 45 sec) 
Heartbeat CPU 3 instructions: 60000000 cycles: 43634070 heartbeat IPC: 0.478667 cumulative IPC: 0.476787 (Simulation time: 0 hr 28 min 10 sec) 
Heartbeat CPU 0 instructions: 60000000 cycles: 46139758 heartbeat IPC: 0.39502 cumulative IPC: 0.374245 (Simulation time: 0 hr 28 min 50 sec) 
Heartbeat CPU 7 instructions: 60000000 cycles: 56207879 heartbeat IPC: 0.443118 cumulative IPC: 0.509157 (Simulation time: 0 hr 32 min 3 sec) 
Heartbeat CPU 2 instructions: 60000000 cycles: 58415825 heartbeat IPC: 0.317371 cumulative IPC: 0.323606 (Simulation time: 0 hr 32 min 49 sec) 
Heartbeat CPU 6 instructions: 60000000 cycles: 61563663 heartbeat IPC: 0.461137 cumulative IPC: 0.462814 (Simulation time: 0 hr 33 min 52 sec) 
Heartbeat CPU 3 instructions: 70000003 cycles: 64332989 heartbeat IPC: 0.483117 cumulative IPC: 0.479817 (Simulation time: 0 hr 34 min 50 sec) 
Heartbeat CPU 5 instructions: 70000003 cycles: 64727044 heartbeat IPC: 0.441178 cumulative IPC: 0.477823 (Simulation time: 0 hr 34 min 58 sec) 
Heartbeat CPU 4 instructions: 50000000 cycles: 65669393 heartbeat IPC: 0.254525 cumulative IPC: 0.257043 (Simulation time: 0 hr 35 min 21 sec) 
Heartbeat CPU 0 instructions: 70000000 cycles: 70423704 heartbeat IPC: 0.411795 cumulative IPC: 0.392726 (Simulation time: 0 hr 37 min 7 sec) 
Heartbeat CPU 7 instructions: 70000001 cycles: 70559192 heartbeat IPC: 0.6968 cumulative IPC: 0.563585 (Simulation time: 0 hr 37 min 9 sec) 
Heartbeat CPU 6 instructions: 70000003 cycles: 78908533 heartbeat IPC: 0.57654 cumulative IPC: 0.496926 (Simulation time: 0 hr 40 min 8 sec) 
Heartbeat CPU 5 instructions: 80000000 cycles: 79603425 heartbeat IPC: 0.672206 cumulative IPC: 0.527236 (Simulation time: 0 hr 40 min 24 sec) 
Heartbeat CPU 3 instructions: 80000000 cycles: 83035664 heartbeat IPC: 0.534683 cumulative IPC: 0.49638 (Simulation time: 0 hr 41 min 33 sec) 
Heartbeat CPU 2 instructions: 70000001 cycles: 85515511 heartbeat IPC: 0.369008 cumulative IPC: 0.342701 (Simulation time: 0 hr 42 min 18 sec) 
Heartbeat CPU 7 instructions: 80000000 cycles: 88333354 heartbeat IPC: 0.562614 cumulative IPC: 0.563328 (Simulation time: 0 hr 43 min 11 sec) 
Heartbeat CPU 0 instructions: 80000000 cycles: 93409290 heartbeat IPC: 0.435055 cumulative IPC: 0.406178 (Simulation time: 0 hr 44 min 51 sec) 
Heartbeat CPU 6 instructions: 80000000 cycles: 96286261 heartbeat IPC: 0.575449 cumulative IPC: 0.51507 (Simulation time: 0 hr 45 min 49 sec) 
Heartbeat CPU 5 instructions: 90000002 cycles: 97348224 heartbeat IPC: 0.563546 cumulative IPC: 0.535684 (Simulation time: 0 hr 46 min 14 sec) 
Heartbeat CPU 4 instructions: 60000000 cycles: 99170315 heartbeat IPC: 0.298499 cumulative IPC: 0.274829 (Simulation time: 0 hr 46 min 57 sec) 
Heartbeat CPU 3 instructions: 90000000 cycles: 102814297 heartbeat IPC: 0.505596 cumulative IPC: 0.49861 (Simulation time: 0 hr 48 min 15 sec) 
Heartbeat CPU 7 instructions: 90000001 cycles: 104343598 heartbeat IPC: 0.6246 cumulative IPC: 0.57511 (Simulation time: 0 hr 48 min 44 sec) 
Heartbeat CPU 1 instructions: 30000003 cycles: 106456203 heartbeat IPC: 0.117132 cumulative IPC: 0.117132 (Simulation time: 0 hr 49 min 24 sec) 
Heartbeat CPU 2 instructions: 80000000 cycles: 112656669 heartbeat IPC: 0.368444 cumulative IPC: 0.350331 (Simulation time: 0 hr 51 min 29 sec) 
Heartbeat CPU 6 instructions: 90000003 cycles: 113699968 heartbeat IPC: 0.57426 cumulative IPC: 0.526199 (Simulation time: 0 hr 51 min 51 sec) 
Heartbeat CPU 0 instructions: 90000000 cycles: 116214450 heartbeat IPC: 0.438497 cumulative IPC: 0.413926 (Simulation time: 0 hr 52 min 43 sec) 
Heartbeat CPU 7 instructions: 100000000 cycles: 117501385 heartbeat IPC: 0.760006 cumulative IPC: 0.600342 (Simulation time: 0 hr 53 min 10 sec) 
Heartbeat CPU 5 instructions: 100000000 cycles: 121632730 heartbeat IPC: 0.411785 cumulative IPC: 0.505761 (Simulation time: 0 hr 54 min 29 sec) 
Heartbeat CPU 3 instructions: 100000000 cycles: 122563252 heartbeat IPC: 0.506356 cumulative IPC: 0.500117 (Simulation time: 0 hr 54 min 45 sec) 
Heartbeat CPU 6 instructions: 100000000 cycles: 131067614 heartbeat IPC: 0.575783 cumulative IPC: 0.534029 (Simulation time: 0 hr 57 min 35 sec) 
Heartbeat CPU 5 instructions: 110000001 cycles: 131350106 heartbeat IPC: 1.02908 cumulative IPC: 0.551879 (Simulation time: 0 hr 57 min 40 sec) 
Heartbeat CPU 4 instructions: 70000001 cycles: 132956023 heartbeat IPC: 0.295983 cumulative IPC: 0.281217 (Simulation time: 0 hr 58 min 13 sec) 
Heartbeat CPU 0 instructions: 100000000 cycles: 137671327 heartbeat IPC: 0.466051 cumulative IPC: 0.423519 (Simulation time: 0 hr 59 min 49 sec) 
Heartbeat CPU 2 instructions: 90000000 cycles: 139147395 heartbeat IPC: 0.377491 cumulative IPC: 0.356425 (Simulation time: 1 hr 0 min 17 sec) 
Heartbeat CPU 3 instructions: 110000001 cycles: 142285834 heartbeat IPC: 0.507033 cumulative IPC: 0.501243 (Simulation time: 1 hr 1 min 18 sec) 
Heartbeat CPU 5 instructions: 120000000 cycles: 143393857 heartbeat IPC: 0.830306 cumulative IPC: 0.579295 (Simulation time: 1 hr 1 min 44 sec) 
Heartbeat CPU 7 instructions: 110000001 cycles: 145666982 heartbeat IPC: 0.355043 cumulative IPC: 0.544886 (Simulation time: 1 hr 2 min 36 sec) 
Heartbeat CPU 6 instructions: 110000002 cycles: 148462291 heartbeat IPC: 0.574889 cumulative IPC: 0.539609 (Simulation time: 1 hr 3 min 36 sec) 
Heartbeat CPU 5 instructions: 130000001 cycles: 152598651 heartbeat IPC: 1.08639 cumulative IPC: 0.614786 (Simulation time: 1 hr 5 min 3 sec) 
Heartbeat CPU 0 instructions: 110000001 cycles: 157697739 heartbeat IPC: 0.499341 cumulative IPC: 0.434633 (Simulation time: 1 hr 6 min 49 sec) 
Heartbeat CPU 7 instructions: 120000000 cycles: 158610357 heartbeat IPC: 0.772596 cumulative IPC: 0.566317 (Simulation time: 1 hr 7 min 6 sec) 
Heartbeat CPU 3 instructions: 120000000 cycles: 162379619 heartbeat IPC: 0.497666 cumulative IPC: 0.500734 (Simulation time: 1 hr 8 min 26 sec) 
Heartbeat CPU 5 instructions: 140000000 cycles: 164568388 heartbeat IPC: 0.83544 cumulative IPC: 0.633193 (Simulation time: 1 hr 9 min 9 sec) 
Heartbeat CPU 2 instructions: 100000000 cycles: 165765536 heartbeat IPC: 0.375684 cumulative IPC: 0.359968 (Simulation time: 1 hr 9 min 32 sec) 
Heartbeat CPU 4 instructions: 80000000 cycles: 166403841 heartbeat IPC: 0.298973 cumulative IPC: 0.285304 (Simulation time: 1 hr 9 min 43 sec) 
Heartbeat CPU 6 instructions: 120000000 cycles: 166581447 heartbeat IPC: 0.551902 cumulative IPC: 0.541139 (Simulation time: 1 hr 9 min 47 sec) 
Finished CPU 5 instructions: 100000003 cycles: 154175905 cumulative IPC: 0.64861 (Simulation time: 1 hr 12 min 28 sec) 
Heartbeat CPU 5 instructions: 150000001 cycles: 177563315 heartbeat IPC: 0.769531 cumulative IPC: 0.644516 (Simulation time: 1 hr 13 min 9 sec) 
Heartbeat CPU 7 instructions: 130000001 cycles: 181897279 heartbeat IPC: 0.429426 cumulative IPC: 0.546494 (Simulation time: 1 hr 14 min 24 sec) 
Heartbeat CPU 0 instructions: 120000000 cycles: 185637609 heartbeat IPC: 0.357911 cumulative IPC: 0.421607 (Simulation time: 1 hr 15 min 38 sec) 
Heartbeat CPU 3 instructions: 130000000 cycles: 187852345 heartbeat IPC: 0.392577 cumulative IPC: 0.484214 (Simulation time: 1 hr 16 min 24 sec) 
Heartbeat CPU 6 instructions: 130000003 cycles: 190113429 heartbeat IPC: 0.424954 cumulative IPC: 0.524965 (Simulation time: 1 hr 17 min 17 sec) 
Heartbeat CPU 5 instructions: 160000000 cycles: 190618927 heartbeat IPC: 0.765954 cumulative IPC: 0.653867 (Simulation time: 1 hr 17 min 28 sec) 
Heartbeat CPU 1 instructions: 40000000 cycles: 191583946 heartbeat IPC: 0.11747 cumulative IPC: 0.117301 (Simulation time: 1 hr 17 min 51 sec) 
Heartbeat CPU 2 instructions: 110000002 cycles: 196422165 heartbeat IPC: 0.326194 cumulative IPC: 0.354063 (Simulation time: 1 hr 19 min 38 sec) 
Heartbeat CPU 7 instructions: 140000000 cycles: 198096896 heartbeat IPC: 0.617298 cumulative IPC: 0.552974 (Simulation time: 1 hr 20 min 14 sec) 
Finished CPU 7 instructions: 100000002 cycles: 180094602 cumulative IPC: 0.555264 (Simulation time: 1 hr 21 min 25 sec) 
Heartbeat CPU 4 instructions: 90000003 cycles: 204163762 heartbeat IPC: 0.264831 cumulative IPC: 0.281082 (Simulation time: 1 hr 22 min 37 sec) 
Heartbeat CPU 5 instructions: 170000000 cycles: 204421371 heartbeat IPC: 0.724509 cumulative IPC: 0.659185 (Simulation time: 1 hr 22 min 44 sec) 
Heartbeat CPU 0 instructions: 130000003 cycles: 207522538 heartbeat IPC: 0.456936 cumulative IPC: 0.425754 (Simulation time: 1 hr 23 min 57 sec) 
Heartbeat CPU 6 instructions: 140000000 cycles: 207562131 heartbeat IPC: 0.573108 cumulative IPC: 0.529469 (Simulation time: 1 hr 23 min 58 sec) 
Finished CPU 6 instructions: 100000003 cycles: 188680898 cumulative IPC: 0.529995 (Simulation time: 1 hr 24 min 51 sec) 
Heartbeat CPU 7 instructions: 150000002 cycles: 211931190 heartbeat IPC: 0.722842 cumulative IPC: 0.565287 (Simulation time: 1 hr 25 min 40 sec) 
Heartbeat CPU 3 instructions: 140000000 cycles: 211953106 heartbeat IPC: 0.414925 cumulative IPC: 0.475465 (Simulation time: 1 hr 25 min 40 sec) 
Heartbeat CPU 5 instructions: 180000000 cycles: 213775181 heartbeat IPC: 1.06908 cumulative IPC: 0.679083 (Simulation time: 1 hr 26 min 21 sec) 
Heartbeat CPU 2 instructions: 120000000 cycles: 223941799 heartbeat IPC: 0.363377 cumulative IPC: 0.355326 (Simulation time: 1 hr 30 min 5 sec) 
Heartbeat CPU 6 instructions: 150000000 cycles: 225005734 heartbeat IPC: 0.573276 cumulative IPC: 0.533216 (Simulation time: 1 hr 30 min 29 sec) 
Heartbeat CPU 0 instructions: 140000000 cycles: 229758814 heartbeat IPC: 0.449715 cumulative IPC: 0.428307 (Simulation time: 1 hr 32 min 20 sec) 
Heartbeat CPU 5 instructions: 190000002 cycles: 230296734 heartbeat IPC: 0.60527 cumulative IPC: 0.673254 (Simulation time: 1 hr 32 min 32 sec) 
Heartbeat CPU 7 instructions: 160000000 cycles: 231019023 heartbeat IPC: 0.523894 cumulative IPC: 0.561524 (Simulation time: 1 hr 32 min 48 sec) 
Finished CPU 3 instructions: 100000003 cycles: 215303619 cumulative IPC: 0.46446 (Simulation time: 1 hr 34 min 47 sec) 
Heartbeat CPU 4 instructions: 100000000 cycles: 236410879 heartbeat IPC: 0.310105 cumulative IPC: 0.285428 (Simulation time: 1 hr 34 min 47 sec) 
Heartbeat CPU 3 instructions: 150000001 cycles: 238475456 heartbeat IPC: 0.377041 cumulative IPC: 0.463457 (Simulation time: 1 hr 35 min 35 sec) 
Heartbeat CPU 6 instructions: 160000000 cycles: 242422831 heartbeat IPC: 0.574148 cumulative IPC: 0.536437 (Simulation time: 1 hr 37 min 9 sec) 
Heartbeat CPU 7 instructions: 170000003 cycles: 244254361 heartbeat IPC: 0.755553 cumulative IPC: 0.573031 (Simulation time: 1 hr 37 min 54 sec) 
Heartbeat CPU 5 instructions: 200000000 cycles: 245788054 heartbeat IPC: 0.645523 cumulative IPC: 0.671342 (Simulation time: 1 hr 38 min 29 sec) 
Heartbeat CPU 2 instructions: 130000000 cycles: 248809879 heartbeat IPC: 0.402122 cumulative IPC: 0.360437 (Simulation time: 1 hr 39 min 39 sec) 
Heartbeat CPU 0 instructions: 150000001 cycles: 249390268 heartbeat IPC: 0.509387 cumulative IPC: 0.435279 (Simulation time: 1 hr 39 min 52 sec) 
Finished CPU 0 instructions: 100000001 cycles: 229990314 cumulative IPC: 0.434801 (Simulation time: 1 hr 40 min 30 sec) 
Heartbeat CPU 6 instructions: 170000003 cycles: 259788456 heartbeat IPC: 0.57585 cumulative IPC: 0.539305 (Simulation time: 1 hr 43 min 27 sec) 
Heartbeat CPU 5 instructions: 210000003 cycles: 261311843 heartbeat IPC: 0.644173 cumulative IPC: 0.669586 (Simulation time: 1 hr 43 min 57 sec) 
Heartbeat CPU 7 instructions: 180000000 cycles: 262138511 heartbeat IPC: 0.559154 cumulative IPC: 0.572001 (Simulation time: 1 hr 44 min 14 sec) 
Heartbeat CPU 4 instructions: 110000000 cycles: 267374908 heartbeat IPC: 0.322955 cumulative IPC: 0.290146 (Simulation time: 1 hr 45 min 59 sec) 
Heartbeat CPU 3 instructions: 160000000 cycles: 268757987 heartbeat IPC: 0.330223 cumulative IPC: 0.447167 (Simulation time: 1 hr 46 min 28 sec) 
Heartbeat CPU 0 instructions: 160000000 cycles: 271915119 heartbeat IPC: 0.443954 cumulative IPC: 0.436058 (Simulation time: 1 hr 47 min 34 sec) 
Heartbeat CPU 1 instructions: 50000001 cycles: 272893153 heartbeat IPC: 0.122987 cumulative IPC: 0.119137 (Simulation time: 1 hr 47 min 55 sec) 
Heartbeat CPU 2 instructions: 140000000 cycles: 275060030 heartbeat IPC: 0.38095 cumulative IPC: 0.362557 (Simulation time: 1 hr 48 min 48 sec) 
Heartbeat CPU 7 instructions: 190000000 cycles: 276409675 heartbeat IPC: 0.700714 cumulative IPC: 0.579195 (Simulation time: 1 hr 49 min 18 sec) 
Heartbeat CPU 5 instructions: 220000000 cycles: 277084819 heartbeat IPC: 0.633996 cumulative IPC: 0.667394 (Simulation time: 1 hr 49 min 33 sec) 
Heartbeat CPU 6 instructions: 180000000 cycles: 277247468 heartbeat IPC: 0.57277 cumulative IPC: 0.541586 (Simulation time: 1 hr 49 min 36 sec) 
Heartbeat CPU 7 instructions: 200000000 cycles: 291875489 heartbeat IPC: 0.646587 cumulative IPC: 0.583044 (Simulation time: 1 hr 54 min 24 sec) 
Heartbeat CPU 6 instructions: 190000003 cycles: 294701301 heartbeat IPC: 0.57294 cumulative IPC: 0.543586 (Simulation time: 1 hr 55 min 13 sec) 
Finished CPU 2 instructions: 100000002 cycles: 277309218 cumulative IPC: 0.360608 (Simulation time: 1 hr 56 min 14 sec) 
Heartbeat CPU 4 instructions: 120000000 cycles: 300399520 heartbeat IPC: 0.302804 cumulative IPC: 0.291643 (Simulation time: 1 hr 56 min 43 sec) 
Heartbeat CPU 5 instructions: 230000003 cycles: 301859239 heartbeat IPC: 0.403642 cumulative IPC: 0.644121 (Simulation time: 1 hr 57 min 6 sec) 
Heartbeat CPU 0 instructions: 170000001 cycles: 302191486 heartbeat IPC: 0.330291 cumulative IPC: 0.424666 (Simulation time: 1 hr 57 min 11 sec) 
Heartbeat CPU 2 instructions: 150000003 cycles: 305714760 heartbeat IPC: 0.326214 cumulative IPC: 0.358643 (Simulation time: 1 hr 58 min 4 sec) 
Heartbeat CPU 3 instructions: 170000002 cycles: 307074561 heartbeat IPC: 0.260984 cumulative IPC: 0.422223 (Simulation time: 1 hr 58 min 25 sec) 
Heartbeat CPU 7 instructions: 210000002 cycles: 315142282 heartbeat IPC: 0.429797 cumulative IPC: 0.570919 (Simulation time: 2 hr 0 min 29 sec) 
Heartbeat CPU 6 instructions: 200000000 cycles: 317076516 heartbeat IPC: 0.446923 cumulative IPC: 0.536278 (Simulation time: 2 hr 0 min 56 sec) 
Heartbeat CPU 5 instructions: 240000000 cycles: 328531513 heartbeat IPC: 0.374921 cumulative IPC: 0.620767 (Simulation time: 2 hr 3 min 49 sec) 
Heartbeat CPU 7 instructions: 220000000 cycles: 330292442 heartbeat IPC: 0.660059 cumulative IPC: 0.575287 (Simulation time: 2 hr 4 min 24 sec) 
Heartbeat CPU 0 instructions: 180000000 cycles: 338007429 heartbeat IPC: 0.279205 cumulative IPC: 0.408228 (Simulation time: 2 hr 6 min 52 sec) 
Heartbeat CPU 2 instructions: 160000000 cycles: 338825680 heartbeat IPC: 0.302015 cumulative IPC: 0.352742 (Simulation time: 2 hr 7 min 7 sec) 
Heartbeat CPU 5 instructions: 250000003 cycles: 339155274 heartbeat IPC: 0.941287 cumulative IPC: 0.631473 (Simulation time: 2 hr 7 min 13 sec) 
Heartbeat CPU 6 instructions: 210000000 cycles: 339286298 heartbeat IPC: 0.450252 cumulative IPC: 0.530274 (Simulation time: 2 hr 7 min 16 sec) 
Heartbeat CPU 7 instructions: 230000001 cycles: 348899421 heartbeat IPC: 0.537433 cumulative IPC: 0.573138 (Simulation time: 2 hr 10 min 21 sec) 
Heartbeat CPU 3 instructions: 180000000 cycles: 349494289 heartbeat IPC: 0.235739 cumulative IPC: 0.398135 (Simulation time: 2 hr 10 min 33 sec) 
Heartbeat CPU 5 instructions: 260000000 cycles: 349866995 heartbeat IPC: 0.933556 cumulative IPC: 0.641315 (Simulation time: 2 hr 10 min 41 sec) 
Heartbeat CPU 4 instructions: 130000001 cycles: 351613624 heartbeat IPC: 0.195259 cumulative IPC: 0.276708 (Simulation time: 2 hr 11 min 15 sec) 
Heartbeat CPU 6 instructions: 220000000 cycles: 356981690 heartbeat IPC: 0.565119 cumulative IPC: 0.53211 (Simulation time: 2 hr 13 min 1 sec) 
Heartbeat CPU 5 instructions: 270000000 cycles: 361156296 heartbeat IPC: 0.885794 cumulative IPC: 0.649431 (Simulation time: 2 hr 14 min 26 sec) 
Heartbeat CPU 1 instructions: 60000000 cycles: 361723710 heartbeat IPC: 0.112574 cumulative IPC: 0.117425 (Simulation time: 2 hr 14 min 37 sec) 
Heartbeat CPU 7 instructions: 240000000 cycles: 363144407 heartbeat IPC: 0.702001 cumulative IPC: 0.578504 (Simulation time: 2 hr 15 min 5 sec) 
Heartbeat CPU 2 instructions: 170000001 cycles: 365901495 heartbeat IPC: 0.369333 cumulative IPC: 0.354044 (Simulation time: 2 hr 16 min 4 sec) 
Heartbeat CPU 0 instructions: 190000001 cycles: 368243981 heartbeat IPC: 0.330726 cumulative IPC: 0.401478 (Simulation time: 2 hr 16 min 51 sec) 
Heartbeat CPU 5 instructions: 280000000 cycles: 370928771 heartbeat IPC: 1.02328 cumulative IPC: 0.659874 (Simulation time: 2 hr 17 min 46 sec) 
Heartbeat CPU 6 instructions: 230000003 cycles: 374816201 heartbeat IPC: 0.560711 cumulative IPC: 0.533552 (Simulation time: 2 hr 19 min 5 sec) 
Heartbeat CPU 7 instructions: 250000000 cycles: 377466701 heartbeat IPC: 0.698212 cumulative IPC: 0.583315 (Simulation time: 2 hr 19 min 56 sec) 
Finished CPU 4 instructions: 100000000 cycles: 358058084 cumulative IPC: 0.279284 (Simulation time: 2 hr 20 min 29 sec) 
Heartbeat CPU 5 instructions: 290000003 cycles: 381701179 heartbeat IPC: 0.928298 cumulative IPC: 0.667892 (Simulation time: 2 hr 21 min 17 sec) 
Heartbeat CPU 4 instructions: 140000000 cycles: 383782262 heartbeat IPC: 0.310862 cumulative IPC: 0.279738 (Simulation time: 2 hr 21 min 58 sec) 
Heartbeat CPU 3 instructions: 190000000 cycles: 389695709 heartbeat IPC: 0.248747 cumulative IPC: 0.381843 (Simulation time: 2 hr 23 min 54 sec) 
Heartbeat CPU 6 instructions: 240000000 cycles: 392522479 heartbeat IPC: 0.564771 cumulative IPC: 0.53504 (Simulation time: 2 hr 24 min 43 sec) 
Heartbeat CPU 2 instructions: 180000000 cycles: 393560193 heartbeat IPC: 0.36155 cumulative IPC: 0.354602 (Simulation time: 2 hr 25 min 1 sec) 
Heartbeat CPU 5 instructions: 300000000 cycles: 394817700 heartbeat IPC: 0.762397 cumulative IPC: 0.671209 (Simulation time: 2 hr 25 min 25 sec) 
Heartbeat CPU 7 instructions: 260000000 cycles: 396731422 heartbeat IPC: 0.519084 cumulative IPC: 0.580021 (Simulation time: 2 hr 26 min 2 sec) 
Heartbeat CPU 0 instructions: 200000000 cycles: 399006741 heartbeat IPC: 0.325068 cumulative IPC: 0.395258 (Simulation time: 2 hr 26 min 45 sec) 
Heartbeat CPU 7 instructions: 270000002 cycles: 409612529 heartbeat IPC: 0.776331 cumulative IPC: 0.586529 (Simulation time: 2 hr 30 min 0 sec) 
Heartbeat CPU 6 instructions: 250000001 cycles: 410320754 heartbeat IPC: 0.561852 cumulative IPC: 0.536266 (Simulation time: 2 hr 30 min 12 sec) 
Heartbeat CPU 4 instructions: 150000001 cycles: 416249167 heartbeat IPC: 0.308006 cumulative IPC: 0.28206 (Simulation time: 2 hr 31 min 59 sec) 
Heartbeat CPU 5 instructions: 310000000 cycles: 416647227 heartbeat IPC: 0.458095 cumulative IPC: 0.659448 (Simulation time: 2 hr 32 min 5 sec) 
Heartbeat CPU 2 instructions: 190000003 cycles: 420663178 heartbeat IPC: 0.368963 cumulative IPC: 0.355576 (Simulation time: 2 hr 33 min 12 sec) 
Heartbeat CPU 3 instructions: 200000000 cycles: 426713914 heartbeat IPC: 0.270137 cumulative IPC: 0.371649 (Simulation time: 2 hr 34 min 57 sec) 
Heartbeat CPU 6 instructions: 260000000 cycles: 428024648 heartbeat IPC: 0.564847 cumulative IPC: 0.537509 (Simulation time: 2 hr 35 min 21 sec) 
Heartbeat CPU 0 instructions: 210000002 cycles: 428639144 heartbeat IPC: 0.337468 cumulative IPC: 0.391056 (Simulation time: 2 hr 35 min 33 sec) 
Heartbeat CPU 7 instructions: 280000000 cycles: 431505915 heartbeat IPC: 0.456759 cumulative IPC: 0.579607 (Simulation time: 2 hr 36 min 26 sec) 
Heartbeat CPU 5 instructions: 320000000 cycles: 436315092 heartbeat IPC: 0.508444 cumulative IPC: 0.652295 (Simulation time: 2 hr 37 min 53 sec) 
Heartbeat CPU 1 instructions: 70000000 cycles: 444593970 heartbeat IPC: 0.120671 cumulative IPC: 0.11806 (Simulation time: 2 hr 40 min 2 sec) 
Heartbeat CPU 4 instructions: 160000000 cycles: 447998307 heartbeat IPC: 0.314969 cumulative IPC: 0.284508 (Simulation time: 2 hr 40 min 56 sec) 
Heartbeat CPU 6 instructions: 270000000 cycles: 448529235 heartbeat IPC: 0.487696 cumulative IPC: 0.53512 (Simulation time: 2 hr 41 min 5 sec) 
Heartbeat CPU 2 instructions: 200000000 cycles: 449407269 heartbeat IPC: 0.347897 cumulative IPC: 0.355061 (Simulation time: 2 hr 41 min 21 sec) 
Heartbeat CPU 7 instructions: 290000000 cycles: 451116279 heartbeat IPC: 0.509934 cumulative IPC: 0.57643 (Simulation time: 2 hr 41 min 52 sec) 
Heartbeat CPU 0 instructions: 220000000 cycles: 451677745 heartbeat IPC: 0.434054 cumulative IPC: 0.393357 (Simulation time: 2 hr 42 min 2 sec) 
Heartbeat CPU 5 instructions: 330000001 cycles: 461362719 heartbeat IPC: 0.399239 cumulative IPC: 0.637899 (Simulation time: 2 hr 44 min 50 sec) 
Heartbeat CPU 0 instructions: 230000000 cycles: 463966800 heartbeat IPC: 0.813732 cumulative IPC: 0.405021 (Simulation time: 2 hr 45 min 38 sec) 
Heartbeat CPU 3 instructions: 210000002 cycles: 464046997 heartbeat IPC: 0.267859 cumulative IPC: 0.362901 (Simulation time: 2 hr 45 min 39 sec) 
Heartbeat CPU 7 instructions: 300000000 cycles: 464845467 heartbeat IPC: 0.728375 cumulative IPC: 0.581131 (Simulation time: 2 hr 45 min 56 sec) 
Heartbeat CPU 6 instructions: 280000000 cycles: 470768187 heartbeat IPC: 0.449661 cumulative IPC: 0.530894 (Simulation time: 2 hr 47 min 51 sec) 
Heartbeat CPU 0 instructions: 240000000 cycles: 475917800 heartbeat IPC: 0.83675 cumulative IPC: 0.416365 (Simulation time: 2 hr 49 min 31 sec) 
Heartbeat CPU 2 instructions: 210000001 cycles: 478184010 heartbeat IPC: 0.347503 cumulative IPC: 0.354585 (Simulation time: 2 hr 50 min 16 sec) 
Heartbeat CPU 5 instructions: 340000000 cycles: 480350333 heartbeat IPC: 0.526659 cumulative IPC: 0.6333 (Simulation time: 2 hr 50 min 59 sec) 
Heartbeat CPU 4 instructions: 170000002 cycles: 480378531 heartbeat IPC: 0.308831 cumulative IPC: 0.286222 (Simulation time: 2 hr 51 min 0 sec) 
Heartbeat CPU 7 instructions: 310000001 cycles: 484505034 heartbeat IPC: 0.508658 cumulative IPC: 0.578056 (Simulation time: 2 hr 52 min 19 sec) 
Heartbeat CPU 0 instructions: 250000001 cycles: 487959044 heartbeat IPC: 0.830479 cumulative IPC: 0.427046 (Simulation time: 2 hr 53 min 25 sec) 
Heartbeat CPU 6 instructions: 290000000 cycles: 488573957 heartbeat IPC: 0.561616 cumulative IPC: 0.532064 (Simulation time: 2 hr 53 min 36 sec) 
Heartbeat CPU 3 instructions: 220000000 cycles: 496931624 heartbeat IPC: 0.304093 cumulative IPC: 0.358837 (Simulation time: 2 hr 56 min 16 sec) 
Heartbeat CPU 7 instructions: 320000000 cycles: 498087450 heartbeat IPC: 0.736246 cumulative IPC: 0.582561 (Simulation time: 2 hr 56 min 38 sec) 
Heartbeat CPU 0 instructions: 260000000 cycles: 500689931 heartbeat IPC: 0.785491 cumulative IPC: 0.43656 (Simulation time: 2 hr 57 min 28 sec) 
Heartbeat CPU 6 instructions: 300000000 cycles: 506318895 heartbeat IPC: 0.563541 cumulative IPC: 0.533215 (Simulation time: 2 hr 59 min 13 sec) 
Heartbeat CPU 2 instructions: 220000000 cycles: 506379567 heartbeat IPC: 0.354666 cumulative IPC: 0.35459 (Simulation time: 2 hr 59 min 14 sec) 
Heartbeat CPU 5 instructions: 350000000 cycles: 507779559 heartbeat IPC: 0.364575 cumulative IPC: 0.618155 (Simulation time: 2 hr 59 min 42 sec) 
Heartbeat CPU 4 instructions: 180000000 cycles: 512909340 heartbeat IPC: 0.307401 cumulative IPC: 0.287623 (Simulation time: 3 hr 1 min 14 sec) 
Heartbeat CPU 0 instructions: 270000002 cycles: 514202123 heartbeat IPC: 0.740073 cumulative IPC: 0.444877 (Simulation time: 3 hr 1 min 38 sec) 
Heartbeat CPU 7 instructions: 330000003 cycles: 514735135 heartbeat IPC: 0.600684 cumulative IPC: 0.583172 (Simulation time: 3 hr 1 min 48 sec) 
Heartbeat CPU 5 instructions: 360000000 cycles: 523947174 heartbeat IPC: 0.61852 cumulative IPC: 0.618167 (Simulation time: 3 hr 4 min 46 sec) 
Heartbeat CPU 6 instructions: 310000000 cycles: 524187730 heartbeat IPC: 0.559634 cumulative IPC: 0.534153 (Simulation time: 3 hr 4 min 51 sec) 
Heartbeat CPU 0 instructions: 280000000 cycles: 527046958 heartbeat IPC: 0.778523 cumulative IPC: 0.453347 (Simulation time: 3 hr 5 min 46 sec) 
Heartbeat CPU 1 instructions: 80000000 cycles: 529462762 heartbeat IPC: 0.117829 cumulative IPC: 0.118022 (Simulation time: 3 hr 6 min 32 sec) 
Heartbeat CPU 3 instructions: 230000003 cycles: 530561140 heartbeat IPC: 0.297358 cumulative IPC: 0.354779 (Simulation time: 3 hr 6 min 54 sec) 
Heartbeat CPU 7 instructions: 340000000 cycles: 532508823 heartbeat IPC: 0.562629 cumulative IPC: 0.582458 (Simulation time: 3 hr 7 min 34 sec) 
Heartbeat CPU 2 instructions: 230000003 cycles: 534218606 heartbeat IPC: 0.359208 cumulative IPC: 0.35484 (Simulation time: 3 hr 8 min 9 sec) 
Heartbeat CPU 0 instructions: 290000000 cycles: 539901758 heartbeat IPC: 0.77792 cumulative IPC: 0.461389 (Simulation time: 3 hr 9 min 59 sec) 
Heartbeat CPU 4 instructions: 190000001 cycles: 541667301 heartbeat IPC: 0.34773 cumulative IPC: 0.290944 (Simulation time: 3 hr 10 min 34 sec) 
Heartbeat CPU 6 instructions: 320000000 cycles: 541839067 heartbeat IPC: 0.566529 cumulative IPC: 0.535251 (Simulation time: 3 hr 10 min 37 sec) 
Heartbeat CPU 5 instructions: 370000001 cycles: 546288538 heartbeat IPC: 0.4476 cumulative IPC: 0.610911 (Simulation time: 3 hr 12 min 4 sec) 
Heartbeat CPU 7 instructions: 350000002 cycles: 546357853 heartbeat IPC: 0.722072 cumulative IPC: 0.586139 (Simulation time: 3 hr 12 min 5 sec) 
Heartbeat CPU 0 instructions: 300000000 cycles: 553321816 heartbeat IPC: 0.745153 cumulative IPC: 0.468544 (Simulation time: 3 hr 14 min 16 sec) 
Heartbeat CPU 6 instructions: 330000001 cycles: 559709826 heartbeat IPC: 0.559573 cumulative IPC: 0.536058 (Simulation time: 3 hr 16 min 16 sec) 
Heartbeat CPU 3 instructions: 240000000 cycles: 561555802 heartbeat IPC: 0.322636 cumulative IPC: 0.352936 (Simulation time: 3 hr 16 min 50 sec) 
Heartbeat CPU 2 instructions: 240000000 cycles: 562012142 heartbeat IPC: 0.359796 cumulative IPC: 0.355095 (Simulation time: 3 hr 16 min 58 sec) 
Heartbeat CPU 7 instructions: 360000000 cycles: 565372571 heartbeat IPC: 0.525908 cumulative IPC: 0.584035 (Simulation time: 3 hr 17 min 59 sec) 
Heartbeat CPU 0 instructions: 310000003 cycles: 566968681 heartbeat IPC: 0.732769 cumulative IPC: 0.475149 (Simulation time: 3 hr 18 min 29 sec) 
Heartbeat CPU 5 instructions: 380000000 cycles: 569183517 heartbeat IPC: 0.436777 cumulative IPC: 0.603638 (Simulation time: 3 hr 19 min 13 sec) 
Heartbeat CPU 4 instructions: 200000000 cycles: 572673372 heartbeat IPC: 0.322517 cumulative IPC: 0.292718 (Simulation time: 3 hr 20 min 21 sec) 
Heartbeat CPU 7 instructions: 370000000 cycles: 577178845 heartbeat IPC: 0.847007 cumulative IPC: 0.589618 (Simulation time: 3 hr 21 min 44 sec) 
Heartbeat CPU 6 instructions: 340000000 cycles: 578222656 heartbeat IPC: 0.540166 cumulative IPC: 0.536194 (Simulation time: 3 hr 22 min 2 sec) 
Heartbeat CPU 0 instructions: 320000000 cycles: 581251802 heartbeat IPC: 0.700127 cumulative IPC: 0.480886 (Simulation time: 3 hr 22 min 55 sec) 
Heartbeat CPU 5 instructions: 390000000 cycles: 590963514 heartbeat IPC: 0.459137 cumulative IPC: 0.598115 (Simulation time: 3 hr 25 min 38 sec) 
Heartbeat CPU 2 instructions: 250000000 cycles: 591928171 heartbeat IPC: 0.334269 cumulative IPC: 0.354003 (Simulation time: 3 hr 25 min 53 sec) 
Heartbeat CPU 3 instructions: 250000001 cycles: 594698071 heartbeat IPC: 0.30173 cumulative IPC: 0.349977 (Simulation time: 3 hr 26 min 35 sec) 
Heartbeat CPU 0 instructions: 330000000 cycles: 596561789 heartbeat IPC: 0.653168 cumulative IPC: 0.485469 (Simulation time: 3 hr 27 min 0 sec) 
Heartbeat CPU 7 instructions: 380000000 cycles: 599855940 heartbeat IPC: 0.440974 cumulative IPC: 0.583794 (Simulation time: 3 hr 27 min 47 sec) 
Heartbeat CPU 6 instructions: 350000003 cycles: 601658122 heartbeat IPC: 0.426704 cumulative IPC: 0.531774 (Simulation time: 3 hr 28 min 17 sec) 
Heartbeat CPU 0 instructions: 340000000 cycles: 609814214 heartbeat IPC: 0.754579 cumulative IPC: 0.491527 (Simulation time: 3 hr 30 min 45 sec) 
Heartbeat CPU 1 instructions: 90000003 cycles: 613659919 heartbeat IPC: 0.118769 cumulative IPC: 0.118128 (Simulation time: 3 hr 31 min 53 sec) 
Heartbeat CPU 5 instructions: 400000000 cycles: 615232979 heartbeat IPC: 0.41204 cumulative IPC: 0.590514 (Simulation time: 3 hr 32 min 21 sec) 
Heartbeat CPU 4 instructions: 210000000 cycles: 615820845 heartbeat IPC: 0.231763 cumulative IPC: 0.288296 (Simulation time: 3 hr 32 min 32 sec) 
Heartbeat CPU 2 instructions: 260000000 cycles: 619414492 heartbeat IPC: 0.363817 cumulative IPC: 0.354454 (Simulation time: 3 hr 33 min 39 sec) 
Heartbeat CPU 7 instructions: 390000000 cycles: 620467036 heartbeat IPC: 0.485176 cumulative IPC: 0.580403 (Simulation time: 3 hr 33 min 58 sec) 
Heartbeat CPU 0 instructions: 350000000 cycles: 622450767 heartbeat IPC: 0.791355 cumulative IPC: 0.497827 (Simulation time: 3 hr 34 min 33 sec) 
Heartbeat CPU 6 instructions: 360000000 cycles: 623681060 heartbeat IPC: 0.454072 cumulative IPC: 0.528935 (Simulation time: 3 hr 34 min 55 sec) 
Heartbeat CPU 3 instructions: 260000000 cycles: 626072492 heartbeat IPC: 0.318731 cumulative IPC: 0.348357 (Simulation time: 3 hr 35 min 38 sec) 
Heartbeat CPU 7 instructions: 400000000 cycles: 634836183 heartbeat IPC: 0.695936 cumulative IPC: 0.583107 (Simulation time: 3 hr 38 min 17 sec) 
Heartbeat CPU 0 instructions: 360000000 cycles: 635727272 heartbeat IPC: 0.75321 cumulative IPC: 0.503344 (Simulation time: 3 hr 38 min 34 sec) 
Heartbeat CPU 5 instructions: 410000001 cycles: 641290623 heartbeat IPC: 0.383765 cumulative IPC: 0.581828 (Simulation time: 3 hr 40 min 15 sec) 
Heartbeat CPU 6 instructions: 370000002 cycles: 645739910 heartbeat IPC: 0.453333 cumulative IPC: 0.526265 (Simulation time: 3 hr 41 min 34 sec) 
Heartbeat CPU 2 instructions: 270000001 cycles: 646252224 heartbeat IPC: 0.37261 cumulative IPC: 0.355234 (Simulation time: 3 hr 41 min 44 sec) 
Heartbeat CPU 4 instructions: 220000000 cycles: 646487846 heartbeat IPC: 0.326083 cumulative IPC: 0.290149 (Simulation time: 3 hr 41 min 48 sec) 
Heartbeat CPU 0 instructions: 370000001 cycles: 648601706 heartbeat IPC: 0.776733 cumulative IPC: 0.508953 (Simulation time: 3 hr 42 min 26 sec) 
Heartbeat CPU 3 instructions: 270000000 cycles: 655924609 heartbeat IPC: 0.334985 cumulative IPC: 0.347728 (Simulation time: 3 hr 44 min 37 sec) 
Heartbeat CPU 7 instructions: 410000002 cycles: 659995440 heartbeat IPC: 0.397468 cumulative IPC: 0.575797 (Simulation time: 3 hr 45 min 52 sec) 
Heartbeat CPU 0 instructions: 380000000 cycles: 661212313 heartbeat IPC: 0.792983 cumulative IPC: 0.514548 (Simulation time: 3 hr 46 min 13 sec) 
Heartbeat CPU 5 instructions: 420000000 cycles: 662237726 heartbeat IPC: 0.477393 cumulative IPC: 0.578416 (Simulation time: 3 hr 46 min 32 sec) 
Heartbeat CPU 6 instructions: 380000000 cycles: 667762638 heartbeat IPC: 0.454076 cumulative IPC: 0.523806 (Simulation time: 3 hr 48 min 15 sec) 
Heartbeat CPU 2 instructions: 280000000 cycles: 672518577 heartbeat IPC: 0.380715 cumulative IPC: 0.356261 (Simulation time: 3 hr 49 min 44 sec) 
Heartbeat CPU 0 instructions: 390000001 cycles: 673893129 heartbeat IPC: 0.788593 cumulative IPC: 0.519871 (Simulation time: 3 hr 50 min 11 sec) 
Heartbeat CPU 4 instructions: 230000000 cycles: 675462866 heartbeat IPC: 0.345125 cumulative IPC: 0.292583 (Simulation time: 3 hr 50 min 40 sec) 
Heartbeat CPU 7 instructions: 420000000 cycles: 675503911 heartbeat IPC: 0.644809 cumulative IPC: 0.577433 (Simulation time: 3 hr 50 min 41 sec) 
Heartbeat CPU 3 instructions: 280000000 cycles: 685361527 heartbeat IPC: 0.339709 cumulative IPC: 0.347373 (Simulation time: 3 hr 53 min 41 sec) 
Heartbeat CPU 0 instructions: 400000000 cycles: 687581750 heartbeat IPC: 0.730534 cumulative IPC: 0.524198 (Simulation time: 3 hr 54 min 14 sec) 
Heartbeat CPU 5 instructions: 430000002 cycles: 689594995 heartbeat IPC: 0.365534 cumulative IPC: 0.569704 (Simulation time: 3 hr 54 min 43 sec) 
Heartbeat CPU 6 instructions: 390000001 cycles: 690134682 heartbeat IPC: 0.446986 cumulative IPC: 0.521238 (Simulation time: 3 hr 54 min 50 sec) 
Heartbeat CPU 7 instructions: 430000000 cycles: 695858326 heartbeat IPC: 0.491294 cumulative IPC: 0.574834 (Simulation time: 3 hr 56 min 13 sec) 
Heartbeat CPU 1 instructions: 100000000 cycles: 697052204 heartbeat IPC: 0.119915 cumulative IPC: 0.118348 (Simulation time: 3 hr 56 min 30 sec) 
Heartbeat CPU 2 instructions: 290000001 cycles: 702805428 heartbeat IPC: 0.330176 cumulative IPC: 0.355102 (Simulation time: 3 hr 58 min 0 sec) 
Heartbeat CPU 0 instructions: 410000002 cycles: 703969378 heartbeat IPC: 0.610217 cumulative IPC: 0.526262 (Simulation time: 3 hr 58 min 20 sec) 
Heartbeat CPU 6 instructions: 400000000 cycles: 710160180 heartbeat IPC: 0.499363 cumulative IPC: 0.520602 (Simulation time: 4 hr 0 min 15 sec) 
Heartbeat CPU 4 instructions: 240000000 cycles: 711516848 heartbeat IPC: 0.277362 cumulative IPC: 0.291788 (Simulation time: 4 hr 0 min 40 sec) 
Heartbeat CPU 5 instructions: 440000000 cycles: 714305825 heartbeat IPC: 0.404681 cumulative IPC: 0.563822 (Simulation time: 4 hr 1 min 33 sec) 
Heartbeat CPU 0 instructions: 420000000 cycles: 716942272 heartbeat IPC: 0.770838 cumulative IPC: 0.530822 (Simulation time: 4 hr 2 min 23 sec) 
Heartbeat CPU 3 instructions: 290000002 cycles: 718043436 heartbeat IPC: 0.30598 cumulative IPC: 0.345432 (Simulation time: 4 hr 2 min 45 sec) 
Heartbeat CPU 7 instructions: 440000000 cycles: 720045583 heartbeat IPC: 0.413441 cumulative IPC: 0.569249 (Simulation time: 4 hr 3 min 25 sec) 
Heartbeat CPU 6 instructions: 410000000 cycles: 723665604 heartbeat IPC: 0.740443 cumulative IPC: 0.524828 (Simulation time: 4 hr 4 min 38 sec) 
Heartbeat CPU 2 instructions: 300000000 cycles: 729519688 heartbeat IPC: 0.374332 cumulative IPC: 0.355827 (Simulation time: 4 hr 6 min 31 sec) 
Heartbeat CPU 0 instructions: 430000000 cycles: 730182810 heartbeat IPC: 0.755256 cumulative IPC: 0.535012 (Simulation time: 4 hr 6 min 43 sec) 
Heartbeat CPU 7 instructions: 450000000 cycles: 733663961 heartbeat IPC: 0.734302 cumulative IPC: 0.572404 (Simulation time: 4 hr 7 min 50 sec) 
Heartbeat CPU 5 instructions: 450000000 cycles: 736355069 heartbeat IPC: 0.45353 cumulative IPC: 0.560422 (Simulation time: 4 hr 8 min 41 sec) 
Heartbeat CPU 6 instructions: 420000000 cycles: 736850110 heartbeat IPC: 0.758466 cumulative IPC: 0.529132 (Simulation time: 4 hr 8 min 52 sec) 
Heartbeat CPU 4 instructions: 250000000 cycles: 742847351 heartbeat IPC: 0.319178 cumulative IPC: 0.292977 (Simulation time: 4 hr 10 min 41 sec) 
Heartbeat CPU 0 instructions: 440000000 cycles: 743356343 heartbeat IPC: 0.759098 cumulative IPC: 0.5391 (Simulation time: 4 hr 10 min 51 sec) 
Heartbeat CPU 6 instructions: 430000000 cycles: 748683840 heartbeat IPC: 0.845042 cumulative IPC: 0.53427 (Simulation time: 4 hr 12 min 31 sec) 
Heartbeat CPU 3 instructions: 300000000 cycles: 748920245 heartbeat IPC: 0.323868 cumulative IPC: 0.344517 (Simulation time: 4 hr 12 min 35 sec) 
Heartbeat CPU 0 instructions: 450000000 cycles: 757074276 heartbeat IPC: 0.728973 cumulative IPC: 0.542639 (Simulation time: 4 hr 15 min 0 sec) 
Heartbeat CPU 2 instructions: 310000000 cycles: 757185052 heartbeat IPC: 0.361463 cumulative IPC: 0.356039 (Simulation time: 4 hr 15 min 2 sec) 
Heartbeat CPU 7 instructions: 460000000 cycles: 758709939 heartbeat IPC: 0.399266 cumulative IPC: 0.566525 (Simulation time: 4 hr 15 min 30 sec) 
Heartbeat CPU 6 instructions: 440000000 cycles: 761481208 heartbeat IPC: 0.781411 cumulative IPC: 0.538541 (Simulation time: 4 hr 16 min 18 sec) 
Heartbeat CPU 5 instructions: 460000000 cycles: 767856326 heartbeat IPC: 0.317448 cumulative IPC: 0.550172 (Simulation time: 4 hr 18 min 14 sec) 
Heartbeat CPU 0 instructions: 460000000 cycles: 770708753 heartbeat IPC: 0.733435 cumulative IPC: 0.546109 (Simulation time: 4 hr 19 min 9 sec) 
Heartbeat CPU 6 instructions: 450000001 cycles: 773621134 heartbeat IPC: 0.823728 cumulative IPC: 0.543142 (Simulation time: 4 hr 20 min 2 sec) 
Heartbeat CPU 4 instructions: 260000000 cycles: 774280667 heartbeat IPC: 0.318134 cumulative IPC: 0.294027 (Simulation time: 4 hr 20 min 15 sec) 
Heartbeat CPU 7 instructions: 470000002 cycles: 776889609 heartbeat IPC: 0.550065 cumulative IPC: 0.566129 (Simulation time: 4 hr 21 min 3 sec) 
Heartbeat CPU 3 instructions: 310000002 cycles: 782137185 heartbeat IPC: 0.301051 cumulative IPC: 0.34262 (Simulation time: 4 hr 22 min 42 sec) 
Heartbeat CPU 1 instructions: 110000003 cycles: 783009838 heartbeat IPC: 0.116336 cumulative IPC: 0.118121 (Simulation time: 4 hr 22 min 59 sec) 
Heartbeat CPU 0 instructions: 470000002 cycles: 784806977 heartbeat IPC: 0.709309 cumulative IPC: 0.549121 (Simulation time: 4 hr 23 min 35 sec) 
Heartbeat CPU 6 instructions: 460000000 cycles: 785266364 heartbeat IPC: 0.858721 cumulative IPC: 0.547951 (Simulation time: 4 hr 23 min 43 sec) 
Heartbeat CPU 2 instructions: 320000000 cycles: 785857089 heartbeat IPC: 0.348772 cumulative IPC: 0.355767 (Simulation time: 4 hr 23 min 55 sec) 
Heartbeat CPU 7 instructions: 480000000 cycles: 794294637 heartbeat IPC: 0.574547 cumulative IPC: 0.566318 (Simulation time: 4 hr 26 min 26 sec) 
Heartbeat CPU 5 instructions: 470000001 cycles: 794454469 heartbeat IPC: 0.375966 cumulative IPC: 0.544181 (Simulation time: 4 hr 26 min 29 sec) 
Heartbeat CPU 6 instructions: 470000000 cycles: 797722532 heartbeat IPC: 0.802815 cumulative IPC: 0.552039 (Simulation time: 4 hr 27 min 36 sec) 
Heartbeat CPU 0 instructions: 480000000 cycles: 798768536 heartbeat IPC: 0.716252 cumulative IPC: 0.552122 (Simulation time: 4 hr 27 min 57 sec) 
Heartbeat CPU 5 instructions: 480000000 cycles: 803848969 heartbeat IPC: 1.06445 cumulative IPC: 0.550425 (Simulation time: 4 hr 29 min 42 sec) 
Heartbeat CPU 4 instructions: 270000002 cycles: 809077023 heartbeat IPC: 0.287386 cumulative IPC: 0.293734 (Simulation time: 4 hr 31 min 31 sec) 
Heartbeat CPU 6 instructions: 480000000 cycles: 809783074 heartbeat IPC: 0.82915 cumulative IPC: 0.556276 (Simulation time: 4 hr 31 min 45 sec) 
Heartbeat CPU 0 instructions: 490000000 cycles: 811335319 heartbeat IPC: 0.795749 cumulative IPC: 0.555996 (Simulation time: 4 hr 32 min 16 sec) 
Heartbeat CPU 2 instructions: 330000002 cycles: 813757603 heartbeat IPC: 0.358416 cumulative IPC: 0.35586 (Simulation time: 4 hr 33 min 6 sec) 
Heartbeat CPU 5 instructions: 490000003 cycles: 814300421 heartbeat IPC: 0.956805 cumulative IPC: 0.55578 (Simulation time: 4 hr 33 min 18 sec) 
Heartbeat CPU 3 instructions: 320000000 cycles: 815476679 heartbeat IPC: 0.299944 cumulative IPC: 0.340829 (Simulation time: 4 hr 33 min 41 sec) 
Heartbeat CPU 7 instructions: 490000000 cycles: 819514996 heartbeat IPC: 0.396505 cumulative IPC: 0.560955 (Simulation time: 4 hr 35 min 5 sec) 
Heartbeat CPU 6 instructions: 490000000 cycles: 822107330 heartbeat IPC: 0.811408 cumulative IPC: 0.560201 (Simulation time: 4 hr 35 min 57 sec) 
Heartbeat CPU 0 instructions: 500000000 cycles: 824272568 heartbeat IPC: 0.772962 cumulative IPC: 0.559491 (Simulation time: 4 hr 36 min 43 sec) 
Heartbeat CPU 5 instructions: 500000000 cycles: 825467884 heartbeat IPC: 0.895458 cumulative IPC: 0.560495 (Simulation time: 4 hr 37 min 7 sec) 
Heartbeat CPU 7 instructions: 500000000 cycles: 833615836 heartbeat IPC: 0.709178 cumulative IPC: 0.563527 (Simulation time: 4 hr 39 min 50 sec) 
Heartbeat CPU 6 instructions: 500000000 cycles: 834383971 heartbeat IPC: 0.814555 cumulative IPC: 0.564041 (Simulation time: 4 hr 40 min 5 sec) 
Heartbeat CPU 0 instructions: 510000000 cycles: 838192164 heartbeat IPC: 0.718412 cumulative IPC: 0.562198 (Simulation time: 4 hr 41 min 18 sec) 
Heartbeat CPU 4 instructions: 280000000 cycles: 840697034 heartbeat IPC: 0.316255 cumulative IPC: 0.294603 (Simulation time: 4 hr 42 min 10 sec) 
Heartbeat CPU 2 instructions: 340000000 cycles: 841042643 heartbeat IPC: 0.366501 cumulative IPC: 0.356214 (Simulation time: 4 hr 42 min 18 sec) 
Heartbeat CPU 5 instructions: 510000001 cycles: 841081137 heartbeat IPC: 0.640482 cumulative IPC: 0.562018 (Simulation time: 4 hr 42 min 18 sec) 
Heartbeat CPU 6 instructions: 510000000 cycles: 847000485 heartbeat IPC: 0.792612 cumulative IPC: 0.567532 (Simulation time: 4 hr 44 min 20 sec) 
Heartbeat CPU 3 instructions: 330000003 cycles: 847707019 heartbeat IPC: 0.310267 cumulative IPC: 0.339637 (Simulation time: 4 hr 44 min 34 sec) 
Heartbeat CPU 5 instructions: 520000000 cycles: 850053478 heartbeat IPC: 1.11454 cumulative IPC: 0.567999 (Simulation time: 4 hr 45 min 21 sec) 
Heartbeat CPU 0 instructions: 520000000 cycles: 851433662 heartbeat IPC: 0.755202 cumulative IPC: 0.565276 (Simulation time: 4 hr 45 min 50 sec) 
Heartbeat CPU 7 instructions: 510000001 cycles: 857198424 heartbeat IPC: 0.424042 cumulative IPC: 0.559593 (Simulation time: 4 hr 47 min 50 sec) 
Heartbeat CPU 6 instructions: 520000000 cycles: 859054941 heartbeat IPC: 0.829569 cumulative IPC: 0.571302 (Simulation time: 4 hr 48 min 28 sec) 
Heartbeat CPU 5 instructions: 530000001 cycles: 859905707 heartbeat IPC: 1.015 cumulative IPC: 0.573249 (Simulation time: 4 hr 48 min 46 sec) 
Heartbeat CPU 0 instructions: 530000000 cycles: 864319018 heartbeat IPC: 0.776075 cumulative IPC: 0.568497 (Simulation time: 4 hr 50 min 18 sec) 
Heartbeat CPU 2 instructions: 350000001 cycles: 868301898 heartbeat IPC: 0.366848 cumulative IPC: 0.356556 (Simulation time: 4 hr 51 min 39 sec) 
Heartbeat CPU 1 instructions: 120000000 cycles: 868585166 heartbeat IPC: 0.116856 cumulative IPC: 0.117994 (Simulation time: 4 hr 51 min 45 sec) 
Finished CPU 1 instructions: 100000000 cycles: 847503004 cumulative IPC: 0.117994 (Simulation time: 4 hr 51 min 45 sec) 

CPU 0 Branch Prediction Accuracy: 99.9271% MPKI: 0.177795

CPU 1 Branch Prediction Accuracy: 92.4261% MPKI: 6.09924

CPU 2 Branch Prediction Accuracy: 99.975% MPKI: 0.00401082

CPU 3 Branch Prediction Accuracy: 97.4398% MPKI: 0.377534

CPU 4 Branch Prediction Accuracy: 98.2965% MPKI: 2.89991

CPU 5 Branch Prediction Accuracy: 99.1761% MPKI: 0.386481

CPU 6 Branch Prediction Accuracy: 99.917% MPKI: 0.0575687

CPU 7 Branch Prediction Accuracy: 99.8834% MPKI: 0.0590399

ChampSim completed all CPUs

Total Simulation Statistics (not including warmup)

CPU 0 cumulative IPC: 0.5695 instructions: 482653142 cycles: 847503004
L1D TOTAL     ACCESS:  100271386  HIT:   89181717  MISS:   11089669
L1D LOAD      ACCESS:   91904835  HIT:   80833765  MISS:   11071070
L1D RFO       ACCESS:    8366551  HIT:    8347952  MISS:      18599
L1D PREFETCH  ACCESS:          0  HIT:          0  MISS:          0
L1D WRITEBACK ACCESS:          0  HIT:          0  MISS:          0
L1I TOTAL     ACCESS:  167348075  HIT:  167347982  MISS:         93
L1I LOAD      ACCESS:  167348075  HIT:  167347982  MISS:         93
L1I RFO       ACCESS:          0  HIT:          0  MISS:          0
L1I PREFETCH  ACCESS:          0  HIT:          0  MISS:          0
L1I WRITEBACK ACCESS:          0  HIT:          0  MISS:          0
L2C TOTAL     ACCESS:   18631233  HIT:    8920324  MISS:    9710909
L2C LOAD      ACCESS:   11071161  HIT:    8798827  MISS:    2272334
L2C RFO       ACCESS:      18599  HIT:       7276  MISS:      11323
L2C PREFETCH  ACCESS:    7514555  HIT:      87306  MISS:    7427249
L2C WRITEBACK ACCESS:      26918  HIT:      26915  MISS:          3

L2C Best-offset prefetcher final stats
LLC TOTAL     ACCESS:    9734498  HIT:    6906442  MISS:    2828056
LLC LOAD      ACCESS:    1374585  HIT:     959338  MISS:     415247
LLC RFO       ACCESS:      11287  HIT:       4804  MISS:       6483
LLC PREFETCH  ACCESS:    8327161  HIT:    5925000  MISS:    2402161
LLC WRITEBACK ACCESS:      21465  HIT:      17300  MISS:       4165

CPU 1 cumulative IPC: 0.117994 instructions: 100000000 cycles: 847503004
L1D TOTAL     ACCESS:   53158671  HIT:   44135804  MISS:    9022867
L1D LOAD      ACCESS:   33450498  HIT:   28801062  MISS:    4649436
L1D RFO       ACCESS:   19708173  HIT:   15334742  MISS:    4373431
L1D PREFETCH  ACCESS:          0  HIT:          0  MISS:          0
L1D WRITEBACK ACCESS:          0  HIT:          0  MISS:          0
L1I TOTAL     ACCESS:   24188945  HIT:   24188945  MISS:          0
L1I LOAD      ACCESS:   24188945  HIT:   24188945  MISS:          0
L1I RFO       ACCESS:          0  HIT:          0  MISS:          0
L1I PREFETCH  ACCESS:          0  HIT:          0  MISS:          0
L1I WRITEBACK ACCESS:          0  HIT:          0  MISS:          0
L2C TOTAL     ACCESS:   20726945  HIT:   10151208  MISS:   10575737
L2C LOAD      ACCESS:    4649391  HIT:     996837  MISS:    3652554
L2C RFO       ACCESS:    4373431  HIT:         12  MISS:    4373419
L2C PREFETCH  ACCESS:    2681256  HIT:     137088  MISS:    2544168
L2C WRITEBACK ACCESS:    9022867  HIT:    9017271  MISS:       5596

L2C Best-offset prefetcher final stats
LLC TOTAL     ACCESS:   19378568  HIT:   11695753  MISS:    7682815
LLC LOAD      ACCESS:    2811525  HIT:    1489807  MISS:    1321718
LLC RFO       ACCESS:    4373419  HIT:      17370  MISS:    4356049
LLC PREFETCH  ACCESS:    3385629  HIT:    1380771  MISS:    2004858
LLC WRITEBACK ACCESS:    8807995  HIT:    8807805  MISS:        190

CPU 2 cumulative IPC: 0.356563 instructions: 302188529 cycles: 847503005
L1D TOTAL     ACCESS:   63319329  HIT:   59320233  MISS:    3999096
L1D LOAD      ACCESS:   42112901  HIT:   38117787  MISS:    3995114
L1D RFO       ACCESS:   21206428  HIT:   21202446  MISS:       3982
L1D PREFETCH  ACCESS:          0  HIT:          0  MISS:          0
L1D WRITEBACK ACCESS:          0  HIT:          0  MISS:          0
L1I TOTAL     ACCESS:   60936273  HIT:   60936273  MISS:          0
L1I LOAD      ACCESS:   60936273  HIT:   60936273  MISS:          0
L1I RFO       ACCESS:          0  HIT:          0  MISS:          0
L1I PREFETCH  ACCESS:          0  HIT:          0  MISS:          0
L1I WRITEBACK ACCESS:          0  HIT:          0  MISS:          0
L2C TOTAL     ACCESS:    8521616  HIT:    4646519  MISS:    3875097
L2C LOAD      ACCESS:    3995114  HIT:    1985955  MISS:    2009159
L2C RFO       ACCESS:       3982  HIT:        954  MISS:       3028
L2C PREFETCH  ACCESS:    1867143  HIT:       4235  MISS:    1862908
L2C WRITEBACK ACCESS:    2655377  HIT:    2655375  MISS:          2

L2C Best-offset prefetcher final stats
LLC TOTAL     ACCESS:    6528145  HIT:    3846511  MISS:    2681634
LLC LOAD      ACCESS:      78227  HIT:      35787  MISS:      42440
LLC RFO       ACCESS:       3026  HIT:       3018  MISS:          8
LLC PREFETCH  ACCESS:    3793960  HIT:    1160151  MISS:    2633809
LLC WRITEBACK ACCESS:    2652932  HIT:    2647555  MISS:       5377

CPU 3 cumulative IPC: 0.339078 instructions: 287369925 cycles: 847503005
L1D TOTAL     ACCESS:   79688784  HIT:   60020159  MISS:   19668625
L1D LOAD      ACCESS:   29291586  HIT:   26309414  MISS:    2982172
L1D RFO       ACCESS:   50397198  HIT:   33710745  MISS:   16686453
L1D PREFETCH  ACCESS:          0  HIT:          0  MISS:          0
L1D WRITEBACK ACCESS:          0  HIT:          0  MISS:          0
L1I TOTAL     ACCESS:   66371620  HIT:   66371620  MISS:          0
L1I LOAD      ACCESS:   66371620  HIT:   66371620  MISS:          0
L1I RFO       ACCESS:          0  HIT:          0  MISS:          0
L1I PREFETCH  ACCESS:          0  HIT:          0  MISS:          0
L1I WRITEBACK ACCESS:          0  HIT:          0  MISS:          0
L2C TOTAL     ACCESS:   37553389  HIT:   22698838  MISS:   14854551
L2C LOAD      ACCESS:    2982172  HIT:     917072  MISS:    2065100
L2C RFO       ACCESS:   16686436  HIT:    4817053  MISS:   11869383
L2C PREFETCH  ACCESS:    1198327  HIT:     282179  MISS:     916148
L2C WRITEBACK ACCESS:   16686454  HIT:   16682534  MISS:       3920

L2C Best-offset prefetcher final stats
LLC TOTAL     ACCESS:   26716347  HIT:   14801940  MISS:   11914407
LLC LOAD      ACCESS:    1614188  HIT:       1375  MISS:    1612813
LLC RFO       ACCESS:   11861959  HIT:    2926724  MISS:    8935235
LLC PREFETCH  ACCESS:    1367060  HIT:       1322  MISS:    1365738
LLC WRITEBACK ACCESS:   11873140  HIT:   11872519  MISS:        621

CPU 4 cumulative IPC: 0.295888 instructions: 250766182 cycles: 847503005
L1D TOTAL     ACCESS:   97946444  HIT:   59001116  MISS:   38945328
L1D LOAD      ACCESS:   82570640  HIT:   44145278  MISS:   38425362
L1D RFO       ACCESS:   15375804  HIT:   14855838  MISS:     519966
L1D PREFETCH  ACCESS:          0  HIT:          0  MISS:          0
L1D WRITEBACK ACCESS:          0  HIT:          0  MISS:          0
L1I TOTAL     ACCESS:   92032488  HIT:   92032487  MISS:          1
L1I LOAD      ACCESS:   92032488  HIT:   92032487  MISS:          1
L1I RFO       ACCESS:          0  HIT:          0  MISS:          0
L1I PREFETCH  ACCESS:          0  HIT:          0  MISS:          0
L1I WRITEBACK ACCESS:          0  HIT:          0  MISS:          0
L2C TOTAL     ACCESS:   50837095  HIT:    6132476  MISS:   44704619
L2C LOAD      ACCESS:   38425352  HIT:    1667055  MISS:   36758297
L2C RFO       ACCESS:     519966  HIT:       4878  MISS:     515088
L2C PREFETCH  ACCESS:   11189007  HIT:    3759871  MISS:    7429136
L2C WRITEBACK ACCESS:     702770  HIT:     700672  MISS:       2098

L2C Best-offset prefetcher final stats
LLC TOTAL     ACCESS:   45921702  HIT:   43398781  MISS:    2522921
LLC LOAD      ACCESS:   35531085  HIT:   35153415  MISS:     377670
LLC RFO       ACCESS:     499566  HIT:       4372  MISS:     495194
LLC PREFETCH  ACCESS:    9192125  HIT:    7542367  MISS:    1649758
LLC WRITEBACK ACCESS:     698926  HIT:     698627  MISS:        299

CPU 5 cumulative IPC: 0.576919 instructions: 488940172 cycles: 847503005
L1D TOTAL     ACCESS:  126307083  HIT:  115995718  MISS:   10311365
L1D LOAD      ACCESS:  106357969  HIT:   97665563  MISS:    8692406
L1D RFO       ACCESS:   19949114  HIT:   18330155  MISS:    1618959
L1D PREFETCH  ACCESS:          0  HIT:          0  MISS:          0
L1D WRITEBACK ACCESS:          0  HIT:          0  MISS:          0
L1I TOTAL     ACCESS:  128651840  HIT:  128635458  MISS:      16382
L1I LOAD      ACCESS:  128651840  HIT:  128635458  MISS:      16382
L1I RFO       ACCESS:          0  HIT:          0  MISS:          0
L1I PREFETCH  ACCESS:          0  HIT:          0  MISS:          0
L1I WRITEBACK ACCESS:          0  HIT:          0  MISS:          0
L2C TOTAL     ACCESS:   17932498  HIT:   10173914  MISS:    7758584
L2C LOAD      ACCESS:    8708474  HIT:    6021309  MISS:    2687165
L2C RFO       ACCESS:    1618948  HIT:     468746  MISS:    1150202
L2C PREFETCH  ACCESS:    4004932  HIT:      89581  MISS:    3915351
L2C WRITEBACK ACCESS:    3600144  HIT:    3594278  MISS:       5866

L2C Best-offset prefetcher final stats
LLC TOTAL     ACCESS:   10893415  HIT:    4063468  MISS:    6829947
LLC LOAD      ACCESS:    2055198  HIT:     495656  MISS:    1559542
LLC RFO       ACCESS:    1150047  HIT:     145411  MISS:    1004636
LLC PREFETCH  ACCESS:    4862884  HIT:     614290  MISS:    4248594
LLC WRITEBACK ACCESS:    2825286  HIT:    2808111  MISS:      17175

CPU 6 cumulative IPC: 0.574524 instructions: 486911163 cycles: 847503005
L1D TOTAL     ACCESS:  162695867  HIT:  154768657  MISS:    7927210
L1D LOAD      ACCESS:  113264992  HIT:  106852130  MISS:    6412862
L1D RFO       ACCESS:   49430875  HIT:   47916527  MISS:    1514348
L1D PREFETCH  ACCESS:          0  HIT:          0  MISS:          0
L1D WRITEBACK ACCESS:          0  HIT:          0  MISS:          0
L1I TOTAL     ACCESS:  176102082  HIT:  176101695  MISS:        387
L1I LOAD      ACCESS:  176102082  HIT:  176101695  MISS:        387
L1I RFO       ACCESS:          0  HIT:          0  MISS:          0
L1I PREFETCH  ACCESS:          0  HIT:          0  MISS:          0
L1I WRITEBACK ACCESS:          0  HIT:          0  MISS:          0
L2C TOTAL     ACCESS:   11959903  HIT:    7379454  MISS:    4580449
L2C LOAD      ACCESS:    6412908  HIT:    5418015  MISS:     994893
L2C RFO       ACCESS:    1514175  HIT:     218254  MISS:    1295921
L2C PREFETCH  ACCESS:    2298906  HIT:      10853  MISS:    2288053
L2C WRITEBACK ACCESS:    1733914  HIT:    1732332  MISS:       1582

L2C Best-offset prefetcher final stats
LLC TOTAL     ACCESS:    6382098  HIT:    2662370  MISS:    3719728
LLC LOAD      ACCESS:     702494  HIT:     418728  MISS:     283766
LLC RFO       ACCESS:    1295917  HIT:     236622  MISS:    1059295
LLC PREFETCH  ACCESS:    2911445  HIT:     657874  MISS:    2253571
LLC WRITEBACK ACCESS:    1472242  HIT:    1349146  MISS:     123096

CPU 7 cumulative IPC: 0.557958 instructions: 472871436 cycles: 847503005
L1D TOTAL     ACCESS:  121654696  HIT:  109086753  MISS:   12567943
L1D LOAD      ACCESS:  114551258  HIT:  105125545  MISS:    9425713
L1D RFO       ACCESS:    7103438  HIT:    3961208  MISS:    3142230
L1D PREFETCH  ACCESS:          0  HIT:          0  MISS:          0
L1D WRITEBACK ACCESS:          0  HIT:          0  MISS:          0
L1I TOTAL     ACCESS:  123209426  HIT:  123209376  MISS:         50
L1I LOAD      ACCESS:  123209426  HIT:  123209376  MISS:         50
L1I RFO       ACCESS:          0  HIT:          0  MISS:          0
L1I PREFETCH  ACCESS:          0  HIT:          0  MISS:          0
L1I WRITEBACK ACCESS:          0  HIT:          0  MISS:          0
L2C TOTAL     ACCESS:   20356780  HIT:   10202361  MISS:   10154419
L2C LOAD      ACCESS:    9425632  HIT:    7037120  MISS:    2388512
L2C RFO       ACCESS:    3142230  HIT:          6  MISS:    3142224
L2C PREFETCH  ACCESS:    4626910  HIT:       3288  MISS:    4623622
L2C WRITEBACK ACCESS:    3162008  HIT:    3161947  MISS:         61

L2C Best-offset prefetcher final stats
LLC TOTAL     ACCESS:   13714803  HIT:    3534513  MISS:   10180290
LLC LOAD      ACCESS:     925886  HIT:     391213  MISS:     534673
LLC RFO       ACCESS:    3142222  HIT:          2  MISS:    3142220
LLC PREFETCH  ACCESS:    6504298  HIT:        987  MISS:    6503311
LLC WRITEBACK ACCESS:    3142397  HIT:    3142311  MISS:         86

Region of Interest Statistics

CPU 0 cumulative IPC: 0.434801 instructions: 100000001 cycles: 229990314
L1D TOTAL     ACCESS:   19417367  HIT:   17515227  MISS:    1902140
L1D LOAD      ACCESS:   18105735  HIT:   16204164  MISS:    1901571
L1D RFO       ACCESS:    1311632  HIT:    1311063  MISS:        569
L1D PREFETCH  ACCESS:          0  HIT:          0  MISS:          0
L1D WRITEBACK ACCESS:          0  HIT:          0  MISS:          0
L1D PREFETCH  REQUESTED:          0  ISSUED:          0  USEFUL:          0  USELESS:          0
L1I TOTAL     ACCESS:   35011112  HIT:   35011112  MISS:          0
L1I LOAD      ACCESS:   35011112  HIT:   35011112  MISS:          0
L1I RFO       ACCESS:          0  HIT:          0  MISS:          0
L1I PREFETCH  ACCESS:          0  HIT:          0  MISS:          0
L1I WRITEBACK ACCESS:          0  HIT:          0  MISS:          0
L1I PREFETCH  REQUESTED:          0  ISSUED:          0  USEFUL:          0  USELESS:          0
L2C TOTAL     ACCESS:    3313595  HIT:    1312853  MISS:    2000742
L2C LOAD      ACCESS:    1901571  HIT:    1308624  MISS:     592947
L2C RFO       ACCESS:        569  HIT:        273  MISS:        296
L2C PREFETCH  ACCESS:    1410617  HIT:       3118  MISS:    1407499
L2C WRITEBACK ACCESS:        838  HIT:        838  MISS:          0
L2C PREFETCH  REQUESTED:    9293692  ISSUED:    9293692  USEFUL:    7898296  USELESS:     379823
LLC TOTAL     ACCESS:    2001591  HIT:     467640  MISS:    1533951
LLC LOAD      ACCESS:     293965  HIT:      72301  MISS:     221664
LLC RFO       ACCESS:        296  HIT:         50  MISS:        246
LLC PREFETCH  ACCESS:    1706507  HIT:     394466  MISS:    1312041
LLC WRITEBACK ACCESS:        823  HIT:        823  MISS:          0
LLC PREFETCH  REQUESTED:          0  ISSUED:          0  USEFUL:    1188639  USELESS:   24754675
Major fault: 0 Minor fault: 2639

CPU 1 cumulative IPC: 0.117994 instructions: 100000000 cycles: 847503004
L1D TOTAL     ACCESS:   53158671  HIT:   44135804  MISS:    9022867
L1D LOAD      ACCESS:   33450498  HIT:   28801062  MISS:    4649436
L1D RFO       ACCESS:   19708173  HIT:   15334742  MISS:    4373431
L1D PREFETCH  ACCESS:          0  HIT:          0  MISS:          0
L1D WRITEBACK ACCESS:          0  HIT:          0  MISS:          0
L1D PREFETCH  REQUESTED:          0  ISSUED:          0  USEFUL:          0  USELESS:          0
L1I TOTAL     ACCESS:   24188945  HIT:   24188945  MISS:          0
L1I LOAD      ACCESS:   24188945  HIT:   24188945  MISS:          0
L1I RFO       ACCESS:          0  HIT:          0  MISS:          0
L1I PREFETCH  ACCESS:          0  HIT:          0  MISS:          0
L1I WRITEBACK ACCESS:          0  HIT:          0  MISS:          0
L1I PREFETCH  REQUESTED:          0  ISSUED:          0  USEFUL:          0  USELESS:          0
L2C TOTAL     ACCESS:   20726945  HIT:   10151208  MISS:   10575737
L2C LOAD      ACCESS:    4649391  HIT:     996837  MISS:    3652554
L2C RFO       ACCESS:    4373431  HIT:         12  MISS:    4373419
L2C PREFETCH  ACCESS:    2681256  HIT:     137088  MISS:    2544168
L2C WRITEBACK ACCESS:    9022867  HIT:    9017271  MISS:       5596
L2C PREFETCH  REQUESTED:    5166924  ISSUED:    5166924  USEFUL:    1216493  USELESS:    2053057
LLC TOTAL     ACCESS:   19378568  HIT:   11695753  MISS:    7682815
LLC LOAD      ACCESS:    2811525  HIT:    1489807  MISS:    1321718
LLC RFO       ACCESS:    4373419  HIT:      17370  MISS:    4356049
LLC PREFETCH  ACCESS:    3385629  HIT:    1380771  MISS:    2004858
LLC WRITEBACK ACCESS:    8807995  HIT:    8807805  MISS:        190
LLC PREFETCH  REQUESTED:          0  ISSUED:          0  USEFUL:    1188639  USELESS:   24754675
Major fault: 0 Minor fault: 257383

CPU 2 cumulative IPC: 0.360608 instructions: 100000002 cycles: 277309218
L1D TOTAL     ACCESS:   20953203  HIT:   19629827  MISS:    1323376
L1D LOAD      ACCESS:   13935593  HIT:   12613534  MISS:    1322059
L1D RFO       ACCESS:    7017610  HIT:    7016293  MISS:       1317
L1D PREFETCH  ACCESS:          0  HIT:          0  MISS:          0
L1D WRITEBACK ACCESS:          0  HIT:          0  MISS:          0
L1D PREFETCH  REQUESTED:          0  ISSUED:          0  USEFUL:          0  USELESS:          0
L1I TOTAL     ACCESS:   20165675  HIT:   20165675  MISS:          0
L1I LOAD      ACCESS:   20165675  HIT:   20165675  MISS:          0
L1I RFO       ACCESS:          0  HIT:          0  MISS:          0
L1I PREFETCH  ACCESS:          0  HIT:          0  MISS:          0
L1I WRITEBACK ACCESS:          0  HIT:          0  MISS:          0
L1I PREFETCH  REQUESTED:          0  ISSUED:          0  USEFUL:          0  USELESS:          0
L2C TOTAL     ACCESS:    2820504  HIT:    1536830  MISS:    1283674
L2C LOAD      ACCESS:    1322059  HIT:     656419  MISS:     665640
L2C RFO       ACCESS:       1317  HIT:        313  MISS:       1004
L2C PREFETCH  ACCESS:     618420  HIT:       1390  MISS:     617030
L2C WRITEBACK ACCESS:     878708  HIT:     878708  MISS:          0
L2C PREFETCH  REQUESTED:    4406539  ISSUED:    4406539  USEFUL:    2454322  USELESS:      12296
LLC TOTAL     ACCESS:    2161660  HIT:    1273544  MISS:     888116
LLC LOAD      ACCESS:      25953  HIT:      11936  MISS:      14017
LLC RFO       ACCESS:       1004  HIT:       1001  MISS:          3
LLC PREFETCH  ACCESS:    1256766  HIT:     384522  MISS:     872244
LLC WRITEBACK ACCESS:     877937  HIT:     876085  MISS:       1852
LLC PREFETCH  REQUESTED:          0  ISSUED:          0  USEFUL:    1188639  USELESS:   24754675
Major fault: 0 Minor fault: 48090

CPU 3 cumulative IPC: 0.46446 instructions: 100000003 cycles: 215303619
L1D TOTAL     ACCESS:   25853251  HIT:   21726014  MISS:    4127237
L1D LOAD      ACCESS:   10518517  HIT:    9893160  MISS:     625357
L1D RFO       ACCESS:   15334734  HIT:   11832854  MISS:    3501880
L1D PREFETCH  ACCESS:          0  HIT:          0  MISS:          0
L1D WRITEBACK ACCESS:          0  HIT:          0  MISS:          0
L1D PREFETCH  REQUESTED:          0  ISSUED:          0  USEFUL:          0  USELESS:          0
L1I TOTAL     ACCESS:   22747173  HIT:   22747173  MISS:          0
L1I LOAD      ACCESS:   22747173  HIT:   22747173  MISS:          0
L1I RFO       ACCESS:          0  HIT:          0  MISS:          0
L1I PREFETCH  ACCESS:          0  HIT:          0  MISS:          0
L1I WRITEBACK ACCESS:          0  HIT:          0  MISS:          0
L1I PREFETCH  REQUESTED:          0  ISSUED:          0  USEFUL:          0  USELESS:          0
L2C TOTAL     ACCESS:    7886179  HIT:    4766764  MISS:    3119415
L2C LOAD      ACCESS:     625357  HIT:     216277  MISS:     409080
L2C RFO       ACCESS:    3501880  HIT:    1007881  MISS:    2493999
L2C PREFETCH  ACCESS:     257059  HIT:      40780  MISS:     216279
L2C WRITEBACK ACCESS:    3501883  HIT:    3501826  MISS:         57
L2C PREFETCH  REQUESTED:    3194841  ISSUED:    3194841  USEFUL:    1057330  USELESS:        829
LLC TOTAL     ACCESS:    5611659  HIT:    3110292  MISS:    2501367
LLC LOAD      ACCESS:     345593  HIT:          5  MISS:     345588
LLC RFO       ACCESS:    2492277  HIT:     616309  MISS:    1875968
LLC PREFETCH  ACCESS:     279766  HIT:          4  MISS:     279762
LLC WRITEBACK ACCESS:    2494023  HIT:    2493974  MISS:         49
LLC PREFETCH  REQUESTED:          0  ISSUED:          0  USEFUL:    1188639  USELESS:   24754675
Major fault: 0 Minor fault: 104504

CPU 4 cumulative IPC: 0.279284 instructions: 100000000 cycles: 358058084
L1D TOTAL     ACCESS:   39039185  HIT:   23682272  MISS:   15356913
L1D LOAD      ACCESS:   32754367  HIT:   17684196  MISS:   15070171
L1D RFO       ACCESS:    6284818  HIT:    5998076  MISS:     286742
L1D PREFETCH  ACCESS:          0  HIT:          0  MISS:          0
L1D WRITEBACK ACCESS:          0  HIT:          0  MISS:          0
L1D PREFETCH  REQUESTED:          0  ISSUED:          0  USEFUL:          0  USELESS:          0
L1I TOTAL     ACCESS:   35806929  HIT:   35806929  MISS:          0
L1I LOAD      ACCESS:   35806929  HIT:   35806929  MISS:          0
L1I RFO       ACCESS:          0  HIT:          0  MISS:          0
L1I PREFETCH  ACCESS:          0  HIT:          0  MISS:          0
L1I WRITEBACK ACCESS:          0  HIT:          0  MISS:          0
L1I PREFETCH  REQUESTED:          0  ISSUED:          0  USEFUL:          0  USELESS:          0
L2C TOTAL     ACCESS:   20249973  HIT:    2568643  MISS:   17681330
L2C LOAD      ACCESS:   15070171  HIT:     688934  MISS:   14381237
L2C RFO       ACCESS:     286742  HIT:       2552  MISS:     284190
L2C PREFETCH  ACCESS:    4534280  HIT:    1519291  MISS:    3014989
L2C WRITEBACK ACCESS:     358780  HIT:     357866  MISS:        914
L2C PREFETCH  REQUESTED:   18371172  ISSUED:   18371150  USEFUL:    2714772  USELESS:    7912944
LLC TOTAL     ACCESS:   18216969  HIT:   17024443  MISS:    1192526
LLC LOAD      ACCESS:   13894277  HIT:   13706325  MISS:     187952
LLC RFO       ACCESS:     277550  HIT:       1845  MISS:     275705
LLC PREFETCH  ACCESS:    3687880  HIT:    2959118  MISS:     728762
LLC WRITEBACK ACCESS:     357262  HIT:     357155  MISS:        107
LLC PREFETCH  REQUESTED:          0  ISSUED:          0  USEFUL:    1188639  USELESS:   24754675
Major fault: 0 Minor fault: 19143

CPU 5 cumulative IPC: 0.64861 instructions: 100000003 cycles: 154175905
L1D TOTAL     ACCESS:   26619747  HIT:   24144125  MISS:    2475622
L1D LOAD      ACCESS:   22057165  HIT:   19965457  MISS:    2091708
L1D RFO       ACCESS:    4562582  HIT:    4178668  MISS:     383914
L1D PREFETCH  ACCESS:          0  HIT:          0  MISS:          0
L1D WRITEBACK ACCESS:          0  HIT:          0  MISS:          0
L1D PREFETCH  REQUESTED:          0  ISSUED:          0  USEFUL:          0  USELESS:          0
L1I TOTAL     ACCESS:   24035524  HIT:   24031645  MISS:       3879
L1I LOAD      ACCESS:   24035524  HIT:   24031645  MISS:       3879
L1I RFO       ACCESS:          0  HIT:          0  MISS:          0
L1I PREFETCH  ACCESS:          0  HIT:          0  MISS:          0
L1I WRITEBACK ACCESS:          0  HIT:          0  MISS:          0
L1I PREFETCH  REQUESTED:          0  ISSUED:          0  USEFUL:          0  USELESS:          0
L2C TOTAL     ACCESS:    4313722  HIT:    2476820  MISS:    1836902
L2C LOAD      ACCESS:    2095505  HIT:    1449346  MISS:     646159
L2C RFO       ACCESS:     383914  HIT:     126844  MISS:     257070
L2C PREFETCH  ACCESS:     953622  HIT:      21742  MISS:     931880
L2C WRITEBACK ACCESS:     880681  HIT:     878888  MISS:       1793
L2C PREFETCH  REQUESTED:    5736946  ISSUED:    5734409  USEFUL:    4308756  USELESS:     311512
LLC TOTAL     ACCESS:    2693897  HIT:    1133262  MISS:    1560635
LLC LOAD      ACCESS:     417899  HIT:     211276  MISS:     206623
LLC RFO       ACCESS:     257067  HIT:      40536  MISS:     216531
LLC PREFETCH  ACCESS:    1342054  HIT:     207723  MISS:    1134331
LLC WRITEBACK ACCESS:     676877  HIT:     673727  MISS:       3150
LLC PREFETCH  REQUESTED:          0  ISSUED:          0  USEFUL:    1188639  USELESS:   24754675
Major fault: 0 Minor fault: 11454

CPU 6 cumulative IPC: 0.529995 instructions: 100000003 cycles: 188680898
L1D TOTAL     ACCESS:   29013390  HIT:   28105437  MISS:     907953
L1D LOAD      ACCESS:   18937037  HIT:   18336549  MISS:     600488
L1D RFO       ACCESS:   10076353  HIT:    9768888  MISS:     307465
L1D PREFETCH  ACCESS:          0  HIT:          0  MISS:          0
L1D WRITEBACK ACCESS:          0  HIT:          0  MISS:          0
L1D PREFETCH  REQUESTED:          0  ISSUED:          0  USEFUL:          0  USELESS:          0
L1I TOTAL     ACCESS:   37870949  HIT:   37870886  MISS:         63
L1I LOAD      ACCESS:   37870949  HIT:   37870886  MISS:         63
L1I RFO       ACCESS:          0  HIT:          0  MISS:          0
L1I PREFETCH  ACCESS:          0  HIT:          0  MISS:          0
L1I WRITEBACK ACCESS:          0  HIT:          0  MISS:          0
L1I PREFETCH  REQUESTED:          0  ISSUED:          0  USEFUL:          0  USELESS:          0
L2C TOTAL     ACCESS:    1571202  HIT:     654931  MISS:     916271
L2C LOAD      ACCESS:     600551  HIT:     345600  MISS:     254951
L2C RFO       ACCESS:     307465  HIT:          5  MISS:     307460
L2C PREFETCH  ACCESS:     353667  HIT:        210  MISS:     353457
L2C WRITEBACK ACCESS:     309519  HIT:     309116  MISS:        403
L2C PREFETCH  REQUESTED:    2974553  ISSUED:    2974553  USEFUL:    2167502  USELESS:     152514
LLC TOTAL     ACCESS:    1314870  HIT:     361530  MISS:     953340
LLC LOAD      ACCESS:     142611  HIT:      87322  MISS:      55289
LLC RFO       ACCESS:     307459  HIT:          0  MISS:     307459
LLC PREFETCH  ACCESS:     557328  HIT:         77  MISS:     557251
LLC WRITEBACK ACCESS:     307472  HIT:     274131  MISS:      33341
LLC PREFETCH  REQUESTED:          0  ISSUED:          0  USEFUL:    1188639  USELESS:   24754675
Major fault: 0 Minor fault: 40678

CPU 7 cumulative IPC: 0.555264 instructions: 100000002 cycles: 180094602
L1D TOTAL     ACCESS:   25461492  HIT:   23279688  MISS:    2181804
L1D LOAD      ACCESS:   23955644  HIT:   22442210  MISS:    1513434
L1D RFO       ACCESS:    1505848  HIT:     837478  MISS:     668370
L1D PREFETCH  ACCESS:          0  HIT:          0  MISS:          0
L1D WRITEBACK ACCESS:          0  HIT:          0  MISS:          0
L1D PREFETCH  REQUESTED:          0  ISSUED:          0  USEFUL:          0  USELESS:          0
L1I TOTAL     ACCESS:   28216035  HIT:   28216035  MISS:          0
L1I LOAD      ACCESS:   28216035  HIT:   28216035  MISS:          0
L1I RFO       ACCESS:          0  HIT:          0  MISS:          0
L1I PREFETCH  ACCESS:          0  HIT:          0  MISS:          0
L1I WRITEBACK ACCESS:          0  HIT:          0  MISS:          0
L1I PREFETCH  REQUESTED:          0  ISSUED:          0  USEFUL:          0  USELESS:          0
L2C TOTAL     ACCESS:    3870111  HIT:    1673186  MISS:    2196925
L2C LOAD      ACCESS:    1513434  HIT:     999677  MISS:     513757
L2C RFO       ACCESS:     668370  HIT:          1  MISS:     668369
L2C PREFETCH  ACCESS:    1015693  HIT:        897  MISS:    1014796
L2C WRITEBACK ACCESS:     672614  HIT:     672611  MISS:          3
L2C PREFETCH  REQUESTED:    7098754  ISSUED:    7098754  USEFUL:    5014230  USELESS:     166627
LLC TOTAL     ACCESS:    2971833  HIT:     767208  MISS:    2204625
LLC LOAD      ACCESS:     224303  HIT:      98621  MISS:     125682
LLC RFO       ACCESS:     668367  HIT:          1  MISS:     668366
LLC PREFETCH  ACCESS:    1410701  HIT:        138  MISS:    1410563
LLC WRITEBACK ACCESS:     668462  HIT:     668448  MISS:         14
LLC PREFETCH  REQUESTED:          0  ISSUED:          0  USEFUL:    1188639  USELESS:   24754675
Major fault: 0 Minor fault: 99538

L2C Best-offset prefetcher final stats

L2C Best-offset prefetcher final stats

L2C Best-offset prefetcher final stats

L2C Best-offset prefetcher final stats

L2C Best-offset prefetcher final stats

L2C Best-offset prefetcher final stats

L2C Best-offset prefetcher final stats

L2C Best-offset prefetcher final stats

DRAM Statistics
 CHANNEL 0
 RQ ROW_BUFFER_HIT:    5389940  ROW_BUFFER_MISS:   18696816
 DBUS_CONGESTED:   61493169
 WQ ROW_BUFFER_HIT:    1282672  ROW_BUFFER_MISS:   11774046  FULL:          0

 CHANNEL 1
 RQ ROW_BUFFER_HIT:    5397790  ROW_BUFFER_MISS:   18723535
 DBUS_CONGESTED:   61493169
 WQ ROW_BUFFER_HIT:    1285485  ROW_BUFFER_MISS:   11774336  FULL:          0

 AVG_CONGESTED_CYCLE: 14
