
*** ChampSim Multicore Out-of-Order Simulator ***

Warmup Instructions: 20000000
Simulation Instructions: 100000000
Number of CPUs: 8
LLC sets: 16384
LLC ways: 16
Off-chip DRAM Size: 8192 MB Channels: 2 Width: 64-bit Data Rate: 1600 MT/s

CPU 0 runs /scratch/user/djimenez/champsim-traces/speccpu2017/xz/621.wrf_s/621.wrf_s-8065B.champsimtrace.xz
CPU 1 runs /scratch/user/djimenez/champsim-traces/speccpu2017/xz/654.roms_s/654.roms_s-294B.champsimtrace.xz
CPU 2 runs /scratch/user/djimenez/champsim-traces/speccpu2017/xz/619.lbm_s/619.lbm_s-4268B.champsimtrace.xz
CPU 3 runs /scratch/user/djimenez/champsim-traces/speccpu2017/xz/623.xalancbmk_s/623.xalancbmk_s-325B.champsimtrace.xz
CPU 4 runs /scratch/user/djimenez/champsim-traces/speccpu2017/xz/623.xalancbmk_s/623.xalancbmk_s-10B.champsimtrace.xz
CPU 5 runs /scratch/user/djimenez/champsim-traces/speccpu2017/xz/602.gcc_s/602.gcc_s-2375B.champsimtrace.xz
CPU 6 runs /scratch/user/djimenez/champsim-traces/speccpu2017/xz/605.mcf_s/605.mcf_s-472B.champsimtrace.xz
CPU 7 runs /scratch/user/djimenez/champsim-traces/speccpu2017/xz/627.cam4_s/627.cam4_s-490B.champsimtrace.xz
L2C Best-offset prefetcher
L2C Best-offset prefetcher
L2C Best-offset prefetcher
L2C Best-offset prefetcher
L2C Best-offset prefetcher
L2C Best-offset prefetcher
L2C Best-offset prefetcher
L2C Best-offset prefetcher
Heartbeat CPU 7 instructions: 10000002 cycles: 3993879 heartbeat IPC: 2.50383 cumulative IPC: 2.50383 (Simulation time: 0 hr 3 min 23 sec) 
Heartbeat CPU 0 instructions: 10000003 cycles: 4756194 heartbeat IPC: 2.10252 cumulative IPC: 2.10252 (Simulation time: 0 hr 4 min 2 sec) 
Heartbeat CPU 1 instructions: 10000003 cycles: 4879552 heartbeat IPC: 2.04937 cumulative IPC: 2.04937 (Simulation time: 0 hr 4 min 9 sec) 
Heartbeat CPU 2 instructions: 10000001 cycles: 4899706 heartbeat IPC: 2.04094 cumulative IPC: 2.04094 (Simulation time: 0 hr 4 min 10 sec) 
Heartbeat CPU 4 instructions: 10000001 cycles: 4905447 heartbeat IPC: 2.03855 cumulative IPC: 2.03855 (Simulation time: 0 hr 4 min 10 sec) 
Heartbeat CPU 3 instructions: 10000000 cycles: 6134365 heartbeat IPC: 1.63016 cumulative IPC: 1.63016 (Simulation time: 0 hr 5 min 12 sec) 
Heartbeat CPU 6 instructions: 10000000 cycles: 6745509 heartbeat IPC: 1.48247 cumulative IPC: 1.48247 (Simulation time: 0 hr 5 min 43 sec) 
Heartbeat CPU 5 instructions: 10000002 cycles: 6799091 heartbeat IPC: 1.47079 cumulative IPC: 1.47079 (Simulation time: 0 hr 5 min 46 sec) 
Heartbeat CPU 7 instructions: 20000000 cycles: 7773339 heartbeat IPC: 2.64588 cumulative IPC: 2.5729 (Simulation time: 0 hr 6 min 35 sec) 
Heartbeat CPU 0 instructions: 20000000 cycles: 9267560 heartbeat IPC: 2.21662 cumulative IPC: 2.15807 (Simulation time: 0 hr 7 min 51 sec) 
Heartbeat CPU 4 instructions: 20000000 cycles: 9728672 heartbeat IPC: 2.0733 cumulative IPC: 2.05578 (Simulation time: 0 hr 8 min 15 sec) 
Heartbeat CPU 1 instructions: 20000000 cycles: 9758907 heartbeat IPC: 2.04945 cumulative IPC: 2.04941 (Simulation time: 0 hr 8 min 17 sec) 
Heartbeat CPU 2 instructions: 20000000 cycles: 9794415 heartbeat IPC: 2.04302 cumulative IPC: 2.04198 (Simulation time: 0 hr 8 min 19 sec) 
Heartbeat CPU 7 instructions: 30000000 cycles: 11745802 heartbeat IPC: 2.51733 cumulative IPC: 0.851368 (Simulation time: 0 hr 10 min 5 sec) 
Heartbeat CPU 3 instructions: 20000000 cycles: 12357709 heartbeat IPC: 1.60685 cumulative IPC: 1.61842 (Simulation time: 0 hr 10 min 39 sec) 
Heartbeat CPU 6 instructions: 20000000 cycles: 13143312 heartbeat IPC: 1.56304 cumulative IPC: 1.52169 (Simulation time: 0 hr 11 min 21 sec) 
Heartbeat CPU 5 instructions: 20000000 cycles: 13353733 heartbeat IPC: 1.52564 cumulative IPC: 1.49771 (Simulation time: 0 hr 11 min 32 sec) 

Warmup complete CPU 0 instructions: 29276950 cycles: 13353734 (Simulation time: 0 hr 11 min 32 sec) 
Warmup complete CPU 1 instructions: 27367303 cycles: 13353734 (Simulation time: 0 hr 11 min 32 sec) 
Warmup complete CPU 2 instructions: 27284362 cycles: 13353734 (Simulation time: 0 hr 11 min 32 sec) 
Warmup complete CPU 3 instructions: 21543519 cycles: 13353734 (Simulation time: 0 hr 11 min 32 sec) 
Warmup complete CPU 4 instructions: 27300690 cycles: 13353734 (Simulation time: 0 hr 11 min 32 sec) 
Warmup complete CPU 5 instructions: 20000001 cycles: 13353734 (Simulation time: 0 hr 11 min 32 sec) 
Warmup complete CPU 6 instructions: 20302950 cycles: 13353733 (Simulation time: 0 hr 11 min 32 sec) 
Warmup complete CPU 7 instructions: 34304873 cycles: 13353733 (Simulation time: 0 hr 11 min 32 sec) 

Heartbeat CPU 0 instructions: 30000000 cycles: 14506004 heartbeat IPC: 1.90896 cumulative IPC: 0.6275 (Simulation time: 0 hr 11 min 57 sec) 
Heartbeat CPU 1 instructions: 30000002 cycles: 16449530 heartbeat IPC: 1.49463 cumulative IPC: 0.850411 (Simulation time: 0 hr 12 min 36 sec) 
Heartbeat CPU 7 instructions: 40000000 cycles: 18955801 heartbeat IPC: 1.38696 cumulative IPC: 1.01661 (Simulation time: 0 hr 13 min 29 sec) 
Heartbeat CPU 2 instructions: 30000002 cycles: 18982645 heartbeat IPC: 1.08835 cumulative IPC: 0.482445 (Simulation time: 0 hr 13 min 30 sec) 
Heartbeat CPU 0 instructions: 40000000 cycles: 24345679 heartbeat IPC: 1.01629 cumulative IPC: 0.975537 (Simulation time: 0 hr 15 min 40 sec) 
Heartbeat CPU 4 instructions: 30000000 cycles: 27376013 heartbeat IPC: 0.566658 cumulative IPC: 0.192502 (Simulation time: 0 hr 17 min 51 sec) 
Heartbeat CPU 7 instructions: 50000000 cycles: 28883478 heartbeat IPC: 1.00728 cumulative IPC: 1.01065 (Simulation time: 0 hr 19 min 1 sec) 
Heartbeat CPU 1 instructions: 40000000 cycles: 29112712 heartbeat IPC: 0.789691 cumulative IPC: 0.801619 (Simulation time: 0 hr 19 min 11 sec) 
Heartbeat CPU 0 instructions: 50000003 cycles: 34416500 heartbeat IPC: 0.992968 cumulative IPC: 0.983871 (Simulation time: 0 hr 21 min 59 sec) 
Heartbeat CPU 3 instructions: 30000001 cycles: 35609340 heartbeat IPC: 0.430077 cumulative IPC: 0.379971 (Simulation time: 0 hr 22 min 21 sec) 
Heartbeat CPU 7 instructions: 60000000 cycles: 39977150 heartbeat IPC: 0.901415 cumulative IPC: 0.965133 (Simulation time: 0 hr 24 min 7 sec) 
Heartbeat CPU 2 instructions: 40000000 cycles: 41155131 heartbeat IPC: 0.451009 cumulative IPC: 0.457374 (Simulation time: 0 hr 25 min 0 sec) 
Heartbeat CPU 1 instructions: 50000001 cycles: 42440094 heartbeat IPC: 0.750335 cumulative IPC: 0.778121 (Simulation time: 0 hr 25 min 58 sec) 
Heartbeat CPU 0 instructions: 60000000 cycles: 44600666 heartbeat IPC: 0.981916 cumulative IPC: 0.983234 (Simulation time: 0 hr 27 min 28 sec) 
Heartbeat CPU 5 instructions: 30000001 cycles: 47792715 heartbeat IPC: 0.290369 cumulative IPC: 0.290369 (Simulation time: 0 hr 29 min 41 sec) 
Heartbeat CPU 7 instructions: 70000000 cycles: 49524425 heartbeat IPC: 1.04742 cumulative IPC: 0.986852 (Simulation time: 0 hr 30 min 55 sec) 
Heartbeat CPU 0 instructions: 70000001 cycles: 54521790 heartbeat IPC: 1.00795 cumulative IPC: 0.989191 (Simulation time: 0 hr 32 min 47 sec) 
Heartbeat CPU 1 instructions: 60000000 cycles: 55098045 heartbeat IPC: 0.790017 cumulative IPC: 0.781728 (Simulation time: 0 hr 32 min 58 sec) 
Heartbeat CPU 7 instructions: 80000000 cycles: 60296117 heartbeat IPC: 0.928359 cumulative IPC: 0.97343 (Simulation time: 0 hr 34 min 31 sec) 
Heartbeat CPU 3 instructions: 40000000 cycles: 60420605 heartbeat IPC: 0.403043 cumulative IPC: 0.392133 (Simulation time: 0 hr 34 min 34 sec) 
Heartbeat CPU 2 instructions: 50000000 cycles: 63259306 heartbeat IPC: 0.452403 cumulative IPC: 0.455172 (Simulation time: 0 hr 35 min 32 sec) 
Heartbeat CPU 0 instructions: 80000000 cycles: 66744092 heartbeat IPC: 0.818176 cumulative IPC: 0.950041 (Simulation time: 0 hr 36 min 47 sec) 
Heartbeat CPU 1 instructions: 70000000 cycles: 67673585 heartbeat IPC: 0.795195 cumulative IPC: 0.784846 (Simulation time: 0 hr 37 min 8 sec) 
Heartbeat CPU 7 instructions: 90000002 cycles: 70164368 heartbeat IPC: 1.01335 cumulative IPC: 0.980365 (Simulation time: 0 hr 38 min 1 sec) 
Heartbeat CPU 0 instructions: 90000003 cycles: 76269570 heartbeat IPC: 1.04982 cumulative IPC: 0.965147 (Simulation time: 0 hr 40 min 10 sec) 
Heartbeat CPU 3 instructions: 50000001 cycles: 76840381 heartbeat IPC: 0.609022 cumulative IPC: 0.448228 (Simulation time: 0 hr 40 min 21 sec) 
Heartbeat CPU 5 instructions: 40000000 cycles: 79653156 heartbeat IPC: 0.313869 cumulative IPC: 0.301662 (Simulation time: 0 hr 41 min 17 sec) 
Heartbeat CPU 1 instructions: 80000000 cycles: 80485799 heartbeat IPC: 0.780505 cumulative IPC: 0.784017 (Simulation time: 0 hr 41 min 34 sec) 
Heartbeat CPU 7 instructions: 100000000 cycles: 80585389 heartbeat IPC: 0.959599 cumulative IPC: 0.977146 (Simulation time: 0 hr 41 min 36 sec) 
Heartbeat CPU 4 instructions: 40000000 cycles: 82491818 heartbeat IPC: 0.181436 cumulative IPC: 0.18368 (Simulation time: 0 hr 42 min 14 sec) 
Heartbeat CPU 2 instructions: 60000000 cycles: 85392202 heartbeat IPC: 0.451816 cumulative IPC: 0.454141 (Simulation time: 0 hr 43 min 12 sec) 
Heartbeat CPU 0 instructions: 100000000 cycles: 88562205 heartbeat IPC: 0.813495 cumulative IPC: 0.94036 (Simulation time: 0 hr 44 min 17 sec) 
Heartbeat CPU 7 instructions: 110000001 cycles: 91306343 heartbeat IPC: 0.932753 cumulative IPC: 0.97104 (Simulation time: 0 hr 45 min 18 sec) 
Heartbeat CPU 1 instructions: 90000001 cycles: 93418244 heartbeat IPC: 0.773249 cumulative IPC: 0.782278 (Simulation time: 0 hr 46 min 0 sec) 
Heartbeat CPU 3 instructions: 60000000 cycles: 95050136 heartbeat IPC: 0.549156 cumulative IPC: 0.470724 (Simulation time: 0 hr 46 min 34 sec) 
Heartbeat CPU 0 instructions: 110000003 cycles: 99658406 heartbeat IPC: 0.90121 cumulative IPC: 0.935327 (Simulation time: 0 hr 48 min 4 sec) 
Heartbeat CPU 7 instructions: 120000000 cycles: 101785294 heartbeat IPC: 0.954294 cumulative IPC: 0.969056 (Simulation time: 0 hr 48 min 43 sec) 
Heartbeat CPU 1 instructions: 100000000 cycles: 106019649 heartbeat IPC: 0.793562 cumulative IPC: 0.783812 (Simulation time: 0 hr 50 min 7 sec) 
Heartbeat CPU 5 instructions: 50000000 cycles: 106213005 heartbeat IPC: 0.376508 cumulative IPC: 0.32307 (Simulation time: 0 hr 50 min 11 sec) 
Heartbeat CPU 2 instructions: 70000000 cycles: 106830822 heartbeat IPC: 0.466448 cumulative IPC: 0.456964 (Simulation time: 0 hr 50 min 24 sec) 
Heartbeat CPU 7 instructions: 130000001 cycles: 111907822 heartbeat IPC: 0.987896 cumulative IPC: 0.970991 (Simulation time: 0 hr 52 min 6 sec) 
Heartbeat CPU 0 instructions: 120000000 cycles: 115293808 heartbeat IPC: 0.639574 cumulative IPC: 0.889965 (Simulation time: 0 hr 53 min 13 sec) 
Heartbeat CPU 6 instructions: 30000002 cycles: 115464881 heartbeat IPC: 0.0977311 cumulative IPC: 0.0949657 (Simulation time: 0 hr 53 min 17 sec) 
Finished CPU 7 instructions: 100000001 cycles: 103159109 cumulative IPC: 0.969376 (Simulation time: 0 hr 53 min 38 sec) 
Heartbeat CPU 1 instructions: 110000002 cycles: 118096404 heartbeat IPC: 0.828037 cumulative IPC: 0.788912 (Simulation time: 0 hr 54 min 12 sec) 
Heartbeat CPU 7 instructions: 140000000 cycles: 122055534 heartbeat IPC: 0.985444 cumulative IPC: 0.97234 (Simulation time: 0 hr 55 min 35 sec) 
Heartbeat CPU 3 instructions: 70000000 cycles: 123634048 heartbeat IPC: 0.349847 cumulative IPC: 0.439394 (Simulation time: 0 hr 56 min 8 sec) 
Heartbeat CPU 2 instructions: 80000000 cycles: 127040181 heartbeat IPC: 0.49482 cumulative IPC: 0.463693 (Simulation time: 0 hr 57 min 17 sec) 
Finished CPU 0 instructions: 100000000 cycles: 116053524 cumulative IPC: 0.861671 (Simulation time: 0 hr 58 min 5 sec) 
Heartbeat CPU 1 instructions: 120000000 cycles: 129723801 heartbeat IPC: 0.860038 cumulative IPC: 0.796018 (Simulation time: 0 hr 58 min 11 sec) 
Heartbeat CPU 5 instructions: 60000000 cycles: 130028726 heartbeat IPC: 0.419891 cumulative IPC: 0.342833 (Simulation time: 0 hr 58 min 16 sec) 
Heartbeat CPU 0 instructions: 130000000 cycles: 130505975 heartbeat IPC: 0.657369 cumulative IPC: 0.859762 (Simulation time: 0 hr 58 min 26 sec) 
Heartbeat CPU 7 instructions: 150000001 cycles: 132078484 heartbeat IPC: 0.99771 cumulative IPC: 0.974482 (Simulation time: 0 hr 58 min 56 sec) 
Finished CPU 1 instructions: 100000001 cycles: 125156295 cumulative IPC: 0.799001 (Simulation time: 1 hr 1 min 4 sec) 
Heartbeat CPU 1 instructions: 130000000 cycles: 141721160 heartbeat IPC: 0.833517 cumulative IPC: 0.799523 (Simulation time: 1 hr 2 min 9 sec) 
Heartbeat CPU 7 instructions: 160000000 cycles: 142378840 heartbeat IPC: 0.97084 cumulative IPC: 0.974191 (Simulation time: 1 hr 2 min 22 sec) 
Heartbeat CPU 0 instructions: 140000000 cycles: 145723137 heartbeat IPC: 0.657153 cumulative IPC: 0.83647 (Simulation time: 1 hr 3 min 26 sec) 
Heartbeat CPU 4 instructions: 50000001 cycles: 147413205 heartbeat IPC: 0.154032 cumulative IPC: 0.169323 (Simulation time: 1 hr 3 min 59 sec) 
Heartbeat CPU 2 instructions: 90000000 cycles: 147595491 heartbeat IPC: 0.486492 cumulative IPC: 0.467184 (Simulation time: 1 hr 4 min 3 sec) 
Heartbeat CPU 7 instructions: 170000001 cycles: 152637482 heartbeat IPC: 0.974788 cumulative IPC: 0.974235 (Simulation time: 1 hr 5 min 47 sec) 
Heartbeat CPU 3 instructions: 80000000 cycles: 153817972 heartbeat IPC: 0.331302 cumulative IPC: 0.416166 (Simulation time: 1 hr 6 min 9 sec) 
Heartbeat CPU 1 instructions: 140000000 cycles: 153883403 heartbeat IPC: 0.822217 cumulative IPC: 0.801487 (Simulation time: 1 hr 6 min 10 sec) 
Heartbeat CPU 0 instructions: 150000001 cycles: 162643479 heartbeat IPC: 0.591005 cumulative IPC: 0.808649 (Simulation time: 1 hr 8 min 52 sec) 
Heartbeat CPU 7 instructions: 180000000 cycles: 162739839 heartbeat IPC: 0.989868 cumulative IPC: 0.975292 (Simulation time: 1 hr 8 min 54 sec) 
Heartbeat CPU 5 instructions: 70000000 cycles: 165805292 heartbeat IPC: 0.279513 cumulative IPC: 0.327973 (Simulation time: 1 hr 9 min 49 sec) 
Heartbeat CPU 1 instructions: 150000000 cycles: 167226276 heartbeat IPC: 0.749464 cumulative IPC: 0.796976 (Simulation time: 1 hr 10 min 17 sec) 
Heartbeat CPU 2 instructions: 100000000 cycles: 169309762 heartbeat IPC: 0.460527 cumulative IPC: 0.466257 (Simulation time: 1 hr 10 min 58 sec) 
Heartbeat CPU 6 instructions: 40000000 cycles: 172695185 heartbeat IPC: 0.174733 cumulative IPC: 0.123615 (Simulation time: 1 hr 12 min 5 sec) 
Heartbeat CPU 7 instructions: 190000000 cycles: 173767128 heartbeat IPC: 0.906841 cumulative IPC: 0.970587 (Simulation time: 1 hr 12 min 27 sec) 
Heartbeat CPU 0 instructions: 160000000 cycles: 176543055 heartbeat IPC: 0.719446 cumulative IPC: 0.801051 (Simulation time: 1 hr 13 min 21 sec) 
Heartbeat CPU 1 instructions: 160000000 cycles: 180074665 heartbeat IPC: 0.778308 cumulative IPC: 0.795537 (Simulation time: 1 hr 14 min 28 sec) 
Heartbeat CPU 3 instructions: 90000002 cycles: 183436248 heartbeat IPC: 0.337629 cumulative IPC: 0.40249 (Simulation time: 1 hr 15 min 26 sec) 
Heartbeat CPU 7 instructions: 200000000 cycles: 184239963 heartbeat IPC: 0.954851 cumulative IPC: 0.969622 (Simulation time: 1 hr 15 min 41 sec) 
Heartbeat CPU 5 instructions: 80000000 cycles: 190543326 heartbeat IPC: 0.404236 cumulative IPC: 0.33862 (Simulation time: 1 hr 17 min 42 sec) 
Heartbeat CPU 2 instructions: 110000002 cycles: 192518307 heartbeat IPC: 0.430876 cumulative IPC: 0.461674 (Simulation time: 1 hr 18 min 21 sec) 
Heartbeat CPU 0 instructions: 170000002 cycles: 192743989 heartbeat IPC: 0.617248 cumulative IPC: 0.784452 (Simulation time: 1 hr 18 min 26 sec) 
Heartbeat CPU 1 instructions: 170000003 cycles: 194117994 heartbeat IPC: 0.712082 cumulative IPC: 0.789054 (Simulation time: 1 hr 18 min 54 sec) 
Heartbeat CPU 7 instructions: 210000001 cycles: 195520281 heartbeat IPC: 0.8865 cumulative IPC: 0.964475 (Simulation time: 1 hr 19 min 24 sec) 
Heartbeat CPU 0 instructions: 180000000 cycles: 202120756 heartbeat IPC: 1.06647 cumulative IPC: 0.798461 (Simulation time: 1 hr 21 min 48 sec) 
Heartbeat CPU 7 instructions: 220000000 cycles: 205688070 heartbeat IPC: 0.983498 cumulative IPC: 0.965481 (Simulation time: 1 hr 22 min 59 sec) 
Heartbeat CPU 1 instructions: 180000000 cycles: 206171358 heartbeat IPC: 0.829644 cumulative IPC: 0.791591 (Simulation time: 1 hr 23 min 9 sec) 
Heartbeat CPU 3 instructions: 100000000 cycles: 209465449 heartbeat IPC: 0.384184 cumulative IPC: 0.40006 (Simulation time: 1 hr 24 min 16 sec) 
Heartbeat CPU 4 instructions: 60000000 cycles: 210343002 heartbeat IPC: 0.158907 cumulative IPC: 0.165995 (Simulation time: 1 hr 24 min 33 sec) 
Heartbeat CPU 0 instructions: 190000001 cycles: 211495655 heartbeat IPC: 1.06668 cumulative IPC: 0.811151 (Simulation time: 1 hr 24 min 58 sec) 
Heartbeat CPU 5 instructions: 90000003 cycles: 211779214 heartbeat IPC: 0.470901 cumulative IPC: 0.352777 (Simulation time: 1 hr 25 min 5 sec) 
Heartbeat CPU 2 instructions: 120000000 cycles: 213851874 heartbeat IPC: 0.468745 cumulative IPC: 0.462426 (Simulation time: 1 hr 25 min 51 sec) 
Heartbeat CPU 7 instructions: 230000003 cycles: 216520327 heartbeat IPC: 0.923169 cumulative IPC: 0.963225 (Simulation time: 1 hr 26 min 49 sec) 
Heartbeat CPU 1 instructions: 190000001 cycles: 218347275 heartbeat IPC: 0.821293 cumulative IPC: 0.793355 (Simulation time: 1 hr 27 min 28 sec) 
Heartbeat CPU 0 instructions: 200000000 cycles: 220910542 heartbeat IPC: 1.06215 cumulative IPC: 0.822536 (Simulation time: 1 hr 28 min 21 sec) 
Heartbeat CPU 7 instructions: 240000000 cycles: 226894458 heartbeat IPC: 0.963936 cumulative IPC: 0.963259 (Simulation time: 1 hr 30 min 25 sec) 
Finished CPU 2 instructions: 100000000 cycles: 215887962 cumulative IPC: 0.463203 (Simulation time: 1 hr 31 min 11 sec) 
Heartbeat CPU 0 instructions: 210000003 cycles: 229996107 heartbeat IPC: 1.10065 cumulative IPC: 0.8342 (Simulation time: 1 hr 31 min 27 sec) 
Heartbeat CPU 1 instructions: 200000000 cycles: 230920103 heartbeat IPC: 0.795366 cumulative IPC: 0.793471 (Simulation time: 1 hr 31 min 46 sec) 
Heartbeat CPU 3 instructions: 110000000 cycles: 232490333 heartbeat IPC: 0.434313 cumulative IPC: 0.403659 (Simulation time: 1 hr 32 min 20 sec) 
Heartbeat CPU 2 instructions: 130000000 cycles: 235093114 heartbeat IPC: 0.470782 cumulative IPC: 0.463227 (Simulation time: 1 hr 33 min 18 sec) 
Heartbeat CPU 7 instructions: 250000001 cycles: 237640969 heartbeat IPC: 0.930535 cumulative IPC: 0.961691 (Simulation time: 1 hr 34 min 16 sec) 
Heartbeat CPU 6 instructions: 50000000 cycles: 238116850 heartbeat IPC: 0.152855 cumulative IPC: 0.132126 (Simulation time: 1 hr 34 min 27 sec) 
Heartbeat CPU 0 instructions: 220000000 cycles: 239278533 heartbeat IPC: 1.0773 cumulative IPC: 0.844188 (Simulation time: 1 hr 34 min 52 sec) 
Heartbeat CPU 5 instructions: 100000000 cycles: 242916332 heartbeat IPC: 0.32116 cumulative IPC: 0.348489 (Simulation time: 1 hr 36 min 15 sec) 
Heartbeat CPU 1 instructions: 210000001 cycles: 242987529 heartbeat IPC: 0.828677 cumulative IPC: 0.795322 (Simulation time: 1 hr 36 min 17 sec) 
Heartbeat CPU 3 instructions: 120000000 cycles: 247720328 heartbeat IPC: 0.656599 cumulative IPC: 0.420096 (Simulation time: 1 hr 37 min 54 sec) 
Heartbeat CPU 7 instructions: 260000000 cycles: 248595292 heartbeat IPC: 0.912881 cumulative IPC: 0.959419 (Simulation time: 1 hr 38 min 10 sec) 
Finished CPU 3 instructions: 100000000 cycles: 237028304 cumulative IPC: 0.421891 (Simulation time: 1 hr 38 min 48 sec) 
Heartbeat CPU 0 instructions: 230000000 cycles: 250495403 heartbeat IPC: 0.891514 cumulative IPC: 0.846427 (Simulation time: 1 hr 38 min 50 sec) 
Heartbeat CPU 1 instructions: 220000000 cycles: 254940653 heartbeat IPC: 0.836601 cumulative IPC: 0.797364 (Simulation time: 1 hr 40 min 21 sec) 
Heartbeat CPU 2 instructions: 140000000 cycles: 255978526 heartbeat IPC: 0.478803 cumulative IPC: 0.464568 (Simulation time: 1 hr 40 min 41 sec) 
Heartbeat CPU 7 instructions: 270000000 cycles: 258751442 heartbeat IPC: 0.984625 cumulative IPC: 0.960462 (Simulation time: 1 hr 41 min 33 sec) 
Heartbeat CPU 1 instructions: 230000000 cycles: 267150453 heartbeat IPC: 0.819014 cumulative IPC: 0.798406 (Simulation time: 1 hr 43 min 59 sec) 
Heartbeat CPU 4 instructions: 70000000 cycles: 268486323 heartbeat IPC: 0.171989 cumulative IPC: 0.167361 (Simulation time: 1 hr 44 min 20 sec) 
Heartbeat CPU 3 instructions: 130000000 cycles: 269588540 heartbeat IPC: 0.457285 cumulative IPC: 0.42327 (Simulation time: 1 hr 44 min 40 sec) 
Heartbeat CPU 7 instructions: 280000000 cycles: 269914138 heartbeat IPC: 0.895841 cumulative IPC: 0.95765 (Simulation time: 1 hr 44 min 46 sec) 
Heartbeat CPU 0 instructions: 240000000 cycles: 270308738 heartbeat IPC: 0.504711 cumulative IPC: 0.820078 (Simulation time: 1 hr 44 min 53 sec) 
Heartbeat CPU 5 instructions: 110000000 cycles: 271959816 heartbeat IPC: 0.344311 cumulative IPC: 0.34802 (Simulation time: 1 hr 45 min 24 sec) 
Heartbeat CPU 2 instructions: 150000000 cycles: 277633588 heartbeat IPC: 0.461786 cumulative IPC: 0.46434 (Simulation time: 1 hr 47 min 13 sec) 
Heartbeat CPU 1 instructions: 240000000 cycles: 279494144 heartbeat IPC: 0.81013 cumulative IPC: 0.798949 (Simulation time: 1 hr 47 min 48 sec) 
Heartbeat CPU 7 instructions: 290000001 cycles: 280135611 heartbeat IPC: 0.978333 cumulative IPC: 0.958443 (Simulation time: 1 hr 48 min 1 sec) 
Heartbeat CPU 0 instructions: 250000000 cycles: 290393481 heartbeat IPC: 0.49789 cumulative IPC: 0.79672 (Simulation time: 1 hr 51 min 26 sec) 
Heartbeat CPU 7 instructions: 300000000 cycles: 290622681 heartbeat IPC: 0.953555 cumulative IPC: 0.958258 (Simulation time: 1 hr 51 min 30 sec) 
Heartbeat CPU 1 instructions: 250000003 cycles: 291571582 heartbeat IPC: 0.82799 cumulative IPC: 0.80021 (Simulation time: 1 hr 51 min 47 sec) 
Heartbeat CPU 3 instructions: 140000000 cycles: 298428221 heartbeat IPC: 0.346744 cumulative IPC: 0.415528 (Simulation time: 1 hr 53 min 52 sec) 
Heartbeat CPU 2 instructions: 160000000 cycles: 299099497 heartbeat IPC: 0.465855 cumulative IPC: 0.464454 (Simulation time: 1 hr 54 min 5 sec) 
Heartbeat CPU 7 instructions: 310000000 cycles: 301105245 heartbeat IPC: 0.953965 cumulative IPC: 0.958101 (Simulation time: 1 hr 54 min 42 sec) 
Heartbeat CPU 6 instructions: 60000000 cycles: 302535988 heartbeat IPC: 0.155233 cumulative IPC: 0.137273 (Simulation time: 1 hr 55 min 9 sec) 
Heartbeat CPU 1 instructions: 260000000 cycles: 303844685 heartbeat IPC: 0.81479 cumulative IPC: 0.800826 (Simulation time: 1 hr 55 min 34 sec) 
Heartbeat CPU 5 instructions: 120000000 cycles: 309425221 heartbeat IPC: 0.266913 cumulative IPC: 0.337756 (Simulation time: 1 hr 57 min 14 sec) 
Finished CPU 5 instructions: 100000001 cycles: 296071495 cumulative IPC: 0.337756 (Simulation time: 1 hr 57 min 14 sec) 
Heartbeat CPU 7 instructions: 320000000 cycles: 312335614 heartbeat IPC: 0.890443 cumulative IPC: 0.95556 (Simulation time: 1 hr 58 min 6 sec) 
Heartbeat CPU 0 instructions: 260000000 cycles: 313555947 heartbeat IPC: 0.431733 cumulative IPC: 0.768559 (Simulation time: 1 hr 58 min 28 sec) 
Heartbeat CPU 1 instructions: 270000000 cycles: 316566038 heartbeat IPC: 0.78608 cumulative IPC: 0.800207 (Simulation time: 1 hr 59 min 26 sec) 
Heartbeat CPU 2 instructions: 170000000 cycles: 320796385 heartbeat IPC: 0.460896 cumulative IPC: 0.464202 (Simulation time: 2 hr 0 min 44 sec) 
Heartbeat CPU 7 instructions: 330000001 cycles: 322570236 heartbeat IPC: 0.977076 cumulative IPC: 0.956272 (Simulation time: 2 hr 1 min 16 sec) 
Heartbeat CPU 3 instructions: 150000000 cycles: 324223151 heartbeat IPC: 0.387673 cumulative IPC: 0.413217 (Simulation time: 2 hr 1 min 45 sec) 
Heartbeat CPU 1 instructions: 280000000 cycles: 329009256 heartbeat IPC: 0.803651 cumulative IPC: 0.800343 (Simulation time: 2 hr 3 min 15 sec) 
Heartbeat CPU 4 instructions: 80000000 cycles: 329165782 heartbeat IPC: 0.1648 cumulative IPC: 0.166869 (Simulation time: 2 hr 3 min 19 sec) 
Heartbeat CPU 7 instructions: 340000000 cycles: 333344526 heartbeat IPC: 0.928135 cumulative IPC: 0.955325 (Simulation time: 2 hr 4 min 42 sec) 
Heartbeat CPU 0 instructions: 270000000 cycles: 334911954 heartbeat IPC: 0.468252 cumulative IPC: 0.748614 (Simulation time: 2 hr 5 min 11 sec) 
Heartbeat CPU 1 instructions: 290000002 cycles: 341307735 heartbeat IPC: 0.813109 cumulative IPC: 0.800822 (Simulation time: 2 hr 7 min 18 sec) 
Heartbeat CPU 2 instructions: 180000000 cycles: 342054275 heartbeat IPC: 0.470414 cumulative IPC: 0.464604 (Simulation time: 2 hr 7 min 33 sec) 
Heartbeat CPU 3 instructions: 160000000 cycles: 342358378 heartbeat IPC: 0.551413 cumulative IPC: 0.420834 (Simulation time: 2 hr 7 min 38 sec) 
Heartbeat CPU 7 instructions: 350000001 cycles: 343865169 heartbeat IPC: 0.950512 cumulative IPC: 0.955172 (Simulation time: 2 hr 8 min 5 sec) 
Heartbeat CPU 5 instructions: 130000003 cycles: 346335386 heartbeat IPC: 0.270928 cumulative IPC: 0.330349 (Simulation time: 2 hr 8 min 48 sec) 
Heartbeat CPU 7 instructions: 360000000 cycles: 355073284 heartbeat IPC: 0.892211 cumulative IPC: 0.953107 (Simulation time: 2 hr 11 min 29 sec) 
Heartbeat CPU 1 instructions: 300000000 cycles: 355425268 heartbeat IPC: 0.708339 cumulative IPC: 0.797005 (Simulation time: 2 hr 11 min 35 sec) 
Heartbeat CPU 0 instructions: 280000000 cycles: 360641135 heartbeat IPC: 0.388664 cumulative IPC: 0.721947 (Simulation time: 2 hr 13 min 11 sec) 
Heartbeat CPU 6 instructions: 70000002 cycles: 363737248 heartbeat IPC: 0.163395 cumulative IPC: 0.141836 (Simulation time: 2 hr 14 min 5 sec) 
Heartbeat CPU 2 instructions: 190000001 cycles: 366009939 heartbeat IPC: 0.417438 cumulative IPC: 0.4614 (Simulation time: 2 hr 14 min 45 sec) 
Heartbeat CPU 7 instructions: 370000000 cycles: 366694097 heartbeat IPC: 0.860525 cumulative IPC: 0.950062 (Simulation time: 2 hr 14 min 58 sec) 
Heartbeat CPU 3 instructions: 170000000 cycles: 367079157 heartbeat IPC: 0.404518 cumulative IPC: 0.419694 (Simulation time: 2 hr 15 min 5 sec) 
Heartbeat CPU 1 instructions: 310000002 cycles: 368961083 heartbeat IPC: 0.738781 cumulative IPC: 0.794789 (Simulation time: 2 hr 15 min 39 sec) 
Heartbeat CPU 0 instructions: 290000001 cycles: 375875678 heartbeat IPC: 0.656403 cumulative IPC: 0.719192 (Simulation time: 2 hr 17 min 43 sec) 
Heartbeat CPU 7 instructions: 380000000 cycles: 376955151 heartbeat IPC: 0.974559 cumulative IPC: 0.950753 (Simulation time: 2 hr 18 min 3 sec) 
Heartbeat CPU 1 instructions: 320000000 cycles: 382072908 heartbeat IPC: 0.76267 cumulative IPC: 0.793647 (Simulation time: 2 hr 19 min 43 sec) 
Heartbeat CPU 5 instructions: 140000000 cycles: 384634663 heartbeat IPC: 0.261101 cumulative IPC: 0.323205 (Simulation time: 2 hr 20 min 30 sec) 
Heartbeat CPU 4 instructions: 90000002 cycles: 385034325 heartbeat IPC: 0.178992 cumulative IPC: 0.168691 (Simulation time: 2 hr 20 min 38 sec) 
Heartbeat CPU 2 instructions: 200000000 cycles: 388415943 heartbeat IPC: 0.446309 cumulative IPC: 0.460499 (Simulation time: 2 hr 21 min 34 sec) 
Heartbeat CPU 0 instructions: 300000000 cycles: 391870457 heartbeat IPC: 0.625204 cumulative IPC: 0.715221 (Simulation time: 2 hr 22 min 30 sec) 
Heartbeat CPU 3 instructions: 180000000 cycles: 394965296 heartbeat IPC: 0.358601 cumulative IPC: 0.41523 (Simulation time: 2 hr 23 min 20 sec) 
Heartbeat CPU 1 instructions: 330000001 cycles: 395858893 heartbeat IPC: 0.725374 cumulative IPC: 0.791186 (Simulation time: 2 hr 23 min 35 sec) 
Heartbeat CPU 7 instructions: 390000002 cycles: 403850040 heartbeat IPC: 0.371818 cumulative IPC: 0.91088 (Simulation time: 2 hr 25 min 55 sec) 
Heartbeat CPU 1 instructions: 340000000 cycles: 409070019 heartbeat IPC: 0.756938 cumulative IPC: 0.790043 (Simulation time: 2 hr 27 min 36 sec) 
Heartbeat CPU 2 instructions: 210000002 cycles: 411327230 heartbeat IPC: 0.436466 cumulative IPC: 0.459115 (Simulation time: 2 hr 28 min 21 sec) 
Heartbeat CPU 0 instructions: 310000002 cycles: 411709618 heartbeat IPC: 0.504054 cumulative IPC: 0.704704 (Simulation time: 2 hr 28 min 28 sec) 
Heartbeat CPU 5 instructions: 150000000 cycles: 413682656 heartbeat IPC: 0.344258 cumulative IPC: 0.324733 (Simulation time: 2 hr 29 min 4 sec) 
Heartbeat CPU 7 instructions: 400000000 cycles: 416016671 heartbeat IPC: 0.82192 cumulative IPC: 0.908192 (Simulation time: 2 hr 29 min 49 sec) 
Heartbeat CPU 3 instructions: 190000001 cycles: 418110177 heartbeat IPC: 0.432061 cumulative IPC: 0.416192 (Simulation time: 2 hr 30 min 30 sec) 
Heartbeat CPU 1 instructions: 350000002 cycles: 422126871 heartbeat IPC: 0.765882 cumulative IPC: 0.789271 (Simulation time: 2 hr 31 min 45 sec) 
Heartbeat CPU 0 instructions: 320000000 cycles: 426116839 heartbeat IPC: 0.694096 cumulative IPC: 0.704334 (Simulation time: 2 hr 33 min 12 sec) 
Heartbeat CPU 7 instructions: 410000001 cycles: 428154527 heartbeat IPC: 0.823869 cumulative IPC: 0.905724 (Simulation time: 2 hr 33 min 53 sec) 
Heartbeat CPU 2 instructions: 220000000 cycles: 433223304 heartbeat IPC: 0.456703 cumulative IPC: 0.458989 (Simulation time: 2 hr 35 min 29 sec) 
Heartbeat CPU 1 instructions: 360000000 cycles: 434648637 heartbeat IPC: 0.798609 cumulative IPC: 0.789548 (Simulation time: 2 hr 35 min 57 sec) 
Heartbeat CPU 7 instructions: 420000000 cycles: 440324424 heartbeat IPC: 0.8217 cumulative IPC: 0.903329 (Simulation time: 2 hr 37 min 45 sec) 
Heartbeat CPU 5 instructions: 160000000 cycles: 441668572 heartbeat IPC: 0.357323 cumulative IPC: 0.326862 (Simulation time: 2 hr 38 min 9 sec) 
Heartbeat CPU 0 instructions: 330000001 cycles: 442414398 heartbeat IPC: 0.613589 cumulative IPC: 0.700887 (Simulation time: 2 hr 38 min 23 sec) 
Heartbeat CPU 4 instructions: 100000000 cycles: 446278063 heartbeat IPC: 0.163282 cumulative IPC: 0.167926 (Simulation time: 2 hr 39 min 33 sec) 
Heartbeat CPU 3 instructions: 200000000 cycles: 446801789 heartbeat IPC: 0.348534 cumulative IPC: 0.411714 (Simulation time: 2 hr 39 min 42 sec) 
Heartbeat CPU 1 instructions: 370000001 cycles: 447815482 heartbeat IPC: 0.759483 cumulative IPC: 0.788637 (Simulation time: 2 hr 40 min 1 sec) 
Heartbeat CPU 6 instructions: 80000000 cycles: 449396527 heartbeat IPC: 0.116742 cumulative IPC: 0.136906 (Simulation time: 2 hr 40 min 33 sec) 
Heartbeat CPU 7 instructions: 430000000 cycles: 452525885 heartbeat IPC: 0.819574 cumulative IPC: 0.901002 (Simulation time: 2 hr 41 min 34 sec) 
Heartbeat CPU 2 instructions: 230000002 cycles: 454965400 heartbeat IPC: 0.459937 cumulative IPC: 0.459036 (Simulation time: 2 hr 42 min 22 sec) 
Heartbeat CPU 1 instructions: 380000000 cycles: 461915503 heartbeat IPC: 0.709219 cumulative IPC: 0.786141 (Simulation time: 2 hr 44 min 27 sec) 
Heartbeat CPU 0 instructions: 340000000 cycles: 463548033 heartbeat IPC: 0.473179 cumulative IPC: 0.690198 (Simulation time: 2 hr 45 min 0 sec) 
Heartbeat CPU 7 instructions: 440000000 cycles: 464716557 heartbeat IPC: 0.820299 cumulative IPC: 0.898823 (Simulation time: 2 hr 45 min 25 sec) 
Heartbeat CPU 0 instructions: 350000002 cycles: 471963126 heartbeat IPC: 1.18834 cumulative IPC: 0.699338 (Simulation time: 2 hr 47 min 55 sec) 
Heartbeat CPU 3 instructions: 210000003 cycles: 472628002 heartbeat IPC: 0.387204 cumulative IPC: 0.410335 (Simulation time: 2 hr 48 min 10 sec) 
Heartbeat CPU 5 instructions: 170000000 cycles: 473754511 heartbeat IPC: 0.311663 cumulative IPC: 0.325803 (Simulation time: 2 hr 48 min 35 sec) 
Heartbeat CPU 1 instructions: 390000001 cycles: 474051978 heartbeat IPC: 0.823963 cumulative IPC: 0.787137 (Simulation time: 2 hr 48 min 41 sec) 
Heartbeat CPU 7 instructions: 450000002 cycles: 476785454 heartbeat IPC: 0.828576 cumulative IPC: 0.896993 (Simulation time: 2 hr 49 min 37 sec) 
Heartbeat CPU 2 instructions: 240000000 cycles: 476928378 heartbeat IPC: 0.455312 cumulative IPC: 0.45886 (Simulation time: 2 hr 49 min 40 sec) 
Heartbeat CPU 0 instructions: 360000000 cycles: 482511254 heartbeat IPC: 0.948035 cumulative IPC: 0.70493 (Simulation time: 2 hr 51 min 31 sec) 
Heartbeat CPU 1 instructions: 400000000 cycles: 486311427 heartbeat IPC: 0.815697 cumulative IPC: 0.787877 (Simulation time: 2 hr 52 min 53 sec) 
Heartbeat CPU 7 instructions: 460000000 cycles: 488826384 heartbeat IPC: 0.8305 cumulative IPC: 0.895309 (Simulation time: 2 hr 53 min 46 sec) 
Heartbeat CPU 0 instructions: 370000003 cycles: 490732366 heartbeat IPC: 1.21638 cumulative IPC: 0.713738 (Simulation time: 2 hr 54 min 27 sec) 
Heartbeat CPU 4 instructions: 110000000 cycles: 494089795 heartbeat IPC: 0.209154 cumulative IPC: 0.172026 (Simulation time: 2 hr 55 min 32 sec) 
Heartbeat CPU 3 instructions: 220000000 cycles: 496618099 heartbeat IPC: 0.416839 cumulative IPC: 0.410658 (Simulation time: 2 hr 56 min 19 sec) 
Heartbeat CPU 2 instructions: 250000000 cycles: 498025220 heartbeat IPC: 0.474005 cumulative IPC: 0.459519 (Simulation time: 2 hr 56 min 48 sec) 
Heartbeat CPU 1 instructions: 410000000 cycles: 498426556 heartbeat IPC: 0.825414 cumulative IPC: 0.788815 (Simulation time: 2 hr 56 min 56 sec) 
Heartbeat CPU 5 instructions: 180000000 cycles: 500742051 heartbeat IPC: 0.370541 cumulative IPC: 0.32828 (Simulation time: 2 hr 57 min 42 sec) 
Heartbeat CPU 7 instructions: 470000003 cycles: 501010150 heartbeat IPC: 0.820765 cumulative IPC: 0.893447 (Simulation time: 2 hr 57 min 47 sec) 
Heartbeat CPU 0 instructions: 380000000 cycles: 501989140 heartbeat IPC: 0.888354 cumulative IPC: 0.71776 (Simulation time: 2 hr 58 min 9 sec) 
Heartbeat CPU 6 instructions: 90000000 cycles: 507959358 heartbeat IPC: 0.170757 cumulative IPC: 0.140914 (Simulation time: 3 hr 0 min 24 sec) 
Heartbeat CPU 1 instructions: 420000000 cycles: 510256009 heartbeat IPC: 0.845348 cumulative IPC: 0.790161 (Simulation time: 3 hr 1 min 10 sec) 
Heartbeat CPU 0 instructions: 390000001 cycles: 513077026 heartbeat IPC: 0.901885 cumulative IPC: 0.721846 (Simulation time: 3 hr 2 min 5 sec) 
Heartbeat CPU 7 instructions: 480000000 cycles: 513111695 heartbeat IPC: 0.82634 cumulative IPC: 0.891822 (Simulation time: 3 hr 2 min 5 sec) 
Heartbeat CPU 3 instructions: 230000001 cycles: 513724773 heartbeat IPC: 0.584567 cumulative IPC: 0.416604 (Simulation time: 3 hr 2 min 18 sec) 
Heartbeat CPU 2 instructions: 260000000 cycles: 518402232 heartbeat IPC: 0.490749 cumulative IPC: 0.460779 (Simulation time: 3 hr 4 min 3 sec) 
Heartbeat CPU 0 instructions: 400000000 cycles: 521192206 heartbeat IPC: 1.23226 cumulative IPC: 0.730002 (Simulation time: 3 hr 5 min 3 sec) 
Heartbeat CPU 1 instructions: 430000000 cycles: 522388480 heartbeat IPC: 0.824234 cumulative IPC: 0.790973 (Simulation time: 3 hr 5 min 29 sec) 
Heartbeat CPU 7 instructions: 490000003 cycles: 525181622 heartbeat IPC: 0.828506 cumulative IPC: 0.890329 (Simulation time: 3 hr 6 min 29 sec) 
Heartbeat CPU 3 instructions: 240000000 cycles: 529111560 heartbeat IPC: 0.649908 cumulative IPC: 0.423564 (Simulation time: 3 hr 7 min 42 sec) 
Heartbeat CPU 0 instructions: 410000000 cycles: 531943662 heartbeat IPC: 0.930107 cumulative IPC: 0.73415 (Simulation time: 3 hr 8 min 41 sec) 
Heartbeat CPU 5 instructions: 190000001 cycles: 533990622 heartbeat IPC: 0.300765 cumulative IPC: 0.326523 (Simulation time: 3 hr 9 min 24 sec) 
Heartbeat CPU 1 instructions: 440000000 cycles: 534801204 heartbeat IPC: 0.805625 cumulative IPC: 0.791322 (Simulation time: 3 hr 9 min 41 sec) 
Heartbeat CPU 7 instructions: 500000000 cycles: 537258207 heartbeat IPC: 0.828048 cumulative IPC: 0.888893 (Simulation time: 3 hr 10 min 32 sec) 
Heartbeat CPU 2 instructions: 270000002 cycles: 539253718 heartbeat IPC: 0.479582 cumulative IPC: 0.461524 (Simulation time: 3 hr 11 min 12 sec) 
Heartbeat CPU 0 instructions: 420000000 cycles: 540606029 heartbeat IPC: 1.15442 cumulative IPC: 0.741055 (Simulation time: 3 hr 11 min 40 sec) 
Heartbeat CPU 1 instructions: 450000001 cycles: 546759966 heartbeat IPC: 0.836207 cumulative IPC: 0.792328 (Simulation time: 3 hr 13 min 38 sec) 
Heartbeat CPU 4 instructions: 120000000 cycles: 546804582 heartbeat IPC: 0.1897 cumulative IPC: 0.173773 (Simulation time: 3 hr 13 min 39 sec) 
Heartbeat CPU 3 instructions: 250000001 cycles: 549984576 heartbeat IPC: 0.479088 cumulative IPC: 0.425724 (Simulation time: 3 hr 14 min 29 sec) 
Heartbeat CPU 0 instructions: 430000001 cycles: 555506080 heartbeat IPC: 0.671139 cumulative IPC: 0.739134 (Simulation time: 3 hr 15 min 58 sec) 
Heartbeat CPU 1 instructions: 460000000 cycles: 559018688 heartbeat IPC: 0.815746 cumulative IPC: 0.792854 (Simulation time: 3 hr 16 min 57 sec) 
Heartbeat CPU 2 instructions: 280000000 cycles: 559947591 heartbeat IPC: 0.483235 cumulative IPC: 0.462346 (Simulation time: 3 hr 17 min 13 sec) 
Heartbeat CPU 7 instructions: 510000001 cycles: 565319511 heartbeat IPC: 0.356363 cumulative IPC: 0.86182 (Simulation time: 3 hr 18 min 42 sec) 
Heartbeat CPU 5 instructions: 200000000 cycles: 566882115 heartbeat IPC: 0.30403 cumulative IPC: 0.325187 (Simulation time: 3 hr 19 min 11 sec) 
Heartbeat CPU 0 instructions: 440000000 cycles: 570596862 heartbeat IPC: 0.662656 cumulative IPC: 0.737063 (Simulation time: 3 hr 20 min 22 sec) 
Heartbeat CPU 1 instructions: 470000001 cycles: 570916443 heartbeat IPC: 0.840495 cumulative IPC: 0.793871 (Simulation time: 3 hr 20 min 28 sec) 
Heartbeat CPU 7 instructions: 520000000 cycles: 577471255 heartbeat IPC: 0.822927 cumulative IPC: 0.860982 (Simulation time: 3 hr 22 min 31 sec) 
Heartbeat CPU 2 instructions: 290000001 cycles: 580260803 heartbeat IPC: 0.49229 cumulative IPC: 0.463419 (Simulation time: 3 hr 23 min 22 sec) 
Heartbeat CPU 3 instructions: 260000000 cycles: 580273025 heartbeat IPC: 0.330159 cumulative IPC: 0.420618 (Simulation time: 3 hr 23 min 22 sec) 
Heartbeat CPU 6 instructions: 100000000 cycles: 582113074 heartbeat IPC: 0.134855 cumulative IPC: 0.140124 (Simulation time: 3 hr 23 min 57 sec) 
Heartbeat CPU 1 instructions: 480000000 cycles: 582809775 heartbeat IPC: 0.840807 cumulative IPC: 0.794851 (Simulation time: 3 hr 24 min 10 sec) 
Heartbeat CPU 0 instructions: 450000000 cycles: 585691112 heartbeat IPC: 0.662504 cumulative IPC: 0.735096 (Simulation time: 3 hr 25 min 7 sec) 
Heartbeat CPU 7 instructions: 530000001 cycles: 591938635 heartbeat IPC: 0.69121 cumulative IPC: 0.856737 (Simulation time: 3 hr 27 min 1 sec) 
Finished CPU 4 instructions: 100000002 cycles: 580724523 cumulative IPC: 0.172199 (Simulation time: 3 hr 27 min 39 sec) 
Heartbeat CPU 1 instructions: 490000000 cycles: 594503636 heartbeat IPC: 0.85515 cumulative IPC: 0.796064 (Simulation time: 3 hr 27 min 47 sec) 
Heartbeat CPU 5 instructions: 210000000 cycles: 596963658 heartbeat IPC: 0.33243 cumulative IPC: 0.32556 (Simulation time: 3 hr 28 min 31 sec) 
Heartbeat CPU 2 instructions: 300000000 cycles: 602098614 heartbeat IPC: 0.457921 cumulative IPC: 0.463215 (Simulation time: 3 hr 29 min 56 sec) 
Heartbeat CPU 0 instructions: 460000000 cycles: 603355942 heartbeat IPC: 0.566097 cumulative IPC: 0.730036 (Simulation time: 3 hr 30 min 17 sec) 
Heartbeat CPU 7 instructions: 540000000 cycles: 607165628 heartbeat IPC: 0.656728 cumulative IPC: 0.851608 (Simulation time: 3 hr 31 min 22 sec) 
Heartbeat CPU 3 instructions: 270000001 cycles: 607348264 heartbeat IPC: 0.369341 cumulative IPC: 0.418281 (Simulation time: 3 hr 31 min 25 sec) 
Heartbeat CPU 1 instructions: 500000000 cycles: 609069242 heartbeat IPC: 0.686549 cumulative IPC: 0.793387 (Simulation time: 3 hr 31 min 54 sec) 
Heartbeat CPU 4 instructions: 130000003 cycles: 617135129 heartbeat IPC: 0.142186 cumulative IPC: 0.170094 (Simulation time: 3 hr 34 min 16 sec) 
Heartbeat CPU 0 instructions: 470000000 cycles: 619245334 heartbeat IPC: 0.629351 cumulative IPC: 0.727396 (Simulation time: 3 hr 34 min 56 sec) 
Heartbeat CPU 7 instructions: 550000001 cycles: 619815068 heartbeat IPC: 0.790549 cumulative IPC: 0.850335 (Simulation time: 3 hr 35 min 6 sec) 
Heartbeat CPU 1 instructions: 510000003 cycles: 622831441 heartbeat IPC: 0.726628 cumulative IPC: 0.791879 (Simulation time: 3 hr 35 min 57 sec) 
Heartbeat CPU 2 instructions: 310000002 cycles: 625543779 heartbeat IPC: 0.426527 cumulative IPC: 0.46181 (Simulation time: 3 hr 36 min 41 sec) 
Heartbeat CPU 5 instructions: 220000000 cycles: 628983774 heartbeat IPC: 0.312304 cumulative IPC: 0.32487 (Simulation time: 3 hr 37 min 35 sec) 
Heartbeat CPU 7 instructions: 560000000 cycles: 632667414 heartbeat IPC: 0.778068 cumulative IPC: 0.848835 (Simulation time: 3 hr 38 min 38 sec) 
Heartbeat CPU 3 instructions: 280000000 cycles: 635739337 heartbeat IPC: 0.352223 cumulative IPC: 0.415267 (Simulation time: 3 hr 39 min 40 sec) 
Heartbeat CPU 0 instructions: 480000000 cycles: 635894139 heartbeat IPC: 0.600644 cumulative IPC: 0.724006 (Simulation time: 3 hr 39 min 43 sec) 
Heartbeat CPU 1 instructions: 520000000 cycles: 637073873 heartbeat IPC: 0.702127 cumulative IPC: 0.78983 (Simulation time: 3 hr 40 min 6 sec) 
Heartbeat CPU 6 instructions: 110000002 cycles: 639319302 heartbeat IPC: 0.174806 cumulative IPC: 0.143294 (Simulation time: 3 hr 40 min 52 sec) 
Heartbeat CPU 7 instructions: 570000002 cycles: 644440184 heartbeat IPC: 0.849418 cumulative IPC: 0.848846 (Simulation time: 3 hr 42 min 33 sec) 
Heartbeat CPU 0 instructions: 490000003 cycles: 645339641 heartbeat IPC: 1.05871 cumulative IPC: 0.729008 (Simulation time: 3 hr 42 min 51 sec) 
Heartbeat CPU 2 instructions: 320000000 cycles: 647521328 heartbeat IPC: 0.45501 cumulative IPC: 0.461575 (Simulation time: 3 hr 43 min 32 sec) 
Heartbeat CPU 1 instructions: 530000003 cycles: 649561502 heartbeat IPC: 0.800793 cumulative IPC: 0.790045 (Simulation time: 3 hr 44 min 11 sec) 
Heartbeat CPU 0 instructions: 500000000 cycles: 654588493 heartbeat IPC: 1.08121 cumulative IPC: 0.734088 (Simulation time: 3 hr 45 min 45 sec) 
Heartbeat CPU 7 instructions: 580000000 cycles: 655879042 heartbeat IPC: 0.874213 cumulative IPC: 0.849297 (Simulation time: 3 hr 46 min 10 sec) 
Heartbeat CPU 3 instructions: 290000000 cycles: 659221697 heartbeat IPC: 0.425852 cumulative IPC: 0.415652 (Simulation time: 3 hr 47 min 17 sec) 
Heartbeat CPU 5 instructions: 230000003 cycles: 661425132 heartbeat IPC: 0.308249 cumulative IPC: 0.324038 (Simulation time: 3 hr 47 min 58 sec) 
Heartbeat CPU 1 instructions: 540000000 cycles: 661822961 heartbeat IPC: 0.815563 cumulative IPC: 0.790527 (Simulation time: 3 hr 48 min 5 sec) 
Heartbeat CPU 0 instructions: 510000000 cycles: 664163735 heartbeat IPC: 1.04436 cumulative IPC: 0.738653 (Simulation time: 3 hr 48 min 49 sec) 
Heartbeat CPU 7 instructions: 590000002 cycles: 667542829 heartbeat IPC: 0.857355 cumulative IPC: 0.849441 (Simulation time: 3 hr 49 min 53 sec) 
Heartbeat CPU 2 instructions: 330000003 cycles: 668111960 heartbeat IPC: 0.485658 cumulative IPC: 0.462332 (Simulation time: 3 hr 50 min 4 sec) 
Heartbeat CPU 0 instructions: 520000000 cycles: 673028865 heartbeat IPC: 1.12802 cumulative IPC: 0.743886 (Simulation time: 3 hr 51 min 43 sec) 
Heartbeat CPU 1 instructions: 550000000 cycles: 673872834 heartbeat IPC: 0.829884 cumulative IPC: 0.791245 (Simulation time: 3 hr 51 min 59 sec) 
Heartbeat CPU 7 instructions: 600000000 cycles: 679166994 heartbeat IPC: 0.860277 cumulative IPC: 0.84963 (Simulation time: 3 hr 53 min 36 sec) 
Heartbeat CPU 4 instructions: 140000000 cycles: 681854396 heartbeat IPC: 0.154513 cumulative IPC: 0.168585 (Simulation time: 3 hr 54 min 27 sec) 
Heartbeat CPU 0 instructions: 530000003 cycles: 682409455 heartbeat IPC: 1.06603 cumulative IPC: 0.748403 (Simulation time: 3 hr 54 min 38 sec) 
Heartbeat CPU 1 instructions: 560000000 cycles: 686488339 heartbeat IPC: 0.792675 cumulative IPC: 0.791272 (Simulation time: 3 hr 55 min 51 sec) 
Heartbeat CPU 3 instructions: 300000000 cycles: 687431036 heartbeat IPC: 0.354493 cumulative IPC: 0.413093 (Simulation time: 3 hr 56 min 8 sec) 
Heartbeat CPU 2 instructions: 340000000 cycles: 689603819 heartbeat IPC: 0.465292 cumulative IPC: 0.462426 (Simulation time: 3 hr 56 min 43 sec) 
Heartbeat CPU 5 instructions: 240000000 cycles: 695265752 heartbeat IPC: 0.295503 cumulative IPC: 0.322622 (Simulation time: 3 hr 58 min 8 sec) 
Heartbeat CPU 0 instructions: 540000000 cycles: 696102327 heartbeat IPC: 0.730307 cumulative IPC: 0.74804 (Simulation time: 3 hr 58 min 21 sec) 
Heartbeat CPU 7 instructions: 610000000 cycles: 700248173 heartbeat IPC: 0.474357 cumulative IPC: 0.838113 (Simulation time: 3 hr 59 min 33 sec) 
Heartbeat CPU 1 instructions: 570000003 cycles: 701160625 heartbeat IPC: 0.681557 cumulative IPC: 0.788932 (Simulation time: 3 hr 59 min 50 sec) 
Heartbeat CPU 6 instructions: 120000000 cycles: 707696517 heartbeat IPC: 0.146248 cumulative IPC: 0.143585 (Simulation time: 4 hr 1 min 41 sec) 
Finished CPU 6 instructions: 100000001 cycles: 695305350 cumulative IPC: 0.143822 (Simulation time: 4 hr 1 min 58 sec) 

CPU 0 Branch Prediction Accuracy: 99.2885% MPKI: 0.35715

CPU 1 Branch Prediction Accuracy: 99.9304% MPKI: 0.0344829

CPU 2 Branch Prediction Accuracy: 97.0908% MPKI: 0.511746

CPU 3 Branch Prediction Accuracy: 99.1885% MPKI: 1.99319

CPU 4 Branch Prediction Accuracy: 99.2456% MPKI: 1.67213

CPU 5 Branch Prediction Accuracy: 92.4865% MPKI: 13.5665

CPU 6 Branch Prediction Accuracy: 98.5281% MPKI: 1.67996

CPU 7 Branch Prediction Accuracy: 95.7793% MPKI: 3.3997

ChampSim completed all CPUs

Total Simulation Statistics (not including warmup)

CPU 0 cumulative IPC: 0.743487 instructions: 516950451 cycles: 695305349
L1D TOTAL     ACCESS:  126002300  HIT:  117394029  MISS:    8608271
L1D LOAD      ACCESS:  106278754  HIT:   99134896  MISS:    7143858
L1D RFO       ACCESS:   19723546  HIT:   18259133  MISS:    1464413
L1D PREFETCH  ACCESS:          0  HIT:          0  MISS:          0
L1D WRITEBACK ACCESS:          0  HIT:          0  MISS:          0
L1I TOTAL     ACCESS:  139681343  HIT:  139666809  MISS:      14534
L1I LOAD      ACCESS:  139681343  HIT:  139666809  MISS:      14534
L1I RFO       ACCESS:          0  HIT:          0  MISS:          0
L1I PREFETCH  ACCESS:          0  HIT:          0  MISS:          0
L1I WRITEBACK ACCESS:          0  HIT:          0  MISS:          0
L2C TOTAL     ACCESS:   14978620  HIT:    8626357  MISS:    6352263
L2C LOAD      ACCESS:    7158097  HIT:    5317920  MISS:    1840177
L2C RFO       ACCESS:    1464377  HIT:     299985  MISS:    1164392
L2C PREFETCH  ACCESS:    3391484  HIT:      52644  MISS:    3338840
L2C WRITEBACK ACCESS:    2964662  HIT:    2955808  MISS:       8854

L2C Best-offset prefetcher final stats
LLC TOTAL     ACCESS:    9123349  HIT:    3946264  MISS:    5177085
LLC LOAD      ACCESS:    1313633  HIT:     446858  MISS:     866775
LLC RFO       ACCESS:    1164143  HIT:     183159  MISS:     980984
LLC PREFETCH  ACCESS:    4148148  HIT:     835712  MISS:    3312436
LLC WRITEBACK ACCESS:    2497425  HIT:    2480535  MISS:      16890

CPU 1 cumulative IPC: 0.7892 instructions: 548734809 cycles: 695305349
L1D TOTAL     ACCESS:  165329520  HIT:  155056277  MISS:   10273243
L1D LOAD      ACCESS:  146942167  HIT:  136726755  MISS:   10215412
L1D RFO       ACCESS:   18387353  HIT:   18329522  MISS:      57831
L1D PREFETCH  ACCESS:          0  HIT:          0  MISS:          0
L1D WRITEBACK ACCESS:          0  HIT:          0  MISS:          0
L1I TOTAL     ACCESS:  138593779  HIT:  138593779  MISS:          0
L1I LOAD      ACCESS:  138593779  HIT:  138593779  MISS:          0
L1I RFO       ACCESS:          0  HIT:          0  MISS:          0
L1I PREFETCH  ACCESS:          0  HIT:          0  MISS:          0
L1I WRITEBACK ACCESS:          0  HIT:          0  MISS:          0
L2C TOTAL     ACCESS:   18391818  HIT:   11162460  MISS:    7229358
L2C LOAD      ACCESS:   10214942  HIT:    9008089  MISS:    1206853
L2C RFO       ACCESS:      57831  HIT:          0  MISS:      57831
L2C PREFETCH  ACCESS:    5975222  HIT:      10548  MISS:    5964674
L2C WRITEBACK ACCESS:    2143823  HIT:    2143823  MISS:          0

L2C Best-offset prefetcher final stats
LLC TOTAL     ACCESS:    7311089  HIT:    1258969  MISS:    6052120
LLC LOAD      ACCESS:     426541  HIT:      90246  MISS:     336295
LLC RFO       ACCESS:      57831  HIT:        551  MISS:      57280
LLC PREFETCH  ACCESS:    6768714  HIT:    1110801  MISS:    5657913
LLC WRITEBACK ACCESS:      58003  HIT:      57371  MISS:        632

CPU 2 cumulative IPC: 0.462229 instructions: 321390107 cycles: 695305349
L1D TOTAL     ACCESS:   91002928  HIT:   65684947  MISS:   25317981
L1D LOAD      ACCESS:   32154386  HIT:   28311858  MISS:    3842528
L1D RFO       ACCESS:   58848542  HIT:   37373089  MISS:   21475453
L1D PREFETCH  ACCESS:          0  HIT:          0  MISS:          0
L1D WRITEBACK ACCESS:          0  HIT:          0  MISS:          0
L1I TOTAL     ACCESS:   77490456  HIT:   77490456  MISS:          0
L1I LOAD      ACCESS:   77490456  HIT:   77490456  MISS:          0
L1I RFO       ACCESS:          0  HIT:          0  MISS:          0
L1I PREFETCH  ACCESS:          0  HIT:          0  MISS:          0
L1I WRITEBACK ACCESS:          0  HIT:          0  MISS:          0
L2C TOTAL     ACCESS:   49875360  HIT:   30803744  MISS:   19071616
L2C LOAD      ACCESS:    3842528  HIT:    3082564  MISS:     759964
L2C RFO       ACCESS:   21475282  HIT:    6252045  MISS:   15223237
L2C PREFETCH  ACCESS:    3082097  HIT:         91  MISS:    3082006
L2C WRITEBACK ACCESS:   21475453  HIT:   21469044  MISS:       6409

L2C Best-offset prefetcher final stats
LLC TOTAL     ACCESS:   34307995  HIT:   18975966  MISS:   15332029
LLC LOAD      ACCESS:     441903  HIT:      26410  MISS:     415493
LLC RFO       ACCESS:   15214487  HIT:    3716037  MISS:   11498450
LLC PREFETCH  ACCESS:    3422054  HIT:       4731  MISS:    3417323
LLC WRITEBACK ACCESS:   15229551  HIT:   15228788  MISS:        763

CPU 3 cumulative IPC: 0.41218 instructions: 286591019 cycles: 695305349
L1D TOTAL     ACCESS:   75240702  HIT:   63696584  MISS:   11544118
L1D LOAD      ACCESS:   51808756  HIT:   40786162  MISS:   11022594
L1D RFO       ACCESS:   23431946  HIT:   22910422  MISS:     521524
L1D PREFETCH  ACCESS:          0  HIT:          0  MISS:          0
L1D WRITEBACK ACCESS:          0  HIT:          0  MISS:          0
L1I TOTAL     ACCESS:  122770827  HIT:  121930322  MISS:     840505
L1I LOAD      ACCESS:  122770827  HIT:  121930322  MISS:     840505
L1I RFO       ACCESS:          0  HIT:          0  MISS:          0
L1I PREFETCH  ACCESS:          0  HIT:          0  MISS:          0
L1I WRITEBACK ACCESS:          0  HIT:          0  MISS:          0
L2C TOTAL     ACCESS:   14948885  HIT:   11718520  MISS:    3230365
L2C LOAD      ACCESS:   11863049  HIT:    9968534  MISS:    1894515
L2C RFO       ACCESS:     521514  HIT:     142733  MISS:     378781
L2C PREFETCH  ACCESS:    1693074  HIT:     736431  MISS:     956643
L2C WRITEBACK ACCESS:     871248  HIT:     870822  MISS:        426

L2C Best-offset prefetcher final stats
LLC TOTAL     ACCESS:    3764826  HIT:    3083949  MISS:     680877
LLC LOAD      ACCESS:    1788010  HIT:    1645550  MISS:     142460
LLC RFO       ACCESS:     372791  HIT:      15456  MISS:     357335
LLC PREFETCH  ACCESS:    1069979  HIT:     966640  MISS:     103339
LLC WRITEBACK ACCESS:     534046  HIT:     456303  MISS:      77743

CPU 4 cumulative IPC: 0.169064 instructions: 117551258 cycles: 695305349
L1D TOTAL     ACCESS:   27597429  HIT:   24294170  MISS:    3303259
L1D LOAD      ACCESS:   22117281  HIT:   18885477  MISS:    3231804
L1D RFO       ACCESS:    5480148  HIT:    5408693  MISS:      71455
L1D PREFETCH  ACCESS:          0  HIT:          0  MISS:          0
L1D WRITEBACK ACCESS:          0  HIT:          0  MISS:          0
L1I TOTAL     ACCESS:   37510583  HIT:   37095429  MISS:     415154
L1I LOAD      ACCESS:   37510583  HIT:   37095429  MISS:     415154
L1I RFO       ACCESS:          0  HIT:          0  MISS:          0
L1I PREFETCH  ACCESS:          0  HIT:          0  MISS:          0
L1I WRITEBACK ACCESS:          0  HIT:          0  MISS:          0
L2C TOTAL     ACCESS:    6630190  HIT:    1394173  MISS:    5236017
L2C LOAD      ACCESS:    3646878  HIT:     961791  MISS:    2685087
L2C RFO       ACCESS:      71445  HIT:      33716  MISS:      37729
L2C PREFETCH  ACCESS:    2763416  HIT:     252503  MISS:    2510913
L2C WRITEBACK ACCESS:     148451  HIT:     146163  MISS:       2288

L2C Best-offset prefetcher final stats
LLC TOTAL     ACCESS:    5306643  HIT:     705183  MISS:    4601460
LLC LOAD      ACCESS:    2551053  HIT:     323021  MISS:    2228032
LLC RFO       ACCESS:      37714  HIT:       8964  MISS:      28750
LLC PREFETCH  ACCESS:    2649748  HIT:     305546  MISS:    2344202
LLC WRITEBACK ACCESS:      68128  HIT:      67652  MISS:        476

CPU 5 cumulative IPC: 0.321969 instructions: 223866744 cycles: 695305349
L1D TOTAL     ACCESS:   74937211  HIT:   72580378  MISS:    2356833
L1D LOAD      ACCESS:   46243460  HIT:   44134013  MISS:    2109447
L1D RFO       ACCESS:   28693751  HIT:   28446365  MISS:     247386
L1D PREFETCH  ACCESS:          0  HIT:          0  MISS:          0
L1D WRITEBACK ACCESS:          0  HIT:          0  MISS:          0
L1I TOTAL     ACCESS:   60351760  HIT:   59383454  MISS:     968306
L1I LOAD      ACCESS:   60351760  HIT:   59383454  MISS:     968306
L1I RFO       ACCESS:          0  HIT:          0  MISS:          0
L1I PREFETCH  ACCESS:          0  HIT:          0  MISS:          0
L1I WRITEBACK ACCESS:          0  HIT:          0  MISS:          0
L2C TOTAL     ACCESS:    4823489  HIT:    3145229  MISS:    1678260
L2C LOAD      ACCESS:    3077724  HIT:    2270350  MISS:     807374
L2C RFO       ACCESS:     247380  HIT:      90726  MISS:     156654
L2C PREFETCH  ACCESS:     913903  HIT:     205626  MISS:     708277
L2C WRITEBACK ACCESS:     584482  HIT:     578527  MISS:       5955

L2C Best-offset prefetcher final stats
LLC TOTAL     ACCESS:    2013726  HIT:    1009630  MISS:    1004096
LLC LOAD      ACCESS:     800323  HIT:     387509  MISS:     412814
LLC RFO       ACCESS:     156626  HIT:      33575  MISS:     123051
LLC PREFETCH  ACCESS:     717690  HIT:     301235  MISS:     416455
LLC WRITEBACK ACCESS:     339087  HIT:     287311  MISS:      51776

CPU 6 cumulative IPC: 0.143822 instructions: 100000001 cycles: 695305350
L1D TOTAL     ACCESS:   47892618  HIT:   42839484  MISS:    5053134
L1D LOAD      ACCESS:   24064253  HIT:   19252034  MISS:    4812219
L1D RFO       ACCESS:   23828365  HIT:   23587450  MISS:     240915
L1D PREFETCH  ACCESS:          0  HIT:          0  MISS:          0
L1D WRITEBACK ACCESS:          0  HIT:          0  MISS:          0
L1I TOTAL     ACCESS:   33144314  HIT:   33144314  MISS:          0
L1I LOAD      ACCESS:   33144314  HIT:   33144314  MISS:          0
L1I RFO       ACCESS:          0  HIT:          0  MISS:          0
L1I PREFETCH  ACCESS:          0  HIT:          0  MISS:          0
L1I WRITEBACK ACCESS:          0  HIT:          0  MISS:          0
L2C TOTAL     ACCESS:    9236271  HIT:    2819255  MISS:    6417016
L2C LOAD      ACCESS:    4812192  HIT:     506906  MISS:    4305286
L2C RFO       ACCESS:     240897  HIT:      23567  MISS:     217330
L2C PREFETCH  ACCESS:    3616336  HIT:    1726800  MISS:    1889536
L2C WRITEBACK ACCESS:     566846  HIT:     561982  MISS:       4864

L2C Best-offset prefetcher final stats
LLC TOTAL     ACCESS:    6883276  HIT:     493939  MISS:    6389337
LLC LOAD      ACCESS:    4016911  HIT:      16700  MISS:    4000211
LLC RFO       ACCESS:     217330  HIT:        738  MISS:     216592
LLC PREFETCH  ACCESS:    2177910  HIT:       7728  MISS:    2170182
LLC WRITEBACK ACCESS:     471125  HIT:     468773  MISS:       2352

CPU 7 cumulative IPC: 0.837337 instructions: 582205155 cycles: 695305350
L1D TOTAL     ACCESS:  102229263  HIT:   89096187  MISS:   13133076
L1D LOAD      ACCESS:   66624800  HIT:   58215994  MISS:    8408806
L1D RFO       ACCESS:   35604463  HIT:   30880193  MISS:    4724270
L1D PREFETCH  ACCESS:          0  HIT:          0  MISS:          0
L1D WRITEBACK ACCESS:          0  HIT:          0  MISS:          0
L1I TOTAL     ACCESS:  143997605  HIT:  143987726  MISS:       9879
L1I LOAD      ACCESS:  143997605  HIT:  143987726  MISS:       9879
L1I RFO       ACCESS:          0  HIT:          0  MISS:          0
L1I PREFETCH  ACCESS:          0  HIT:          0  MISS:          0
L1I WRITEBACK ACCESS:          0  HIT:          0  MISS:          0
L2C TOTAL     ACCESS:   23498017  HIT:   14153606  MISS:    9344411
L2C LOAD      ACCESS:    8418569  HIT:    6827852  MISS:    1590717
L2C RFO       ACCESS:    4722561  HIT:    1383896  MISS:    3338665
L2C PREFETCH  ACCESS:    4554507  HIT:     148363  MISS:    4406144
L2C WRITEBACK ACCESS:    5802380  HIT:    5793495  MISS:       8885

L2C Best-offset prefetcher final stats
LLC TOTAL     ACCESS:   13798252  HIT:   10274403  MISS:    3523849
LLC LOAD      ACCESS:    1080502  HIT:     856341  MISS:     224161
LLC RFO       ACCESS:    3338624  HIT:    1645898  MISS:    1692726
LLC PREFETCH  ACCESS:    5183131  HIT:    3587342  MISS:    1595789
LLC WRITEBACK ACCESS:    4195995  HIT:    4184822  MISS:      11173

Region of Interest Statistics

CPU 0 cumulative IPC: 0.861671 instructions: 100000000 cycles: 116053524
L1D TOTAL     ACCESS:   23454211  HIT:   22167009  MISS:    1287202
L1D LOAD      ACCESS:   20101056  HIT:   19071682  MISS:    1029374
L1D RFO       ACCESS:    3353155  HIT:    3095327  MISS:     257828
L1D PREFETCH  ACCESS:          0  HIT:          0  MISS:          0
L1D WRITEBACK ACCESS:          0  HIT:          0  MISS:          0
L1D PREFETCH  REQUESTED:          0  ISSUED:          0  USEFUL:          0  USELESS:          0
L1I TOTAL     ACCESS:   27537899  HIT:   27535738  MISS:       2161
L1I LOAD      ACCESS:   27537899  HIT:   27535738  MISS:       2161
L1I RFO       ACCESS:          0  HIT:          0  MISS:          0
L1I PREFETCH  ACCESS:          0  HIT:          0  MISS:          0
L1I WRITEBACK ACCESS:          0  HIT:          0  MISS:          0
L1I PREFETCH  REQUESTED:          0  ISSUED:          0  USEFUL:          0  USELESS:          0
L2C TOTAL     ACCESS:    2288728  HIT:    1351729  MISS:     936999
L2C LOAD      ACCESS:    1031506  HIT:     837244  MISS:     194262
L2C RFO       ACCESS:     257828  HIT:      25448  MISS:     232380
L2C PREFETCH  ACCESS:     513306  HIT:       4591  MISS:     508715
L2C WRITEBACK ACCESS:     486088  HIT:     484446  MISS:       1642
L2C PREFETCH  REQUESTED:    4679727  ISSUED:    4679199  USEFUL:    3522405  USELESS:     249720
LLC TOTAL     ACCESS:    1403553  HIT:     706862  MISS:     696691
LLC LOAD      ACCESS:     107635  HIT:      37291  MISS:      70344
LLC RFO       ACCESS:     232379  HIT:      63984  MISS:     168395
LLC PREFETCH  ACCESS:     609813  HIT:     155070  MISS:     454743
LLC WRITEBACK ACCESS:     453726  HIT:     450517  MISS:       3209
LLC PREFETCH  REQUESTED:          0  ISSUED:          0  USEFUL:     904236  USELESS:   19792384
Major fault: 0 Minor fault: 10908

CPU 1 cumulative IPC: 0.799001 instructions: 100000001 cycles: 125156295
L1D TOTAL     ACCESS:   30134319  HIT:   28262171  MISS:    1872148
L1D LOAD      ACCESS:   26783354  HIT:   24921757  MISS:    1861597
L1D RFO       ACCESS:    3350965  HIT:    3340414  MISS:      10551
L1D PREFETCH  ACCESS:          0  HIT:          0  MISS:          0
L1D WRITEBACK ACCESS:          0  HIT:          0  MISS:          0
L1D PREFETCH  REQUESTED:          0  ISSUED:          0  USEFUL:          0  USELESS:          0
L1I TOTAL     ACCESS:   25243674  HIT:   25243674  MISS:          0
L1I LOAD      ACCESS:   25243674  HIT:   25243674  MISS:          0
L1I RFO       ACCESS:          0  HIT:          0  MISS:          0
L1I PREFETCH  ACCESS:          0  HIT:          0  MISS:          0
L1I WRITEBACK ACCESS:          0  HIT:          0  MISS:          0
L1I PREFETCH  REQUESTED:          0  ISSUED:          0  USEFUL:          0  USELESS:          0
L2C TOTAL     ACCESS:    3359779  HIT:    2041223  MISS:    1318556
L2C LOAD      ACCESS:    1861515  HIT:    1648574  MISS:     212941
L2C RFO       ACCESS:      10551  HIT:          0  MISS:      10551
L2C PREFETCH  ACCESS:    1097062  HIT:       1998  MISS:    1095064
L2C WRITEBACK ACCESS:     390651  HIT:     390651  MISS:          0
L2C PREFETCH  REQUESTED:    7131736  ISSUED:    7131736  USEFUL:    6111831  USELESS:     192423
LLC TOTAL     ACCESS:    1333388  HIT:     229452  MISS:    1103936
LLC LOAD      ACCESS:      79812  HIT:      16771  MISS:      63041
LLC RFO       ACCESS:      10551  HIT:        101  MISS:      10450
LLC PREFETCH  ACCESS:    1232481  HIT:     202158  MISS:    1030323
LLC WRITEBACK ACCESS:      10544  HIT:      10422  MISS:        122
LLC PREFETCH  REQUESTED:          0  ISSUED:          0  USEFUL:     904236  USELESS:   19792384
Major fault: 0 Minor fault: 189381

CPU 2 cumulative IPC: 0.463203 instructions: 100000000 cycles: 215887962
L1D TOTAL     ACCESS:   28283068  HIT:   20444694  MISS:    7838374
L1D LOAD      ACCESS:   10005898  HIT:    8816293  MISS:    1189605
L1D RFO       ACCESS:   18277170  HIT:   11628401  MISS:    6648769
L1D PREFETCH  ACCESS:          0  HIT:          0  MISS:          0
L1D WRITEBACK ACCESS:          0  HIT:          0  MISS:          0
L1D PREFETCH  REQUESTED:          0  ISSUED:          0  USEFUL:          0  USELESS:          0
L1I TOTAL     ACCESS:   24108621  HIT:   24108621  MISS:          0
L1I LOAD      ACCESS:   24108621  HIT:   24108621  MISS:          0
L1I RFO       ACCESS:          0  HIT:          0  MISS:          0
L1I PREFETCH  ACCESS:          0  HIT:          0  MISS:          0
L1I WRITEBACK ACCESS:          0  HIT:          0  MISS:          0
L1I PREFETCH  REQUESTED:          0  ISSUED:          0  USEFUL:          0  USELESS:          0
L2C TOTAL     ACCESS:   15442932  HIT:    9535484  MISS:    5907448
L2C LOAD      ACCESS:    1189605  HIT:     956090  MISS:     233515
L2C RFO       ACCESS:    6648719  HIT:    1932437  MISS:    4716282
L2C PREFETCH  ACCESS:     955840  HIT:         26  MISS:     955814
L2C WRITEBACK ACCESS:    6648768  HIT:    6646931  MISS:       1837
L2C PREFETCH  REQUESTED:    3833925  ISSUED:    3833925  USEFUL:    3323120  USELESS:       4760
LLC TOTAL     ACCESS:   10627782  HIT:    5881044  MISS:    4746738
LLC LOAD      ACCESS:     136964  HIT:       8033  MISS:     128931
LLC RFO       ACCESS:    4713577  HIT:    1153689  MISS:    3559888
LLC PREFETCH  ACCESS:    1059099  HIT:       1400  MISS:    1057699
LLC WRITEBACK ACCESS:    4718142  HIT:    4717922  MISS:        220
LLC PREFETCH  REQUESTED:          0  ISSUED:          0  USEFUL:     904236  USELESS:   19792384
Major fault: 0 Minor fault: 132885

CPU 3 cumulative IPC: 0.421891 instructions: 100000000 cycles: 237028304
L1D TOTAL     ACCESS:   25549902  HIT:   21572367  MISS:    3977535
L1D LOAD      ACCESS:   17652149  HIT:   13851394  MISS:    3800755
L1D RFO       ACCESS:    7897753  HIT:    7720973  MISS:     176780
L1D PREFETCH  ACCESS:          0  HIT:          0  MISS:          0
L1D WRITEBACK ACCESS:          0  HIT:          0  MISS:          0
L1D PREFETCH  REQUESTED:          0  ISSUED:          0  USEFUL:          0  USELESS:          0
L1I TOTAL     ACCESS:   43420022  HIT:   43138344  MISS:     281678
L1I LOAD      ACCESS:   43420022  HIT:   43138344  MISS:     281678
L1I RFO       ACCESS:          0  HIT:          0  MISS:          0
L1I PREFETCH  ACCESS:          0  HIT:          0  MISS:          0
L1I WRITEBACK ACCESS:          0  HIT:          0  MISS:          0
L1I PREFETCH  REQUESTED:          0  ISSUED:          0  USEFUL:          0  USELESS:          0
L2C TOTAL     ACCESS:    5134230  HIT:    4037162  MISS:    1097068
L2C LOAD      ACCESS:    4082415  HIT:    3436756  MISS:     645659
L2C RFO       ACCESS:     176780  HIT:      51689  MISS:     125091
L2C PREFETCH  ACCESS:     576993  HIT:     250800  MISS:     326193
L2C WRITEBACK ACCESS:     298042  HIT:     297917  MISS:        125
L2C PREFETCH  REQUESTED:    2238998  ISSUED:    2238998  USEFUL:     242623  USELESS:     801595
LLC TOTAL     ACCESS:    1274388  HIT:    1047256  MISS:     227132
LLC LOAD      ACCESS:     609121  HIT:     560504  MISS:      48617
LLC RFO       ACCESS:     123168  HIT:       5312  MISS:     117856
LLC PREFETCH  ACCESS:     364934  HIT:     329444  MISS:      35490
LLC WRITEBACK ACCESS:     177165  HIT:     151996  MISS:      25169
LLC PREFETCH  REQUESTED:          0  ISSUED:          0  USEFUL:     904236  USELESS:   19792384
Major fault: 0 Minor fault: 2664

CPU 4 cumulative IPC: 0.172199 instructions: 100000002 cycles: 580724523
L1D TOTAL     ACCESS:   23541827  HIT:   20743227  MISS:    2798600
L1D LOAD      ACCESS:   18845863  HIT:   16108157  MISS:    2737706
L1D RFO       ACCESS:    4695964  HIT:    4635070  MISS:      60894
L1D PREFETCH  ACCESS:          0  HIT:          0  MISS:          0
L1D WRITEBACK ACCESS:          0  HIT:          0  MISS:          0
L1D PREFETCH  REQUESTED:          0  ISSUED:          0  USEFUL:          0  USELESS:          0
L1I TOTAL     ACCESS:   31858611  HIT:   31498081  MISS:     360530
L1I LOAD      ACCESS:   31858611  HIT:   31498081  MISS:     360530
L1I RFO       ACCESS:          0  HIT:          0  MISS:          0
L1I PREFETCH  ACCESS:          0  HIT:          0  MISS:          0
L1I WRITEBACK ACCESS:          0  HIT:          0  MISS:          0
L1I PREFETCH  REQUESTED:          0  ISSUED:          0  USEFUL:          0  USELESS:          0
L2C TOTAL     ACCESS:    5614605  HIT:    1223293  MISS:    4391312
L2C LOAD      ACCESS:    3098177  HIT:     832313  MISS:    2265864
L2C RFO       ACCESS:      60885  HIT:      29123  MISS:      31762
L2C PREFETCH  ACCESS:    2329224  HIT:     237473  MISS:    2091751
L2C WRITEBACK ACCESS:     126319  HIT:     124384  MISS:       1935
L2C PREFETCH  REQUESTED:    3483032  ISSUED:    3483032  USEFUL:     575694  USELESS:    2392133
LLC TOTAL     ACCESS:    4449000  HIT:     608194  MISS:    3840806
LLC LOAD      ACCESS:    2133665  HIT:     280821  MISS:    1852844
LLC RFO       ACCESS:      31747  HIT:       7697  MISS:      24050
LLC PREFETCH  ACCESS:    2226361  HIT:     262868  MISS:    1963493
LLC WRITEBACK ACCESS:      57227  HIT:      56808  MISS:        419
LLC PREFETCH  REQUESTED:          0  ISSUED:          0  USEFUL:     904236  USELESS:   19792384
Major fault: 0 Minor fault: 11165

CPU 5 cumulative IPC: 0.337756 instructions: 100000001 cycles: 296071495
L1D TOTAL     ACCESS:   31606805  HIT:   30633386  MISS:     973419
L1D LOAD      ACCESS:   19587224  HIT:   18717442  MISS:     869782
L1D RFO       ACCESS:   12019581  HIT:   11915944  MISS:     103637
L1D PREFETCH  ACCESS:          0  HIT:          0  MISS:          0
L1D WRITEBACK ACCESS:          0  HIT:          0  MISS:          0
L1D PREFETCH  REQUESTED:          0  ISSUED:          0  USEFUL:          0  USELESS:          0
L1I TOTAL     ACCESS:   26957004  HIT:   26586367  MISS:     370637
L1I LOAD      ACCESS:   26957004  HIT:   26586367  MISS:     370637
L1I RFO       ACCESS:          0  HIT:          0  MISS:          0
L1I PREFETCH  ACCESS:          0  HIT:          0  MISS:          0
L1I WRITEBACK ACCESS:          0  HIT:          0  MISS:          0
L1I PREFETCH  REQUESTED:          0  ISSUED:          0  USEFUL:          0  USELESS:          0
L2C TOTAL     ACCESS:    2015535  HIT:    1232018  MISS:     783517
L2C LOAD      ACCESS:    1240411  HIT:     875410  MISS:     365001
L2C RFO       ACCESS:     103632  HIT:      30974  MISS:      72658
L2C PREFETCH  ACCESS:     436720  HIT:      93291  MISS:     343429
L2C WRITEBACK ACCESS:     234772  HIT:     232343  MISS:       2429
L2C PREFETCH  REQUESTED:    1089359  ISSUED:    1089359  USEFUL:     366799  USELESS:     466786
LLC TOTAL     ACCESS:     944245  HIT:     473827  MISS:     470418
LLC LOAD      ACCESS:     361231  HIT:     170881  MISS:     190350
LLC RFO       ACCESS:      72648  HIT:      12199  MISS:      60449
LLC PREFETCH  ACCESS:     348879  HIT:     147787  MISS:     201092
LLC WRITEBACK ACCESS:     161487  HIT:     142960  MISS:      18527
LLC PREFETCH  REQUESTED:          0  ISSUED:          0  USEFUL:     904236  USELESS:   19792384
Major fault: 0 Minor fault: 9855

CPU 6 cumulative IPC: 0.143822 instructions: 100000001 cycles: 695305350
L1D TOTAL     ACCESS:   47892618  HIT:   42839484  MISS:    5053134
L1D LOAD      ACCESS:   24064253  HIT:   19252034  MISS:    4812219
L1D RFO       ACCESS:   23828365  HIT:   23587450  MISS:     240915
L1D PREFETCH  ACCESS:          0  HIT:          0  MISS:          0
L1D WRITEBACK ACCESS:          0  HIT:          0  MISS:          0
L1D PREFETCH  REQUESTED:          0  ISSUED:          0  USEFUL:          0  USELESS:          0
L1I TOTAL     ACCESS:   33144314  HIT:   33144314  MISS:          0
L1I LOAD      ACCESS:   33144314  HIT:   33144314  MISS:          0
L1I RFO       ACCESS:          0  HIT:          0  MISS:          0
L1I PREFETCH  ACCESS:          0  HIT:          0  MISS:          0
L1I WRITEBACK ACCESS:          0  HIT:          0  MISS:          0
L1I PREFETCH  REQUESTED:          0  ISSUED:          0  USEFUL:          0  USELESS:          0
L2C TOTAL     ACCESS:    9236271  HIT:    2819255  MISS:    6417016
L2C LOAD      ACCESS:    4812192  HIT:     506906  MISS:    4305286
L2C RFO       ACCESS:     240897  HIT:      23567  MISS:     217330
L2C PREFETCH  ACCESS:    3616336  HIT:    1726800  MISS:    1889536
L2C WRITEBACK ACCESS:     566846  HIT:     561982  MISS:       4864
L2C PREFETCH  REQUESTED:    5096307  ISSUED:    5096307  USEFUL:     580331  USELESS:    1801200
LLC TOTAL     ACCESS:    6883276  HIT:     493939  MISS:    6389337
LLC LOAD      ACCESS:    4016911  HIT:      16700  MISS:    4000211
LLC RFO       ACCESS:     217330  HIT:        738  MISS:     216592
LLC PREFETCH  ACCESS:    2177910  HIT:       7728  MISS:    2170182
LLC WRITEBACK ACCESS:     471125  HIT:     468773  MISS:       2352
LLC PREFETCH  REQUESTED:          0  ISSUED:          0  USEFUL:     904236  USELESS:   19792384
Major fault: 0 Minor fault: 24195

CPU 7 cumulative IPC: 0.969376 instructions: 100000001 cycles: 103159109
L1D TOTAL     ACCESS:   14826548  HIT:   12999989  MISS:    1826559
L1D LOAD      ACCESS:   10402841  HIT:    9138372  MISS:    1264469
L1D RFO       ACCESS:    4423707  HIT:    3861617  MISS:     562090
L1D PREFETCH  ACCESS:          0  HIT:          0  MISS:          0
L1D WRITEBACK ACCESS:          0  HIT:          0  MISS:          0
L1D PREFETCH  REQUESTED:          0  ISSUED:          0  USEFUL:          0  USELESS:          0
L1I TOTAL     ACCESS:   21041318  HIT:   21038892  MISS:       2426
L1I LOAD      ACCESS:   21041318  HIT:   21038892  MISS:       2426
L1I RFO       ACCESS:          0  HIT:          0  MISS:          0
L1I PREFETCH  ACCESS:          0  HIT:          0  MISS:          0
L1I WRITEBACK ACCESS:          0  HIT:          0  MISS:          0
L1I PREFETCH  REQUESTED:          0  ISSUED:          0  USEFUL:          0  USELESS:          0
L2C TOTAL     ACCESS:    3476481  HIT:    1833413  MISS:    1643068
L2C LOAD      ACCESS:    1266895  HIT:    1007389  MISS:     259506
L2C RFO       ACCESS:     562089  HIT:      11749  MISS:     550340
L2C PREFETCH  ACCESS:     863932  HIT:      33031  MISS:     830901
L2C WRITEBACK ACCESS:     783565  HIT:     781244  MISS:       2321
L2C PREFETCH  REQUESTED:    5728451  ISSUED:    5728451  USEFUL:    4672891  USELESS:      69605
LLC TOTAL     ACCESS:    2412862  HIT:    1909997  MISS:     502865
LLC LOAD      ACCESS:     188331  HIT:     159486  MISS:      28845
LLC RFO       ACCESS:     550338  HIT:     273570  MISS:     276768
LLC PREFETCH  ACCESS:     938162  HIT:     740916  MISS:     197246
LLC WRITEBACK ACCESS:     736031  HIT:     736025  MISS:          6
LLC PREFETCH  REQUESTED:          0  ISSUED:          0  USEFUL:     904236  USELESS:   19792384
Major fault: 0 Minor fault: 16269

L2C Best-offset prefetcher final stats

L2C Best-offset prefetcher final stats

L2C Best-offset prefetcher final stats

L2C Best-offset prefetcher final stats

L2C Best-offset prefetcher final stats

L2C Best-offset prefetcher final stats

L2C Best-offset prefetcher final stats

L2C Best-offset prefetcher final stats

DRAM Statistics
 CHANNEL 0
 RQ ROW_BUFFER_HIT:    6306668  ROW_BUFFER_MISS:   14978352
 DBUS_CONGESTED:   47639679
 WQ ROW_BUFFER_HIT:     616416  ROW_BUFFER_MISS:    7868392  FULL:          0

 CHANNEL 1
 RQ ROW_BUFFER_HIT:    6304377  ROW_BUFFER_MISS:   15008620
 DBUS_CONGESTED:   47639679
 WQ ROW_BUFFER_HIT:     618638  ROW_BUFFER_MISS:    7864819  FULL:          0

 AVG_CONGESTED_CYCLE: 14
