
*** ChampSim Multicore Out-of-Order Simulator ***

Warmup Instructions: 20000000
Simulation Instructions: 100000000
Number of CPUs: 8
LLC sets: 16384
LLC ways: 16
Off-chip DRAM Size: 8192 MB Channels: 2 Width: 64-bit Data Rate: 1600 MT/s

CPU 0 runs /scratch/user/djimenez/champsim-traces/speccpu2017/xz/605.mcf_s/605.mcf_s-665B.champsimtrace.xz
CPU 1 runs /scratch/user/djimenez/champsim-traces/speccpu2017/xz/623.xalancbmk_s/623.xalancbmk_s-592B.champsimtrace.xz
CPU 2 runs /scratch/user/djimenez/champsim-traces/speccpu2017/xz/603.bwaves_s/603.bwaves_s-891B.champsimtrace.xz
CPU 3 runs /scratch/user/djimenez/champsim-traces/speccpu2017/xz/607.cactuBSSN_s/607.cactuBSSN_s-3477B.champsimtrace.xz
CPU 4 runs /scratch/user/djimenez/champsim-traces/speccpu2017/xz/623.xalancbmk_s/623.xalancbmk_s-165B.champsimtrace.xz
CPU 5 runs /scratch/user/djimenez/champsim-traces/speccpu2017/xz/654.roms_s/654.roms_s-1007B.champsimtrace.xz
CPU 6 runs /scratch/user/djimenez/champsim-traces/speccpu2017/xz/654.roms_s/654.roms_s-293B.champsimtrace.xz
CPU 7 runs /scratch/user/djimenez/champsim-traces/speccpu2017/xz/649.fotonik3d_s/649.fotonik3d_s-1176B.champsimtrace.xz
L2C Best-offset prefetcher
L2C Best-offset prefetcher
L2C Best-offset prefetcher
L2C Best-offset prefetcher
L2C Best-offset prefetcher
L2C Best-offset prefetcher
L2C Best-offset prefetcher
L2C Best-offset prefetcher
Heartbeat CPU 2 instructions: 10000003 cycles: 3200184 heartbeat IPC: 3.12482 cumulative IPC: 3.12482 (Simulation time: 0 hr 3 min 12 sec) 
Heartbeat CPU 4 instructions: 10000001 cycles: 4189864 heartbeat IPC: 2.38671 cumulative IPC: 2.38671 (Simulation time: 0 hr 4 min 11 sec) 
Heartbeat CPU 7 instructions: 10000000 cycles: 4399677 heartbeat IPC: 2.27289 cumulative IPC: 2.27289 (Simulation time: 0 hr 4 min 23 sec) 
Heartbeat CPU 6 instructions: 10000002 cycles: 4483760 heartbeat IPC: 2.23027 cumulative IPC: 2.23027 (Simulation time: 0 hr 4 min 28 sec) 
Heartbeat CPU 1 instructions: 10000002 cycles: 5044611 heartbeat IPC: 1.98231 cumulative IPC: 1.98231 (Simulation time: 0 hr 5 min 1 sec) 
Heartbeat CPU 5 instructions: 10000002 cycles: 5109326 heartbeat IPC: 1.95721 cumulative IPC: 1.95721 (Simulation time: 0 hr 5 min 4 sec) 
Heartbeat CPU 3 instructions: 10000003 cycles: 5769690 heartbeat IPC: 1.7332 cumulative IPC: 1.7332 (Simulation time: 0 hr 5 min 43 sec) 
Heartbeat CPU 2 instructions: 20000000 cycles: 6401362 heartbeat IPC: 3.12385 cumulative IPC: 3.12434 (Simulation time: 0 hr 6 min 20 sec) 
Heartbeat CPU 0 instructions: 10000001 cycles: 6505207 heartbeat IPC: 1.53723 cumulative IPC: 1.53723 (Simulation time: 0 hr 6 min 26 sec) 
Heartbeat CPU 4 instructions: 20000000 cycles: 8370126 heartbeat IPC: 2.39219 cumulative IPC: 2.38945 (Simulation time: 0 hr 8 min 16 sec) 
Heartbeat CPU 7 instructions: 20000000 cycles: 8798603 heartbeat IPC: 2.27328 cumulative IPC: 2.27309 (Simulation time: 0 hr 8 min 41 sec) 
Heartbeat CPU 6 instructions: 20000000 cycles: 9134167 heartbeat IPC: 2.15035 cumulative IPC: 2.18958 (Simulation time: 0 hr 9 min 1 sec) 
Heartbeat CPU 2 instructions: 30000003 cycles: 9602117 heartbeat IPC: 3.12426 cumulative IPC: 1.04144 (Simulation time: 0 hr 9 min 29 sec) 
Heartbeat CPU 1 instructions: 20000000 cycles: 10169142 heartbeat IPC: 1.9514 cumulative IPC: 1.96673 (Simulation time: 0 hr 10 min 3 sec) 
Heartbeat CPU 5 instructions: 20000000 cycles: 10218123 heartbeat IPC: 1.95741 cumulative IPC: 1.95731 (Simulation time: 0 hr 10 min 5 sec) 
Heartbeat CPU 3 instructions: 20000000 cycles: 11537816 heartbeat IPC: 1.73366 cumulative IPC: 1.73343 (Simulation time: 0 hr 11 min 23 sec) 
Heartbeat CPU 4 instructions: 30000001 cycles: 12545424 heartbeat IPC: 2.39504 cumulative IPC: 0.797103 (Simulation time: 0 hr 12 min 21 sec) 
Heartbeat CPU 2 instructions: 40000000 cycles: 12803252 heartbeat IPC: 3.12389 cumulative IPC: 1.5621 (Simulation time: 0 hr 12 min 36 sec) 
Heartbeat CPU 0 instructions: 20000000 cycles: 12996968 heartbeat IPC: 1.54041 cumulative IPC: 1.53882 (Simulation time: 0 hr 12 min 48 sec) 

Warmup complete CPU 0 instructions: 20000001 cycles: 12996970 (Simulation time: 0 hr 12 min 48 sec) 
Warmup complete CPU 1 instructions: 24705492 cycles: 12996969 (Simulation time: 0 hr 12 min 48 sec) 
Warmup complete CPU 2 instructions: 40603945 cycles: 12996969 (Simulation time: 0 hr 12 min 48 sec) 
Warmup complete CPU 3 instructions: 22529027 cycles: 12996969 (Simulation time: 0 hr 12 min 48 sec) 
Warmup complete CPU 4 instructions: 31084170 cycles: 12996969 (Simulation time: 0 hr 12 min 48 sec) 
Warmup complete CPU 5 instructions: 25439210 cycles: 12996969 (Simulation time: 0 hr 12 min 48 sec) 
Warmup complete CPU 6 instructions: 28561153 cycles: 12996969 (Simulation time: 0 hr 12 min 48 sec) 
Warmup complete CPU 7 instructions: 29543180 cycles: 12996969 (Simulation time: 0 hr 12 min 48 sec) 

Heartbeat CPU 7 instructions: 30000003 cycles: 13819886 heartbeat IPC: 1.99152 cumulative IPC: 0.555126 (Simulation time: 0 hr 13 min 10 sec) 
Heartbeat CPU 6 instructions: 30000003 cycles: 14288572 heartbeat IPC: 1.94009 cumulative IPC: 1.114 (Simulation time: 0 hr 13 min 23 sec) 
Heartbeat CPU 3 instructions: 30000000 cycles: 20032921 heartbeat IPC: 1.17715 cumulative IPC: 1.06183 (Simulation time: 0 hr 15 min 57 sec) 
Heartbeat CPU 5 instructions: 30000000 cycles: 20859211 heartbeat IPC: 0.939754 cumulative IPC: 0.580088 (Simulation time: 0 hr 16 min 20 sec) 
Heartbeat CPU 4 instructions: 40000000 cycles: 22434497 heartbeat IPC: 1.01122 cumulative IPC: 0.944721 (Simulation time: 0 hr 17 min 2 sec) 
Heartbeat CPU 6 instructions: 40000000 cycles: 23372175 heartbeat IPC: 1.10088 cumulative IPC: 1.10252 (Simulation time: 0 hr 17 min 26 sec) 
Heartbeat CPU 2 instructions: 50000001 cycles: 28658188 heartbeat IPC: 0.630718 cumulative IPC: 0.599957 (Simulation time: 0 hr 19 min 49 sec) 
Heartbeat CPU 7 instructions: 40000000 cycles: 29004544 heartbeat IPC: 0.658559 cumulative IPC: 0.653242 (Simulation time: 0 hr 19 min 58 sec) 
Heartbeat CPU 3 instructions: 40000000 cycles: 29356228 heartbeat IPC: 1.07258 cumulative IPC: 1.06796 (Simulation time: 0 hr 20 min 8 sec) 
Heartbeat CPU 1 instructions: 30000000 cycles: 30482512 heartbeat IPC: 0.492287 cumulative IPC: 0.302793 (Simulation time: 0 hr 20 min 39 sec) 
Heartbeat CPU 6 instructions: 50000003 cycles: 31738986 heartbeat IPC: 1.1952 cumulative IPC: 1.14389 (Simulation time: 0 hr 21 min 13 sec) 
Heartbeat CPU 4 instructions: 50000003 cycles: 32872075 heartbeat IPC: 0.958077 cumulative IPC: 0.951735 (Simulation time: 0 hr 21 min 44 sec) 
Heartbeat CPU 5 instructions: 40000000 cycles: 38031744 heartbeat IPC: 0.582325 cumulative IPC: 0.581623 (Simulation time: 0 hr 24 min 11 sec) 
Heartbeat CPU 3 instructions: 50000001 cycles: 38716262 heartbeat IPC: 1.06837 cumulative IPC: 1.06811 (Simulation time: 0 hr 24 min 30 sec) 
Heartbeat CPU 6 instructions: 60000000 cycles: 40438792 heartbeat IPC: 1.14945 cumulative IPC: 1.14565 (Simulation time: 0 hr 25 min 16 sec) 
Heartbeat CPU 7 instructions: 50000001 cycles: 43068575 heartbeat IPC: 0.711034 cumulative IPC: 0.68027 (Simulation time: 0 hr 26 min 29 sec) 
Heartbeat CPU 4 instructions: 60000000 cycles: 43318398 heartbeat IPC: 0.957274 cumulative IPC: 0.953643 (Simulation time: 0 hr 26 min 36 sec) 
Heartbeat CPU 0 instructions: 30000001 cycles: 44721242 heartbeat IPC: 0.315216 cumulative IPC: 0.315216 (Simulation time: 0 hr 27 min 14 sec) 
Heartbeat CPU 2 instructions: 60000000 cycles: 45144181 heartbeat IPC: 0.606575 cumulative IPC: 0.603351 (Simulation time: 0 hr 27 min 24 sec) 
Heartbeat CPU 3 instructions: 60000000 cycles: 48089923 heartbeat IPC: 1.06682 cumulative IPC: 1.06776 (Simulation time: 0 hr 28 min 40 sec) 
Heartbeat CPU 6 instructions: 70000001 cycles: 49122173 heartbeat IPC: 1.15163 cumulative IPC: 1.14709 (Simulation time: 0 hr 29 min 7 sec) 
Heartbeat CPU 5 instructions: 50000003 cycles: 53674399 heartbeat IPC: 0.639278 cumulative IPC: 0.603794 (Simulation time: 0 hr 31 min 4 sec) 
Heartbeat CPU 4 instructions: 70000000 cycles: 54104302 heartbeat IPC: 0.927136 cumulative IPC: 0.946688 (Simulation time: 0 hr 31 min 16 sec) 
Heartbeat CPU 3 instructions: 70000001 cycles: 57525890 heartbeat IPC: 1.05977 cumulative IPC: 1.06607 (Simulation time: 0 hr 32 min 47 sec) 
Heartbeat CPU 6 instructions: 80000000 cycles: 58575347 heartbeat IPC: 1.05785 cumulative IPC: 1.12858 (Simulation time: 0 hr 33 min 12 sec) 
Heartbeat CPU 7 instructions: 60000000 cycles: 61068310 heartbeat IPC: 0.555564 cumulative IPC: 0.633575 (Simulation time: 0 hr 34 min 15 sec) 
Heartbeat CPU 1 instructions: 40000000 cycles: 62037119 heartbeat IPC: 0.316911 cumulative IPC: 0.311877 (Simulation time: 0 hr 34 min 39 sec) 
Heartbeat CPU 4 instructions: 80000000 cycles: 64846407 heartbeat IPC: 0.930916 cumulative IPC: 0.943421 (Simulation time: 0 hr 35 min 56 sec) 
Heartbeat CPU 2 instructions: 70000002 cycles: 66082792 heartbeat IPC: 0.477587 cumulative IPC: 0.553746 (Simulation time: 0 hr 36 min 30 sec) 
Heartbeat CPU 3 instructions: 80000000 cycles: 66915027 heartbeat IPC: 1.06506 cumulative IPC: 1.06589 (Simulation time: 0 hr 36 min 53 sec) 
Heartbeat CPU 6 instructions: 90000002 cycles: 67118281 heartbeat IPC: 1.17056 cumulative IPC: 1.13521 (Simulation time: 0 hr 36 min 59 sec) 
Heartbeat CPU 5 instructions: 60000000 cycles: 71219815 heartbeat IPC: 0.569949 cumulative IPC: 0.593595 (Simulation time: 0 hr 38 min 52 sec) 
Heartbeat CPU 4 instructions: 90000000 cycles: 75310697 heartbeat IPC: 0.955631 cumulative IPC: 0.945471 (Simulation time: 0 hr 40 min 46 sec) 
Heartbeat CPU 7 instructions: 70000000 cycles: 75407324 heartbeat IPC: 0.697398 cumulative IPC: 0.648239 (Simulation time: 0 hr 40 min 49 sec) 
Heartbeat CPU 6 instructions: 100000000 cycles: 75727305 heartbeat IPC: 1.16157 cumulative IPC: 1.13882 (Simulation time: 0 hr 40 min 58 sec) 
Heartbeat CPU 3 instructions: 90000002 cycles: 76229531 heartbeat IPC: 1.07359 cumulative IPC: 1.06703 (Simulation time: 0 hr 41 min 13 sec) 
Heartbeat CPU 0 instructions: 40000000 cycles: 78140018 heartbeat IPC: 0.299233 cumulative IPC: 0.307017 (Simulation time: 0 hr 42 min 5 sec) 
Heartbeat CPU 2 instructions: 80000000 cycles: 82439705 heartbeat IPC: 0.611362 cumulative IPC: 0.567317 (Simulation time: 0 hr 44 min 3 sec) 
Heartbeat CPU 6 instructions: 110000000 cycles: 84262559 heartbeat IPC: 1.17161 cumulative IPC: 1.14275 (Simulation time: 0 hr 44 min 54 sec) 
Heartbeat CPU 3 instructions: 100000000 cycles: 85536762 heartbeat IPC: 1.07443 cumulative IPC: 1.06798 (Simulation time: 0 hr 45 min 29 sec) 
Heartbeat CPU 4 instructions: 100000000 cycles: 85756157 heartbeat IPC: 0.957354 cumulative IPC: 0.947177 (Simulation time: 0 hr 45 min 35 sec) 
Heartbeat CPU 5 instructions: 70000003 cycles: 88352193 heartbeat IPC: 0.58369 cumulative IPC: 0.591343 (Simulation time: 0 hr 46 min 46 sec) 
Heartbeat CPU 7 instructions: 80000000 cycles: 89641140 heartbeat IPC: 0.702552 cumulative IPC: 0.658326 (Simulation time: 0 hr 47 min 21 sec) 
Heartbeat CPU 1 instructions: 50000002 cycles: 90264856 heartbeat IPC: 0.354262 cumulative IPC: 0.327361 (Simulation time: 0 hr 47 min 39 sec) 
Heartbeat CPU 6 instructions: 120000000 cycles: 92829205 heartbeat IPC: 1.16732 cumulative IPC: 1.14539 (Simulation time: 0 hr 48 min 49 sec) 
Heartbeat CPU 3 instructions: 110000001 cycles: 94857650 heartbeat IPC: 1.07286 cumulative IPC: 1.06853 (Simulation time: 0 hr 49 min 44 sec) 
Heartbeat CPU 4 instructions: 110000001 cycles: 96199404 heartbeat IPC: 0.957557 cumulative IPC: 0.94848 (Simulation time: 0 hr 50 min 21 sec) 
Heartbeat CPU 2 instructions: 90000000 cycles: 98852302 heartbeat IPC: 0.609288 cumulative IPC: 0.575341 (Simulation time: 0 hr 51 min 35 sec) 
Finished CPU 6 instructions: 100000000 cycles: 87506696 cumulative IPC: 1.14277 (Simulation time: 0 hr 52 min 19 sec) 
Heartbeat CPU 6 instructions: 130000003 cycles: 102051419 heartbeat IPC: 1.08434 cumulative IPC: 1.13907 (Simulation time: 0 hr 53 min 0 sec) 
Heartbeat CPU 7 instructions: 90000001 cycles: 104000698 heartbeat IPC: 0.6964 cumulative IPC: 0.664333 (Simulation time: 0 hr 53 min 52 sec) 
Heartbeat CPU 3 instructions: 120000000 cycles: 104169238 heartbeat IPC: 1.07393 cumulative IPC: 1.06909 (Simulation time: 0 hr 53 min 56 sec) 
Heartbeat CPU 5 instructions: 80000000 cycles: 105512078 heartbeat IPC: 0.582754 cumulative IPC: 0.58975 (Simulation time: 0 hr 54 min 32 sec) 
Finished CPU 3 instructions: 100000000 cycles: 93558353 cumulative IPC: 1.06885 (Simulation time: 0 hr 55 min 0 sec) 
Heartbeat CPU 4 instructions: 120000000 cycles: 106689248 heartbeat IPC: 0.953303 cumulative IPC: 0.94902 (Simulation time: 0 hr 55 min 4 sec) 
Heartbeat CPU 0 instructions: 50000003 cycles: 109638340 heartbeat IPC: 0.317477 cumulative IPC: 0.310426 (Simulation time: 0 hr 56 min 24 sec) 
Heartbeat CPU 6 instructions: 140000000 cycles: 112358823 heartbeat IPC: 0.970176 cumulative IPC: 1.12155 (Simulation time: 0 hr 57 min 39 sec) 
Heartbeat CPU 3 instructions: 130000001 cycles: 113501392 heartbeat IPC: 1.07156 cumulative IPC: 1.06932 (Simulation time: 0 hr 58 min 17 sec) 
Heartbeat CPU 2 instructions: 100000000 cycles: 115187575 heartbeat IPC: 0.612172 cumulative IPC: 0.581228 (Simulation time: 0 hr 59 min 11 sec) 
Heartbeat CPU 1 instructions: 60000000 cycles: 116697752 heartbeat IPC: 0.378316 cumulative IPC: 0.340349 (Simulation time: 0 hr 59 min 57 sec) 
Heartbeat CPU 4 instructions: 130000003 cycles: 117140464 heartbeat IPC: 0.956827 cumulative IPC: 0.949803 (Simulation time: 1 hr 0 min 10 sec) 
Heartbeat CPU 7 instructions: 100000000 cycles: 117548427 heartbeat IPC: 0.738131 cumulative IPC: 0.673896 (Simulation time: 1 hr 0 min 23 sec) 
Finished CPU 4 instructions: 100000001 cycles: 105279736 cumulative IPC: 0.94985 (Simulation time: 1 hr 0 min 45 sec) 
Heartbeat CPU 5 instructions: 90000003 cycles: 122658914 heartbeat IPC: 0.583198 cumulative IPC: 0.588726 (Simulation time: 1 hr 3 min 2 sec) 
Heartbeat CPU 6 instructions: 150000003 cycles: 122734956 heartbeat IPC: 0.96375 cumulative IPC: 1.10663 (Simulation time: 1 hr 3 min 4 sec) 
Heartbeat CPU 3 instructions: 140000000 cycles: 122829403 heartbeat IPC: 1.07204 cumulative IPC: 1.06955 (Simulation time: 1 hr 3 min 6 sec) 
Heartbeat CPU 4 instructions: 140000000 cycles: 127583649 heartbeat IPC: 0.957562 cumulative IPC: 0.95051 (Simulation time: 1 hr 5 min 37 sec) 
Heartbeat CPU 2 instructions: 110000002 cycles: 130349963 heartbeat IPC: 0.659527 cumulative IPC: 0.591345 (Simulation time: 1 hr 6 min 52 sec) 
Heartbeat CPU 7 instructions: 110000001 cycles: 130812869 heartbeat IPC: 0.753895 cumulative IPC: 0.682903 (Simulation time: 1 hr 7 min 4 sec) 
Heartbeat CPU 3 instructions: 150000001 cycles: 132120944 heartbeat IPC: 1.07625 cumulative IPC: 1.07007 (Simulation time: 1 hr 7 min 39 sec) 
Heartbeat CPU 6 instructions: 160000000 cycles: 133115277 heartbeat IPC: 0.963361 cumulative IPC: 1.09424 (Simulation time: 1 hr 8 min 6 sec) 
Heartbeat CPU 4 instructions: 150000001 cycles: 138044231 heartbeat IPC: 0.95597 cumulative IPC: 0.950967 (Simulation time: 1 hr 10 min 19 sec) 
Heartbeat CPU 5 instructions: 100000000 cycles: 139786342 heartbeat IPC: 0.583859 cumulative IPC: 0.588068 (Simulation time: 1 hr 11 min 6 sec) 
Heartbeat CPU 0 instructions: 60000000 cycles: 141008847 heartbeat IPC: 0.318771 cumulative IPC: 0.312471 (Simulation time: 1 hr 11 min 39 sec) 
Heartbeat CPU 3 instructions: 160000000 cycles: 141454894 heartbeat IPC: 1.07136 cumulative IPC: 1.07016 (Simulation time: 1 hr 11 min 52 sec) 
Heartbeat CPU 1 instructions: 70000001 cycles: 141859194 heartbeat IPC: 0.397434 cumulative IPC: 0.351496 (Simulation time: 1 hr 12 min 3 sec) 
Heartbeat CPU 6 instructions: 170000002 cycles: 143521521 heartbeat IPC: 0.960962 cumulative IPC: 1.08362 (Simulation time: 1 hr 12 min 47 sec) 
Heartbeat CPU 7 instructions: 120000000 cycles: 144069721 heartbeat IPC: 0.754327 cumulative IPC: 0.690127 (Simulation time: 1 hr 13 min 2 sec) 
Heartbeat CPU 2 instructions: 120000000 cycles: 145604566 heartbeat IPC: 0.65554 cumulative IPC: 0.598729 (Simulation time: 1 hr 13 min 44 sec) 
Heartbeat CPU 4 instructions: 160000000 cycles: 148488766 heartbeat IPC: 0.957438 cumulative IPC: 0.951466 (Simulation time: 1 hr 15 min 2 sec) 
Heartbeat CPU 3 instructions: 170000001 cycles: 150716162 heartbeat IPC: 1.07977 cumulative IPC: 1.07081 (Simulation time: 1 hr 16 min 3 sec) 
Heartbeat CPU 6 instructions: 180000000 cycles: 153908272 heartbeat IPC: 0.962765 cumulative IPC: 1.07471 (Simulation time: 1 hr 17 min 31 sec) 
Finished CPU 7 instructions: 100000000 cycles: 143574448 cumulative IPC: 0.696503 (Simulation time: 1 hr 18 min 44 sec) 
Heartbeat CPU 5 instructions: 110000002 cycles: 156923838 heartbeat IPC: 0.583516 cumulative IPC: 0.587526 (Simulation time: 1 hr 18 min 54 sec) 
Heartbeat CPU 7 instructions: 130000003 cycles: 157142055 heartbeat IPC: 0.764975 cumulative IPC: 0.696915 (Simulation time: 1 hr 19 min 1 sec) 
Heartbeat CPU 4 instructions: 170000001 cycles: 158954920 heartbeat IPC: 0.955461 cumulative IPC: 0.951752 (Simulation time: 1 hr 19 min 51 sec) 
Heartbeat CPU 3 instructions: 180000000 cycles: 160034002 heartbeat IPC: 1.07321 cumulative IPC: 1.07096 (Simulation time: 1 hr 20 min 21 sec) 
Heartbeat CPU 2 instructions: 130000003 cycles: 160629119 heartbeat IPC: 0.665577 cumulative IPC: 0.605532 (Simulation time: 1 hr 20 min 37 sec) 
Heartbeat CPU 1 instructions: 80000000 cycles: 160781423 heartbeat IPC: 0.528479 cumulative IPC: 0.374156 (Simulation time: 1 hr 20 min 41 sec) 
Heartbeat CPU 6 instructions: 190000002 cycles: 164148827 heartbeat IPC: 0.97651 cumulative IPC: 1.06806 (Simulation time: 1 hr 22 min 15 sec) 
Heartbeat CPU 3 instructions: 190000003 cycles: 169316880 heartbeat IPC: 1.07725 cumulative IPC: 1.07133 (Simulation time: 1 hr 24 min 41 sec) 
Heartbeat CPU 4 instructions: 180000000 cycles: 169401692 heartbeat IPC: 0.957233 cumulative IPC: 0.952119 (Simulation time: 1 hr 24 min 44 sec) 
Heartbeat CPU 7 instructions: 140000000 cycles: 170227198 heartbeat IPC: 0.764225 cumulative IPC: 0.702516 (Simulation time: 1 hr 25 min 6 sec) 
Heartbeat CPU 0 instructions: 70000000 cycles: 172153568 heartbeat IPC: 0.321082 cumulative IPC: 0.314156 (Simulation time: 1 hr 25 min 56 sec) 
Heartbeat CPU 5 instructions: 120000000 cycles: 173125450 heartbeat IPC: 0.617222 cumulative IPC: 0.590531 (Simulation time: 1 hr 26 min 21 sec) 
Heartbeat CPU 6 instructions: 200000000 cycles: 174915805 heartbeat IPC: 0.928766 cumulative IPC: 1.05879 (Simulation time: 1 hr 27 min 6 sec) 
Heartbeat CPU 2 instructions: 140000000 cycles: 177204863 heartbeat IPC: 0.603291 cumulative IPC: 0.605306 (Simulation time: 1 hr 28 min 5 sec) 
Finished CPU 2 instructions: 100000001 cycles: 165466705 cumulative IPC: 0.604351 (Simulation time: 1 hr 28 min 36 sec) 
Heartbeat CPU 1 instructions: 90000000 cycles: 178603438 heartbeat IPC: 0.561104 cumulative IPC: 0.394275 (Simulation time: 1 hr 28 min 40 sec) 
Heartbeat CPU 3 instructions: 200000000 cycles: 178766167 heartbeat IPC: 1.05828 cumulative IPC: 1.07059 (Simulation time: 1 hr 28 min 44 sec) 
Heartbeat CPU 4 instructions: 190000001 cycles: 180181379 heartbeat IPC: 0.927671 cumulative IPC: 0.950542 (Simulation time: 1 hr 29 min 20 sec) 
Finished CPU 5 instructions: 100000001 cycles: 168181697 cumulative IPC: 0.594595 (Simulation time: 1 hr 29 min 45 sec) 
Heartbeat CPU 6 instructions: 210000000 cycles: 186402903 heartbeat IPC: 0.870542 cumulative IPC: 1.04632 (Simulation time: 1 hr 31 min 52 sec) 
Heartbeat CPU 7 instructions: 150000001 cycles: 186718394 heartbeat IPC: 0.606384 cumulative IPC: 0.693391 (Simulation time: 1 hr 32 min 0 sec) 
Heartbeat CPU 3 instructions: 210000000 cycles: 188184189 heartbeat IPC: 1.06179 cumulative IPC: 1.07012 (Simulation time: 1 hr 32 min 39 sec) 
Heartbeat CPU 5 instructions: 130000003 cycles: 189476386 heartbeat IPC: 0.611586 cumulative IPC: 0.592481 (Simulation time: 1 hr 33 min 14 sec) 
Heartbeat CPU 4 instructions: 200000000 cycles: 190913953 heartbeat IPC: 0.931743 cumulative IPC: 0.949408 (Simulation time: 1 hr 33 min 53 sec) 
Heartbeat CPU 2 instructions: 150000000 cycles: 194689111 heartbeat IPC: 0.571943 cumulative IPC: 0.602096 (Simulation time: 1 hr 35 min 33 sec) 
Heartbeat CPU 6 instructions: 220000000 cycles: 196775326 heartbeat IPC: 0.964095 cumulative IPC: 1.04168 (Simulation time: 1 hr 36 min 29 sec) 
Heartbeat CPU 3 instructions: 220000000 cycles: 197472912 heartbeat IPC: 1.07657 cumulative IPC: 1.07044 (Simulation time: 1 hr 36 min 48 sec) 
Heartbeat CPU 1 instructions: 100000000 cycles: 199432282 heartbeat IPC: 0.480103 cumulative IPC: 0.403864 (Simulation time: 1 hr 37 min 38 sec) 
Heartbeat CPU 7 instructions: 160000000 cycles: 199828846 heartbeat IPC: 0.76275 cumulative IPC: 0.698258 (Simulation time: 1 hr 37 min 48 sec) 
Heartbeat CPU 4 instructions: 210000002 cycles: 201393778 heartbeat IPC: 0.954215 cumulative IPC: 0.949676 (Simulation time: 1 hr 38 min 28 sec) 
Heartbeat CPU 0 instructions: 80000000 cycles: 204672000 heartbeat IPC: 0.307518 cumulative IPC: 0.31303 (Simulation time: 1 hr 39 min 51 sec) 
Heartbeat CPU 5 instructions: 140000000 cycles: 206743584 heartbeat IPC: 0.579133 cumulative IPC: 0.591292 (Simulation time: 1 hr 40 min 44 sec) 
Heartbeat CPU 3 instructions: 230000003 cycles: 206780015 heartbeat IPC: 1.07445 cumulative IPC: 1.07064 (Simulation time: 1 hr 40 min 45 sec) 
Heartbeat CPU 6 instructions: 230000000 cycles: 207084791 heartbeat IPC: 0.969982 cumulative IPC: 1.03787 (Simulation time: 1 hr 40 min 52 sec) 
Heartbeat CPU 2 instructions: 160000000 cycles: 209601638 heartbeat IPC: 0.670577 cumulative IPC: 0.60729 (Simulation time: 1 hr 41 min 55 sec) 
Heartbeat CPU 4 instructions: 220000000 cycles: 212557650 heartbeat IPC: 0.895746 cumulative IPC: 0.946659 (Simulation time: 1 hr 43 min 8 sec) 
Heartbeat CPU 7 instructions: 170000002 cycles: 212698135 heartbeat IPC: 0.777044 cumulative IPC: 0.703335 (Simulation time: 1 hr 43 min 11 sec) 
Heartbeat CPU 3 instructions: 240000000 cycles: 216078204 heartbeat IPC: 1.07548 cumulative IPC: 1.07086 (Simulation time: 1 hr 44 min 38 sec) 
Heartbeat CPU 6 instructions: 240000000 cycles: 217442962 heartbeat IPC: 0.965421 cumulative IPC: 1.0342 (Simulation time: 1 hr 45 min 12 sec) 
Heartbeat CPU 2 instructions: 170000003 cycles: 220013983 heartbeat IPC: 0.960399 cumulative IPC: 0.62505 (Simulation time: 1 hr 46 min 17 sec) 
Heartbeat CPU 5 instructions: 150000000 cycles: 223929408 heartbeat IPC: 0.581875 cumulative IPC: 0.590525 (Simulation time: 1 hr 47 min 58 sec) 
Heartbeat CPU 4 instructions: 230000000 cycles: 224663231 heartbeat IPC: 0.826065 cumulative IPC: 0.939762 (Simulation time: 1 hr 48 min 17 sec) 
Heartbeat CPU 3 instructions: 250000002 cycles: 225354656 heartbeat IPC: 1.078 cumulative IPC: 1.07117 (Simulation time: 1 hr 48 min 35 sec) 
Heartbeat CPU 7 instructions: 180000000 cycles: 226364336 heartbeat IPC: 0.731732 cumulative IPC: 0.705154 (Simulation time: 1 hr 49 min 2 sec) 
Heartbeat CPU 6 instructions: 250000001 cycles: 227957273 heartbeat IPC: 0.951085 cumulative IPC: 1.03014 (Simulation time: 1 hr 49 min 45 sec) 
Heartbeat CPU 1 instructions: 110000001 cycles: 228741824 heartbeat IPC: 0.341186 cumulative IPC: 0.395349 (Simulation time: 1 hr 50 min 6 sec) 
Heartbeat CPU 2 instructions: 180000000 cycles: 229580602 heartbeat IPC: 1.0453 cumulative IPC: 0.643613 (Simulation time: 1 hr 50 min 28 sec) 
Heartbeat CPU 3 instructions: 260000000 cycles: 234665345 heartbeat IPC: 1.07403 cumulative IPC: 1.07129 (Simulation time: 1 hr 52 min 45 sec) 
Heartbeat CPU 0 instructions: 90000000 cycles: 236449408 heartbeat IPC: 0.314689 cumulative IPC: 0.313266 (Simulation time: 1 hr 53 min 31 sec) 
Heartbeat CPU 4 instructions: 240000000 cycles: 236723431 heartbeat IPC: 0.829174 cumulative IPC: 0.9338 (Simulation time: 1 hr 53 min 38 sec) 
Heartbeat CPU 6 instructions: 260000000 cycles: 238454038 heartbeat IPC: 0.952674 cumulative IPC: 1.02653 (Simulation time: 1 hr 54 min 24 sec) 
Heartbeat CPU 7 instructions: 190000001 cycles: 240336169 heartbeat IPC: 0.715726 cumulative IPC: 0.705804 (Simulation time: 1 hr 55 min 13 sec) 
Heartbeat CPU 2 instructions: 190000001 cycles: 240994888 heartbeat IPC: 0.876095 cumulative IPC: 0.655252 (Simulation time: 1 hr 55 min 30 sec) 
Heartbeat CPU 5 instructions: 160000000 cycles: 241211326 heartbeat IPC: 0.578639 cumulative IPC: 0.589625 (Simulation time: 1 hr 55 min 36 sec) 
Heartbeat CPU 3 instructions: 270000000 cycles: 243961724 heartbeat IPC: 1.07569 cumulative IPC: 1.07147 (Simulation time: 1 hr 56 min 48 sec) 
Heartbeat CPU 4 instructions: 250000001 cycles: 248742594 heartbeat IPC: 0.832005 cumulative IPC: 0.92861 (Simulation time: 1 hr 58 min 53 sec) 
Heartbeat CPU 6 instructions: 270000002 cycles: 248953644 heartbeat IPC: 0.952417 cumulative IPC: 1.02323 (Simulation time: 1 hr 58 min 59 sec) 
Heartbeat CPU 3 instructions: 280000000 cycles: 253255170 heartbeat IPC: 1.07603 cumulative IPC: 1.07164 (Simulation time: 2 hr 0 min 47 sec) 
Heartbeat CPU 7 instructions: 200000000 cycles: 253926479 heartbeat IPC: 0.735818 cumulative IPC: 0.707497 (Simulation time: 2 hr 1 min 4 sec) 
Heartbeat CPU 2 instructions: 200000000 cycles: 254097318 heartbeat IPC: 0.763217 cumulative IPC: 0.661119 (Simulation time: 2 hr 1 min 8 sec) 
Heartbeat CPU 5 instructions: 170000003 cycles: 258386892 heartbeat IPC: 0.582223 cumulative IPC: 0.589107 (Simulation time: 2 hr 2 min 56 sec) 
Heartbeat CPU 1 instructions: 120000000 cycles: 259351218 heartbeat IPC: 0.326697 cumulative IPC: 0.386819 (Simulation time: 2 hr 3 min 20 sec) 
Heartbeat CPU 6 instructions: 280000000 cycles: 259477667 heartbeat IPC: 0.950207 cumulative IPC: 1.02012 (Simulation time: 2 hr 3 min 23 sec) 
Heartbeat CPU 4 instructions: 260000000 cycles: 260797021 heartbeat IPC: 0.829571 cumulative IPC: 0.923792 (Simulation time: 2 hr 3 min 56 sec) 
Heartbeat CPU 3 instructions: 290000003 cycles: 262588926 heartbeat IPC: 1.07138 cumulative IPC: 1.07163 (Simulation time: 2 hr 4 min 41 sec) 
Heartbeat CPU 0 instructions: 100000000 cycles: 267461922 heartbeat IPC: 0.32245 cumulative IPC: 0.314385 (Simulation time: 2 hr 6 min 42 sec) 
Heartbeat CPU 2 instructions: 210000001 cycles: 267503476 heartbeat IPC: 0.745926 cumulative IPC: 0.665586 (Simulation time: 2 hr 6 min 44 sec) 
Heartbeat CPU 7 instructions: 210000002 cycles: 267745025 heartbeat IPC: 0.723665 cumulative IPC: 0.708374 (Simulation time: 2 hr 6 min 50 sec) 
Heartbeat CPU 6 instructions: 290000003 cycles: 269956320 heartbeat IPC: 0.954321 cumulative IPC: 1.01743 (Simulation time: 2 hr 7 min 45 sec) 
Heartbeat CPU 3 instructions: 300000000 cycles: 271885723 heartbeat IPC: 1.07564 cumulative IPC: 1.07178 (Simulation time: 2 hr 8 min 33 sec) 
Finished CPU 1 instructions: 100000000 cycles: 259721721 cumulative IPC: 0.385027 (Simulation time: 2 hr 8 min 54 sec) 
Heartbeat CPU 4 instructions: 270000002 cycles: 273017845 heartbeat IPC: 0.818276 cumulative IPC: 0.918833 (Simulation time: 2 hr 9 min 2 sec) 
Heartbeat CPU 5 instructions: 180000000 cycles: 275677795 heartbeat IPC: 0.578339 cumulative IPC: 0.588398 (Simulation time: 2 hr 10 min 8 sec) 
Heartbeat CPU 6 instructions: 300000000 cycles: 280408115 heartbeat IPC: 0.956773 cumulative IPC: 1.01506 (Simulation time: 2 hr 12 min 7 sec) 
Heartbeat CPU 2 instructions: 220000000 cycles: 280698194 heartbeat IPC: 0.757879 cumulative IPC: 0.670135 (Simulation time: 2 hr 12 min 15 sec) 
Heartbeat CPU 3 instructions: 310000003 cycles: 281225882 heartbeat IPC: 1.07065 cumulative IPC: 1.07174 (Simulation time: 2 hr 12 min 28 sec) 
Heartbeat CPU 7 instructions: 220000000 cycles: 281373041 heartbeat IPC: 0.733782 cumulative IPC: 0.709664 (Simulation time: 2 hr 12 min 32 sec) 
Heartbeat CPU 4 instructions: 280000000 cycles: 285310627 heartbeat IPC: 0.813485 cumulative IPC: 0.914078 (Simulation time: 2 hr 14 min 11 sec) 
Heartbeat CPU 1 instructions: 130000002 cycles: 287251904 heartbeat IPC: 0.358414 cumulative IPC: 0.383929 (Simulation time: 2 hr 14 min 59 sec) 
Heartbeat CPU 3 instructions: 320000000 cycles: 290530378 heartbeat IPC: 1.07475 cumulative IPC: 1.07184 (Simulation time: 2 hr 16 min 21 sec) 
Heartbeat CPU 6 instructions: 310000003 cycles: 290899719 heartbeat IPC: 0.953143 cumulative IPC: 1.01272 (Simulation time: 2 hr 16 min 31 sec) 
Heartbeat CPU 5 instructions: 190000003 cycles: 292855554 heartbeat IPC: 0.582148 cumulative IPC: 0.588014 (Simulation time: 2 hr 17 min 20 sec) 
Heartbeat CPU 2 instructions: 230000000 cycles: 293739792 heartbeat IPC: 0.766777 cumulative IPC: 0.674625 (Simulation time: 2 hr 17 min 43 sec) 
Heartbeat CPU 7 instructions: 230000002 cycles: 295082890 heartbeat IPC: 0.729403 cumulative IPC: 0.710623 (Simulation time: 2 hr 18 min 16 sec) 
Heartbeat CPU 4 instructions: 290000000 cycles: 297601614 heartbeat IPC: 0.813604 cumulative IPC: 0.909739 (Simulation time: 2 hr 19 min 17 sec) 
Heartbeat CPU 0 instructions: 110000000 cycles: 298999992 heartbeat IPC: 0.317077 cumulative IPC: 0.314682 (Simulation time: 2 hr 19 min 50 sec) 
Heartbeat CPU 3 instructions: 330000002 cycles: 299895096 heartbeat IPC: 1.06784 cumulative IPC: 1.07171 (Simulation time: 2 hr 20 min 12 sec) 
Heartbeat CPU 6 instructions: 320000000 cycles: 301662321 heartbeat IPC: 0.929143 cumulative IPC: 1.00961 (Simulation time: 2 hr 20 min 54 sec) 
Heartbeat CPU 5 instructions: 200000000 cycles: 307612664 heartbeat IPC: 0.677639 cumulative IPC: 0.592503 (Simulation time: 2 hr 23 min 21 sec) 
Heartbeat CPU 3 instructions: 340000000 cycles: 309325567 heartbeat IPC: 1.06039 cumulative IPC: 1.07135 (Simulation time: 2 hr 24 min 2 sec) 
Heartbeat CPU 4 instructions: 300000000 cycles: 309990351 heartbeat IPC: 0.807185 cumulative IPC: 0.905461 (Simulation time: 2 hr 24 min 17 sec) 
Heartbeat CPU 2 instructions: 240000000 cycles: 310931062 heartbeat IPC: 0.581691 cumulative IPC: 0.669262 (Simulation time: 2 hr 24 min 40 sec) 
Heartbeat CPU 7 instructions: 240000000 cycles: 312338800 heartbeat IPC: 0.579511 cumulative IPC: 0.703065 (Simulation time: 2 hr 25 min 15 sec) 
Heartbeat CPU 6 instructions: 330000002 cycles: 312625771 heartbeat IPC: 0.912122 cumulative IPC: 1.00604 (Simulation time: 2 hr 25 min 23 sec) 
Heartbeat CPU 1 instructions: 140000000 cycles: 313788960 heartbeat IPC: 0.376831 cumulative IPC: 0.383303 (Simulation time: 2 hr 25 min 53 sec) 
Heartbeat CPU 3 instructions: 350000003 cycles: 318669003 heartbeat IPC: 1.07027 cumulative IPC: 1.07131 (Simulation time: 2 hr 27 min 58 sec) 
Heartbeat CPU 4 instructions: 310000003 cycles: 322226822 heartbeat IPC: 0.817229 cumulative IPC: 0.901969 (Simulation time: 2 hr 29 min 27 sec) 
Heartbeat CPU 6 instructions: 340000000 cycles: 323145903 heartbeat IPC: 0.950558 cumulative IPC: 1.00416 (Simulation time: 2 hr 29 min 50 sec) 
Heartbeat CPU 2 instructions: 250000003 cycles: 324812089 heartbeat IPC: 0.720408 cumulative IPC: 0.671539 (Simulation time: 2 hr 30 min 32 sec) 
Heartbeat CPU 5 instructions: 210000000 cycles: 325858910 heartbeat IPC: 0.548058 cumulative IPC: 0.589911 (Simulation time: 2 hr 30 min 59 sec) 
Heartbeat CPU 7 instructions: 250000000 cycles: 326274427 heartbeat IPC: 0.717585 cumulative IPC: 0.703711 (Simulation time: 2 hr 31 min 9 sec) 
Heartbeat CPU 3 instructions: 360000000 cycles: 328040870 heartbeat IPC: 1.06702 cumulative IPC: 1.07119 (Simulation time: 2 hr 31 min 54 sec) 
Heartbeat CPU 0 instructions: 120000000 cycles: 331071818 heartbeat IPC: 0.3118 cumulative IPC: 0.314391 (Simulation time: 2 hr 33 min 11 sec) 
Finished CPU 0 instructions: 100000001 cycles: 318074857 cumulative IPC: 0.314391 (Simulation time: 2 hr 33 min 11 sec) 

CPU 0 Branch Prediction Accuracy: 90.0354% MPKI: 19.3652

CPU 1 Branch Prediction Accuracy: 99.2784% MPKI: 1.75938

CPU 2 Branch Prediction Accuracy: 99.8669% MPKI: 0.202083

CPU 3 Branch Prediction Accuracy: 99.9795% MPKI: 0.00136339

CPU 4 Branch Prediction Accuracy: 99.9406% MPKI: 0.149611

CPU 5 Branch Prediction Accuracy: 99.9609% MPKI: 0.0294091

CPU 6 Branch Prediction Accuracy: 99.9157% MPKI: 0.031516

CPU 7 Branch Prediction Accuracy: 99.975% MPKI: 0.00420117

ChampSim completed all CPUs

Total Simulation Statistics (not including warmup)

CPU 0 cumulative IPC: 0.314391 instructions: 100000001 cycles: 318074857
L1D TOTAL     ACCESS:   38890419  HIT:   34855545  MISS:    4034874
L1D LOAD      ACCESS:   27925654  HIT:   24284306  MISS:    3641348
L1D RFO       ACCESS:   10964765  HIT:   10571239  MISS:     393526
L1D PREFETCH  ACCESS:          0  HIT:          0  MISS:          0
L1D WRITEBACK ACCESS:          0  HIT:          0  MISS:          0
L1I TOTAL     ACCESS:   23869043  HIT:   23869043  MISS:          0
L1I LOAD      ACCESS:   23869043  HIT:   23869043  MISS:          0
L1I RFO       ACCESS:          0  HIT:          0  MISS:          0
L1I PREFETCH  ACCESS:          0  HIT:          0  MISS:          0
L1I WRITEBACK ACCESS:          0  HIT:          0  MISS:          0
L2C TOTAL     ACCESS:    6928730  HIT:    2555193  MISS:    4373537
L2C LOAD      ACCESS:    3641339  HIT:    1732941  MISS:    1908398
L2C RFO       ACCESS:     393514  HIT:      75997  MISS:     317517
L2C PREFETCH  ACCESS:    2332750  HIT:     186387  MISS:    2146363
L2C WRITEBACK ACCESS:     561127  HIT:     559868  MISS:       1259

L2C Best-offset prefetcher final stats
LLC TOTAL     ACCESS:    4856547  HIT:    3501195  MISS:    1355352
LLC LOAD      ACCESS:    1837645  HIT:    1439816  MISS:     397829
LLC RFO       ACCESS:     317510  HIT:     316477  MISS:       1033
LLC PREFETCH  ACCESS:    2286839  HIT:    1330399  MISS:     956440
LLC WRITEBACK ACCESS:     414553  HIT:     414503  MISS:         50

CPU 1 cumulative IPC: 0.385352 instructions: 122570788 cycles: 318074858
L1D TOTAL     ACCESS:   30077449  HIT:   23905676  MISS:    6171773
L1D LOAD      ACCESS:   21235137  HIT:   15330682  MISS:    5904455
L1D RFO       ACCESS:    8842312  HIT:    8574994  MISS:     267318
L1D PREFETCH  ACCESS:          0  HIT:          0  MISS:          0
L1D WRITEBACK ACCESS:          0  HIT:          0  MISS:          0
L1I TOTAL     ACCESS:   53486497  HIT:   53161332  MISS:     325165
L1I LOAD      ACCESS:   53486497  HIT:   53161332  MISS:     325165
L1I RFO       ACCESS:          0  HIT:          0  MISS:          0
L1I PREFETCH  ACCESS:          0  HIT:          0  MISS:          0
L1I WRITEBACK ACCESS:          0  HIT:          0  MISS:          0
L2C TOTAL     ACCESS:    9352931  HIT:    4636642  MISS:    4716289
L2C LOAD      ACCESS:    6229574  HIT:    3385214  MISS:    2844360
L2C RFO       ACCESS:     267310  HIT:      50606  MISS:     216704
L2C PREFETCH  ACCESS:    2448212  HIT:     793314  MISS:    1654898
L2C WRITEBACK ACCESS:     407835  HIT:     407508  MISS:        327

L2C Best-offset prefetcher final stats
LLC TOTAL     ACCESS:    5022115  HIT:    4745580  MISS:     276535
LLC LOAD      ACCESS:    2685827  HIT:    2644463  MISS:      41364
LLC RFO       ACCESS:     215317  HIT:      18011  MISS:     197306
LLC PREFETCH  ACCESS:    1815471  HIT:    1781667  MISS:      33804
LLC WRITEBACK ACCESS:     305500  HIT:     301439  MISS:       4061

CPU 2 cumulative IPC: 0.673351 instructions: 214176118 cycles: 318074858
L1D TOTAL     ACCESS:   18424813  HIT:   14260428  MISS:    4164385
L1D LOAD      ACCESS:   14718331  HIT:   10553949  MISS:    4164382
L1D RFO       ACCESS:    3706482  HIT:    3706479  MISS:          3
L1D PREFETCH  ACCESS:          0  HIT:          0  MISS:          0
L1D WRITEBACK ACCESS:          0  HIT:          0  MISS:          0
L1I TOTAL     ACCESS:   45798667  HIT:   45798656  MISS:         11
L1I LOAD      ACCESS:   45798667  HIT:   45798656  MISS:         11
L1I RFO       ACCESS:          0  HIT:          0  MISS:          0
L1I PREFETCH  ACCESS:          0  HIT:          0  MISS:          0
L1I WRITEBACK ACCESS:          0  HIT:          0  MISS:          0
L2C TOTAL     ACCESS:    6191325  HIT:    2026056  MISS:    4165269
L2C LOAD      ACCESS:    4164390  HIT:    1991280  MISS:    2173110
L2C RFO       ACCESS:          3  HIT:          1  MISS:          2
L2C PREFETCH  ACCESS:    1994575  HIT:       2444  MISS:    1992131
L2C WRITEBACK ACCESS:      32357  HIT:      32331  MISS:         26

L2C Best-offset prefetcher final stats
LLC TOTAL     ACCESS:    4205125  HIT:      41638  MISS:    4163487
LLC LOAD      ACCESS:     217323  HIT:       6687  MISS:     210636
LLC RFO       ACCESS:          2  HIT:          0  MISS:          2
LLC PREFETCH  ACCESS:    3953676  HIT:        832  MISS:    3952844
LLC WRITEBACK ACCESS:      34124  HIT:      34119  MISS:          5

CPU 3 cumulative IPC: 1.07124 instructions: 340733103 cycles: 318074858
L1D TOTAL     ACCESS:  135727947  HIT:  108631770  MISS:   27096177
L1D LOAD      ACCESS:  108852426  HIT:   84001723  MISS:   24850703
L1D RFO       ACCESS:   26875521  HIT:   24630047  MISS:    2245474
L1D PREFETCH  ACCESS:          0  HIT:          0  MISS:          0
L1D WRITEBACK ACCESS:          0  HIT:          0  MISS:          0
L1I TOTAL     ACCESS:   79634511  HIT:   69807707  MISS:    9826804
L1I LOAD      ACCESS:   79634511  HIT:   69807707  MISS:    9826804
L1I RFO       ACCESS:          0  HIT:          0  MISS:          0
L1I PREFETCH  ACCESS:          0  HIT:          0  MISS:          0
L1I WRITEBACK ACCESS:          0  HIT:          0  MISS:          0
L2C TOTAL     ACCESS:   42184188  HIT:   38595521  MISS:    3588667
L2C LOAD      ACCESS:   34675686  HIT:   33852836  MISS:     822850
L2C RFO       ACCESS:    2243739  HIT:    1922540  MISS:     321199
L2C PREFETCH  ACCESS:    2764787  HIT:     324643  MISS:    2440144
L2C WRITEBACK ACCESS:    2499976  HIT:    2495502  MISS:       4474

L2C Best-offset prefetcher final stats
LLC TOTAL     ACCESS:    4100632  HIT:    3191229  MISS:     909403
LLC LOAD      ACCESS:     817546  HIT:     800443  MISS:      17103
LLC RFO       ACCESS:     292852  HIT:      93390  MISS:     199462
LLC PREFETCH  ACCESS:    2663728  HIT:    1972245  MISS:     691483
LLC WRITEBACK ACCESS:     326506  HIT:     325151  MISS:       1355

CPU 4 cumulative IPC: 0.899725 instructions: 286179851 cycles: 318074858
L1D TOTAL     ACCESS:   58098181  HIT:   51999337  MISS:    6098844
L1D LOAD      ACCESS:   53542855  HIT:   47454755  MISS:    6088100
L1D RFO       ACCESS:    4555326  HIT:    4544582  MISS:      10744
L1D PREFETCH  ACCESS:          0  HIT:          0  MISS:          0
L1D WRITEBACK ACCESS:          0  HIT:          0  MISS:          0
L1I TOTAL     ACCESS:  100304118  HIT:  100304026  MISS:         92
L1I LOAD      ACCESS:  100304118  HIT:  100304026  MISS:         92
L1I RFO       ACCESS:          0  HIT:          0  MISS:          0
L1I PREFETCH  ACCESS:          0  HIT:          0  MISS:          0
L1I WRITEBACK ACCESS:          0  HIT:          0  MISS:          0
L2C TOTAL     ACCESS:   10313457  HIT:    5374460  MISS:    4938997
L2C LOAD      ACCESS:    6088190  HIT:    5317387  MISS:     770803
L2C RFO       ACCESS:      10744  HIT:       3143  MISS:       7601
L2C PREFETCH  ACCESS:    4199005  HIT:      38414  MISS:    4160591
L2C WRITEBACK ACCESS:      15518  HIT:      15516  MISS:          2

L2C Best-offset prefetcher final stats
LLC TOTAL     ACCESS:    4949847  HIT:    4882374  MISS:      67473
LLC LOAD      ACCESS:     761924  HIT:     751018  MISS:      10906
LLC RFO       ACCESS:       7596  HIT:       2903  MISS:       4693
LLC PREFETCH  ACCESS:    4169483  HIT:    4120635  MISS:      48848
LLC WRITEBACK ACCESS:      10844  HIT:       7818  MISS:       3026

CPU 5 cumulative IPC: 0.589573 instructions: 187528374 cycles: 318074858
L1D TOTAL     ACCESS:   55559905  HIT:   54148343  MISS:    1411562
L1D LOAD      ACCESS:   35662986  HIT:   34732393  MISS:     930593
L1D RFO       ACCESS:   19896919  HIT:   19415950  MISS:     480969
L1D PREFETCH  ACCESS:          0  HIT:          0  MISS:          0
L1D WRITEBACK ACCESS:          0  HIT:          0  MISS:          0
L1I TOTAL     ACCESS:   72542825  HIT:   72542762  MISS:         63
L1I LOAD      ACCESS:   72542825  HIT:   72542762  MISS:         63
L1I RFO       ACCESS:          0  HIT:          0  MISS:          0
L1I PREFETCH  ACCESS:          0  HIT:          0  MISS:          0
L1I WRITEBACK ACCESS:          0  HIT:          0  MISS:          0
L2C TOTAL     ACCESS:    2601514  HIT:    1166808  MISS:    1434706
L2C LOAD      ACCESS:     930656  HIT:     682604  MISS:     248052
L2C RFO       ACCESS:     480969  HIT:          9  MISS:     480960
L2C PREFETCH  ACCESS:     705843  HIT:        755  MISS:     705088
L2C WRITEBACK ACCESS:     484046  HIT:     483440  MISS:        606

L2C Best-offset prefetcher final stats
LLC TOTAL     ACCESS:    1980502  HIT:     503594  MISS:    1476908
LLC LOAD      ACCESS:     158840  HIT:      61175  MISS:      97665
LLC RFO       ACCESS:     480960  HIT:          0  MISS:     480960
LLC PREFETCH  ACCESS:     859617  HIT:        334  MISS:     859283
LLC WRITEBACK ACCESS:     481085  HIT:     442085  MISS:      39000

CPU 6 cumulative IPC: 1.00287 instructions: 318986451 cycles: 318074858
L1D TOTAL     ACCESS:   97494143  HIT:   92193902  MISS:    5300241
L1D LOAD      ACCESS:   81727338  HIT:   76948869  MISS:    4778469
L1D RFO       ACCESS:   15766805  HIT:   15245033  MISS:     521772
L1D PREFETCH  ACCESS:          0  HIT:          0  MISS:          0
L1D WRITEBACK ACCESS:          0  HIT:          0  MISS:          0
L1I TOTAL     ACCESS:   79955295  HIT:   79955122  MISS:        173
L1I LOAD      ACCESS:   79955295  HIT:   79955122  MISS:        173
L1I RFO       ACCESS:          0  HIT:          0  MISS:          0
L1I PREFETCH  ACCESS:          0  HIT:          0  MISS:          0
L1I WRITEBACK ACCESS:          0  HIT:          0  MISS:          0
L2C TOTAL     ACCESS:    9727021  HIT:    5782954  MISS:    3944067
L2C LOAD      ACCESS:    4778441  HIT:    4423805  MISS:     354636
L2C RFO       ACCESS:     521772  HIT:         79  MISS:     521693
L2C PREFETCH  ACCESS:    3069765  HIT:       3846  MISS:    3065919
L2C WRITEBACK ACCESS:    1357043  HIT:    1355224  MISS:       1819

L2C Best-offset prefetcher final stats
LLC TOTAL     ACCESS:    4469849  HIT:    1532531  MISS:    2937318
LLC LOAD      ACCESS:     276708  HIT:      60910  MISS:     215798
LLC RFO       ACCESS:     521693  HIT:     238487  MISS:     283206
LLC PREFETCH  ACCESS:    3146411  HIT:     708168  MISS:    2438243
LLC WRITEBACK ACCESS:     525037  HIT:     524966  MISS:         71

CPU 7 cumulative IPC: 0.704121 instructions: 223963321 cycles: 318074858
L1D TOTAL     ACCESS:   47261730  HIT:   44297866  MISS:    2963864
L1D LOAD      ACCESS:   31545827  HIT:   28585393  MISS:    2960434
L1D RFO       ACCESS:   15715903  HIT:   15712473  MISS:       3430
L1D PREFETCH  ACCESS:          0  HIT:          0  MISS:          0
L1D WRITEBACK ACCESS:          0  HIT:          0  MISS:          0
L1I TOTAL     ACCESS:   45651943  HIT:   45651943  MISS:          0
L1I LOAD      ACCESS:   45651943  HIT:   45651943  MISS:          0
L1I RFO       ACCESS:          0  HIT:          0  MISS:          0
L1I PREFETCH  ACCESS:          0  HIT:          0  MISS:          0
L1I WRITEBACK ACCESS:          0  HIT:          0  MISS:          0
L2C TOTAL     ACCESS:    6552988  HIT:    3665708  MISS:    2887280
L2C LOAD      ACCESS:    2960434  HIT:    1694189  MISS:    1266245
L2C RFO       ACCESS:       3430  HIT:        557  MISS:       2873
L2C PREFETCH  ACCESS:    1621588  HIT:       3426  MISS:    1618162
L2C WRITEBACK ACCESS:    1967536  HIT:    1967536  MISS:          0

L2C Best-offset prefetcher final stats
LLC TOTAL     ACCESS:    4853783  HIT:    2889136  MISS:    1964647
LLC LOAD      ACCESS:      59006  HIT:      28084  MISS:      30922
LLC RFO       ACCESS:       2873  HIT:       2873  MISS:          0
LLC PREFETCH  ACCESS:    2825402  HIT:     891691  MISS:    1933711
LLC WRITEBACK ACCESS:    1966502  HIT:    1966488  MISS:         14

Region of Interest Statistics

CPU 0 cumulative IPC: 0.314391 instructions: 100000001 cycles: 318074857
L1D TOTAL     ACCESS:   38890419  HIT:   34855545  MISS:    4034874
L1D LOAD      ACCESS:   27925654  HIT:   24284306  MISS:    3641348
L1D RFO       ACCESS:   10964765  HIT:   10571239  MISS:     393526
L1D PREFETCH  ACCESS:          0  HIT:          0  MISS:          0
L1D WRITEBACK ACCESS:          0  HIT:          0  MISS:          0
L1D PREFETCH  REQUESTED:          0  ISSUED:          0  USEFUL:          0  USELESS:          0
L1I TOTAL     ACCESS:   23869043  HIT:   23869043  MISS:          0
L1I LOAD      ACCESS:   23869043  HIT:   23869043  MISS:          0
L1I RFO       ACCESS:          0  HIT:          0  MISS:          0
L1I PREFETCH  ACCESS:          0  HIT:          0  MISS:          0
L1I WRITEBACK ACCESS:          0  HIT:          0  MISS:          0
L1I PREFETCH  REQUESTED:          0  ISSUED:          0  USEFUL:          0  USELESS:          0
L2C TOTAL     ACCESS:    6928730  HIT:    2555193  MISS:    4373537
L2C LOAD      ACCESS:    3641339  HIT:    1732941  MISS:    1908398
L2C RFO       ACCESS:     393514  HIT:      75997  MISS:     317517
L2C PREFETCH  ACCESS:    2332750  HIT:     186387  MISS:    2146363
L2C WRITEBACK ACCESS:     561127  HIT:     559868  MISS:       1259
L2C PREFETCH  REQUESTED:    3039897  ISSUED:    3039897  USEFUL:    1006488  USELESS:    1635414
LLC TOTAL     ACCESS:    4856547  HIT:    3501195  MISS:    1355352
LLC LOAD      ACCESS:    1837645  HIT:    1439816  MISS:     397829
LLC RFO       ACCESS:     317510  HIT:     316477  MISS:       1033
LLC PREFETCH  ACCESS:    2286839  HIT:    1330399  MISS:     956440
LLC WRITEBACK ACCESS:     414553  HIT:     414503  MISS:         50
LLC PREFETCH  REQUESTED:          0  ISSUED:          0  USEFUL:     623682  USELESS:   11909893
Major fault: 0 Minor fault: 17210

CPU 1 cumulative IPC: 0.385027 instructions: 100000000 cycles: 259721721
L1D TOTAL     ACCESS:   24251751  HIT:   19204384  MISS:    5047367
L1D LOAD      ACCESS:   17327820  HIT:   12485712  MISS:    4842108
L1D RFO       ACCESS:    6923931  HIT:    6718672  MISS:     205259
L1D PREFETCH  ACCESS:          0  HIT:          0  MISS:          0
L1D WRITEBACK ACCESS:          0  HIT:          0  MISS:          0
L1D PREFETCH  REQUESTED:          0  ISSUED:          0  USEFUL:          0  USELESS:          0
L1I TOTAL     ACCESS:   43733233  HIT:   43482129  MISS:     251104
L1I LOAD      ACCESS:   43733233  HIT:   43482129  MISS:     251104
L1I RFO       ACCESS:          0  HIT:          0  MISS:          0
L1I PREFETCH  ACCESS:          0  HIT:          0  MISS:          0
L1I WRITEBACK ACCESS:          0  HIT:          0  MISS:          0
L1I PREFETCH  REQUESTED:          0  ISSUED:          0  USEFUL:          0  USELESS:          0
L2C TOTAL     ACCESS:    7647335  HIT:    3753874  MISS:    3893461
L2C LOAD      ACCESS:    5093170  HIT:    2737323  MISS:    2355847
L2C RFO       ACCESS:     205251  HIT:      36655  MISS:     168596
L2C PREFETCH  ACCESS:    2032459  HIT:     663707  MISS:    1368752
L2C WRITEBACK ACCESS:     316455  HIT:     316189  MISS:        266
L2C PREFETCH  REQUESTED:    3870812  ISSUED:    3870812  USEFUL:     547468  USELESS:    1505348
LLC TOTAL     ACCESS:    4135489  HIT:    3913077  MISS:     222412
LLC LOAD      ACCESS:    2230088  HIT:    2193458  MISS:      36630
LLC RFO       ACCESS:     167505  HIT:      14428  MISS:     153077
LLC PREFETCH  ACCESS:    1496073  HIT:    1466873  MISS:      29200
LLC WRITEBACK ACCESS:     241823  HIT:     238318  MISS:       3505
LLC PREFETCH  REQUESTED:          0  ISSUED:          0  USEFUL:     623682  USELESS:   11909893
Major fault: 0 Minor fault: 4237

CPU 2 cumulative IPC: 0.604351 instructions: 100000001 cycles: 165466705
L1D TOTAL     ACCESS:    8531925  HIT:    6945744  MISS:    1586181
L1D LOAD      ACCESS:    5941964  HIT:    4355784  MISS:    1586180
L1D RFO       ACCESS:    2589961  HIT:    2589960  MISS:          1
L1D PREFETCH  ACCESS:          0  HIT:          0  MISS:          0
L1D WRITEBACK ACCESS:          0  HIT:          0  MISS:          0
L1D PREFETCH  REQUESTED:          0  ISSUED:          0  USEFUL:          0  USELESS:          0
L1I TOTAL     ACCESS:   22351561  HIT:   22351557  MISS:          4
L1I LOAD      ACCESS:   22351561  HIT:   22351557  MISS:          4
L1I RFO       ACCESS:          0  HIT:          0  MISS:          0
L1I PREFETCH  ACCESS:          0  HIT:          0  MISS:          0
L1I WRITEBACK ACCESS:          0  HIT:          0  MISS:          0
L1I PREFETCH  REQUESTED:          0  ISSUED:          0  USEFUL:          0  USELESS:          0
L2C TOTAL     ACCESS:    1923507  HIT:     336976  MISS:    1586531
L2C LOAD      ACCESS:    1586181  HIT:     304592  MISS:    1281589
L2C RFO       ACCESS:          1  HIT:          0  MISS:          1
L2C PREFETCH  ACCESS:     304972  HIT:         54  MISS:     304918
L2C WRITEBACK ACCESS:      32353  HIT:      32330  MISS:         23
L2C PREFETCH  REQUESTED:    5056637  ISSUED:    5056637  USEFUL:    3043399  USELESS:       1348
LLC TOTAL     ACCESS:    1625469  HIT:      39692  MISS:    1585777
LLC LOAD      ACCESS:      67965  HIT:       5203  MISS:      62762
LLC RFO       ACCESS:          1  HIT:          0  MISS:          1
LLC PREFETCH  ACCESS:    1523383  HIT:        372  MISS:    1523011
LLC WRITEBACK ACCESS:      34120  HIT:      34117  MISS:          3
LLC PREFETCH  REQUESTED:          0  ISSUED:          0  USEFUL:     623682  USELESS:   11909893
Major fault: 0 Minor fault: 63028

CPU 3 cumulative IPC: 1.06885 instructions: 100000000 cycles: 93558353
L1D TOTAL     ACCESS:   39832418  HIT:   31880956  MISS:    7951462
L1D LOAD      ACCESS:   31945006  HIT:   24652369  MISS:    7292637
L1D RFO       ACCESS:    7887412  HIT:    7228587  MISS:     658825
L1D PREFETCH  ACCESS:          0  HIT:          0  MISS:          0
L1D WRITEBACK ACCESS:          0  HIT:          0  MISS:          0
L1D PREFETCH  REQUESTED:          0  ISSUED:          0  USEFUL:          0  USELESS:          0
L1I TOTAL     ACCESS:   23375462  HIT:   20491188  MISS:    2884274
L1I LOAD      ACCESS:   23375462  HIT:   20491188  MISS:    2884274
L1I RFO       ACCESS:          0  HIT:          0  MISS:          0
L1I PREFETCH  ACCESS:          0  HIT:          0  MISS:          0
L1I WRITEBACK ACCESS:          0  HIT:          0  MISS:          0
L1I PREFETCH  REQUESTED:          0  ISSUED:          0  USEFUL:          0  USELESS:          0
L2C TOTAL     ACCESS:   12348631  HIT:   11331401  MISS:    1017230
L2C LOAD      ACCESS:   10176393  HIT:    9949022  MISS:     227371
L2C RFO       ACCESS:     658320  HIT:     564536  MISS:      93784
L2C PREFETCH  ACCESS:     780345  HIT:      85735  MISS:     694610
L2C WRITEBACK ACCESS:     733573  HIT:     732108  MISS:       1465
L2C PREFETCH  REQUESTED:    3236998  ISSUED:    3236285  USEFUL:    2415759  USELESS:     204702
LLC TOTAL     ACCESS:    1178765  HIT:     911032  MISS:     267733
LLC LOAD      ACCESS:     226207  HIT:     220913  MISS:       5294
LLC RFO       ACCESS:      85603  HIT:      27041  MISS:      58562
LLC PREFETCH  ACCESS:     771435  HIT:     567928  MISS:     203507
LLC WRITEBACK ACCESS:      95520  HIT:      95150  MISS:        370
LLC PREFETCH  REQUESTED:          0  ISSUED:          0  USEFUL:     623682  USELESS:   11909893
Major fault: 0 Minor fault: 10540

CPU 4 cumulative IPC: 0.94985 instructions: 100000001 cycles: 105279736
L1D TOTAL     ACCESS:   19521508  HIT:   17619147  MISS:    1902361
L1D LOAD      ACCESS:   18209652  HIT:   16307862  MISS:    1901790
L1D RFO       ACCESS:    1311856  HIT:    1311285  MISS:        571
L1D PREFETCH  ACCESS:          0  HIT:          0  MISS:          0
L1D WRITEBACK ACCESS:          0  HIT:          0  MISS:          0
L1D PREFETCH  REQUESTED:          0  ISSUED:          0  USEFUL:          0  USELESS:          0
L1I TOTAL     ACCESS:   35101092  HIT:   35101092  MISS:          0
L1I LOAD      ACCESS:   35101092  HIT:   35101092  MISS:          0
L1I RFO       ACCESS:          0  HIT:          0  MISS:          0
L1I PREFETCH  ACCESS:          0  HIT:          0  MISS:          0
L1I WRITEBACK ACCESS:          0  HIT:          0  MISS:          0
L1I PREFETCH  REQUESTED:          0  ISSUED:          0  USEFUL:          0  USELESS:          0
L2C TOTAL     ACCESS:    3605070  HIT:    1608354  MISS:    1996716
L2C LOAD      ACCESS:    1901790  HIT:    1603060  MISS:     298730
L2C RFO       ACCESS:        571  HIT:        272  MISS:        299
L2C PREFETCH  ACCESS:    1701870  HIT:       4183  MISS:    1697687
L2C WRITEBACK ACCESS:        839  HIT:        839  MISS:          0
L2C PREFETCH  REQUESTED:    4790263  ISSUED:    4790263  USEFUL:    4308522  USELESS:     277435
LLC TOTAL     ACCESS:    1997561  HIT:    1976074  MISS:      21487
LLC LOAD      ACCESS:     294537  HIT:     292711  MISS:       1826
LLC RFO       ACCESS:        299  HIT:        221  MISS:         78
LLC PREFETCH  ACCESS:    1701886  HIT:    1682303  MISS:      19583
LLC WRITEBACK ACCESS:        839  HIT:        839  MISS:          0
LLC PREFETCH  REQUESTED:          0  ISSUED:          0  USEFUL:     623682  USELESS:   11909893
Major fault: 0 Minor fault: 1844

CPU 5 cumulative IPC: 0.594595 instructions: 100000001 cycles: 168181697
L1D TOTAL     ACCESS:   29710236  HIT:   28921140  MISS:     789096
L1D LOAD      ACCESS:   19247018  HIT:   18726062  MISS:     520956
L1D RFO       ACCESS:   10463218  HIT:   10195078  MISS:     268140
L1D PREFETCH  ACCESS:          0  HIT:          0  MISS:          0
L1D WRITEBACK ACCESS:          0  HIT:          0  MISS:          0
L1D PREFETCH  REQUESTED:          0  ISSUED:          0  USEFUL:          0  USELESS:          0
L1I TOTAL     ACCESS:   38477345  HIT:   38477282  MISS:         63
L1I LOAD      ACCESS:   38477345  HIT:   38477282  MISS:         63
L1I RFO       ACCESS:          0  HIT:          0  MISS:          0
L1I PREFETCH  ACCESS:          0  HIT:          0  MISS:          0
L1I WRITEBACK ACCESS:          0  HIT:          0  MISS:          0
L1I PREFETCH  REQUESTED:          0  ISSUED:          0  USEFUL:          0  USELESS:          0
L2C TOTAL     ACCESS:    1461930  HIT:     664013  MISS:     797917
L2C LOAD      ACCESS:     521019  HIT:     393720  MISS:     127299
L2C RFO       ACCESS:     268140  HIT:          4  MISS:     268136
L2C PREFETCH  ACCESS:     402493  HIT:        412  MISS:     402081
L2C WRITEBACK ACCESS:     270278  HIT:     269877  MISS:        401
L2C PREFETCH  REQUESTED:     881809  ISSUED:     881809  USEFUL:     693136  USELESS:      31675
LLC TOTAL     ACCESS:    1100602  HIT:     282158  MISS:     818444
LLC LOAD      ACCESS:      79305  HIT:      33006  MISS:      46299
LLC RFO       ACCESS:     268136  HIT:          0  MISS:     268136
LLC PREFETCH  ACCESS:     484690  HIT:        184  MISS:     484506
LLC WRITEBACK ACCESS:     268471  HIT:     248968  MISS:      19503
LLC PREFETCH  REQUESTED:          0  ISSUED:          0  USEFUL:     623682  USELESS:   11909893
Major fault: 0 Minor fault: 17751

CPU 6 cumulative IPC: 1.14277 instructions: 100000000 cycles: 87506696
L1D TOTAL     ACCESS:   30171382  HIT:   28964439  MISS:    1206943
L1D LOAD      ACCESS:   21740655  HIT:   21032431  MISS:     708224
L1D RFO       ACCESS:    8430727  HIT:    7932008  MISS:     498719
L1D PREFETCH  ACCESS:          0  HIT:          0  MISS:          0
L1D WRITEBACK ACCESS:          0  HIT:          0  MISS:          0
L1D PREFETCH  REQUESTED:          0  ISSUED:          0  USEFUL:          0  USELESS:          0
L1I TOTAL     ACCESS:   24837395  HIT:   24837224  MISS:        171
L1I LOAD      ACCESS:   24837395  HIT:   24837224  MISS:        171
L1I RFO       ACCESS:          0  HIT:          0  MISS:          0
L1I PREFETCH  ACCESS:          0  HIT:          0  MISS:          0
L1I WRITEBACK ACCESS:          0  HIT:          0  MISS:          0
L1I PREFETCH  REQUESTED:          0  ISSUED:          0  USEFUL:          0  USELESS:          0
L2C TOTAL     ACCESS:    2180047  HIT:    1157406  MISS:    1022641
L2C LOAD      ACCESS:     708395  HIT:     654317  MISS:      54078
L2C RFO       ACCESS:     498719  HIT:         79  MISS:     498640
L2C PREFETCH  ACCESS:     471170  HIT:       3063  MISS:     468107
L2C WRITEBACK ACCESS:     501763  HIT:     499947  MISS:       1816
L2C PREFETCH  REQUESTED:    3289943  ISSUED:    3289943  USEFUL:    3078165  USELESS:     122999
LLC TOTAL     ACCESS:    1523017  HIT:    1029230  MISS:     493787
LLC LOAD      ACCESS:      43348  HIT:      20483  MISS:      22865
LLC RFO       ACCESS:     498640  HIT:     238255  MISS:     260385
LLC PREFETCH  ACCESS:     479643  HIT:     269166  MISS:     210477
LLC WRITEBACK ACCESS:     501386  HIT:     501326  MISS:         60
LLC PREFETCH  REQUESTED:          0  ISSUED:          0  USEFUL:     623682  USELESS:   11909893
Major fault: 0 Minor fault: 84728

CPU 7 cumulative IPC: 0.696503 instructions: 100000000 cycles: 143574448
L1D TOTAL     ACCESS:   21104497  HIT:   19781122  MISS:    1323375
L1D LOAD      ACCESS:   14087316  HIT:   12765474  MISS:    1321842
L1D RFO       ACCESS:    7017181  HIT:    7015648  MISS:       1533
L1D PREFETCH  ACCESS:          0  HIT:          0  MISS:          0
L1D WRITEBACK ACCESS:          0  HIT:          0  MISS:          0
L1D PREFETCH  REQUESTED:          0  ISSUED:          0  USEFUL:          0  USELESS:          0
L1I TOTAL     ACCESS:   20390895  HIT:   20390895  MISS:          0
L1I LOAD      ACCESS:   20390895  HIT:   20390895  MISS:          0
L1I RFO       ACCESS:          0  HIT:          0  MISS:          0
L1I PREFETCH  ACCESS:          0  HIT:          0  MISS:          0
L1I WRITEBACK ACCESS:          0  HIT:          0  MISS:          0
L1I PREFETCH  REQUESTED:          0  ISSUED:          0  USEFUL:          0  USELESS:          0
L2C TOTAL     ACCESS:    2929440  HIT:    1640614  MISS:    1288826
L2C LOAD      ACCESS:    1321842  HIT:     760281  MISS:     561561
L2C RFO       ACCESS:       1533  HIT:        250  MISS:       1283
L2C PREFETCH  ACCESS:     727569  HIT:       1587  MISS:     725982
L2C WRITEBACK ACCESS:     878496  HIT:     878496  MISS:          0
L2C PREFETCH  REQUESTED:    3206139  ISSUED:    3206139  USEFUL:    1982821  USELESS:       9047
LLC TOTAL     ACCESS:    2166888  HIT:    1289587  MISS:     877301
LLC LOAD      ACCESS:      26347  HIT:      12593  MISS:      13754
LLC RFO       ACCESS:       1283  HIT:       1283  MISS:          0
LLC PREFETCH  ACCESS:    1261196  HIT:     397654  MISS:     863542
LLC WRITEBACK ACCESS:     878062  HIT:     878057  MISS:          5
LLC PREFETCH  REQUESTED:          0  ISSUED:          0  USEFUL:     623682  USELESS:   11909893
Major fault: 0 Minor fault: 34838

L2C Best-offset prefetcher final stats

L2C Best-offset prefetcher final stats

L2C Best-offset prefetcher final stats

L2C Best-offset prefetcher final stats

L2C Best-offset prefetcher final stats

L2C Best-offset prefetcher final stats

L2C Best-offset prefetcher final stats

L2C Best-offset prefetcher final stats

DRAM Statistics
 CHANNEL 0
 RQ ROW_BUFFER_HIT:    4337455  ROW_BUFFER_MISS:    2212418
 DBUS_CONGESTED:    8735785
 WQ ROW_BUFFER_HIT:     181087  ROW_BUFFER_MISS:    1460138  FULL:          0

 CHANNEL 1
 RQ ROW_BUFFER_HIT:    4334252  ROW_BUFFER_MISS:    2219096
 DBUS_CONGESTED:    8735785
 WQ ROW_BUFFER_HIT:     181470  ROW_BUFFER_MISS:    1460185  FULL:          0

 AVG_CONGESTED_CYCLE: 13
