
*** ChampSim Multicore Out-of-Order Simulator ***

Warmup Instructions: 20000000
Simulation Instructions: 100000000
Number of CPUs: 8
LLC sets: 16384
LLC ways: 16
Off-chip DRAM Size: 8192 MB Channels: 2 Width: 64-bit Data Rate: 1600 MT/s

CPU 0 runs /scratch/user/djimenez/champsim-traces/speccpu2017/xz/603.bwaves_s/603.bwaves_s-891B.champsimtrace.xz
CPU 1 runs /scratch/user/djimenez/champsim-traces/speccpu2017/xz/654.roms_s/654.roms_s-523B.champsimtrace.xz
CPU 2 runs /scratch/user/djimenez/champsim-traces/speccpu2017/xz/605.mcf_s/605.mcf_s-1644B.champsimtrace.xz
CPU 3 runs /scratch/user/djimenez/champsim-traces/speccpu2017/xz/654.roms_s/654.roms_s-1007B.champsimtrace.xz
CPU 4 runs /scratch/user/djimenez/champsim-traces/speccpu2017/xz/619.lbm_s/619.lbm_s-2677B.champsimtrace.xz
CPU 5 runs /scratch/user/djimenez/champsim-traces/speccpu2017/xz/654.roms_s/654.roms_s-294B.champsimtrace.xz
CPU 6 runs /scratch/user/djimenez/champsim-traces/speccpu2017/xz/619.lbm_s/619.lbm_s-3766B.champsimtrace.xz
CPU 7 runs /scratch/user/djimenez/champsim-traces/speccpu2017/xz/605.mcf_s/605.mcf_s-484B.champsimtrace.xz
L2C Best-offset prefetcher
L2C Best-offset prefetcher
L2C Best-offset prefetcher
L2C Best-offset prefetcher
L2C Best-offset prefetcher
L2C Best-offset prefetcher
L2C Best-offset prefetcher
L2C Best-offset prefetcher
Heartbeat CPU 0 instructions: 10000003 cycles: 3200524 heartbeat IPC: 3.12449 cumulative IPC: 3.12449 (Simulation time: 0 hr 2 min 50 sec) 
Heartbeat CPU 6 instructions: 10000000 cycles: 4276583 heartbeat IPC: 2.33832 cumulative IPC: 2.33832 (Simulation time: 0 hr 3 min 45 sec) 
Heartbeat CPU 1 instructions: 10000000 cycles: 4698492 heartbeat IPC: 2.12834 cumulative IPC: 2.12834 (Simulation time: 0 hr 4 min 7 sec) 
Heartbeat CPU 5 instructions: 10000003 cycles: 4879564 heartbeat IPC: 2.04936 cumulative IPC: 2.04936 (Simulation time: 0 hr 4 min 17 sec) 
Heartbeat CPU 4 instructions: 10000001 cycles: 4921391 heartbeat IPC: 2.03195 cumulative IPC: 2.03195 (Simulation time: 0 hr 4 min 19 sec) 
Heartbeat CPU 3 instructions: 10000002 cycles: 5109331 heartbeat IPC: 1.9572 cumulative IPC: 1.9572 (Simulation time: 0 hr 4 min 29 sec) 
Heartbeat CPU 0 instructions: 20000000 cycles: 6402209 heartbeat IPC: 3.12335 cumulative IPC: 3.12392 (Simulation time: 0 hr 5 min 36 sec) 
Heartbeat CPU 7 instructions: 10000000 cycles: 6886931 heartbeat IPC: 1.45203 cumulative IPC: 1.45203 (Simulation time: 0 hr 6 min 1 sec) 
Heartbeat CPU 6 instructions: 20000000 cycles: 8562707 heartbeat IPC: 2.33311 cumulative IPC: 2.33571 (Simulation time: 0 hr 7 min 29 sec) 
Heartbeat CPU 1 instructions: 20000000 cycles: 9189566 heartbeat IPC: 2.22664 cumulative IPC: 2.17638 (Simulation time: 0 hr 8 min 3 sec) 
Heartbeat CPU 0 instructions: 30000003 cycles: 9603356 heartbeat IPC: 3.12388 cumulative IPC: 1.0413 (Simulation time: 0 hr 8 min 25 sec) 
Heartbeat CPU 5 instructions: 20000000 cycles: 9758758 heartbeat IPC: 2.04952 cumulative IPC: 2.04944 (Simulation time: 0 hr 8 min 34 sec) 
Heartbeat CPU 4 instructions: 20000000 cycles: 9811881 heartbeat IPC: 2.04478 cumulative IPC: 2.03835 (Simulation time: 0 hr 8 min 37 sec) 
Heartbeat CPU 3 instructions: 20000000 cycles: 10218154 heartbeat IPC: 1.9574 cumulative IPC: 1.9573 (Simulation time: 0 hr 8 min 59 sec) 
Heartbeat CPU 2 instructions: 10000002 cycles: 10576626 heartbeat IPC: 0.945481 cumulative IPC: 0.945481 (Simulation time: 0 hr 9 min 19 sec) 
Heartbeat CPU 0 instructions: 40000000 cycles: 12806809 heartbeat IPC: 3.12163 cumulative IPC: 1.56167 (Simulation time: 0 hr 11 min 19 sec) 
Heartbeat CPU 6 instructions: 30000001 cycles: 12840354 heartbeat IPC: 2.33773 cumulative IPC: 0.778795 (Simulation time: 0 hr 11 min 21 sec) 
Heartbeat CPU 7 instructions: 20000000 cycles: 13695364 heartbeat IPC: 1.46877 cumulative IPC: 1.46035 (Simulation time: 0 hr 12 min 7 sec) 
Heartbeat CPU 5 instructions: 30000002 cycles: 14637924 heartbeat IPC: 2.04953 cumulative IPC: 0.683157 (Simulation time: 0 hr 12 min 55 sec) 
Heartbeat CPU 4 instructions: 30000000 cycles: 14728825 heartbeat IPC: 2.03378 cumulative IPC: 0.678941 (Simulation time: 0 hr 13 min 0 sec) 
Heartbeat CPU 1 instructions: 30000002 cycles: 14895298 heartbeat IPC: 1.75262 cumulative IPC: 0.671353 (Simulation time: 0 hr 13 min 8 sec) 
Heartbeat CPU 3 instructions: 30000000 cycles: 15327111 heartbeat IPC: 1.95735 cumulative IPC: 0.652439 (Simulation time: 0 hr 13 min 30 sec) 
Heartbeat CPU 0 instructions: 50000001 cycles: 16073899 heartbeat IPC: 3.06083 cumulative IPC: 1.86638 (Simulation time: 0 hr 14 min 9 sec) 
Heartbeat CPU 6 instructions: 40000000 cycles: 17126491 heartbeat IPC: 2.3331 cumulative IPC: 1.16778 (Simulation time: 0 hr 15 min 3 sec) 
Heartbeat CPU 0 instructions: 60000000 cycles: 19366916 heartbeat IPC: 3.03673 cumulative IPC: 2.06538 (Simulation time: 0 hr 16 min 57 sec) 
Heartbeat CPU 5 instructions: 40000000 cycles: 19517182 heartbeat IPC: 2.04949 cumulative IPC: 1.02474 (Simulation time: 0 hr 17 min 4 sec) 
Heartbeat CPU 4 instructions: 40000000 cycles: 19634329 heartbeat IPC: 2.03853 cumulative IPC: 1.01862 (Simulation time: 0 hr 17 min 10 sec) 
Heartbeat CPU 1 instructions: 40000000 cycles: 19643925 heartbeat IPC: 2.10587 cumulative IPC: 1.01813 (Simulation time: 0 hr 17 min 10 sec) 
Heartbeat CPU 3 instructions: 40000000 cycles: 20436132 heartbeat IPC: 1.95732 cumulative IPC: 0.978659 (Simulation time: 0 hr 17 min 50 sec) 
Heartbeat CPU 7 instructions: 30000000 cycles: 20453726 heartbeat IPC: 1.47965 cumulative IPC: 0.488908 (Simulation time: 0 hr 17 min 51 sec) 
Heartbeat CPU 2 instructions: 20000000 cycles: 21089635 heartbeat IPC: 0.951202 cumulative IPC: 0.948333 (Simulation time: 0 hr 18 min 23 sec) 

Warmup complete CPU 0 instructions: 65231265 cycles: 21089638 (Simulation time: 0 hr 18 min 23 sec) 
Warmup complete CPU 1 instructions: 42808691 cycles: 21089638 (Simulation time: 0 hr 18 min 23 sec) 
Warmup complete CPU 2 instructions: 20000001 cycles: 21089638 (Simulation time: 0 hr 18 min 23 sec) 
Warmup complete CPU 3 instructions: 41279350 cycles: 21089637 (Simulation time: 0 hr 18 min 23 sec) 
Warmup complete CPU 4 instructions: 42914635 cycles: 21089637 (Simulation time: 0 hr 18 min 23 sec) 
Warmup complete CPU 5 instructions: 43221969 cycles: 21089637 (Simulation time: 0 hr 18 min 23 sec) 
Warmup complete CPU 6 instructions: 49266648 cycles: 21089637 (Simulation time: 0 hr 18 min 23 sec) 
Warmup complete CPU 7 instructions: 30916406 cycles: 21089637 (Simulation time: 0 hr 18 min 23 sec) 

Heartbeat CPU 6 instructions: 50000003 cycles: 22950847 heartbeat IPC: 1.71693 cumulative IPC: 0.394021 (Simulation time: 0 hr 18 min 56 sec) 
Heartbeat CPU 0 instructions: 70000000 cycles: 31409934 heartbeat IPC: 0.830357 cumulative IPC: 0.462073 (Simulation time: 0 hr 21 min 14 sec) 
Heartbeat CPU 5 instructions: 50000001 cycles: 33487013 heartbeat IPC: 0.715828 cumulative IPC: 0.546731 (Simulation time: 0 hr 21 min 49 sec) 
Heartbeat CPU 3 instructions: 50000003 cycles: 40094854 heartbeat IPC: 0.50868 cumulative IPC: 0.458856 (Simulation time: 0 hr 23 min 39 sec) 
Heartbeat CPU 1 instructions: 50000000 cycles: 40441077 heartbeat IPC: 0.480835 cumulative IPC: 0.371616 (Simulation time: 0 hr 23 min 44 sec) 
Heartbeat CPU 4 instructions: 50000002 cycles: 41446201 heartbeat IPC: 0.458466 cumulative IPC: 0.348063 (Simulation time: 0 hr 24 min 1 sec) 
Heartbeat CPU 6 instructions: 60000000 cycles: 46568233 heartbeat IPC: 0.423417 cumulative IPC: 0.421269 (Simulation time: 0 hr 25 min 22 sec) 
Heartbeat CPU 5 instructions: 60000000 cycles: 50959555 heartbeat IPC: 0.572326 cumulative IPC: 0.561703 (Simulation time: 0 hr 26 min 29 sec) 
Heartbeat CPU 0 instructions: 80000000 cycles: 53493765 heartbeat IPC: 0.45282 cumulative IPC: 0.455767 (Simulation time: 0 hr 27 min 6 sec) 
Heartbeat CPU 5 instructions: 70000000 cycles: 67184585 heartbeat IPC: 0.616332 cumulative IPC: 0.580932 (Simulation time: 0 hr 31 min 28 sec) 
Heartbeat CPU 3 instructions: 60000000 cycles: 68084401 heartbeat IPC: 0.357276 cumulative IPC: 0.398356 (Simulation time: 0 hr 31 min 47 sec) 
Heartbeat CPU 6 instructions: 70000003 cycles: 68949230 heartbeat IPC: 0.446808 cumulative IPC: 0.433212 (Simulation time: 0 hr 32 min 7 sec) 
Heartbeat CPU 4 instructions: 60000000 cycles: 69519952 heartbeat IPC: 0.356205 cumulative IPC: 0.352782 (Simulation time: 0 hr 32 min 18 sec) 
Heartbeat CPU 1 instructions: 60000000 cycles: 71979733 heartbeat IPC: 0.317071 cumulative IPC: 0.337812 (Simulation time: 0 hr 33 min 6 sec) 
Heartbeat CPU 0 instructions: 90000000 cycles: 72422044 heartbeat IPC: 0.52831 cumulative IPC: 0.482517 (Simulation time: 0 hr 33 min 15 sec) 
Heartbeat CPU 7 instructions: 40000000 cycles: 72802035 heartbeat IPC: 0.191028 cumulative IPC: 0.175656 (Simulation time: 0 hr 33 min 23 sec) 
Heartbeat CPU 5 instructions: 80000000 cycles: 82427764 heartbeat IPC: 0.656031 cumulative IPC: 0.599595 (Simulation time: 0 hr 37 min 2 sec) 
Heartbeat CPU 3 instructions: 70000003 cycles: 85717965 heartbeat IPC: 0.567101 cumulative IPC: 0.444397 (Simulation time: 0 hr 38 min 16 sec) 
Heartbeat CPU 6 instructions: 80000000 cycles: 90527143 heartbeat IPC: 0.463437 cumulative IPC: 0.442604 (Simulation time: 0 hr 39 min 41 sec) 
Heartbeat CPU 0 instructions: 100000000 cycles: 90541012 heartbeat IPC: 0.551908 cumulative IPC: 0.50062 (Simulation time: 0 hr 39 min 42 sec) 
Heartbeat CPU 4 instructions: 70000001 cycles: 96202701 heartbeat IPC: 0.374774 cumulative IPC: 0.360595 (Simulation time: 0 hr 41 min 31 sec) 
Heartbeat CPU 5 instructions: 90000001 cycles: 98557048 heartbeat IPC: 0.61999 cumulative IPC: 0.603841 (Simulation time: 0 hr 42 min 14 sec) 
Heartbeat CPU 1 instructions: 70000002 cycles: 101210288 heartbeat IPC: 0.342108 cumulative IPC: 0.33938 (Simulation time: 0 hr 43 min 1 sec) 
Heartbeat CPU 3 instructions: 80000000 cycles: 103502307 heartbeat IPC: 0.562292 cumulative IPC: 0.469839 (Simulation time: 0 hr 43 min 41 sec) 
Heartbeat CPU 0 instructions: 110000002 cycles: 109917119 heartbeat IPC: 0.5161 cumulative IPC: 0.503996 (Simulation time: 0 hr 45 min 38 sec) 
Heartbeat CPU 6 instructions: 90000000 cycles: 112649619 heartbeat IPC: 0.452029 cumulative IPC: 0.444882 (Simulation time: 0 hr 46 min 29 sec) 
Heartbeat CPU 2 instructions: 30000003 cycles: 112971367 heartbeat IPC: 0.108836 cumulative IPC: 0.108836 (Simulation time: 0 hr 46 min 35 sec) 
Heartbeat CPU 5 instructions: 100000000 cycles: 114262129 heartbeat IPC: 0.636737 cumulative IPC: 0.609386 (Simulation time: 0 hr 46 min 59 sec) 
Heartbeat CPU 3 instructions: 90000003 cycles: 121229942 heartbeat IPC: 0.564091 cumulative IPC: 0.486524 (Simulation time: 0 hr 49 min 11 sec) 
Heartbeat CPU 4 instructions: 80000000 cycles: 122965595 heartbeat IPC: 0.373652 cumulative IPC: 0.364025 (Simulation time: 0 hr 49 min 43 sec) 
Heartbeat CPU 1 instructions: 80000000 cycles: 123105431 heartbeat IPC: 0.456722 cumulative IPC: 0.364564 (Simulation time: 0 hr 49 min 45 sec) 
Heartbeat CPU 0 instructions: 120000000 cycles: 127753570 heartbeat IPC: 0.56065 cumulative IPC: 0.51347 (Simulation time: 0 hr 51 min 11 sec) 
Heartbeat CPU 5 instructions: 110000002 cycles: 129766770 heartbeat IPC: 0.644968 cumulative IPC: 0.614463 (Simulation time: 0 hr 51 min 47 sec) 
Heartbeat CPU 7 instructions: 50000003 cycles: 131314491 heartbeat IPC: 0.170904 cumulative IPC: 0.173133 (Simulation time: 0 hr 52 min 15 sec) 
Heartbeat CPU 6 instructions: 100000000 cycles: 134458113 heartbeat IPC: 0.458537 cumulative IPC: 0.447508 (Simulation time: 0 hr 53 min 11 sec) 
Heartbeat CPU 3 instructions: 100000000 cycles: 138955108 heartbeat IPC: 0.564169 cumulative IPC: 0.498201 (Simulation time: 0 hr 54 min 33 sec) 
Heartbeat CPU 1 instructions: 90000002 cycles: 143307493 heartbeat IPC: 0.494999 cumulative IPC: 0.386125 (Simulation time: 0 hr 55 min 55 sec) 
Heartbeat CPU 5 instructions: 120000000 cycles: 145718362 heartbeat IPC: 0.626897 cumulative IPC: 0.616054 (Simulation time: 0 hr 56 min 38 sec) 
Heartbeat CPU 0 instructions: 130000001 cycles: 146239148 heartbeat IPC: 0.540962 cumulative IPC: 0.517531 (Simulation time: 0 hr 56 min 48 sec) 
Heartbeat CPU 4 instructions: 90000001 cycles: 150610788 heartbeat IPC: 0.361727 cumulative IPC: 0.363534 (Simulation time: 0 hr 58 min 11 sec) 
Heartbeat CPU 3 instructions: 110000002 cycles: 156696609 heartbeat IPC: 0.56365 cumulative IPC: 0.506763 (Simulation time: 1 hr 0 min 9 sec) 
Heartbeat CPU 6 instructions: 110000001 cycles: 156824491 heartbeat IPC: 0.4471 cumulative IPC: 0.447441 (Simulation time: 1 hr 0 min 11 sec) 
Heartbeat CPU 5 instructions: 130000000 cycles: 160810882 heartbeat IPC: 0.66258 cumulative IPC: 0.62108 (Simulation time: 1 hr 1 min 21 sec) 
Heartbeat CPU 1 instructions: 100000000 cycles: 161421210 heartbeat IPC: 0.552068 cumulative IPC: 0.407544 (Simulation time: 1 hr 1 min 32 sec) 
Heartbeat CPU 0 instructions: 140000000 cycles: 167099610 heartbeat IPC: 0.479376 cumulative IPC: 0.51208 (Simulation time: 1 hr 3 min 15 sec) 
Heartbeat CPU 3 instructions: 120000000 cycles: 176660363 heartbeat IPC: 0.500908 cumulative IPC: 0.506012 (Simulation time: 1 hr 6 min 11 sec) 
Heartbeat CPU 4 instructions: 100000000 cycles: 178798640 heartbeat IPC: 0.354763 cumulative IPC: 0.361966 (Simulation time: 1 hr 6 min 43 sec) 
Heartbeat CPU 5 instructions: 140000000 cycles: 179904865 heartbeat IPC: 0.523725 cumulative IPC: 0.609375 (Simulation time: 1 hr 7 min 0 sec) 
Heartbeat CPU 6 instructions: 120000000 cycles: 181583215 heartbeat IPC: 0.403898 cumulative IPC: 0.440724 (Simulation time: 1 hr 7 min 24 sec) 
Finished CPU 5 instructions: 100000003 cycles: 166306272 cumulative IPC: 0.6013 (Simulation time: 1 hr 8 min 51 sec) 
Heartbeat CPU 7 instructions: 60000000 cycles: 189663946 heartbeat IPC: 0.171381 cumulative IPC: 0.172527 (Simulation time: 1 hr 9 min 25 sec) 
Heartbeat CPU 1 instructions: 110000000 cycles: 195266499 heartbeat IPC: 0.295462 cumulative IPC: 0.385765 (Simulation time: 1 hr 10 min 57 sec) 
Heartbeat CPU 0 instructions: 150000000 cycles: 198574400 heartbeat IPC: 0.317715 cumulative IPC: 0.477611 (Simulation time: 1 hr 11 min 48 sec) 
Heartbeat CPU 5 instructions: 150000000 cycles: 202637654 heartbeat IPC: 0.439893 cumulative IPC: 0.588153 (Simulation time: 1 hr 12 min 54 sec) 
Heartbeat CPU 4 instructions: 110000000 cycles: 208536892 heartbeat IPC: 0.336267 cumulative IPC: 0.357889 (Simulation time: 1 hr 14 min 36 sec) 
Heartbeat CPU 2 instructions: 40000000 cycles: 209024838 heartbeat IPC: 0.104109 cumulative IPC: 0.10642 (Simulation time: 1 hr 14 min 45 sec) 
Heartbeat CPU 6 instructions: 130000000 cycles: 210467405 heartbeat IPC: 0.34621 cumulative IPC: 0.426309 (Simulation time: 1 hr 15 min 13 sec) 
Heartbeat CPU 3 instructions: 130000003 cycles: 211465869 heartbeat IPC: 0.287311 cumulative IPC: 0.466028 (Simulation time: 1 hr 15 min 32 sec) 
Heartbeat CPU 5 instructions: 160000000 cycles: 218704389 heartbeat IPC: 0.622404 cumulative IPC: 0.590938 (Simulation time: 1 hr 17 min 57 sec) 
Heartbeat CPU 0 instructions: 160000000 cycles: 223307489 heartbeat IPC: 0.404317 cumulative IPC: 0.468647 (Simulation time: 1 hr 19 min 35 sec) 
Heartbeat CPU 1 instructions: 120000000 cycles: 226742855 heartbeat IPC: 0.317699 cumulative IPC: 0.375347 (Simulation time: 1 hr 20 min 46 sec) 
Heartbeat CPU 3 instructions: 140000000 cycles: 229310769 heartbeat IPC: 0.560384 cumulative IPC: 0.474114 (Simulation time: 1 hr 21 min 38 sec) 
Finished CPU 3 instructions: 100000003 cycles: 210502139 cumulative IPC: 0.475055 (Simulation time: 1 hr 22 min 24 sec) 
Heartbeat CPU 5 instructions: 170000003 cycles: 234209282 heartbeat IPC: 0.644958 cumulative IPC: 0.594868 (Simulation time: 1 hr 23 min 20 sec) 
Finished CPU 0 instructions: 100000003 cycles: 214522110 cumulative IPC: 0.466152 (Simulation time: 1 hr 23 min 52 sec) 
Heartbeat CPU 4 instructions: 120000000 cycles: 236748090 heartbeat IPC: 0.354469 cumulative IPC: 0.357442 (Simulation time: 1 hr 24 min 15 sec) 
Heartbeat CPU 6 instructions: 140000000 cycles: 238925322 heartbeat IPC: 0.351396 cumulative IPC: 0.416522 (Simulation time: 1 hr 25 min 2 sec) 
Heartbeat CPU 0 instructions: 170000003 cycles: 245408311 heartbeat IPC: 0.452472 cumulative IPC: 0.467053 (Simulation time: 1 hr 27 min 24 sec) 
Heartbeat CPU 3 instructions: 150000000 cycles: 247063597 heartbeat IPC: 0.563291 cumulative IPC: 0.48112 (Simulation time: 1 hr 28 min 0 sec) 
Heartbeat CPU 5 instructions: 180000000 cycles: 249382150 heartbeat IPC: 0.659071 cumulative IPC: 0.599135 (Simulation time: 1 hr 28 min 54 sec) 
Heartbeat CPU 1 instructions: 130000003 cycles: 249746385 heartbeat IPC: 0.434716 cumulative IPC: 0.38132 (Simulation time: 1 hr 29 min 1 sec) 
Heartbeat CPU 4 instructions: 130000000 cycles: 264619496 heartbeat IPC: 0.358791 cumulative IPC: 0.357596 (Simulation time: 1 hr 33 min 50 sec) 
Heartbeat CPU 3 instructions: 160000000 cycles: 264944382 heartbeat IPC: 0.55926 cumulative IPC: 0.48685 (Simulation time: 1 hr 33 min 57 sec) 
Heartbeat CPU 5 instructions: 190000001 cycles: 265157306 heartbeat IPC: 0.633908 cumulative IPC: 0.601383 (Simulation time: 1 hr 34 min 1 sec) 
Heartbeat CPU 0 instructions: 180000000 cycles: 266242908 heartbeat IPC: 0.479971 cumulative IPC: 0.468151 (Simulation time: 1 hr 34 min 19 sec) 
Finished CPU 6 instructions: 100000002 cycles: 246969259 cumulative IPC: 0.404909 (Simulation time: 1 hr 34 min 50 sec) 
Heartbeat CPU 6 instructions: 150000001 cycles: 270595123 heartbeat IPC: 0.315758 cumulative IPC: 0.403732 (Simulation time: 1 hr 35 min 38 sec) 
Heartbeat CPU 7 instructions: 70000002 cycles: 271109629 heartbeat IPC: 0.122781 cumulative IPC: 0.156322 (Simulation time: 1 hr 35 min 51 sec) 
Heartbeat CPU 5 instructions: 200000000 cycles: 280928372 heartbeat IPC: 0.634072 cumulative IPC: 0.603367 (Simulation time: 1 hr 39 min 12 sec) 
Heartbeat CPU 1 instructions: 140000000 cycles: 281878328 heartbeat IPC: 0.311217 cumulative IPC: 0.372682 (Simulation time: 1 hr 39 min 32 sec) 
Heartbeat CPU 3 instructions: 170000003 cycles: 282752683 heartbeat IPC: 0.561536 cumulative IPC: 0.491933 (Simulation time: 1 hr 39 min 50 sec) 
Finished CPU 1 instructions: 100000003 cycles: 267070481 cumulative IPC: 0.374433 (Simulation time: 1 hr 41 min 43 sec) 
Heartbeat CPU 0 instructions: 190000001 cycles: 290787720 heartbeat IPC: 0.407418 cumulative IPC: 0.462624 (Simulation time: 1 hr 42 min 31 sec) 
Heartbeat CPU 4 instructions: 140000000 cycles: 292765128 heartbeat IPC: 0.355295 cumulative IPC: 0.357358 (Simulation time: 1 hr 43 min 9 sec) 
Heartbeat CPU 5 instructions: 210000000 cycles: 296024883 heartbeat IPC: 0.662405 cumulative IPC: 0.606608 (Simulation time: 1 hr 44 min 5 sec) 
Heartbeat CPU 3 instructions: 180000000 cycles: 300599466 heartbeat IPC: 0.560325 cumulative IPC: 0.4963 (Simulation time: 1 hr 45 min 23 sec) 
Finished CPU 4 instructions: 100000002 cycles: 280174172 cumulative IPC: 0.356921 (Simulation time: 1 hr 45 min 34 sec) 
Heartbeat CPU 2 instructions: 50000000 cycles: 302265413 heartbeat IPC: 0.107249 cumulative IPC: 0.106695 (Simulation time: 1 hr 45 min 51 sec) 
Heartbeat CPU 6 instructions: 160000000 cycles: 306952219 heartbeat IPC: 0.275049 cumulative IPC: 0.387366 (Simulation time: 1 hr 47 min 11 sec) 
Heartbeat CPU 5 instructions: 220000000 cycles: 312577203 heartbeat IPC: 0.604145 cumulative IPC: 0.606468 (Simulation time: 1 hr 48 min 54 sec) 
Heartbeat CPU 1 instructions: 150000002 cycles: 313799635 heartbeat IPC: 0.31327 cumulative IPC: 0.366203 (Simulation time: 1 hr 49 min 18 sec) 
Heartbeat CPU 3 instructions: 190000003 cycles: 318505546 heartbeat IPC: 0.55847 cumulative IPC: 0.500043 (Simulation time: 1 hr 50 min 48 sec) 
Heartbeat CPU 4 instructions: 150000000 cycles: 321604411 heartbeat IPC: 0.346749 cumulative IPC: 0.35634 (Simulation time: 1 hr 51 min 39 sec) 
Heartbeat CPU 0 instructions: 200000000 cycles: 322457565 heartbeat IPC: 0.315758 cumulative IPC: 0.44719 (Simulation time: 1 hr 51 min 52 sec) 
Heartbeat CPU 5 instructions: 230000001 cycles: 333734760 heartbeat IPC: 0.472644 cumulative IPC: 0.597412 (Simulation time: 1 hr 54 min 41 sec) 
Heartbeat CPU 3 instructions: 200000000 cycles: 344965643 heartbeat IPC: 0.377927 cumulative IPC: 0.490066 (Simulation time: 1 hr 57 min 20 sec) 
Heartbeat CPU 7 instructions: 80000000 cycles: 345828392 heartbeat IPC: 0.133835 cumulative IPC: 0.151148 (Simulation time: 1 hr 57 min 32 sec) 
Heartbeat CPU 1 instructions: 160000000 cycles: 346020118 heartbeat IPC: 0.310362 cumulative IPC: 0.360666 (Simulation time: 1 hr 57 min 35 sec) 
Heartbeat CPU 4 instructions: 160000000 cycles: 351171151 heartbeat IPC: 0.338218 cumulative IPC: 0.354717 (Simulation time: 1 hr 58 min 46 sec) 
Heartbeat CPU 5 instructions: 240000000 cycles: 352588089 heartbeat IPC: 0.53041 cumulative IPC: 0.593602 (Simulation time: 1 hr 59 min 6 sec) 
Heartbeat CPU 6 instructions: 170000002 cycles: 353590256 heartbeat IPC: 0.214417 cumulative IPC: 0.363107 (Simulation time: 1 hr 59 min 20 sec) 
Heartbeat CPU 0 instructions: 210000000 cycles: 363652390 heartbeat IPC: 0.242749 cumulative IPC: 0.422605 (Simulation time: 2 hr 1 min 55 sec) 
Heartbeat CPU 5 instructions: 250000003 cycles: 369915836 heartbeat IPC: 0.577109 cumulative IPC: 0.592782 (Simulation time: 2 hr 3 min 35 sec) 
Heartbeat CPU 1 instructions: 170000000 cycles: 370159085 heartbeat IPC: 0.414268 cumulative IPC: 0.364372 (Simulation time: 2 hr 3 min 39 sec) 
Heartbeat CPU 3 instructions: 210000000 cycles: 371592879 heartbeat IPC: 0.375555 cumulative IPC: 0.481367 (Simulation time: 2 hr 4 min 2 sec) 
Heartbeat CPU 4 instructions: 170000000 cycles: 379707019 heartbeat IPC: 0.350436 cumulative IPC: 0.354376 (Simulation time: 2 hr 6 min 10 sec) 
Heartbeat CPU 5 instructions: 260000000 cycles: 387930494 heartbeat IPC: 0.555103 cumulative IPC: 0.590932 (Simulation time: 2 hr 8 min 21 sec) 
Heartbeat CPU 3 instructions: 220000000 cycles: 389502527 heartbeat IPC: 0.558358 cumulative IPC: 0.48511 (Simulation time: 2 hr 8 min 45 sec) 
Heartbeat CPU 1 instructions: 180000000 cycles: 393361147 heartbeat IPC: 0.430996 cumulative IPC: 0.368525 (Simulation time: 2 hr 9 min 42 sec) 
Heartbeat CPU 0 instructions: 220000000 cycles: 398659370 heartbeat IPC: 0.285657 cumulative IPC: 0.409908 (Simulation time: 2 hr 11 min 5 sec) 
Heartbeat CPU 6 instructions: 180000000 cycles: 399782822 heartbeat IPC: 0.216485 cumulative IPC: 0.345222 (Simulation time: 2 hr 11 min 22 sec) 
Heartbeat CPU 2 instructions: 60000000 cycles: 403650937 heartbeat IPC: 0.0986334 cumulative IPC: 0.104558 (Simulation time: 2 hr 12 min 22 sec) 
Heartbeat CPU 5 instructions: 270000003 cycles: 405163148 heartbeat IPC: 0.580294 cumulative IPC: 0.590455 (Simulation time: 2 hr 12 min 46 sec) 
Heartbeat CPU 4 instructions: 180000000 cycles: 406927635 heartbeat IPC: 0.367369 cumulative IPC: 0.355293 (Simulation time: 2 hr 13 min 14 sec) 
Heartbeat CPU 3 instructions: 230000003 cycles: 407345950 heartbeat IPC: 0.560431 cumulative IPC: 0.488589 (Simulation time: 2 hr 13 min 21 sec) 
Heartbeat CPU 7 instructions: 90000000 cycles: 417391407 heartbeat IPC: 0.139737 cumulative IPC: 0.149087 (Simulation time: 2 hr 15 min 59 sec) 
Heartbeat CPU 5 instructions: 280000000 cycles: 421655783 heartbeat IPC: 0.606331 cumulative IPC: 0.591108 (Simulation time: 2 hr 17 min 9 sec) 
Heartbeat CPU 3 instructions: 240000000 cycles: 425268351 heartbeat IPC: 0.557961 cumulative IPC: 0.491665 (Simulation time: 2 hr 18 min 7 sec) 
Heartbeat CPU 0 instructions: 230000000 cycles: 431689423 heartbeat IPC: 0.302755 cumulative IPC: 0.401288 (Simulation time: 2 hr 19 min 46 sec) 
Heartbeat CPU 1 instructions: 190000002 cycles: 435011008 heartbeat IPC: 0.240097 cumulative IPC: 0.355602 (Simulation time: 2 hr 20 min 37 sec) 
Heartbeat CPU 4 instructions: 190000001 cycles: 435509657 heartbeat IPC: 0.34987 cumulative IPC: 0.354919 (Simulation time: 2 hr 20 min 44 sec) 
Heartbeat CPU 5 instructions: 290000002 cycles: 438728883 heartbeat IPC: 0.585717 cumulative IPC: 0.590888 (Simulation time: 2 hr 21 min 34 sec) 
Heartbeat CPU 3 instructions: 250000001 cycles: 443350169 heartbeat IPC: 0.553042 cumulative IPC: 0.494294 (Simulation time: 2 hr 22 min 45 sec) 
Heartbeat CPU 6 instructions: 190000000 cycles: 448175800 heartbeat IPC: 0.206642 cumulative IPC: 0.32952 (Simulation time: 2 hr 23 min 57 sec) 
Heartbeat CPU 5 instructions: 300000000 cycles: 455263449 heartbeat IPC: 0.604793 cumulative IPC: 0.591418 (Simulation time: 2 hr 25 min 50 sec) 
Heartbeat CPU 3 instructions: 260000000 cycles: 461278679 heartbeat IPC: 0.557771 cumulative IPC: 0.496879 (Simulation time: 2 hr 27 min 25 sec) 
Heartbeat CPU 4 instructions: 200000000 cycles: 463363071 heartbeat IPC: 0.359022 cumulative IPC: 0.355177 (Simulation time: 2 hr 27 min 59 sec) 
Heartbeat CPU 0 instructions: 240000000 cycles: 465335519 heartbeat IPC: 0.297211 cumulative IPC: 0.393405 (Simulation time: 2 hr 28 min 32 sec) 
Heartbeat CPU 5 instructions: 310000002 cycles: 472176426 heartbeat IPC: 0.591262 cumulative IPC: 0.591412 (Simulation time: 2 hr 30 min 18 sec) 
Heartbeat CPU 1 instructions: 200000000 cycles: 476824972 heartbeat IPC: 0.239155 cumulative IPC: 0.344918 (Simulation time: 2 hr 31 min 23 sec) 
Heartbeat CPU 7 instructions: 100000000 cycles: 478855501 heartbeat IPC: 0.162697 cumulative IPC: 0.150915 (Simulation time: 2 hr 31 min 52 sec) 
Heartbeat CPU 3 instructions: 270000000 cycles: 483868680 heartbeat IPC: 0.442674 cumulative IPC: 0.494233 (Simulation time: 2 hr 33 min 0 sec) 
Heartbeat CPU 4 instructions: 210000002 cycles: 493483836 heartbeat IPC: 0.331997 cumulative IPC: 0.353699 (Simulation time: 2 hr 35 min 8 sec) 
Heartbeat CPU 5 instructions: 320000000 cycles: 494599748 heartbeat IPC: 0.445964 cumulative IPC: 0.584524 (Simulation time: 2 hr 35 min 23 sec) 
Heartbeat CPU 6 instructions: 200000000 cycles: 496320223 heartbeat IPC: 0.207708 cumulative IPC: 0.317179 (Simulation time: 2 hr 35 min 46 sec) 
Heartbeat CPU 2 instructions: 70000000 cycles: 507148653 heartbeat IPC: 0.0966205 cumulative IPC: 0.102868 (Simulation time: 2 hr 38 min 11 sec) 
Heartbeat CPU 1 instructions: 210000000 cycles: 509320368 heartbeat IPC: 0.307736 cumulative IPC: 0.342443 (Simulation time: 2 hr 38 min 43 sec) 
Heartbeat CPU 0 instructions: 250000003 cycles: 510712175 heartbeat IPC: 0.220378 cumulative IPC: 0.37737 (Simulation time: 2 hr 39 min 7 sec) 
Heartbeat CPU 5 instructions: 330000001 cycles: 512185676 heartbeat IPC: 0.568637 cumulative IPC: 0.583955 (Simulation time: 2 hr 39 min 31 sec) 
Heartbeat CPU 3 instructions: 280000000 cycles: 516928109 heartbeat IPC: 0.302486 cumulative IPC: 0.481448 (Simulation time: 2 hr 40 min 49 sec) 
Heartbeat CPU 4 instructions: 220000000 cycles: 522572777 heartbeat IPC: 0.343773 cumulative IPC: 0.353123 (Simulation time: 2 hr 42 min 19 sec) 
Heartbeat CPU 5 instructions: 340000000 cycles: 528935810 heartbeat IPC: 0.59701 cumulative IPC: 0.584386 (Simulation time: 2 hr 44 min 2 sec) 
Heartbeat CPU 3 instructions: 290000000 cycles: 534859487 heartbeat IPC: 0.557682 cumulative IPC: 0.484109 (Simulation time: 2 hr 45 min 40 sec) 
Heartbeat CPU 1 instructions: 220000000 cycles: 539062206 heartbeat IPC: 0.336227 cumulative IPC: 0.342086 (Simulation time: 2 hr 46 min 47 sec) 
Heartbeat CPU 6 instructions: 210000002 cycles: 539680190 heartbeat IPC: 0.230628 cumulative IPC: 0.309943 (Simulation time: 2 hr 46 min 57 sec) 
Heartbeat CPU 0 instructions: 260000000 cycles: 541974882 heartbeat IPC: 0.31987 cumulative IPC: 0.373919 (Simulation time: 2 hr 47 min 34 sec) 
Heartbeat CPU 5 instructions: 350000002 cycles: 544907414 heartbeat IPC: 0.626111 cumulative IPC: 0.585658 (Simulation time: 2 hr 48 min 23 sec) 
Heartbeat CPU 7 instructions: 110000002 cycles: 546343245 heartbeat IPC: 0.148175 cumulative IPC: 0.150563 (Simulation time: 2 hr 48 min 49 sec) 
Heartbeat CPU 4 instructions: 230000003 cycles: 551404900 heartbeat IPC: 0.346835 cumulative IPC: 0.352781 (Simulation time: 2 hr 50 min 16 sec) 
Heartbeat CPU 3 instructions: 300000000 cycles: 552808308 heartbeat IPC: 0.55714 cumulative IPC: 0.486574 (Simulation time: 2 hr 50 min 39 sec) 
Heartbeat CPU 5 instructions: 360000000 cycles: 559882976 heartbeat IPC: 0.667754 cumulative IPC: 0.58794 (Simulation time: 2 hr 52 min 33 sec) 
Heartbeat CPU 1 instructions: 230000003 cycles: 567757110 heartbeat IPC: 0.348494 cumulative IPC: 0.342423 (Simulation time: 2 hr 54 min 41 sec) 
Heartbeat CPU 3 instructions: 310000000 cycles: 570758204 heartbeat IPC: 0.557106 cumulative IPC: 0.488878 (Simulation time: 2 hr 55 min 31 sec) 
Heartbeat CPU 0 instructions: 270000003 cycles: 573189847 heartbeat IPC: 0.320359 cumulative IPC: 0.370891 (Simulation time: 2 hr 56 min 9 sec) 
Heartbeat CPU 5 instructions: 370000001 cycles: 575827107 heartbeat IPC: 0.62719 cumulative IPC: 0.589068 (Simulation time: 2 hr 56 min 51 sec) 
Heartbeat CPU 6 instructions: 220000000 cycles: 579205978 heartbeat IPC: 0.252999 cumulative IPC: 0.30591 (Simulation time: 2 hr 57 min 45 sec) 
Heartbeat CPU 4 instructions: 240000000 cycles: 581660221 heartbeat IPC: 0.33052 cumulative IPC: 0.35158 (Simulation time: 2 hr 58 min 26 sec) 
Heartbeat CPU 3 instructions: 320000000 cycles: 588692367 heartbeat IPC: 0.557595 cumulative IPC: 0.491049 (Simulation time: 3 hr 0 min 25 sec) 
Heartbeat CPU 5 instructions: 380000000 cycles: 591084882 heartbeat IPC: 0.655403 cumulative IPC: 0.590844 (Simulation time: 3 hr 1 min 5 sec) 
Heartbeat CPU 7 instructions: 120000000 cycles: 595292384 heartbeat IPC: 0.204294 cumulative IPC: 0.155143 (Simulation time: 3 hr 2 min 14 sec) 
Heartbeat CPU 1 instructions: 240000000 cycles: 595898599 heartbeat IPC: 0.355347 cumulative IPC: 0.343055 (Simulation time: 3 hr 2 min 24 sec) 
Heartbeat CPU 0 instructions: 280000000 cycles: 604221954 heartbeat IPC: 0.322247 cumulative IPC: 0.368302 (Simulation time: 3 hr 4 min 40 sec) 
Heartbeat CPU 2 instructions: 80000000 cycles: 604410368 heartbeat IPC: 0.102815 cumulative IPC: 0.102859 (Simulation time: 3 hr 4 min 43 sec) 
Heartbeat CPU 5 instructions: 390000001 cycles: 606218284 heartbeat IPC: 0.66079 cumulative IPC: 0.592653 (Simulation time: 3 hr 5 min 13 sec) 
Heartbeat CPU 3 instructions: 330000001 cycles: 606565013 heartbeat IPC: 0.559514 cumulative IPC: 0.493139 (Simulation time: 3 hr 5 min 19 sec) 
Heartbeat CPU 4 instructions: 250000003 cycles: 610894048 heartbeat IPC: 0.34207 cumulative IPC: 0.351109 (Simulation time: 3 hr 6 min 29 sec) 
Heartbeat CPU 6 instructions: 230000003 cycles: 617904370 heartbeat IPC: 0.258409 cumulative IPC: 0.30283 (Simulation time: 3 hr 8 min 19 sec) 
Heartbeat CPU 5 instructions: 400000000 cycles: 622007343 heartbeat IPC: 0.63335 cumulative IPC: 0.593722 (Simulation time: 3 hr 9 min 28 sec) 
Heartbeat CPU 1 instructions: 250000000 cycles: 622985174 heartbeat IPC: 0.369187 cumulative IPC: 0.344231 (Simulation time: 3 hr 9 min 43 sec) 
Heartbeat CPU 3 instructions: 340000000 cycles: 625820612 heartbeat IPC: 0.519329 cumulative IPC: 0.493973 (Simulation time: 3 hr 10 min 22 sec) 
Heartbeat CPU 0 instructions: 290000002 cycles: 636685573 heartbeat IPC: 0.308037 cumulative IPC: 0.365124 (Simulation time: 3 hr 12 min 57 sec) 
Heartbeat CPU 4 instructions: 260000000 cycles: 641252691 heartbeat IPC: 0.329395 cumulative IPC: 0.350046 (Simulation time: 3 hr 14 min 3 sec) 
Heartbeat CPU 5 instructions: 410000000 cycles: 642703789 heartbeat IPC: 0.483175 cumulative IPC: 0.590041 (Simulation time: 3 hr 14 min 24 sec) 
Heartbeat CPU 1 instructions: 260000000 cycles: 649121170 heartbeat IPC: 0.382614 cumulative IPC: 0.345829 (Simulation time: 3 hr 15 min 52 sec) 
Heartbeat CPU 7 instructions: 130000000 cycles: 649745420 heartbeat IPC: 0.183644 cumulative IPC: 0.157612 (Simulation time: 3 hr 16 min 1 sec) 
Heartbeat CPU 3 instructions: 350000003 cycles: 652523795 heartbeat IPC: 0.374487 cumulative IPC: 0.48892 (Simulation time: 3 hr 16 min 40 sec) 
Finished CPU 7 instructions: 100000003 cycles: 636863506 cumulative IPC: 0.15702 (Simulation time: 3 hr 17 min 58 sec) 
Heartbeat CPU 6 instructions: 240000000 cycles: 658119002 heartbeat IPC: 0.248666 cumulative IPC: 0.299411 (Simulation time: 3 hr 18 min 0 sec) 
Heartbeat CPU 5 instructions: 420000000 cycles: 660942332 heartbeat IPC: 0.548289 cumulative IPC: 0.588851 (Simulation time: 3 hr 18 min 42 sec) 
Heartbeat CPU 4 instructions: 270000001 cycles: 671003419 heartbeat IPC: 0.336126 cumulative IPC: 0.349408 (Simulation time: 3 hr 21 min 9 sec) 
Heartbeat CPU 3 instructions: 360000000 cycles: 674290215 heartbeat IPC: 0.459423 cumulative IPC: 0.487937 (Simulation time: 3 hr 21 min 58 sec) 
Heartbeat CPU 0 instructions: 300000000 cycles: 675747973 heartbeat IPC: 0.256001 cumulative IPC: 0.358613 (Simulation time: 3 hr 22 min 20 sec) 
Heartbeat CPU 5 instructions: 430000000 cycles: 679298642 heartbeat IPC: 0.544772 cumulative IPC: 0.587622 (Simulation time: 3 hr 23 min 17 sec) 
Heartbeat CPU 1 instructions: 270000000 cycles: 683585991 heartbeat IPC: 0.290151 cumulative IPC: 0.342932 (Simulation time: 3 hr 24 min 23 sec) 
Heartbeat CPU 6 instructions: 250000001 cycles: 695527842 heartbeat IPC: 0.267317 cumulative IPC: 0.29763 (Simulation time: 3 hr 27 min 32 sec) 
Heartbeat CPU 3 instructions: 370000002 cycles: 695924824 heartbeat IPC: 0.462222 cumulative IPC: 0.487112 (Simulation time: 3 hr 27 min 38 sec) 
Heartbeat CPU 5 instructions: 440000000 cycles: 696930343 heartbeat IPC: 0.56716 cumulative IPC: 0.587088 (Simulation time: 3 hr 27 min 54 sec) 
Heartbeat CPU 4 instructions: 280000000 cycles: 699113816 heartbeat IPC: 0.35574 cumulative IPC: 0.349671 (Simulation time: 3 hr 28 min 27 sec) 
Heartbeat CPU 2 instructions: 90000003 cycles: 705484650 heartbeat IPC: 0.0989372 cumulative IPC: 0.10228 (Simulation time: 3 hr 30 min 1 sec) 
Heartbeat CPU 0 instructions: 310000001 cycles: 712405391 heartbeat IPC: 0.272796 cumulative IPC: 0.354062 (Simulation time: 3 hr 31 min 45 sec) 
Heartbeat CPU 7 instructions: 140000000 cycles: 713095311 heartbeat IPC: 0.157853 cumulative IPC: 0.157634 (Simulation time: 3 hr 31 min 56 sec) 
Heartbeat CPU 5 instructions: 450000001 cycles: 713647566 heartbeat IPC: 0.598186 cumulative IPC: 0.587356 (Simulation time: 3 hr 32 min 5 sec) 
Heartbeat CPU 1 instructions: 280000000 cycles: 715077603 heartbeat IPC: 0.317545 cumulative IPC: 0.34178 (Simulation time: 3 hr 32 min 27 sec) 
Heartbeat CPU 3 instructions: 380000000 cycles: 717591570 heartbeat IPC: 0.461537 cumulative IPC: 0.486317 (Simulation time: 3 hr 33 min 7 sec) 
Heartbeat CPU 4 instructions: 290000000 cycles: 727681745 heartbeat IPC: 0.350043 cumulative IPC: 0.349686 (Simulation time: 3 hr 35 min 47 sec) 
Heartbeat CPU 5 instructions: 460000000 cycles: 730297968 heartbeat IPC: 0.600586 cumulative IPC: 0.587667 (Simulation time: 3 hr 36 min 29 sec) 
Heartbeat CPU 6 instructions: 260000000 cycles: 733552294 heartbeat IPC: 0.262989 cumulative IPC: 0.295782 (Simulation time: 3 hr 37 min 21 sec) 
Heartbeat CPU 1 instructions: 290000002 cycles: 738221116 heartbeat IPC: 0.432087 cumulative IPC: 0.344695 (Simulation time: 3 hr 38 min 26 sec) 
Heartbeat CPU 3 instructions: 390000001 cycles: 740009356 heartbeat IPC: 0.446074 cumulative IPC: 0.485062 (Simulation time: 3 hr 38 min 51 sec) 
Heartbeat CPU 5 instructions: 470000001 cycles: 751048322 heartbeat IPC: 0.48192 cumulative IPC: 0.584661 (Simulation time: 3 hr 41 min 14 sec) 
Heartbeat CPU 0 instructions: 320000000 cycles: 755965260 heartbeat IPC: 0.229569 cumulative IPC: 0.346683 (Simulation time: 3 hr 42 min 24 sec) 
Heartbeat CPU 4 instructions: 300000000 cycles: 756848955 heartbeat IPC: 0.342851 cumulative IPC: 0.349415 (Simulation time: 3 hr 42 min 38 sec) 
Heartbeat CPU 3 instructions: 400000000 cycles: 761350773 heartbeat IPC: 0.468572 cumulative IPC: 0.484587 (Simulation time: 3 hr 43 min 51 sec) 
Heartbeat CPU 7 instructions: 150000000 cycles: 764530057 heartbeat IPC: 0.194421 cumulative IPC: 0.160179 (Simulation time: 3 hr 44 min 43 sec) 
Heartbeat CPU 5 instructions: 480000000 cycles: 767128191 heartbeat IPC: 0.621896 cumulative IPC: 0.585463 (Simulation time: 3 hr 45 min 26 sec) 
Heartbeat CPU 6 instructions: 270000000 cycles: 772009806 heartbeat IPC: 0.260027 cumulative IPC: 0.29395 (Simulation time: 3 hr 46 min 46 sec) 
Heartbeat CPU 1 instructions: 300000000 cycles: 774526405 heartbeat IPC: 0.275442 cumulative IPC: 0.341358 (Simulation time: 3 hr 47 min 30 sec) 
Heartbeat CPU 3 instructions: 410000000 cycles: 775671275 heartbeat IPC: 0.6983 cumulative IPC: 0.488642 (Simulation time: 3 hr 47 min 50 sec) 
Heartbeat CPU 5 instructions: 490000000 cycles: 784232732 heartbeat IPC: 0.58464 cumulative IPC: 0.585445 (Simulation time: 3 hr 50 min 11 sec) 
Heartbeat CPU 4 instructions: 310000001 cycles: 784971422 heartbeat IPC: 0.355588 cumulative IPC: 0.349642 (Simulation time: 3 hr 50 min 22 sec) 
Heartbeat CPU 3 instructions: 420000000 cycles: 789851080 heartbeat IPC: 0.705228 cumulative IPC: 0.492637 (Simulation time: 3 hr 51 min 36 sec) 
Heartbeat CPU 0 instructions: 330000001 cycles: 793337477 heartbeat IPC: 0.267578 cumulative IPC: 0.342855 (Simulation time: 3 hr 52 min 31 sec) 
Heartbeat CPU 5 instructions: 500000000 cycles: 800785152 heartbeat IPC: 0.604141 cumulative IPC: 0.585842 (Simulation time: 3 hr 54 min 31 sec) 
Heartbeat CPU 3 instructions: 430000000 cycles: 802983648 heartbeat IPC: 0.761466 cumulative IPC: 0.497153 (Simulation time: 3 hr 55 min 7 sec) 
Heartbeat CPU 2 instructions: 100000000 cycles: 805683456 heartbeat IPC: 0.0998016 cumulative IPC: 0.101964 (Simulation time: 3 hr 55 min 48 sec) 
Heartbeat CPU 1 instructions: 310000001 cycles: 805742018 heartbeat IPC: 0.320353 cumulative IPC: 0.340522 (Simulation time: 3 hr 55 min 49 sec) 
Heartbeat CPU 6 instructions: 280000000 cycles: 808806265 heartbeat IPC: 0.271765 cumulative IPC: 0.292914 (Simulation time: 3 hr 56 min 41 sec) 
Heartbeat CPU 4 instructions: 320000000 cycles: 812443773 heartbeat IPC: 0.364002 cumulative IPC: 0.350141 (Simulation time: 3 hr 57 min 41 sec) 
Heartbeat CPU 3 instructions: 440000000 cycles: 816562080 heartbeat IPC: 0.736462 cumulative IPC: 0.501238 (Simulation time: 3 hr 58 min 50 sec) 
Heartbeat CPU 5 instructions: 510000003 cycles: 816976373 heartbeat IPC: 0.617619 cumulative IPC: 0.586488 (Simulation time: 3 hr 58 min 57 sec) 
Heartbeat CPU 7 instructions: 160000000 cycles: 818863414 heartbeat IPC: 0.184049 cumulative IPC: 0.161805 (Simulation time: 3 hr 59 min 30 sec) 
Heartbeat CPU 3 instructions: 450000001 cycles: 830492503 heartbeat IPC: 0.717853 cumulative IPC: 0.504966 (Simulation time: 4 hr 2 min 32 sec) 
Heartbeat CPU 0 instructions: 340000000 cycles: 831338047 heartbeat IPC: 0.263154 cumulative IPC: 0.339117 (Simulation time: 4 hr 2 min 45 sec) 
Heartbeat CPU 1 instructions: 320000000 cycles: 831658950 heartbeat IPC: 0.385848 cumulative IPC: 0.341971 (Simulation time: 4 hr 2 min 50 sec) 
Heartbeat CPU 5 instructions: 520000000 cycles: 833383483 heartbeat IPC: 0.609492 cumulative IPC: 0.586953 (Simulation time: 4 hr 3 min 16 sec) 
Heartbeat CPU 4 instructions: 330000001 cycles: 840022846 heartbeat IPC: 0.362594 cumulative IPC: 0.35056 (Simulation time: 4 hr 4 min 57 sec) 
Heartbeat CPU 3 instructions: 460000000 cycles: 845405030 heartbeat IPC: 0.670577 cumulative IPC: 0.507962 (Simulation time: 4 hr 6 min 17 sec) 
Heartbeat CPU 6 instructions: 290000002 cycles: 846645813 heartbeat IPC: 0.264274 cumulative IPC: 0.291601 (Simulation time: 4 hr 6 min 37 sec) 
Heartbeat CPU 5 instructions: 530000003 cycles: 850334182 heartbeat IPC: 0.589946 cumulative IPC: 0.587014 (Simulation time: 4 hr 7 min 36 sec) 
Heartbeat CPU 1 instructions: 330000002 cycles: 857427844 heartbeat IPC: 0.388065 cumulative IPC: 0.343391 (Simulation time: 4 hr 9 min 35 sec) 
Heartbeat CPU 3 instructions: 470000000 cycles: 859106202 heartbeat IPC: 0.729865 cumulative IPC: 0.51159 (Simulation time: 4 hr 10 min 3 sec) 
Heartbeat CPU 5 instructions: 540000000 cycles: 866294890 heartbeat IPC: 0.626538 cumulative IPC: 0.58776 (Simulation time: 4 hr 12 min 4 sec) 
Heartbeat CPU 4 instructions: 340000000 cycles: 867568853 heartbeat IPC: 0.363029 cumulative IPC: 0.350966 (Simulation time: 4 hr 12 min 25 sec) 
Heartbeat CPU 0 instructions: 350000002 cycles: 867802887 heartbeat IPC: 0.274237 cumulative IPC: 0.336323 (Simulation time: 4 hr 12 min 29 sec) 
Heartbeat CPU 3 instructions: 480000000 cycles: 872507773 heartbeat IPC: 0.746181 cumulative IPC: 0.515282 (Simulation time: 4 hr 13 min 47 sec) 
Heartbeat CPU 1 instructions: 340000000 cycles: 879717088 heartbeat IPC: 0.448647 cumulative IPC: 0.346124 (Simulation time: 4 hr 15 min 36 sec) 
Heartbeat CPU 6 instructions: 300000000 cycles: 885584308 heartbeat IPC: 0.256815 cumulative IPC: 0.290035 (Simulation time: 4 hr 16 min 59 sec) 
Heartbeat CPU 5 instructions: 550000000 cycles: 886870263 heartbeat IPC: 0.486018 cumulative IPC: 0.585342 (Simulation time: 4 hr 17 min 19 sec) 
Heartbeat CPU 3 instructions: 490000000 cycles: 887565665 heartbeat IPC: 0.664104 cumulative IPC: 0.517869 (Simulation time: 4 hr 17 min 29 sec) 
Heartbeat CPU 7 instructions: 170000000 cycles: 888212682 heartbeat IPC: 0.144198 cumulative IPC: 0.160397 (Simulation time: 4 hr 17 min 40 sec) 
Heartbeat CPU 0 instructions: 360000000 cycles: 896320594 heartbeat IPC: 0.350659 cumulative IPC: 0.33679 (Simulation time: 4 hr 19 min 47 sec) 
Heartbeat CPU 4 instructions: 350000001 cycles: 896696774 heartbeat IPC: 0.343313 cumulative IPC: 0.350711 (Simulation time: 4 hr 19 min 53 sec) 
Heartbeat CPU 3 instructions: 500000000 cycles: 900606859 heartbeat IPC: 0.766801 cumulative IPC: 0.52156 (Simulation time: 4 hr 20 min 55 sec) 
Heartbeat CPU 5 instructions: 560000000 cycles: 906258133 heartbeat IPC: 0.515786 cumulative IPC: 0.583819 (Simulation time: 4 hr 22 min 21 sec) 
Heartbeat CPU 2 instructions: 110000003 cycles: 909550724 heartbeat IPC: 0.0962768 cumulative IPC: 0.101299 (Simulation time: 4 hr 23 min 13 sec) 
Heartbeat CPU 3 instructions: 510000000 cycles: 914952047 heartbeat IPC: 0.697098 cumulative IPC: 0.524377 (Simulation time: 4 hr 24 min 35 sec) 
Heartbeat CPU 4 instructions: 360000000 cycles: 926470618 heartbeat IPC: 0.335865 cumulative IPC: 0.350223 (Simulation time: 4 hr 27 min 20 sec) 
Heartbeat CPU 1 instructions: 350000001 cycles: 926744784 heartbeat IPC: 0.212641 cumulative IPC: 0.339192 (Simulation time: 4 hr 27 min 23 sec) 
Heartbeat CPU 6 instructions: 310000002 cycles: 926987232 heartbeat IPC: 0.241529 cumulative IPC: 0.287818 (Simulation time: 4 hr 27 min 26 sec) 
Heartbeat CPU 0 instructions: 370000000 cycles: 928249686 heartbeat IPC: 0.313194 cumulative IPC: 0.335959 (Simulation time: 4 hr 27 min 46 sec) 
Heartbeat CPU 5 instructions: 570000002 cycles: 929436446 heartbeat IPC: 0.431438 cumulative IPC: 0.579931 (Simulation time: 4 hr 28 min 4 sec) 
Heartbeat CPU 3 instructions: 520000000 cycles: 930387244 heartbeat IPC: 0.64787 cumulative IPC: 0.526473 (Simulation time: 4 hr 28 min 18 sec) 
Heartbeat CPU 3 instructions: 530000000 cycles: 946343065 heartbeat IPC: 0.626731 cumulative IPC: 0.528202 (Simulation time: 4 hr 32 min 11 sec) 
Heartbeat CPU 5 instructions: 580000000 cycles: 950685049 heartbeat IPC: 0.470619 cumulative IPC: 0.577432 (Simulation time: 4 hr 33 min 19 sec) 
Heartbeat CPU 7 instructions: 180000000 cycles: 954958460 heartbeat IPC: 0.149822 cumulative IPC: 0.159641 (Simulation time: 4 hr 34 min 27 sec) 
Heartbeat CPU 4 instructions: 370000000 cycles: 956459194 heartbeat IPC: 0.33346 cumulative IPC: 0.349686 (Simulation time: 4 hr 34 min 51 sec) 
Heartbeat CPU 0 instructions: 380000000 cycles: 958208820 heartbeat IPC: 0.333788 cumulative IPC: 0.33589 (Simulation time: 4 hr 35 min 18 sec) 
Heartbeat CPU 3 instructions: 540000000 cycles: 959847190 heartbeat IPC: 0.740514 cumulative IPC: 0.531256 (Simulation time: 4 hr 35 min 44 sec) 
Heartbeat CPU 6 instructions: 320000000 cycles: 969018334 heartbeat IPC: 0.237919 cumulative IPC: 0.285605 (Simulation time: 4 hr 38 min 5 sec) 
Heartbeat CPU 5 instructions: 590000002 cycles: 969223962 heartbeat IPC: 0.539406 cumulative IPC: 0.576688 (Simulation time: 4 hr 38 min 8 sec) 
Heartbeat CPU 1 instructions: 360000000 cycles: 973486337 heartbeat IPC: 0.213942 cumulative IPC: 0.333045 (Simulation time: 4 hr 39 min 8 sec) 
Heartbeat CPU 3 instructions: 550000002 cycles: 973552008 heartbeat IPC: 0.729671 cumulative IPC: 0.534111 (Simulation time: 4 hr 39 min 9 sec) 
Heartbeat CPU 4 instructions: 380000000 cycles: 986616326 heartbeat IPC: 0.331597 cumulative IPC: 0.349121 (Simulation time: 4 hr 42 min 16 sec) 
Heartbeat CPU 3 instructions: 560000000 cycles: 987770671 heartbeat IPC: 0.703301 cumulative IPC: 0.5366 (Simulation time: 4 hr 42 min 33 sec) 
Heartbeat CPU 0 instructions: 390000001 cycles: 990692275 heartbeat IPC: 0.307849 cumulative IPC: 0.33495 (Simulation time: 4 hr 43 min 16 sec) 
Heartbeat CPU 5 instructions: 600000000 cycles: 992324895 heartbeat IPC: 0.432883 cumulative IPC: 0.573268 (Simulation time: 4 hr 43 min 41 sec) 
Heartbeat CPU 3 instructions: 570000000 cycles: 1001485874 heartbeat IPC: 0.729118 cumulative IPC: 0.539293 (Simulation time: 4 hr 46 min 8 sec) 
Heartbeat CPU 1 instructions: 370000000 cycles: 1007373362 heartbeat IPC: 0.295098 cumulative IPC: 0.331742 (Simulation time: 4 hr 47 min 41 sec) 
Heartbeat CPU 6 instructions: 330000003 cycles: 1011017160 heartbeat IPC: 0.238102 cumulative IPC: 0.28359 (Simulation time: 4 hr 48 min 39 sec) 
Heartbeat CPU 5 instructions: 610000002 cycles: 1012111226 heartbeat IPC: 0.5054 cumulative IPC: 0.571913 (Simulation time: 4 hr 48 min 57 sec) 
Heartbeat CPU 3 instructions: 580000000 cycles: 1015371301 heartbeat IPC: 0.720179 cumulative IPC: 0.541819 (Simulation time: 4 hr 49 min 48 sec) 
Heartbeat CPU 4 instructions: 390000001 cycles: 1015671578 heartbeat IPC: 0.344172 cumulative IPC: 0.348976 (Simulation time: 4 hr 49 min 53 sec) 
Heartbeat CPU 7 instructions: 190000000 cycles: 1019854742 heartbeat IPC: 0.154092 cumulative IPC: 0.15928 (Simulation time: 4 hr 50 min 57 sec) 
Heartbeat CPU 0 instructions: 400000000 cycles: 1020293247 heartbeat IPC: 0.337827 cumulative IPC: 0.335036 (Simulation time: 4 hr 51 min 3 sec) 
Heartbeat CPU 2 instructions: 120000000 cycles: 1021602084 heartbeat IPC: 0.0892448 cumulative IPC: 0.0999488 (Simulation time: 4 hr 51 min 22 sec) 
Finished CPU 2 instructions: 100000000 cycles: 1000512460 cumulative IPC: 0.0999488 (Simulation time: 4 hr 51 min 22 sec) 

CPU 0 Branch Prediction Accuracy: 99.8648% MPKI: 0.18118

CPU 1 Branch Prediction Accuracy: 99.8504% MPKI: 0.0901342

CPU 2 Branch Prediction Accuracy: 92.4261% MPKI: 6.09924

CPU 3 Branch Prediction Accuracy: 99.901% MPKI: 0.0659627

CPU 4 Branch Prediction Accuracy: 97.0742% MPKI: 0.493629

CPU 5 Branch Prediction Accuracy: 99.9305% MPKI: 0.03356

CPU 6 Branch Prediction Accuracy: 97.4444% MPKI: 0.375748

CPU 7 Branch Prediction Accuracy: 98.5864% MPKI: 1.29234

ChampSim completed all CPUs

Total Simulation Statistics (not including warmup)

CPU 0 cumulative IPC: 0.335047 instructions: 335219141 cycles: 1000512460
L1D TOTAL     ACCESS:   31572187  HIT:   23690282  MISS:    7881905
L1D LOAD      ACCESS:   26065659  HIT:   18183756  MISS:    7881903
L1D RFO       ACCESS:    5506528  HIT:    5506526  MISS:          2
L1D PREFETCH  ACCESS:          0  HIT:          0  MISS:          0
L1D WRITEBACK ACCESS:          0  HIT:          0  MISS:          0
L1I TOTAL     ACCESS:   71318082  HIT:   71318067  MISS:         15
L1I LOAD      ACCESS:   71318082  HIT:   71318067  MISS:         15
L1I RFO       ACCESS:          0  HIT:          0  MISS:          0
L1I PREFETCH  ACCESS:          0  HIT:          0  MISS:          0
L1I WRITEBACK ACCESS:          0  HIT:          0  MISS:          0
L2C TOTAL     ACCESS:   12252811  HIT:    4369658  MISS:    7883153
L2C LOAD      ACCESS:    7881918  HIT:    3845940  MISS:    4035978
L2C RFO       ACCESS:          2  HIT:          1  MISS:          1
L2C PREFETCH  ACCESS:    3848129  HIT:        957  MISS:    3847172
L2C WRITEBACK ACCESS:     522762  HIT:     522760  MISS:          2

L2C Best-offset prefetcher final stats
LLC TOTAL     ACCESS:    9089862  HIT:    1208969  MISS:    7880893
LLC LOAD      ACCESS:    1671831  HIT:     685466  MISS:     986365
LLC RFO       ACCESS:          1  HIT:          0  MISS:          1
LLC PREFETCH  ACCESS:    6896304  HIT:       1779  MISS:    6894525
LLC WRITEBACK ACCESS:     521726  HIT:     521724  MISS:          2

CPU 1 cumulative IPC: 0.330684 instructions: 330853010 cycles: 1000512460
L1D TOTAL     ACCESS:   79759538  HIT:   71211571  MISS:    8547967
L1D LOAD      ACCESS:   71004132  HIT:   64370354  MISS:    6633778
L1D RFO       ACCESS:    8755406  HIT:    6841217  MISS:    1914189
L1D PREFETCH  ACCESS:          0  HIT:          0  MISS:          0
L1D WRITEBACK ACCESS:          0  HIT:          0  MISS:          0
L1I TOTAL     ACCESS:   85208204  HIT:   85208172  MISS:         32
L1I LOAD      ACCESS:   85208204  HIT:   85208172  MISS:         32
L1I RFO       ACCESS:          0  HIT:          0  MISS:          0
L1I PREFETCH  ACCESS:          0  HIT:          0  MISS:          0
L1I WRITEBACK ACCESS:          0  HIT:          0  MISS:          0
L2C TOTAL     ACCESS:   13643214  HIT:    6039302  MISS:    7603912
L2C LOAD      ACCESS:    6633809  HIT:    3575033  MISS:    3058776
L2C RFO       ACCESS:    1914189  HIT:         14  MISS:    1914175
L2C PREFETCH  ACCESS:    2632537  HIT:       1679  MISS:    2630858
L2C WRITEBACK ACCESS:    2462679  HIT:    2462576  MISS:        103

L2C Best-offset prefetcher final stats
LLC TOTAL     ACCESS:   10222765  HIT:    2593835  MISS:    7628930
LLC LOAD      ACCESS:     969176  HIT:     148173  MISS:     821003
LLC RFO       ACCESS:    1914173  HIT:          0  MISS:    1914173
LLC PREFETCH  ACCESS:    4894494  HIT:        833  MISS:    4893661
LLC WRITEBACK ACCESS:    2444922  HIT:    2444829  MISS:         93

CPU 2 cumulative IPC: 0.0999488 instructions: 100000000 cycles: 1000512460
L1D TOTAL     ACCESS:   53045064  HIT:   44022219  MISS:    9022845
L1D LOAD      ACCESS:   33335812  HIT:   28686400  MISS:    4649412
L1D RFO       ACCESS:   19709252  HIT:   15335819  MISS:    4373433
L1D PREFETCH  ACCESS:          0  HIT:          0  MISS:          0
L1D WRITEBACK ACCESS:          0  HIT:          0  MISS:          0
L1I TOTAL     ACCESS:   24265549  HIT:   24265549  MISS:          0
L1I LOAD      ACCESS:   24265549  HIT:   24265549  MISS:          0
L1I RFO       ACCESS:          0  HIT:          0  MISS:          0
L1I PREFETCH  ACCESS:          0  HIT:          0  MISS:          0
L1I WRITEBACK ACCESS:          0  HIT:          0  MISS:          0
L2C TOTAL     ACCESS:   20573512  HIT:    9999771  MISS:   10573741
L2C LOAD      ACCESS:    4649375  HIT:     852164  MISS:    3797211
L2C RFO       ACCESS:    4373433  HIT:          7  MISS:    4373426
L2C PREFETCH  ACCESS:    2527859  HIT:     130199  MISS:    2397660
L2C WRITEBACK ACCESS:    9022845  HIT:    9017401  MISS:       5444

L2C Best-offset prefetcher final stats
LLC TOTAL     ACCESS:   19378642  HIT:   11584561  MISS:    7794081
LLC LOAD      ACCESS:    2810133  HIT:    1434315  MISS:    1375818
LLC RFO       ACCESS:    4373426  HIT:      13505  MISS:    4359921
LLC PREFETCH  ACCESS:    3387404  HIT:    1329211  MISS:    2058193
LLC WRITEBACK ACCESS:    8807679  HIT:    8807530  MISS:        149

CPU 3 cumulative IPC: 0.542701 instructions: 542978711 cycles: 1000512461
L1D TOTAL     ACCESS:  187252091  HIT:  176919274  MISS:   10332817
L1D LOAD      ACCESS:  133610952  HIT:  125051973  MISS:    8558979
L1D RFO       ACCESS:   53641139  HIT:   51867301  MISS:    1773838
L1D PREFETCH  ACCESS:          0  HIT:          0  MISS:          0
L1D WRITEBACK ACCESS:          0  HIT:          0  MISS:          0
L1I TOTAL     ACCESS:  191835259  HIT:  191834872  MISS:        387
L1I LOAD      ACCESS:  191835259  HIT:  191834872  MISS:        387
L1I RFO       ACCESS:          0  HIT:          0  MISS:          0
L1I PREFETCH  ACCESS:          0  HIT:          0  MISS:          0
L1I WRITEBACK ACCESS:          0  HIT:          0  MISS:          0
L2C TOTAL     ACCESS:   14759636  HIT:    9369092  MISS:    5390544
L2C LOAD      ACCESS:    8558956  HIT:    6960264  MISS:    1598692
L2C RFO       ACCESS:    1773653  HIT:     306215  MISS:    1467438
L2C PREFETCH  ACCESS:    2338754  HIT:      16078  MISS:    2322676
L2C WRITEBACK ACCESS:    2088273  HIT:    2086535  MISS:       1738

L2C Best-offset prefetcher final stats
LLC TOTAL     ACCESS:    7654415  HIT:    3552568  MISS:    4101847
LLC LOAD      ACCESS:     945291  HIT:     685139  MISS:     260152
LLC RFO       ACCESS:    1467433  HIT:     348695  MISS:    1118738
LLC PREFETCH  ACCESS:    3524573  HIT:     927886  MISS:    2596687
LLC WRITEBACK ACCESS:    1717118  HIT:    1590848  MISS:     126270

CPU 4 cumulative IPC: 0.348718 instructions: 348896688 cycles: 1000512461
L1D TOTAL     ACCESS:   98478942  HIT:   71020530  MISS:   27458412
L1D LOAD      ACCESS:   34860680  HIT:   30697084  MISS:    4163596
L1D RFO       ACCESS:   63618262  HIT:   40323446  MISS:   23294816
L1D PREFETCH  ACCESS:          0  HIT:          0  MISS:          0
L1D WRITEBACK ACCESS:          0  HIT:          0  MISS:          0
L1I TOTAL     ACCESS:   84003611  HIT:   84003611  MISS:          0
L1I LOAD      ACCESS:   84003611  HIT:   84003611  MISS:          0
L1I RFO       ACCESS:          0  HIT:          0  MISS:          0
L1I PREFETCH  ACCESS:          0  HIT:          0  MISS:          0
L1I WRITEBACK ACCESS:          0  HIT:          0  MISS:          0
L2C TOTAL     ACCESS:   54033781  HIT:   33296119  MISS:   20737662
L2C LOAD      ACCESS:    4163596  HIT:    3280258  MISS:     883338
L2C RFO       ACCESS:   23294801  HIT:    6727177  MISS:   16567624
L2C PREFETCH  ACCESS:    3280570  HIT:        117  MISS:    3280453
L2C WRITEBACK ACCESS:   23294814  HIT:   23288567  MISS:       6247

L2C Best-offset prefetcher final stats
LLC TOTAL     ACCESS:   37464423  HIT:   20831722  MISS:   16632701
LLC LOAD      ACCESS:     710611  HIT:     170688  MISS:     539923
LLC RFO       ACCESS:   16556984  HIT:    4083438  MISS:   12473546
LLC PREFETCH  ACCESS:    3623417  HIT:       5361  MISS:    3618056
LLC WRITEBACK ACCESS:   16573411  HIT:   16572235  MISS:       1176

CPU 5 cumulative IPC: 0.571242 instructions: 571534519 cycles: 1000512461
L1D TOTAL     ACCESS:  171398970  HIT:  160700874  MISS:   10698096
L1D LOAD      ACCESS:  152244850  HIT:  141607059  MISS:   10637791
L1D RFO       ACCESS:   19154120  HIT:   19093815  MISS:      60305
L1D PREFETCH  ACCESS:          0  HIT:          0  MISS:          0
L1D WRITEBACK ACCESS:          0  HIT:          0  MISS:          0
L1I TOTAL     ACCESS:  146522809  HIT:  146522809  MISS:          0
L1I LOAD      ACCESS:  146522809  HIT:  146522809  MISS:          0
L1I RFO       ACCESS:          0  HIT:          0  MISS:          0
L1I PREFETCH  ACCESS:          0  HIT:          0  MISS:          0
L1I WRITEBACK ACCESS:          0  HIT:          0  MISS:          0
L2C TOTAL     ACCESS:   17956145  HIT:   10461786  MISS:    7494359
L2C LOAD      ACCESS:   10637383  HIT:    8222260  MISS:    2415123
L2C RFO       ACCESS:      60305  HIT:          0  MISS:      60305
L2C PREFETCH  ACCESS:    5025592  HIT:       6663  MISS:    5018929
L2C WRITEBACK ACCESS:    2232865  HIT:    2232863  MISS:          2

L2C Best-offset prefetcher final stats
LLC TOTAL     ACCESS:    7675626  HIT:    1356614  MISS:    6319012
LLC LOAD      ACCESS:     479989  HIT:     171996  MISS:     307993
LLC RFO       ACCESS:      60305  HIT:        562  MISS:      59743
LLC PREFETCH  ACCESS:    7074907  HIT:    1130651  MISS:    5944256
LLC WRITEBACK ACCESS:      60425  HIT:      53405  MISS:       7020

CPU 6 cumulative IPC: 0.283308 instructions: 283453427 cycles: 1000512461
L1D TOTAL     ACCESS:   78607147  HIT:   59251201  MISS:   19355946
L1D LOAD      ACCESS:   28922380  HIT:   25987620  MISS:    2934760
L1D RFO       ACCESS:   49684767  HIT:   33263581  MISS:   16421186
L1D PREFETCH  ACCESS:          0  HIT:          0  MISS:          0
L1D WRITEBACK ACCESS:          0  HIT:          0  MISS:          0
L1I TOTAL     ACCESS:   65643811  HIT:   65643811  MISS:          0
L1I LOAD      ACCESS:   65643811  HIT:   65643811  MISS:          0
L1I RFO       ACCESS:          0  HIT:          0  MISS:          0
L1I PREFETCH  ACCESS:          0  HIT:          0  MISS:          0
L1I WRITEBACK ACCESS:          0  HIT:          0  MISS:          0
L2C TOTAL     ACCESS:   36870877  HIT:   22257970  MISS:   14612907
L2C LOAD      ACCESS:    2934760  HIT:     817689  MISS:    2117071
L2C RFO       ACCESS:   16421173  HIT:    4745945  MISS:   11675228
L2C PREFETCH  ACCESS:    1093758  HIT:     277002  MISS:     816756
L2C WRITEBACK ACCESS:   16421186  HIT:   16417334  MISS:       3852

L2C Best-offset prefetcher final stats
LLC TOTAL     ACCESS:   26280591  HIT:   14555188  MISS:   11725403
LLC LOAD      ACCESS:    1555827  HIT:       1323  MISS:    1554504
LLC RFO       ACCESS:   11668023  HIT:    2874814  MISS:    8793209
LLC PREFETCH  ACCESS:    1378000  HIT:       1268  MISS:    1376732
LLC WRITEBACK ACCESS:   11678741  HIT:   11677783  MISS:        958

CPU 7 cumulative IPC: 0.159258 instructions: 159339612 cycles: 1000512461
L1D TOTAL     ACCESS:   79221077  HIT:   75189936  MISS:    4031141
L1D LOAD      ACCESS:   34344961  HIT:   30678663  MISS:    3666298
L1D RFO       ACCESS:   44876116  HIT:   44511273  MISS:     364843
L1D PREFETCH  ACCESS:          0  HIT:          0  MISS:          0
L1D WRITEBACK ACCESS:          0  HIT:          0  MISS:          0
L1I TOTAL     ACCESS:   51220867  HIT:   51220867  MISS:          0
L1I LOAD      ACCESS:   51220867  HIT:   51220867  MISS:          0
L1I RFO       ACCESS:          0  HIT:          0  MISS:          0
L1I PREFETCH  ACCESS:          0  HIT:          0  MISS:          0
L1I WRITEBACK ACCESS:          0  HIT:          0  MISS:          0
L2C TOTAL     ACCESS:    7602300  HIT:    2384783  MISS:    5217517
L2C LOAD      ACCESS:    3666278  HIT:     550396  MISS:    3115882
L2C RFO       ACCESS:     364833  HIT:      35992  MISS:     328841
L2C PREFETCH  ACCESS:    2546734  HIT:     779126  MISS:    1767608
L2C WRITEBACK ACCESS:    1024455  HIT:    1019269  MISS:       5186

L2C Best-offset prefetcher final stats
LLC TOTAL     ACCESS:    6146987  HIT:     947832  MISS:    5199155
LLC LOAD      ACCESS:    2495208  HIT:      11829  MISS:    2483379
LLC RFO       ACCESS:     313045  HIT:        283  MISS:     312762
LLC PREFETCH  ACCESS:    2404077  HIT:       8120  MISS:    2395957
LLC WRITEBACK ACCESS:     934657  HIT:     927600  MISS:       7057

Region of Interest Statistics

CPU 0 cumulative IPC: 0.466152 instructions: 100000003 cycles: 214522110
L1D TOTAL     ACCESS:    8964698  HIT:    7405844  MISS:    1558854
L1D LOAD      ACCESS:    6471096  HIT:    4912242  MISS:    1558854
L1D RFO       ACCESS:    2493602  HIT:    2493602  MISS:          0
L1D PREFETCH  ACCESS:          0  HIT:          0  MISS:          0
L1D WRITEBACK ACCESS:          0  HIT:          0  MISS:          0
L1D PREFETCH  REQUESTED:          0  ISSUED:          0  USEFUL:          0  USELESS:          0
L1I TOTAL     ACCESS:   22010293  HIT:   22010293  MISS:          0
L1I LOAD      ACCESS:   22010293  HIT:   22010293  MISS:          0
L1I RFO       ACCESS:          0  HIT:          0  MISS:          0
L1I PREFETCH  ACCESS:          0  HIT:          0  MISS:          0
L1I WRITEBACK ACCESS:          0  HIT:          0  MISS:          0
L1I PREFETCH  REQUESTED:          0  ISSUED:          0  USEFUL:          0  USELESS:          0
L2C TOTAL     ACCESS:    2425934  HIT:     866733  MISS:    1559201
L2C LOAD      ACCESS:    1558854  HIT:     866730  MISS:     692124
L2C RFO       ACCESS:          0  HIT:          0  MISS:          0
L2C PREFETCH  ACCESS:     867080  HIT:          3  MISS:     867077
L2C WRITEBACK ACCESS:          0  HIT:          0  MISS:          0
L2C PREFETCH  REQUESTED:    8407371  ISSUED:    8407371  USEFUL:    5277225  USELESS:       1800
LLC TOTAL     ACCESS:    1559202  HIT:        696  MISS:    1558506
LLC LOAD      ACCESS:     134041  HIT:        352  MISS:     133689
LLC RFO       ACCESS:          0  HIT:          0  MISS:          0
LLC PREFETCH  ACCESS:    1425161  HIT:        344  MISS:    1424817
LLC WRITEBACK ACCESS:          0  HIT:          0  MISS:          0
LLC PREFETCH  REQUESTED:          0  ISSUED:          0  USEFUL:    1748164  USELESS:   31994533
Major fault: 0 Minor fault: 99365

CPU 1 cumulative IPC: 0.374433 instructions: 100000003 cycles: 267070481
L1D TOTAL     ACCESS:   24893800  HIT:   22390409  MISS:    2503391
L1D LOAD      ACCESS:   22608701  HIT:   20691406  MISS:    1917295
L1D RFO       ACCESS:    2285099  HIT:    1699003  MISS:     586096
L1D PREFETCH  ACCESS:          0  HIT:          0  MISS:          0
L1D WRITEBACK ACCESS:          0  HIT:          0  MISS:          0
L1D PREFETCH  REQUESTED:          0  ISSUED:          0  USEFUL:          0  USELESS:          0
L1I TOTAL     ACCESS:   26235201  HIT:   26235169  MISS:         32
L1I LOAD      ACCESS:   26235201  HIT:   26235169  MISS:         32
L1I RFO       ACCESS:          0  HIT:          0  MISS:          0
L1I PREFETCH  ACCESS:          0  HIT:          0  MISS:          0
L1I WRITEBACK ACCESS:          0  HIT:          0  MISS:          0
L1I PREFETCH  REQUESTED:          0  ISSUED:          0  USEFUL:          0  USELESS:          0
L2C TOTAL     ACCESS:    3981526  HIT:    1753646  MISS:    2227880
L2C LOAD      ACCESS:    1917327  HIT:    1029713  MISS:     887614
L2C RFO       ACCESS:     586096  HIT:          5  MISS:     586091
L2C PREFETCH  ACCESS:     754823  HIT:        677  MISS:     754146
L2C WRITEBACK ACCESS:     723280  HIT:     723251  MISS:         29
L2C PREFETCH  REQUESTED:    5733446  ISSUED:    5733446  USEFUL:    3173735  USELESS:     232354
LLC TOTAL     ACCESS:    2983009  HIT:     752814  MISS:    2230195
LLC LOAD      ACCESS:     121422  HIT:      33616  MISS:      87806
LLC RFO       ACCESS:     586091  HIT:          0  MISS:     586091
LLC PREFETCH  ACCESS:    1556525  HIT:        249  MISS:    1556276
LLC WRITEBACK ACCESS:     718971  HIT:     718949  MISS:         22
LLC PREFETCH  REQUESTED:          0  ISSUED:          0  USEFUL:    1748164  USELESS:   31994533
Major fault: 0 Minor fault: 48331

CPU 2 cumulative IPC: 0.0999488 instructions: 100000000 cycles: 1000512460
L1D TOTAL     ACCESS:   53045064  HIT:   44022219  MISS:    9022845
L1D LOAD      ACCESS:   33335812  HIT:   28686400  MISS:    4649412
L1D RFO       ACCESS:   19709252  HIT:   15335819  MISS:    4373433
L1D PREFETCH  ACCESS:          0  HIT:          0  MISS:          0
L1D WRITEBACK ACCESS:          0  HIT:          0  MISS:          0
L1D PREFETCH  REQUESTED:          0  ISSUED:          0  USEFUL:          0  USELESS:          0
L1I TOTAL     ACCESS:   24265549  HIT:   24265549  MISS:          0
L1I LOAD      ACCESS:   24265549  HIT:   24265549  MISS:          0
L1I RFO       ACCESS:          0  HIT:          0  MISS:          0
L1I PREFETCH  ACCESS:          0  HIT:          0  MISS:          0
L1I WRITEBACK ACCESS:          0  HIT:          0  MISS:          0
L1I PREFETCH  REQUESTED:          0  ISSUED:          0  USEFUL:          0  USELESS:          0
L2C TOTAL     ACCESS:   20573512  HIT:    9999771  MISS:   10573741
L2C LOAD      ACCESS:    4649375  HIT:     852164  MISS:    3797211
L2C RFO       ACCESS:    4373433  HIT:          7  MISS:    4373426
L2C PREFETCH  ACCESS:    2527859  HIT:     130199  MISS:    2397660
L2C WRITEBACK ACCESS:    9022845  HIT:    9017401  MISS:       5444
L2C PREFETCH  REQUESTED:    5166018  ISSUED:    5166018  USEFUL:    1071030  USELESS:    2050779
LLC TOTAL     ACCESS:   19378642  HIT:   11584561  MISS:    7794081
LLC LOAD      ACCESS:    2810133  HIT:    1434315  MISS:    1375818
LLC RFO       ACCESS:    4373426  HIT:      13505  MISS:    4359921
LLC PREFETCH  ACCESS:    3387404  HIT:    1329211  MISS:    2058193
LLC WRITEBACK ACCESS:    8807679  HIT:    8807530  MISS:        149
LLC PREFETCH  REQUESTED:          0  ISSUED:          0  USEFUL:    1748164  USELESS:   31994533
Major fault: 0 Minor fault: 257383

CPU 3 cumulative IPC: 0.475055 instructions: 100000003 cycles: 210502139
L1D TOTAL     ACCESS:   28929135  HIT:   28021180  MISS:     907955
L1D LOAD      ACCESS:   18814103  HIT:   18213613  MISS:     600490
L1D RFO       ACCESS:   10115032  HIT:    9807567  MISS:     307465
L1D PREFETCH  ACCESS:          0  HIT:          0  MISS:          0
L1D WRITEBACK ACCESS:          0  HIT:          0  MISS:          0
L1D PREFETCH  REQUESTED:          0  ISSUED:          0  USEFUL:          0  USELESS:          0
L1I TOTAL     ACCESS:   37874443  HIT:   37874380  MISS:         63
L1I LOAD      ACCESS:   37874443  HIT:   37874380  MISS:         63
L1I RFO       ACCESS:          0  HIT:          0  MISS:          0
L1I PREFETCH  ACCESS:          0  HIT:          0  MISS:          0
L1I WRITEBACK ACCESS:          0  HIT:          0  MISS:          0
L1I PREFETCH  REQUESTED:          0  ISSUED:          0  USEFUL:          0  USELESS:          0
L2C TOTAL     ACCESS:    1489565  HIT:     578803  MISS:     910762
L2C LOAD      ACCESS:     600553  HIT:     268944  MISS:     331609
L2C RFO       ACCESS:     307465  HIT:          3  MISS:     307462
L2C PREFETCH  ACCESS:     272028  HIT:        740  MISS:     271288
L2C WRITEBACK ACCESS:     309519  HIT:     309116  MISS:        403
L2C PREFETCH  REQUESTED:    3648014  ISSUED:    3648014  USEFUL:    2198830  USELESS:     156141
LLC TOTAL     ACCESS:    1316561  HIT:     369328  MISS:     947233
LLC LOAD      ACCESS:     158321  HIT:      94377  MISS:      63944
LLC RFO       ACCESS:     307461  HIT:          0  MISS:     307461
LLC PREFETCH  ACCESS:     543075  HIT:        242  MISS:     542833
LLC WRITEBACK ACCESS:     307704  HIT:     274709  MISS:      32995
LLC PREFETCH  REQUESTED:          0  ISSUED:          0  USEFUL:    1748164  USELESS:   31994533
Major fault: 0 Minor fault: 47161

CPU 4 cumulative IPC: 0.356921 instructions: 100000002 cycles: 280174172
L1D TOTAL     ACCESS:   28240391  HIT:   20348630  MISS:    7891761
L1D LOAD      ACCESS:    9990817  HIT:    8794283  MISS:    1196534
L1D RFO       ACCESS:   18249574  HIT:   11554347  MISS:    6695227
L1D PREFETCH  ACCESS:          0  HIT:          0  MISS:          0
L1D WRITEBACK ACCESS:          0  HIT:          0  MISS:          0
L1D PREFETCH  REQUESTED:          0  ISSUED:          0  USEFUL:          0  USELESS:          0
L1I TOTAL     ACCESS:   24091044  HIT:   24091044  MISS:          0
L1I LOAD      ACCESS:   24091044  HIT:   24091044  MISS:          0
L1I RFO       ACCESS:          0  HIT:          0  MISS:          0
L1I PREFETCH  ACCESS:          0  HIT:          0  MISS:          0
L1I WRITEBACK ACCESS:          0  HIT:          0  MISS:          0
L1I PREFETCH  REQUESTED:          0  ISSUED:          0  USEFUL:          0  USELESS:          0
L2C TOTAL     ACCESS:   15566300  HIT:    9610624  MISS:    5955676
L2C LOAD      ACCESS:    1196534  HIT:     979043  MISS:     217491
L2C RFO       ACCESS:    6695221  HIT:    1937960  MISS:    4757261
L2C PREFETCH  ACCESS:     979321  HIT:         36  MISS:     979285
L2C WRITEBACK ACCESS:    6695224  HIT:    6693585  MISS:       1639
L2C PREFETCH  REQUESTED:    4121711  ISSUED:    4121711  USEFUL:    3616391  USELESS:       2963
LLC TOTAL     ACCESS:   10743699  HIT:    5962910  MISS:    4780789
LLC LOAD      ACCESS:     186329  HIT:      34617  MISS:     151712
LLC RFO       ACCESS:    4754133  HIT:    1168819  MISS:    3585314
LLC PREFETCH  ACCESS:    1044461  HIT:       1031  MISS:    1043430
LLC WRITEBACK ACCESS:    4758776  HIT:    4758443  MISS:        333
LLC PREFETCH  REQUESTED:          0  ISSUED:          0  USEFUL:    1748164  USELESS:   31994533
Major fault: 0 Minor fault: 148916

CPU 5 cumulative IPC: 0.6013 instructions: 100000003 cycles: 166306272
L1D TOTAL     ACCESS:   29992445  HIT:   28120589  MISS:    1871856
L1D LOAD      ACCESS:   26641373  HIT:   24780068  MISS:    1861305
L1D RFO       ACCESS:    3351072  HIT:    3340521  MISS:      10551
L1D PREFETCH  ACCESS:          0  HIT:          0  MISS:          0
L1D WRITEBACK ACCESS:          0  HIT:          0  MISS:          0
L1D PREFETCH  REQUESTED:          0  ISSUED:          0  USEFUL:          0  USELESS:          0
L1I TOTAL     ACCESS:   25586998  HIT:   25586998  MISS:          0
L1I LOAD      ACCESS:   25586998  HIT:   25586998  MISS:          0
L1I RFO       ACCESS:          0  HIT:          0  MISS:          0
L1I PREFETCH  ACCESS:          0  HIT:          0  MISS:          0
L1I WRITEBACK ACCESS:          0  HIT:          0  MISS:          0
L1I PREFETCH  REQUESTED:          0  ISSUED:          0  USEFUL:          0  USELESS:          0
L2C TOTAL     ACCESS:    3167760  HIT:    1859030  MISS:    1308730
L2C LOAD      ACCESS:    1861226  HIT:    1467370  MISS:     393856
L2C RFO       ACCESS:      10551  HIT:          0  MISS:      10551
L2C PREFETCH  ACCESS:     905286  HIT:        963  MISS:     904323
L2C WRITEBACK ACCESS:     390697  HIT:     390697  MISS:          0
L2C PREFETCH  REQUESTED:    7648356  ISSUED:    7648356  USEFUL:    5394964  USELESS:     164900
LLC TOTAL     ACCESS:    1330349  HIT:     231237  MISS:    1099112
LLC LOAD      ACCESS:      66890  HIT:      19582  MISS:      47308
LLC RFO       ACCESS:      10551  HIT:         98  MISS:      10453
LLC PREFETCH  ACCESS:    1242336  HIT:     201643  MISS:    1040693
LLC WRITEBACK ACCESS:      10572  HIT:       9914  MISS:        658
LLC PREFETCH  REQUESTED:          0  ISSUED:          0  USEFUL:    1748164  USELESS:   31994533
Major fault: 0 Minor fault: 202079

CPU 6 cumulative IPC: 0.404909 instructions: 100000002 cycles: 246969259
L1D TOTAL     ACCESS:   25859274  HIT:   21731432  MISS:    4127842
L1D LOAD      ACCESS:   10522762  HIT:    9897313  MISS:     625449
L1D RFO       ACCESS:   15336512  HIT:   11834119  MISS:    3502393
L1D PREFETCH  ACCESS:          0  HIT:          0  MISS:          0
L1D WRITEBACK ACCESS:          0  HIT:          0  MISS:          0
L1D PREFETCH  REQUESTED:          0  ISSUED:          0  USEFUL:          0  USELESS:          0
L1I TOTAL     ACCESS:   22775512  HIT:   22775512  MISS:          0
L1I LOAD      ACCESS:   22775512  HIT:   22775512  MISS:          0
L1I RFO       ACCESS:          0  HIT:          0  MISS:          0
L1I PREFETCH  ACCESS:          0  HIT:          0  MISS:          0
L1I WRITEBACK ACCESS:          0  HIT:          0  MISS:          0
L1I PREFETCH  REQUESTED:          0  ISSUED:          0  USEFUL:          0  USELESS:          0
L2C TOTAL     ACCESS:    7879353  HIT:    4776833  MISS:    3102520
L2C LOAD      ACCESS:     625449  HIT:     208302  MISS:     417147
L2C RFO       ACCESS:    3502393  HIT:    1025381  MISS:    2477012
L2C PREFETCH  ACCESS:     249119  HIT:      40816  MISS:     208303
L2C WRITEBACK ACCESS:    3502392  HIT:    3502334  MISS:         58
L2C PREFETCH  REQUESTED:    3148271  ISSUED:    3148271  USEFUL:     959747  USELESS:        817
LLC TOTAL     ACCESS:    5578037  HIT:    3076309  MISS:    2501728
LLC LOAD      ACCESS:     342787  HIT:          4  MISS:     342783
LLC RFO       ACCESS:    2475556  HIT:     599312  MISS:    1876244
LLC PREFETCH  ACCESS:     282663  HIT:          4  MISS:     282659
LLC WRITEBACK ACCESS:    2477031  HIT:    2476989  MISS:         42
LLC PREFETCH  REQUESTED:          0  ISSUED:          0  USEFUL:    1748164  USELESS:   31994533
Major fault: 0 Minor fault: 103028

CPU 7 cumulative IPC: 0.15702 instructions: 100000003 cycles: 636863506
L1D TOTAL     ACCESS:   49641796  HIT:   47010931  MISS:    2630865
L1D LOAD      ACCESS:   21585951  HIT:   19190809  MISS:    2395142
L1D RFO       ACCESS:   28055845  HIT:   27820122  MISS:     235723
L1D PREFETCH  ACCESS:          0  HIT:          0  MISS:          0
L1D WRITEBACK ACCESS:          0  HIT:          0  MISS:          0
L1D PREFETCH  REQUESTED:          0  ISSUED:          0  USEFUL:          0  USELESS:          0
L1I TOTAL     ACCESS:   32209000  HIT:   32209000  MISS:          0
L1I LOAD      ACCESS:   32209000  HIT:   32209000  MISS:          0
L1I RFO       ACCESS:          0  HIT:          0  MISS:          0
L1I PREFETCH  ACCESS:          0  HIT:          0  MISS:          0
L1I WRITEBACK ACCESS:          0  HIT:          0  MISS:          0
L1I PREFETCH  REQUESTED:          0  ISSUED:          0  USEFUL:          0  USELESS:          0
L2C TOTAL     ACCESS:    4990433  HIT:    1577927  MISS:    3412506
L2C LOAD      ACCESS:    2395133  HIT:     371193  MISS:    2023940
L2C RFO       ACCESS:     235714  HIT:      23106  MISS:     212608
L2C PREFETCH  ACCESS:    1684479  HIT:     511909  MISS:    1172570
L2C WRITEBACK ACCESS:     675107  HIT:     671719  MISS:       3388
L2C PREFETCH  REQUESTED:    3860184  ISSUED:    3860184  USEFUL:     618081  USELESS:    1485479
LLC TOTAL     ACCESS:    4027646  HIT:     627417  MISS:    3400229
LLC LOAD      ACCESS:    1633285  HIT:       7648  MISS:    1625637
LLC RFO       ACCESS:     202158  HIT:        192  MISS:     201966
LLC PREFETCH  ACCESS:    1573674  HIT:       5285  MISS:    1568389
LLC WRITEBACK ACCESS:     618529  HIT:     614292  MISS:       4237
LLC PREFETCH  REQUESTED:          0  ISSUED:          0  USEFUL:    1748164  USELESS:   31994533
Major fault: 0 Minor fault: 46562

L2C Best-offset prefetcher final stats

L2C Best-offset prefetcher final stats

L2C Best-offset prefetcher final stats

L2C Best-offset prefetcher final stats

L2C Best-offset prefetcher final stats

L2C Best-offset prefetcher final stats

L2C Best-offset prefetcher final stats

L2C Best-offset prefetcher final stats

DRAM Statistics
 CHANNEL 0
 RQ ROW_BUFFER_HIT:    8060136  ROW_BUFFER_MISS:   25488784
 DBUS_CONGESTED:   91739474
 WQ ROW_BUFFER_HIT:    1461065  ROW_BUFFER_MISS:   15412192  FULL:          0

 CHANNEL 1
 RQ ROW_BUFFER_HIT:    8057717  ROW_BUFFER_MISS:   25532152
 DBUS_CONGESTED:   91739474
 WQ ROW_BUFFER_HIT:    1460901  ROW_BUFFER_MISS:   15412898  FULL:          0

 AVG_CONGESTED_CYCLE: 14
