
*** ChampSim Multicore Out-of-Order Simulator ***

Warmup Instructions: 20000000
Simulation Instructions: 100000000
Number of CPUs: 8
LLC sets: 16384
LLC ways: 16
Off-chip DRAM Size: 8192 MB Channels: 2 Width: 64-bit Data Rate: 1600 MT/s

CPU 0 runs /scratch/user/djimenez/champsim-traces/speccpu2017/xz/621.wrf_s/621.wrf_s-8065B.champsimtrace.xz
CPU 1 runs /scratch/user/djimenez/champsim-traces/speccpu2017/xz/602.gcc_s/602.gcc_s-734B.champsimtrace.xz
CPU 2 runs /scratch/user/djimenez/champsim-traces/speccpu2017/xz/619.lbm_s/619.lbm_s-4268B.champsimtrace.xz
CPU 3 runs /scratch/user/djimenez/champsim-traces/speccpu2017/xz/605.mcf_s/605.mcf_s-484B.champsimtrace.xz
CPU 4 runs /scratch/user/djimenez/champsim-traces/speccpu2017/xz/623.xalancbmk_s/623.xalancbmk_s-165B.champsimtrace.xz
CPU 5 runs /scratch/user/djimenez/champsim-traces/speccpu2017/xz/623.xalancbmk_s/623.xalancbmk_s-592B.champsimtrace.xz
CPU 6 runs /scratch/user/djimenez/champsim-traces/speccpu2017/xz/649.fotonik3d_s/649.fotonik3d_s-7084B.champsimtrace.xz
CPU 7 runs /scratch/user/djimenez/champsim-traces/speccpu2017/xz/603.bwaves_s/603.bwaves_s-891B.champsimtrace.xz
L2C Best-offset prefetcher
L2C Best-offset prefetcher
L2C Best-offset prefetcher
L2C Best-offset prefetcher
L2C Best-offset prefetcher
L2C Best-offset prefetcher
L2C Best-offset prefetcher
L2C Best-offset prefetcher
Heartbeat CPU 7 instructions: 10000003 cycles: 3201121 heartbeat IPC: 3.12391 cumulative IPC: 3.12391 (Simulation time: 0 hr 3 min 11 sec) 
Heartbeat CPU 6 instructions: 10000000 cycles: 4192684 heartbeat IPC: 2.38511 cumulative IPC: 2.38511 (Simulation time: 0 hr 4 min 10 sec) 
Heartbeat CPU 4 instructions: 10000001 cycles: 4228077 heartbeat IPC: 2.36514 cumulative IPC: 2.36514 (Simulation time: 0 hr 4 min 12 sec) 
Heartbeat CPU 0 instructions: 10000003 cycles: 4756274 heartbeat IPC: 2.10249 cumulative IPC: 2.10249 (Simulation time: 0 hr 4 min 43 sec) 
Heartbeat CPU 2 instructions: 10000001 cycles: 4899282 heartbeat IPC: 2.04112 cumulative IPC: 2.04112 (Simulation time: 0 hr 4 min 52 sec) 
Heartbeat CPU 5 instructions: 10000002 cycles: 5061874 heartbeat IPC: 1.97555 cumulative IPC: 1.97555 (Simulation time: 0 hr 5 min 1 sec) 
Heartbeat CPU 1 instructions: 10000000 cycles: 5381660 heartbeat IPC: 1.85816 cumulative IPC: 1.85816 (Simulation time: 0 hr 5 min 20 sec) 
Heartbeat CPU 7 instructions: 20000000 cycles: 6403673 heartbeat IPC: 3.12251 cumulative IPC: 3.12321 (Simulation time: 0 hr 6 min 21 sec) 
Heartbeat CPU 3 instructions: 10000000 cycles: 6879526 heartbeat IPC: 1.45359 cumulative IPC: 1.45359 (Simulation time: 0 hr 6 min 49 sec) 
Heartbeat CPU 6 instructions: 20000000 cycles: 8383455 heartbeat IPC: 2.3862 cumulative IPC: 2.38565 (Simulation time: 0 hr 8 min 18 sec) 
Heartbeat CPU 4 instructions: 20000000 cycles: 8434818 heartbeat IPC: 2.37714 cumulative IPC: 2.37112 (Simulation time: 0 hr 8 min 21 sec) 
Heartbeat CPU 0 instructions: 20000000 cycles: 9267289 heartbeat IPC: 2.2168 cumulative IPC: 2.15813 (Simulation time: 0 hr 9 min 11 sec) 
Heartbeat CPU 7 instructions: 30000003 cycles: 9605747 heartbeat IPC: 3.12298 cumulative IPC: 1.04104 (Simulation time: 0 hr 9 min 30 sec) 
Heartbeat CPU 2 instructions: 20000000 cycles: 9791779 heartbeat IPC: 2.04395 cumulative IPC: 2.04253 (Simulation time: 0 hr 9 min 41 sec) 
Heartbeat CPU 5 instructions: 20000000 cycles: 10210258 heartbeat IPC: 1.94236 cumulative IPC: 1.95881 (Simulation time: 0 hr 10 min 7 sec) 
Heartbeat CPU 1 instructions: 20000000 cycles: 10780513 heartbeat IPC: 1.85225 cumulative IPC: 1.8552 (Simulation time: 0 hr 10 min 41 sec) 
Heartbeat CPU 6 instructions: 30000000 cycles: 12563580 heartbeat IPC: 2.39227 cumulative IPC: 0.795951 (Simulation time: 0 hr 12 min 28 sec) 
Heartbeat CPU 4 instructions: 30000001 cycles: 12643726 heartbeat IPC: 2.37591 cumulative IPC: 0.790906 (Simulation time: 0 hr 12 min 32 sec) 
Heartbeat CPU 7 instructions: 40000000 cycles: 12808641 heartbeat IPC: 3.12218 cumulative IPC: 1.56145 (Simulation time: 0 hr 12 min 42 sec) 
Heartbeat CPU 3 instructions: 20000000 cycles: 13671344 heartbeat IPC: 1.47236 cumulative IPC: 1.46291 (Simulation time: 0 hr 13 min 33 sec) 

Warmup complete CPU 0 instructions: 29996204 cycles: 13671345 (Simulation time: 0 hr 13 min 33 sec) 
Warmup complete CPU 1 instructions: 25381228 cycles: 13671345 (Simulation time: 0 hr 13 min 33 sec) 
Warmup complete CPU 2 instructions: 27932578 cycles: 13671345 (Simulation time: 0 hr 13 min 33 sec) 
Warmup complete CPU 3 instructions: 20000001 cycles: 13671345 (Simulation time: 0 hr 13 min 33 sec) 
Warmup complete CPU 4 instructions: 32442934 cycles: 13671344 (Simulation time: 0 hr 13 min 33 sec) 
Warmup complete CPU 5 instructions: 25644210 cycles: 13671344 (Simulation time: 0 hr 13 min 33 sec) 
Warmup complete CPU 6 instructions: 32650250 cycles: 13671344 (Simulation time: 0 hr 13 min 33 sec) 
Warmup complete CPU 7 instructions: 42690828 cycles: 13671344 (Simulation time: 0 hr 13 min 33 sec) 

Heartbeat CPU 0 instructions: 30000000 cycles: 13679559 heartbeat IPC: 2.26641 cumulative IPC: 0.462138 (Simulation time: 0 hr 13 min 33 sec) 
Heartbeat CPU 2 instructions: 30000002 cycles: 19597449 heartbeat IPC: 1.01982 cumulative IPC: 0.348867 (Simulation time: 0 hr 15 min 32 sec) 
Heartbeat CPU 6 instructions: 40000000 cycles: 21940534 heartbeat IPC: 1.06644 cumulative IPC: 0.888811 (Simulation time: 0 hr 16 min 19 sec) 
Heartbeat CPU 0 instructions: 40000000 cycles: 23413908 heartbeat IPC: 1.02729 cumulative IPC: 1.02681 (Simulation time: 0 hr 16 min 48 sec) 
Heartbeat CPU 1 instructions: 30000003 cycles: 27784223 heartbeat IPC: 0.588107 cumulative IPC: 0.327274 (Simulation time: 0 hr 18 min 11 sec) 
Heartbeat CPU 5 instructions: 30000000 cycles: 29206478 heartbeat IPC: 0.526421 cumulative IPC: 0.280383 (Simulation time: 0 hr 18 min 39 sec) 
Heartbeat CPU 6 instructions: 50000000 cycles: 32848634 heartbeat IPC: 0.91675 cumulative IPC: 0.904703 (Simulation time: 0 hr 19 min 51 sec) 
Heartbeat CPU 0 instructions: 50000002 cycles: 33644471 heartbeat IPC: 0.977463 cumulative IPC: 1.00154 (Simulation time: 0 hr 20 min 5 sec) 
Heartbeat CPU 7 instructions: 50000001 cycles: 34493470 heartbeat IPC: 0.461152 cumulative IPC: 0.351029 (Simulation time: 0 hr 20 min 20 sec) 
Heartbeat CPU 4 instructions: 40000000 cycles: 39410526 heartbeat IPC: 0.373597 cumulative IPC: 0.293602 (Simulation time: 0 hr 21 min 57 sec) 
Heartbeat CPU 0 instructions: 60000000 cycles: 43366479 heartbeat IPC: 1.02859 cumulative IPC: 1.01039 (Simulation time: 0 hr 23 min 22 sec) 
Heartbeat CPU 6 instructions: 60000000 cycles: 43766625 heartbeat IPC: 0.915919 cumulative IPC: 0.908772 (Simulation time: 0 hr 23 min 31 sec) 
Heartbeat CPU 2 instructions: 40000000 cycles: 47460863 heartbeat IPC: 0.358893 cumulative IPC: 0.357135 (Simulation time: 0 hr 24 min 49 sec) 
Heartbeat CPU 0 instructions: 70000000 cycles: 51834310 heartbeat IPC: 1.18094 cumulative IPC: 1.04824 (Simulation time: 0 hr 26 min 22 sec) 
Heartbeat CPU 6 instructions: 70000001 cycles: 54398890 heartbeat IPC: 0.940533 cumulative IPC: 0.917064 (Simulation time: 0 hr 27 min 10 sec) 
Heartbeat CPU 1 instructions: 40000000 cycles: 59740846 heartbeat IPC: 0.312924 cumulative IPC: 0.31732 (Simulation time: 0 hr 28 min 51 sec) 
Heartbeat CPU 3 instructions: 30000000 cycles: 61439944 heartbeat IPC: 0.209343 cumulative IPC: 0.209343 (Simulation time: 0 hr 29 min 27 sec) 
Heartbeat CPU 5 instructions: 40000000 cycles: 61617898 heartbeat IPC: 0.308533 cumulative IPC: 0.299412 (Simulation time: 0 hr 29 min 30 sec) 
Heartbeat CPU 0 instructions: 80000000 cycles: 62301458 heartbeat IPC: 0.95537 cumulative IPC: 1.02825 (Simulation time: 0 hr 29 min 44 sec) 
Heartbeat CPU 7 instructions: 60000000 cycles: 62440672 heartbeat IPC: 0.357818 cumulative IPC: 0.354919 (Simulation time: 0 hr 29 min 47 sec) 
Heartbeat CPU 6 instructions: 80000000 cycles: 65313633 heartbeat IPC: 0.916192 cumulative IPC: 0.916879 (Simulation time: 0 hr 30 min 46 sec) 
Heartbeat CPU 0 instructions: 90000003 cycles: 70616569 heartbeat IPC: 1.20263 cumulative IPC: 1.05371 (Simulation time: 0 hr 32 min 36 sec) 
Heartbeat CPU 4 instructions: 50000003 cycles: 71859193 heartbeat IPC: 0.308179 cumulative IPC: 0.301731 (Simulation time: 0 hr 33 min 1 sec) 
Heartbeat CPU 2 instructions: 50000000 cycles: 75493034 heartbeat IPC: 0.356733 cumulative IPC: 0.356953 (Simulation time: 0 hr 34 min 12 sec) 
Heartbeat CPU 6 instructions: 90000003 cycles: 75943764 heartbeat IPC: 0.940722 cumulative IPC: 0.920949 (Simulation time: 0 hr 34 min 21 sec) 
Heartbeat CPU 0 instructions: 100000000 cycles: 80755469 heartbeat IPC: 0.9863 cumulative IPC: 1.04352 (Simulation time: 0 hr 36 min 1 sec) 
Heartbeat CPU 6 instructions: 100000000 cycles: 86714036 heartbeat IPC: 0.928481 cumulative IPC: 0.92206 (Simulation time: 0 hr 38 min 4 sec) 
Heartbeat CPU 0 instructions: 110000003 cycles: 89590294 heartbeat IPC: 1.13188 cumulative IPC: 1.05381 (Simulation time: 0 hr 39 min 2 sec) 
Heartbeat CPU 7 instructions: 70000002 cycles: 90049510 heartbeat IPC: 0.362203 cumulative IPC: 0.357552 (Simulation time: 0 hr 39 min 11 sec) 
Heartbeat CPU 1 instructions: 50000000 cycles: 90321351 heartbeat IPC: 0.327006 cumulative IPC: 0.321184 (Simulation time: 0 hr 39 min 16 sec) 
Heartbeat CPU 5 instructions: 50000002 cycles: 90655045 heartbeat IPC: 0.344387 cumulative IPC: 0.316376 (Simulation time: 0 hr 39 min 23 sec) 
Heartbeat CPU 6 instructions: 110000002 cycles: 97809045 heartbeat IPC: 0.901306 cumulative IPC: 0.919323 (Simulation time: 0 hr 41 min 42 sec) 
Heartbeat CPU 3 instructions: 40000000 cycles: 102292947 heartbeat IPC: 0.24478 cumulative IPC: 0.225679 (Simulation time: 0 hr 43 min 13 sec) 
Heartbeat CPU 2 instructions: 60000000 cycles: 103377499 heartbeat IPC: 0.358623 cumulative IPC: 0.357472 (Simulation time: 0 hr 43 min 35 sec) 
Heartbeat CPU 0 instructions: 120000000 cycles: 104167577 heartbeat IPC: 0.685999 cumulative IPC: 0.994559 (Simulation time: 0 hr 43 min 51 sec) 
Heartbeat CPU 4 instructions: 60000000 cycles: 104622252 heartbeat IPC: 0.305222 cumulative IPC: 0.302988 (Simulation time: 0 hr 44 min 0 sec) 
Heartbeat CPU 6 instructions: 120000000 cycles: 108329082 heartbeat IPC: 0.950567 cumulative IPC: 0.922796 (Simulation time: 0 hr 45 min 16 sec) 
Heartbeat CPU 7 instructions: 80000000 cycles: 116096884 heartbeat IPC: 0.383916 cumulative IPC: 0.364257 (Simulation time: 0 hr 47 min 54 sec) 
Heartbeat CPU 5 instructions: 60000000 cycles: 117707366 heartbeat IPC: 0.369654 cumulative IPC: 0.33023 (Simulation time: 0 hr 48 min 26 sec) 
Heartbeat CPU 6 instructions: 130000001 cycles: 118928851 heartbeat IPC: 0.943417 cumulative IPC: 0.924872 (Simulation time: 0 hr 48 min 49 sec) 
Finished CPU 0 instructions: 100000002 cycles: 105512256 cumulative IPC: 0.947757 (Simulation time: 0 hr 48 min 54 sec) 
Heartbeat CPU 0 instructions: 130000000 cycles: 119191548 heartbeat IPC: 0.665603 cumulative IPC: 0.947722 (Simulation time: 0 hr 48 min 54 sec) 
Heartbeat CPU 1 instructions: 60000000 cycles: 120392268 heartbeat IPC: 0.332547 cumulative IPC: 0.324386 (Simulation time: 0 hr 49 min 17 sec) 
Finished CPU 6 instructions: 100000003 cycles: 107993503 cumulative IPC: 0.925982 (Simulation time: 0 hr 49 min 43 sec) 
Heartbeat CPU 6 instructions: 140000000 cycles: 129451667 heartbeat IPC: 0.950316 cumulative IPC: 0.927185 (Simulation time: 0 hr 52 min 11 sec) 
Heartbeat CPU 2 instructions: 70000003 cycles: 130185893 heartbeat IPC: 0.373018 cumulative IPC: 0.361049 (Simulation time: 0 hr 52 min 25 sec) 
Heartbeat CPU 4 instructions: 70000000 cycles: 133538839 heartbeat IPC: 0.345822 cumulative IPC: 0.313322 (Simulation time: 0 hr 53 min 35 sec) 
Heartbeat CPU 0 instructions: 140000000 cycles: 134213616 heartbeat IPC: 0.665687 cumulative IPC: 0.912574 (Simulation time: 0 hr 53 min 48 sec) 
Heartbeat CPU 6 instructions: 150000002 cycles: 139435001 heartbeat IPC: 1.00167 cumulative IPC: 0.933097 (Simulation time: 0 hr 55 min 34 sec) 
Heartbeat CPU 7 instructions: 90000000 cycles: 141868684 heartbeat IPC: 0.388021 cumulative IPC: 0.369034 (Simulation time: 0 hr 56 min 23 sec) 
Heartbeat CPU 5 instructions: 70000001 cycles: 143457285 heartbeat IPC: 0.388351 cumulative IPC: 0.341761 (Simulation time: 0 hr 56 min 56 sec) 
Heartbeat CPU 3 instructions: 50000003 cycles: 147215439 heartbeat IPC: 0.222606 cumulative IPC: 0.224645 (Simulation time: 0 hr 58 min 45 sec) 
Heartbeat CPU 6 instructions: 160000000 cycles: 149906101 heartbeat IPC: 0.955009 cumulative IPC: 0.934782 (Simulation time: 0 hr 59 min 43 sec) 
Heartbeat CPU 0 instructions: 150000001 cycles: 151259585 heartbeat IPC: 0.586649 cumulative IPC: 0.872195 (Simulation time: 1 hr 0 min 10 sec) 
Heartbeat CPU 1 instructions: 70000003 cycles: 151656244 heartbeat IPC: 0.319857 cumulative IPC: 0.32336 (Simulation time: 1 hr 0 min 19 sec) 
Heartbeat CPU 2 instructions: 80000000 cycles: 157015685 heartbeat IPC: 0.37272 cumulative IPC: 0.363233 (Simulation time: 1 hr 2 min 14 sec) 
Heartbeat CPU 6 instructions: 170000001 cycles: 161618864 heartbeat IPC: 0.85377 cumulative IPC: 0.928368 (Simulation time: 1 hr 3 min 54 sec) 
Heartbeat CPU 5 instructions: 80000000 cycles: 163283076 heartbeat IPC: 0.504393 cumulative IPC: 0.363312 (Simulation time: 1 hr 4 min 34 sec) 
Heartbeat CPU 4 instructions: 80000000 cycles: 165373279 heartbeat IPC: 0.314125 cumulative IPC: 0.31349 (Simulation time: 1 hr 5 min 23 sec) 
Heartbeat CPU 0 instructions: 160000000 cycles: 165975588 heartbeat IPC: 0.679532 cumulative IPC: 0.85358 (Simulation time: 1 hr 5 min 36 sec) 
Heartbeat CPU 7 instructions: 100000000 cycles: 169580369 heartbeat IPC: 0.360859 cumulative IPC: 0.367581 (Simulation time: 1 hr 6 min 48 sec) 
Heartbeat CPU 6 instructions: 180000000 cycles: 172347736 heartbeat IPC: 0.932064 cumulative IPC: 0.928618 (Simulation time: 1 hr 7 min 40 sec) 
Heartbeat CPU 5 instructions: 90000000 cycles: 181940400 heartbeat IPC: 0.535983 cumulative IPC: 0.382458 (Simulation time: 1 hr 10 min 45 sec) 
Heartbeat CPU 1 instructions: 80000000 cycles: 183321442 heartbeat IPC: 0.315804 cumulative IPC: 0.32195 (Simulation time: 1 hr 11 min 13 sec) 
Heartbeat CPU 6 instructions: 190000001 cycles: 183828917 heartbeat IPC: 0.870991 cumulative IPC: 0.92473 (Simulation time: 1 hr 11 min 24 sec) 
Heartbeat CPU 0 instructions: 170000002 cycles: 183919959 heartbeat IPC: 0.557278 cumulative IPC: 0.822349 (Simulation time: 1 hr 11 min 26 sec) 
Heartbeat CPU 2 instructions: 90000000 cycles: 185572616 heartbeat IPC: 0.350178 cumulative IPC: 0.361064 (Simulation time: 1 hr 12 min 0 sec) 
Heartbeat CPU 3 instructions: 60000000 cycles: 192423293 heartbeat IPC: 0.2212 cumulative IPC: 0.223774 (Simulation time: 1 hr 14 min 16 sec) 
Heartbeat CPU 6 instructions: 200000000 cycles: 194505146 heartbeat IPC: 0.93666 cumulative IPC: 0.925434 (Simulation time: 1 hr 14 min 58 sec) 
Heartbeat CPU 0 instructions: 180000000 cycles: 195633686 heartbeat IPC: 0.853699 cumulative IPC: 0.824367 (Simulation time: 1 hr 15 min 20 sec) 
Heartbeat CPU 7 instructions: 110000002 cycles: 198395798 heartbeat IPC: 0.347036 cumulative IPC: 0.364376 (Simulation time: 1 hr 16 min 13 sec) 
Heartbeat CPU 4 instructions: 90000000 cycles: 199508266 heartbeat IPC: 0.292955 cumulative IPC: 0.309718 (Simulation time: 1 hr 16 min 35 sec) 
Heartbeat CPU 5 instructions: 100000000 cycles: 203566888 heartbeat IPC: 0.462396 cumulative IPC: 0.391562 (Simulation time: 1 hr 17 min 57 sec) 
Heartbeat CPU 6 instructions: 210000002 cycles: 205062886 heartbeat IPC: 0.947173 cumulative IPC: 0.926633 (Simulation time: 1 hr 18 min 27 sec) 
Heartbeat CPU 0 instructions: 190000001 cycles: 207050144 heartbeat IPC: 0.875929 cumulative IPC: 0.827411 (Simulation time: 1 hr 19 min 6 sec) 
Heartbeat CPU 2 instructions: 100000000 cycles: 212434297 heartbeat IPC: 0.372278 cumulative IPC: 0.36258 (Simulation time: 1 hr 20 min 53 sec) 
Heartbeat CPU 1 instructions: 90000003 cycles: 213739799 heartbeat IPC: 0.328749 cumulative IPC: 0.322983 (Simulation time: 1 hr 21 min 19 sec) 
Heartbeat CPU 6 instructions: 220000000 cycles: 215573989 heartbeat IPC: 0.951375 cumulative IPC: 0.927921 (Simulation time: 1 hr 21 min 56 sec) 
Heartbeat CPU 0 instructions: 200000000 cycles: 219060730 heartbeat IPC: 0.832599 cumulative IPC: 0.827715 (Simulation time: 1 hr 23 min 8 sec) 
Heartbeat CPU 7 instructions: 120000000 cycles: 224589594 heartbeat IPC: 0.38177 cumulative IPC: 0.366536 (Simulation time: 1 hr 24 min 54 sec) 
Heartbeat CPU 6 instructions: 230000003 cycles: 226112636 heartbeat IPC: 0.948889 cumulative IPC: 0.928961 (Simulation time: 1 hr 25 min 22 sec) 
Heartbeat CPU 0 instructions: 210000003 cycles: 229992547 heartbeat IPC: 0.914761 cumulative IPC: 0.832114 (Simulation time: 1 hr 26 min 32 sec) 
Heartbeat CPU 4 instructions: 100000000 cycles: 231006771 heartbeat IPC: 0.317475 cumulative IPC: 0.310842 (Simulation time: 1 hr 26 min 51 sec) 
Heartbeat CPU 5 instructions: 110000001 cycles: 234125301 heartbeat IPC: 0.327242 cumulative IPC: 0.382646 (Simulation time: 1 hr 27 min 50 sec) 
Heartbeat CPU 6 instructions: 240000000 cycles: 236626606 heartbeat IPC: 0.951115 cumulative IPC: 0.930006 (Simulation time: 1 hr 28 min 35 sec) 
Heartbeat CPU 2 instructions: 110000002 cycles: 239658613 heartbeat IPC: 0.367319 cumulative IPC: 0.363151 (Simulation time: 1 hr 29 min 29 sec) 
Heartbeat CPU 0 instructions: 220000000 cycles: 241514842 heartbeat IPC: 0.867882 cumulative IPC: 0.833922 (Simulation time: 1 hr 30 min 3 sec) 
Heartbeat CPU 6 instructions: 250000000 cycles: 247613001 heartbeat IPC: 0.910217 cumulative IPC: 0.929077 (Simulation time: 1 hr 31 min 52 sec) 
Heartbeat CPU 3 instructions: 70000002 cycles: 251335471 heartbeat IPC: 0.169744 cumulative IPC: 0.210381 (Simulation time: 1 hr 32 min 58 sec) 
Heartbeat CPU 7 instructions: 130000003 cycles: 251919314 heartbeat IPC: 0.365902 cumulative IPC: 0.366463 (Simulation time: 1 hr 33 min 8 sec) 
Heartbeat CPU 0 instructions: 230000000 cycles: 255195558 heartbeat IPC: 0.730956 cumulative IPC: 0.82809 (Simulation time: 1 hr 34 min 8 sec) 
Heartbeat CPU 6 instructions: 260000000 cycles: 258326069 heartbeat IPC: 0.933439 cumulative IPC: 0.929268 (Simulation time: 1 hr 35 min 9 sec) 
Heartbeat CPU 4 instructions: 110000001 cycles: 263953042 heartbeat IPC: 0.303525 cumulative IPC: 0.309879 (Simulation time: 1 hr 36 min 49 sec) 
Heartbeat CPU 5 instructions: 120000000 cycles: 265756659 heartbeat IPC: 0.316142 cumulative IPC: 0.374301 (Simulation time: 1 hr 37 min 22 sec) 
Heartbeat CPU 2 instructions: 120000000 cycles: 267433173 heartbeat IPC: 0.360042 cumulative IPC: 0.36281 (Simulation time: 1 hr 37 min 55 sec) 
Heartbeat CPU 0 instructions: 240000000 cycles: 268771961 heartbeat IPC: 0.736572 cumulative IPC: 0.823219 (Simulation time: 1 hr 38 min 20 sec) 
Heartbeat CPU 6 instructions: 270000000 cycles: 271215078 heartbeat IPC: 0.775855 cumulative IPC: 0.92159 (Simulation time: 1 hr 39 min 6 sec) 
Heartbeat CPU 1 instructions: 100000000 cycles: 274491533 heartbeat IPC: 0.164604 cumulative IPC: 0.286093 (Simulation time: 1 hr 40 min 14 sec) 
Heartbeat CPU 7 instructions: 140000000 cycles: 278564797 heartbeat IPC: 0.375298 cumulative IPC: 0.367352 (Simulation time: 1 hr 41 min 48 sec) 
Heartbeat CPU 6 instructions: 280000000 cycles: 281657125 heartbeat IPC: 0.957667 cumulative IPC: 0.922996 (Simulation time: 1 hr 42 min 56 sec) 
Finished CPU 5 instructions: 100000001 cycles: 268485623 cumulative IPC: 0.372459 (Simulation time: 1 hr 43 min 7 sec) 
Heartbeat CPU 0 instructions: 250000001 cycles: 285024071 heartbeat IPC: 0.615305 cumulative IPC: 0.810767 (Simulation time: 1 hr 44 min 7 sec) 
Finished CPU 7 instructions: 100000001 cycles: 272427826 cumulative IPC: 0.36707 (Simulation time: 1 hr 44 min 29 sec) 
Finished CPU 2 instructions: 100000001 cycles: 275310391 cumulative IPC: 0.363226 (Simulation time: 1 hr 45 min 30 sec) 
Heartbeat CPU 6 instructions: 290000003 cycles: 292621850 heartbeat IPC: 0.912016 cumulative IPC: 0.922564 (Simulation time: 1 hr 46 min 42 sec) 
Heartbeat CPU 5 instructions: 130000002 cycles: 294516714 heartbeat IPC: 0.347705 cumulative IPC: 0.371577 (Simulation time: 1 hr 47 min 15 sec) 
Heartbeat CPU 2 instructions: 130000000 cycles: 294851423 heartbeat IPC: 0.364721 cumulative IPC: 0.362997 (Simulation time: 1 hr 47 min 22 sec) 
Heartbeat CPU 4 instructions: 120000000 cycles: 296882948 heartbeat IPC: 0.303675 cumulative IPC: 0.309158 (Simulation time: 1 hr 48 min 0 sec) 
Heartbeat CPU 0 instructions: 260000000 cycles: 300696190 heartbeat IPC: 0.638076 cumulative IPC: 0.801338 (Simulation time: 1 hr 49 min 16 sec) 
Heartbeat CPU 3 instructions: 80000000 cycles: 303535780 heartbeat IPC: 0.19157 cumulative IPC: 0.206993 (Simulation time: 1 hr 50 min 12 sec) 
Heartbeat CPU 6 instructions: 300000000 cycles: 304555413 heartbeat IPC: 0.837972 cumulative IPC: 0.919094 (Simulation time: 1 hr 50 min 33 sec) 
Heartbeat CPU 1 instructions: 110000002 cycles: 304917517 heartbeat IPC: 0.328667 cumulative IPC: 0.29054 (Simulation time: 1 hr 50 min 40 sec) 
Heartbeat CPU 7 instructions: 150000000 cycles: 306032850 heartbeat IPC: 0.364059 cumulative IPC: 0.367043 (Simulation time: 1 hr 51 min 2 sec) 
Heartbeat CPU 0 instructions: 270000000 cycles: 311776499 heartbeat IPC: 0.902502 cumulative IPC: 0.805098 (Simulation time: 1 hr 53 min 1 sec) 
Heartbeat CPU 6 instructions: 310000003 cycles: 315353871 heartbeat IPC: 0.926058 cumulative IPC: 0.919343 (Simulation time: 1 hr 54 min 9 sec) 
Heartbeat CPU 5 instructions: 140000000 cycles: 322067841 heartbeat IPC: 0.362962 cumulative IPC: 0.370808 (Simulation time: 1 hr 56 min 2 sec) 
Heartbeat CPU 2 instructions: 140000000 cycles: 323755580 heartbeat IPC: 0.345971 cumulative IPC: 0.36141 (Simulation time: 1 hr 56 min 30 sec) 
Heartbeat CPU 6 instructions: 320000000 cycles: 328523870 heartbeat IPC: 0.759301 cumulative IPC: 0.912649 (Simulation time: 1 hr 57 min 54 sec) 
Heartbeat CPU 0 instructions: 280000000 cycles: 329428128 heartbeat IPC: 0.56652 cumulative IPC: 0.791761 (Simulation time: 1 hr 58 min 12 sec) 
Heartbeat CPU 4 instructions: 130000003 cycles: 333064311 heartbeat IPC: 0.276385 cumulative IPC: 0.305445 (Simulation time: 1 hr 59 min 15 sec) 
Heartbeat CPU 7 instructions: 160000000 cycles: 337928396 heartbeat IPC: 0.313523 cumulative IPC: 0.361778 (Simulation time: 2 hr 0 min 50 sec) 
Heartbeat CPU 1 instructions: 120000000 cycles: 338412473 heartbeat IPC: 0.298552 cumulative IPC: 0.291367 (Simulation time: 2 hr 0 min 59 sec) 
Heartbeat CPU 6 instructions: 330000001 cycles: 340065542 heartbeat IPC: 0.866426 cumulative IPC: 0.911014 (Simulation time: 2 hr 1 min 34 sec) 
Finished CPU 4 instructions: 100000001 cycles: 327820295 cumulative IPC: 0.305045 (Simulation time: 2 hr 2 min 2 sec) 
Heartbeat CPU 5 instructions: 150000000 cycles: 345513393 heartbeat IPC: 0.42652 cumulative IPC: 0.374744 (Simulation time: 2 hr 3 min 37 sec) 
Heartbeat CPU 0 instructions: 290000001 cycles: 349093741 heartbeat IPC: 0.508502 cumulative IPC: 0.775153 (Simulation time: 2 hr 4 min 54 sec) 
Heartbeat CPU 6 instructions: 340000000 cycles: 350542005 heartbeat IPC: 0.954521 cumulative IPC: 0.912367 (Simulation time: 2 hr 5 min 26 sec) 
Heartbeat CPU 2 instructions: 150000000 cycles: 352868707 heartbeat IPC: 0.343488 cumulative IPC: 0.359871 (Simulation time: 2 hr 6 min 22 sec) 
Finished CPU 1 instructions: 100000000 cycles: 341349392 cumulative IPC: 0.292955 (Simulation time: 2 hr 7 min 14 sec) 
Heartbeat CPU 3 instructions: 90000000 cycles: 359092968 heartbeat IPC: 0.179995 cumulative IPC: 0.202651 (Simulation time: 2 hr 8 min 39 sec) 
Heartbeat CPU 6 instructions: 350000003 cycles: 361197478 heartbeat IPC: 0.938485 cumulative IPC: 0.913168 (Simulation time: 2 hr 9 min 24 sec) 
Heartbeat CPU 0 instructions: 300000000 cycles: 364221456 heartbeat IPC: 0.661038 cumulative IPC: 0.770229 (Simulation time: 2 hr 10 min 28 sec) 
Heartbeat CPU 5 instructions: 160000000 cycles: 364289375 heartbeat IPC: 0.532595 cumulative IPC: 0.383197 (Simulation time: 2 hr 10 min 29 sec) 
Heartbeat CPU 7 instructions: 170000003 cycles: 365529703 heartbeat IPC: 0.362302 cumulative IPC: 0.361819 (Simulation time: 2 hr 10 min 56 sec) 
Heartbeat CPU 4 instructions: 140000000 cycles: 366280874 heartbeat IPC: 0.301055 cumulative IPC: 0.305032 (Simulation time: 2 hr 11 min 12 sec) 
Heartbeat CPU 1 instructions: 130000002 cycles: 371707314 heartbeat IPC: 0.300347 cumulative IPC: 0.292202 (Simulation time: 2 hr 13 min 3 sec) 
Heartbeat CPU 6 instructions: 360000000 cycles: 372219023 heartbeat IPC: 0.907314 cumulative IPC: 0.912988 (Simulation time: 2 hr 13 min 15 sec) 
Heartbeat CPU 2 instructions: 160000000 cycles: 382141061 heartbeat IPC: 0.341619 cumulative IPC: 0.358421 (Simulation time: 2 hr 16 min 25 sec) 
Heartbeat CPU 0 instructions: 310000002 cycles: 382882678 heartbeat IPC: 0.535871 cumulative IPC: 0.758384 (Simulation time: 2 hr 16 min 41 sec) 
Heartbeat CPU 6 instructions: 370000002 cycles: 384227024 heartbeat IPC: 0.832778 cumulative IPC: 0.910389 (Simulation time: 2 hr 17 min 10 sec) 
Heartbeat CPU 5 instructions: 170000002 cycles: 387881989 heartbeat IPC: 0.423862 cumulative IPC: 0.385761 (Simulation time: 2 hr 18 min 35 sec) 
Heartbeat CPU 6 instructions: 380000000 cycles: 395104217 heartbeat IPC: 0.919355 cumulative IPC: 0.910645 (Simulation time: 2 hr 21 min 16 sec) 
Heartbeat CPU 7 instructions: 180000000 cycles: 396091444 heartbeat IPC: 0.327206 cumulative IPC: 0.359053 (Simulation time: 2 hr 21 min 36 sec) 
Heartbeat CPU 0 instructions: 320000000 cycles: 396329641 heartbeat IPC: 0.743662 cumulative IPC: 0.757866 (Simulation time: 2 hr 21 min 41 sec) 
Heartbeat CPU 4 instructions: 150000001 cycles: 400681453 heartbeat IPC: 0.290693 cumulative IPC: 0.303757 (Simulation time: 2 hr 23 min 6 sec) 
Heartbeat CPU 1 instructions: 140000000 cycles: 403257920 heartbeat IPC: 0.316951 cumulative IPC: 0.294206 (Simulation time: 2 hr 23 min 55 sec) 
Heartbeat CPU 3 instructions: 100000000 cycles: 404101892 heartbeat IPC: 0.222178 cumulative IPC: 0.204902 (Simulation time: 2 hr 24 min 11 sec) 
Heartbeat CPU 6 instructions: 390000003 cycles: 406013765 heartbeat IPC: 0.916629 cumulative IPC: 0.910811 (Simulation time: 2 hr 24 min 46 sec) 
Heartbeat CPU 2 instructions: 170000000 cycles: 410307851 heartbeat IPC: 0.355028 cumulative IPC: 0.35818 (Simulation time: 2 hr 26 min 2 sec) 
Heartbeat CPU 0 instructions: 330000000 cycles: 412887814 heartbeat IPC: 0.603931 cumulative IPC: 0.751482 (Simulation time: 2 hr 26 min 49 sec) 
Heartbeat CPU 6 instructions: 400000000 cycles: 417353483 heartbeat IPC: 0.881856 cumulative IPC: 0.909998 (Simulation time: 2 hr 28 min 10 sec) 
Heartbeat CPU 5 instructions: 180000000 cycles: 420939724 heartbeat IPC: 0.302501 cumulative IPC: 0.379003 (Simulation time: 2 hr 29 min 12 sec) 
Heartbeat CPU 6 instructions: 410000001 cycles: 428691003 heartbeat IPC: 0.882027 cumulative IPC: 0.909233 (Simulation time: 2 hr 31 min 34 sec) 
Heartbeat CPU 7 instructions: 190000001 cycles: 429280699 heartbeat IPC: 0.301302 cumulative IPC: 0.354441 (Simulation time: 2 hr 31 min 45 sec) 
Heartbeat CPU 1 instructions: 150000002 cycles: 435693406 heartbeat IPC: 0.308304 cumulative IPC: 0.29529 (Simulation time: 2 hr 33 min 37 sec) 
Heartbeat CPU 4 instructions: 160000000 cycles: 436125525 heartbeat IPC: 0.282135 cumulative IPC: 0.301943 (Simulation time: 2 hr 33 min 46 sec) 
Heartbeat CPU 0 instructions: 340000000 cycles: 436197390 heartbeat IPC: 0.429008 cumulative IPC: 0.733692 (Simulation time: 2 hr 33 min 47 sec) 
Heartbeat CPU 2 instructions: 180000000 cycles: 439635646 heartbeat IPC: 0.340973 cumulative IPC: 0.356996 (Simulation time: 2 hr 34 min 56 sec) 
Heartbeat CPU 6 instructions: 420000000 cycles: 440229349 heartbeat IPC: 0.866675 cumulative IPC: 0.908082 (Simulation time: 2 hr 35 min 8 sec) 
Heartbeat CPU 0 instructions: 350000002 cycles: 444934147 heartbeat IPC: 1.14459 cumulative IPC: 0.742016 (Simulation time: 2 hr 36 min 40 sec) 
Heartbeat CPU 6 instructions: 430000003 cycles: 451057572 heartbeat IPC: 0.923513 cumulative IPC: 0.908464 (Simulation time: 2 hr 38 min 30 sec) 
Heartbeat CPU 5 instructions: 190000000 cycles: 451415643 heartbeat IPC: 0.328128 cumulative IPC: 0.375461 (Simulation time: 2 hr 38 min 36 sec) 
Heartbeat CPU 3 instructions: 110000002 cycles: 453662367 heartbeat IPC: 0.201774 cumulative IPC: 0.20455 (Simulation time: 2 hr 39 min 17 sec) 
Heartbeat CPU 0 instructions: 360000000 cycles: 455911464 heartbeat IPC: 0.910969 cumulative IPC: 0.74621 (Simulation time: 2 hr 40 min 1 sec) 
Heartbeat CPU 7 instructions: 200000000 cycles: 461550882 heartbeat IPC: 0.309884 cumulative IPC: 0.351231 (Simulation time: 2 hr 41 min 50 sec) 
Heartbeat CPU 6 instructions: 440000000 cycles: 464194461 heartbeat IPC: 0.761215 cumulative IPC: 0.904171 (Simulation time: 2 hr 42 min 40 sec) 
Heartbeat CPU 0 instructions: 370000003 cycles: 464546726 heartbeat IPC: 1.15804 cumulative IPC: 0.754097 (Simulation time: 2 hr 42 min 47 sec) 
Heartbeat CPU 1 instructions: 160000000 cycles: 466939624 heartbeat IPC: 0.320039 cumulative IPC: 0.296996 (Simulation time: 2 hr 43 min 30 sec) 
Heartbeat CPU 2 instructions: 190000002 cycles: 467443693 heartbeat IPC: 0.359608 cumulative IPC: 0.357156 (Simulation time: 2 hr 43 min 39 sec) 
Heartbeat CPU 4 instructions: 170000001 cycles: 469298665 heartbeat IPC: 0.301449 cumulative IPC: 0.301907 (Simulation time: 2 hr 44 min 11 sec) 
Heartbeat CPU 0 instructions: 380000000 cycles: 475627739 heartbeat IPC: 0.902444 cumulative IPC: 0.757656 (Simulation time: 2 hr 46 min 7 sec) 
Heartbeat CPU 5 instructions: 200000000 cycles: 476050239 heartbeat IPC: 0.405933 cumulative IPC: 0.377084 (Simulation time: 2 hr 46 min 14 sec) 
Heartbeat CPU 6 instructions: 450000002 cycles: 480100970 heartbeat IPC: 0.628674 cumulative IPC: 0.894775 (Simulation time: 2 hr 47 min 28 sec) 
Heartbeat CPU 7 instructions: 210000000 cycles: 482714902 heartbeat IPC: 0.4725 cumulative IPC: 0.356703 (Simulation time: 2 hr 48 min 17 sec) 
Heartbeat CPU 0 instructions: 390000001 cycles: 487216952 heartbeat IPC: 0.862871 cumulative IPC: 0.76023 (Simulation time: 2 hr 49 min 34 sec) 
Heartbeat CPU 3 instructions: 120000000 cycles: 490448432 heartbeat IPC: 0.271842 cumulative IPC: 0.209742 (Simulation time: 2 hr 50 min 34 sec) 
Finished CPU 3 instructions: 100000000 cycles: 476777102 cumulative IPC: 0.209742 (Simulation time: 2 hr 50 min 34 sec) 

CPU 0 Branch Prediction Accuracy: 99.2582% MPKI: 0.352056

CPU 1 Branch Prediction Accuracy: 99.8578% MPKI: 0.29453

CPU 2 Branch Prediction Accuracy: 97.116% MPKI: 0.496124

CPU 3 Branch Prediction Accuracy: 98.5852% MPKI: 1.39981

CPU 4 Branch Prediction Accuracy: 99.98% MPKI: 0.0488402

CPU 5 Branch Prediction Accuracy: 99.294% MPKI: 1.79534

CPU 6 Branch Prediction Accuracy: 99.186% MPKI: 0.0545789

CPU 7 Branch Prediction Accuracy: 99.8669% MPKI: 0.20097

ChampSim completed all CPUs

Total Simulation Statistics (not including warmup)

CPU 0 cumulative IPC: 0.76358 instructions: 364057431 cycles: 476777102
L1D TOTAL     ACCESS:   90380089  HIT:   83783104  MISS:    6596985
L1D LOAD      ACCESS:   76287492  HIT:   70803353  MISS:    5484139
L1D RFO       ACCESS:   14092597  HIT:   12979751  MISS:    1112846
L1D PREFETCH  ACCESS:          0  HIT:          0  MISS:          0
L1D WRITEBACK ACCESS:          0  HIT:          0  MISS:          0
L1I TOTAL     ACCESS:   95789079  HIT:   95778289  MISS:      10790
L1I LOAD      ACCESS:   95789079  HIT:   95778289  MISS:      10790
L1I RFO       ACCESS:          0  HIT:          0  MISS:          0
L1I PREFETCH  ACCESS:          0  HIT:          0  MISS:          0
L1I WRITEBACK ACCESS:          0  HIT:          0  MISS:          0
L2C TOTAL     ACCESS:   11550050  HIT:    6700055  MISS:    4849995
L2C LOAD      ACCESS:    5494711  HIT:    4103857  MISS:    1390854
L2C RFO       ACCESS:    1112825  HIT:     245406  MISS:     867419
L2C PREFETCH  ACCESS:    2636826  HIT:      51004  MISS:    2585822
L2C WRITEBACK ACCESS:    2305688  HIT:    2299788  MISS:       5900

L2C Best-offset prefetcher final stats
LLC TOTAL     ACCESS:    7027037  HIT:    3111364  MISS:    3915673
LLC LOAD      ACCESS:     900548  HIT:     376352  MISS:     524196
LLC RFO       ACCESS:     866131  HIT:     141265  MISS:     724866
LLC PREFETCH  ACCESS:    3340576  HIT:     684460  MISS:    2656116
LLC WRITEBACK ACCESS:    1919782  HIT:    1909287  MISS:      10495

CPU 1 cumulative IPC: 0.29843 instructions: 142284568 cycles: 476777102
L1D TOTAL     ACCESS:   44654270  HIT:   42105855  MISS:    2548415
L1D LOAD      ACCESS:   29012454  HIT:   26467579  MISS:    2544875
L1D RFO       ACCESS:   15641816  HIT:   15638276  MISS:       3540
L1D PREFETCH  ACCESS:          0  HIT:          0  MISS:          0
L1D WRITEBACK ACCESS:          0  HIT:          0  MISS:          0
L1I TOTAL     ACCESS:   55342400  HIT:   55342311  MISS:         89
L1I LOAD      ACCESS:   55342400  HIT:   55342311  MISS:         89
L1I RFO       ACCESS:          0  HIT:          0  MISS:          0
L1I PREFETCH  ACCESS:          0  HIT:          0  MISS:          0
L1I WRITEBACK ACCESS:          0  HIT:          0  MISS:          0
L2C TOTAL     ACCESS:    3244498  HIT:    1910495  MISS:    1334003
L2C LOAD      ACCESS:    2544964  HIT:    1875057  MISS:     669907
L2C RFO       ACCESS:       3540  HIT:        991  MISS:       2549
L2C PREFETCH  ACCESS:     666731  HIT:       5261  MISS:     661470
L2C WRITEBACK ACCESS:      29263  HIT:      29186  MISS:         77

L2C Best-offset prefetcher final stats
LLC TOTAL     ACCESS:    1349765  HIT:      23095  MISS:    1326670
LLC LOAD      ACCESS:      70474  HIT:       4309  MISS:      66165
LLC RFO       ACCESS:       2539  HIT:         23  MISS:       2516
LLC PREFETCH  ACCESS:    1260913  HIT:       5654  MISS:    1255259
LLC WRITEBACK ACCESS:      15839  HIT:      13109  MISS:       2730

CPU 2 cumulative IPC: 0.357256 instructions: 170331413 cycles: 476777102
L1D TOTAL     ACCESS:   48232865  HIT:   34799371  MISS:   13433494
L1D LOAD      ACCESS:   16929221  HIT:   14890208  MISS:    2039013
L1D RFO       ACCESS:   31303644  HIT:   19909163  MISS:   11394481
L1D PREFETCH  ACCESS:          0  HIT:          0  MISS:          0
L1D WRITEBACK ACCESS:          0  HIT:          0  MISS:          0
L1I TOTAL     ACCESS:   39556461  HIT:   39556461  MISS:          0
L1I LOAD      ACCESS:   39556461  HIT:   39556461  MISS:          0
L1I RFO       ACCESS:          0  HIT:          0  MISS:          0
L1I PREFETCH  ACCESS:          0  HIT:          0  MISS:          0
L1I WRITEBACK ACCESS:          0  HIT:          0  MISS:          0
L2C TOTAL     ACCESS:   25685162  HIT:   15551067  MISS:   10134095
L2C LOAD      ACCESS:    2039013  HIT:     646589  MISS:    1392424
L2C RFO       ACCESS:   11394387  HIT:    3301110  MISS:    8093277
L2C PREFETCH  ACCESS:     857280  HIT:     212485  MISS:     644795
L2C WRITEBACK ACCESS:   11394482  HIT:   11390883  MISS:       3599

L2C Best-offset prefetcher final stats
LLC TOTAL     ACCESS:   18222568  HIT:   10087713  MISS:    8134855
LLC LOAD      ACCESS:    1107807  HIT:       1917  MISS:    1105890
LLC RFO       ACCESS:    8088519  HIT:    1987805  MISS:    6100714
LLC PREFETCH  ACCESS:     929412  HIT:       1725  MISS:     927687
LLC WRITEBACK ACCESS:    8096830  HIT:    8096266  MISS:        564

CPU 3 cumulative IPC: 0.209742 instructions: 100000000 cycles: 476777102
L1D TOTAL     ACCESS:   49568611  HIT:   46845019  MISS:    2723592
L1D LOAD      ACCESS:   21675135  HIT:   19195707  MISS:    2479428
L1D RFO       ACCESS:   27893476  HIT:   27649312  MISS:     244164
L1D PREFETCH  ACCESS:          0  HIT:          0  MISS:          0
L1D WRITEBACK ACCESS:          0  HIT:          0  MISS:          0
L1I TOTAL     ACCESS:   32364218  HIT:   32364218  MISS:          0
L1I LOAD      ACCESS:   32364218  HIT:   32364218  MISS:          0
L1I RFO       ACCESS:          0  HIT:          0  MISS:          0
L1I PREFETCH  ACCESS:          0  HIT:          0  MISS:          0
L1I WRITEBACK ACCESS:          0  HIT:          0  MISS:          0
L2C TOTAL     ACCESS:    5313156  HIT:    1748187  MISS:    3564969
L2C LOAD      ACCESS:    2479417  HIT:     520423  MISS:    1958994
L2C RFO       ACCESS:     244156  HIT:      23680  MISS:     220476
L2C PREFETCH  ACCESS:    1924950  HIT:     542533  MISS:    1382417
L2C WRITEBACK ACCESS:     664633  HIT:     661551  MISS:       3082

L2C Best-offset prefetcher final stats
LLC TOTAL     ACCESS:    4167252  HIT:     617800  MISS:    3549452
LLC LOAD      ACCESS:    1695881  HIT:       7975  MISS:    1687906
LLC RFO       ACCESS:     211212  HIT:        158  MISS:     211054
LLC PREFETCH  ACCESS:    1654794  HIT:       5655  MISS:    1649139
LLC WRITEBACK ACCESS:     605365  HIT:     604012  MISS:       1353

CPU 4 cumulative IPC: 0.301869 instructions: 143924070 cycles: 476777103
L1D TOTAL     ACCESS:   27704948  HIT:   24967380  MISS:    2737568
L1D LOAD      ACCESS:   25817915  HIT:   23081167  MISS:    2736748
L1D RFO       ACCESS:    1887033  HIT:    1886213  MISS:        820
L1D PREFETCH  ACCESS:          0  HIT:          0  MISS:          0
L1D WRITEBACK ACCESS:          0  HIT:          0  MISS:          0
L1I TOTAL     ACCESS:   50370682  HIT:   50370682  MISS:          0
L1I LOAD      ACCESS:   50370682  HIT:   50370682  MISS:          0
L1I RFO       ACCESS:          0  HIT:          0  MISS:          0
L1I PREFETCH  ACCESS:          0  HIT:          0  MISS:          0
L1I WRITEBACK ACCESS:          0  HIT:          0  MISS:          0
L2C TOTAL     ACCESS:    3932056  HIT:     962725  MISS:    2969331
L2C LOAD      ACCESS:    2736748  HIT:     776403  MISS:    1960345
L2C RFO       ACCESS:        820  HIT:         88  MISS:        732
L2C PREFETCH  ACCESS:    1193283  HIT:     185029  MISS:    1008254
L2C WRITEBACK ACCESS:       1205  HIT:       1205  MISS:          0

L2C Best-offset prefetcher final stats
LLC TOTAL     ACCESS:    2970521  HIT:      93803  MISS:    2876718
LLC LOAD      ACCESS:    1168713  HIT:      37073  MISS:    1131640
LLC RFO       ACCESS:        732  HIT:          8  MISS:        724
LLC PREFETCH  ACCESS:    1799886  HIT:      55532  MISS:    1744354
LLC WRITEBACK ACCESS:       1190  HIT:       1190  MISS:          0

CPU 5 cumulative IPC: 0.374958 instructions: 178771290 cycles: 476777103
L1D TOTAL     ACCESS:   41756750  HIT:   32674772  MISS:    9081978
L1D LOAD      ACCESS:   30447981  HIT:   21678399  MISS:    8769582
L1D RFO       ACCESS:   11308769  HIT:   10996373  MISS:     312396
L1D PREFETCH  ACCESS:          0  HIT:          0  MISS:          0
L1D WRITEBACK ACCESS:          0  HIT:          0  MISS:          0
L1I TOTAL     ACCESS:   78314828  HIT:   77911603  MISS:     403225
L1I LOAD      ACCESS:   78314828  HIT:   77911603  MISS:     403225
L1I RFO       ACCESS:          0  HIT:          0  MISS:          0
L1I PREFETCH  ACCESS:          0  HIT:          0  MISS:          0
L1I WRITEBACK ACCESS:          0  HIT:          0  MISS:          0
L2C TOTAL     ACCESS:   13415552  HIT:    6564286  MISS:    6851266
L2C LOAD      ACCESS:    9172755  HIT:    4796756  MISS:    4375999
L2C RFO       ACCESS:     312385  HIT:      60373  MISS:     252012
L2C PREFETCH  ACCESS:    3426723  HIT:    1203673  MISS:    2223050
L2C WRITEBACK ACCESS:     503689  HIT:     503484  MISS:        205

L2C Best-offset prefetcher final stats
LLC TOTAL     ACCESS:    7233347  HIT:    6854272  MISS:     379075
LLC LOAD      ACCESS:    4099597  HIT:    4017710  MISS:      81887
LLC RFO       ACCESS:     248609  HIT:      23665  MISS:     224944
LLC PREFETCH  ACCESS:    2503274  HIT:    2441570  MISS:      61704
LLC WRITEBACK ACCESS:     381867  HIT:     371327  MISS:      10540

CPU 6 cumulative IPC: 0.892844 instructions: 425687438 cycles: 476777103
L1D TOTAL     ACCESS:  120482643  HIT:  113314877  MISS:    7167766
L1D LOAD      ACCESS:   99550624  HIT:   92382858  MISS:    7167766
L1D RFO       ACCESS:   20932019  HIT:   20932019  MISS:          0
L1D PREFETCH  ACCESS:          0  HIT:          0  MISS:          0
L1D WRITEBACK ACCESS:          0  HIT:          0  MISS:          0
L1I TOTAL     ACCESS:   90704461  HIT:   90704461  MISS:          0
L1I LOAD      ACCESS:   90704461  HIT:   90704461  MISS:          0
L1I RFO       ACCESS:          0  HIT:          0  MISS:          0
L1I PREFETCH  ACCESS:          0  HIT:          0  MISS:          0
L1I WRITEBACK ACCESS:          0  HIT:          0  MISS:          0
L2C TOTAL     ACCESS:   15403166  HIT:    8139619  MISS:    7263547
L2C LOAD      ACCESS:    7167765  HIT:    5883024  MISS:    1284741
L2C RFO       ACCESS:          0  HIT:          0  MISS:          0
L2C PREFETCH  ACCESS:    6012790  HIT:      35086  MISS:    5977704
L2C WRITEBACK ACCESS:    2222611  HIT:    2221509  MISS:       1102

L2C Best-offset prefetcher final stats
LLC TOTAL     ACCESS:    9781585  HIT:    2502549  MISS:    7279036
LLC LOAD      ACCESS:     947771  HIT:     288377  MISS:     659394
LLC RFO       ACCESS:          0  HIT:          0  MISS:          0
LLC PREFETCH  ACCESS:    6622567  HIT:       3232  MISS:    6619335
LLC WRITEBACK ACCESS:    2211247  HIT:    2210940  MISS:        307

CPU 7 cumulative IPC: 0.357634 instructions: 170511684 cycles: 476777103
L1D TOTAL     ACCESS:   14051927  HIT:   11070608  MISS:    2981319
L1D LOAD      ACCESS:   10482514  HIT:    7501198  MISS:    2981316
L1D RFO       ACCESS:    3569413  HIT:    3569410  MISS:          3
L1D PREFETCH  ACCESS:          0  HIT:          0  MISS:          0
L1D WRITEBACK ACCESS:          0  HIT:          0  MISS:          0
L1I TOTAL     ACCESS:   37423197  HIT:   37423186  MISS:         11
L1I LOAD      ACCESS:   37423197  HIT:   37423186  MISS:         11
L1I RFO       ACCESS:          0  HIT:          0  MISS:          0
L1I PREFETCH  ACCESS:          0  HIT:          0  MISS:          0
L1I WRITEBACK ACCESS:          0  HIT:          0  MISS:          0
L2C TOTAL     ACCESS:    3770792  HIT:     788834  MISS:    2981958
L2C LOAD      ACCESS:    2981327  HIT:     777151  MISS:    2204176
L2C RFO       ACCESS:          3  HIT:          0  MISS:          3
L2C PREFETCH  ACCESS:     785426  HIT:       7652  MISS:     777774
L2C WRITEBACK ACCESS:       4036  HIT:       4031  MISS:          5

L2C Best-offset prefetcher final stats
LLC TOTAL     ACCESS:    2989005  HIT:       8336  MISS:    2980669
LLC LOAD      ACCESS:     160528  HIT:       1841  MISS:     158687
LLC RFO       ACCESS:          3  HIT:          0  MISS:          3
LLC PREFETCH  ACCESS:    2822595  HIT:        619  MISS:    2821976
LLC WRITEBACK ACCESS:       5879  HIT:       5876  MISS:          3

Region of Interest Statistics

CPU 0 cumulative IPC: 0.947757 instructions: 100000002 cycles: 105512256
L1D TOTAL     ACCESS:   23384745  HIT:   22123172  MISS:    1261573
L1D LOAD      ACCESS:   20096031  HIT:   19088693  MISS:    1007338
L1D RFO       ACCESS:    3288714  HIT:    3034479  MISS:     254235
L1D PREFETCH  ACCESS:          0  HIT:          0  MISS:          0
L1D WRITEBACK ACCESS:          0  HIT:          0  MISS:          0
L1D PREFETCH  REQUESTED:          0  ISSUED:          0  USEFUL:          0  USELESS:          0
L1I TOTAL     ACCESS:   27692878  HIT:   27690751  MISS:       2127
L1I LOAD      ACCESS:   27692878  HIT:   27690751  MISS:       2127
L1I RFO       ACCESS:          0  HIT:          0  MISS:          0
L1I PREFETCH  ACCESS:          0  HIT:          0  MISS:          0
L1I WRITEBACK ACCESS:          0  HIT:          0  MISS:          0
L1I PREFETCH  REQUESTED:          0  ISSUED:          0  USEFUL:          0  USELESS:          0
L2C TOTAL     ACCESS:    2268554  HIT:    1360641  MISS:     907913
L2C LOAD      ACCESS:    1009428  HIT:     859092  MISS:     150336
L2C RFO       ACCESS:     254235  HIT:      25551  MISS:     228684
L2C PREFETCH  ACCESS:     532711  HIT:       5509  MISS:     527202
L2C WRITEBACK ACCESS:     472180  HIT:     470489  MISS:       1691
L2C PREFETCH  REQUESTED:    3922879  ISSUED:    3920557  USEFUL:    2875059  USELESS:     177339
LLC TOTAL     ACCESS:    1361168  HIT:     744013  MISS:     617155
LLC LOAD      ACCESS:      87271  HIT:      38604  MISS:      48667
LLC RFO       ACCESS:     228683  HIT:      66220  MISS:     162463
LLC PREFETCH  ACCESS:     604964  HIT:     201610  MISS:     403354
LLC WRITEBACK ACCESS:     440250  HIT:     437579  MISS:       2671
LLC PREFETCH  REQUESTED:          0  ISSUED:          0  USEFUL:     638330  USELESS:   19927325
Major fault: 0 Minor fault: 10906

CPU 1 cumulative IPC: 0.292955 instructions: 100000000 cycles: 341349392
L1D TOTAL     ACCESS:   31348051  HIT:   29605423  MISS:    1742628
L1D LOAD      ACCESS:   20372624  HIT:   18632697  MISS:    1739927
L1D RFO       ACCESS:   10975427  HIT:   10972726  MISS:       2701
L1D PREFETCH  ACCESS:          0  HIT:          0  MISS:          0
L1D WRITEBACK ACCESS:          0  HIT:          0  MISS:          0
L1D PREFETCH  REQUESTED:          0  ISSUED:          0  USEFUL:          0  USELESS:          0
L1I TOTAL     ACCESS:   38853623  HIT:   38853534  MISS:         89
L1I LOAD      ACCESS:   38853623  HIT:   38853534  MISS:         89
L1I RFO       ACCESS:          0  HIT:          0  MISS:          0
L1I PREFETCH  ACCESS:          0  HIT:          0  MISS:          0
L1I WRITEBACK ACCESS:          0  HIT:          0  MISS:          0
L1I PREFETCH  REQUESTED:          0  ISSUED:          0  USEFUL:          0  USELESS:          0
L2C TOTAL     ACCESS:    2248725  HIT:    1259646  MISS:     989079
L2C LOAD      ACCESS:    1740016  HIT:    1236330  MISS:     503686
L2C RFO       ACCESS:       2701  HIT:        415  MISS:       2286
L2C PREFETCH  ACCESS:     487112  HIT:       4078  MISS:     483034
L2C WRITEBACK ACCESS:      18896  HIT:      18823  MISS:         73
L2C PREFETCH  REQUESTED:    1479674  ISSUED:    1479674  USEFUL:     824700  USELESS:      39341
LLC TOTAL     ACCESS:     999665  HIT:      17505  MISS:     982160
LLC LOAD      ACCESS:      54009  HIT:       3725  MISS:      50284
LLC RFO       ACCESS:       2281  HIT:         15  MISS:       2266
LLC PREFETCH  ACCESS:     932716  HIT:       4999  MISS:     927717
LLC WRITEBACK ACCESS:      10659  HIT:       8766  MISS:       1893
LLC PREFETCH  REQUESTED:          0  ISSUED:          0  USEFUL:     638330  USELESS:   19927325
Major fault: 0 Minor fault: 8987

CPU 2 cumulative IPC: 0.363226 instructions: 100000001 cycles: 275310391
L1D TOTAL     ACCESS:   28284003  HIT:   20443768  MISS:    7840235
L1D LOAD      ACCESS:    9944111  HIT:    8754186  MISS:    1189925
L1D RFO       ACCESS:   18339892  HIT:   11689582  MISS:    6650310
L1D PREFETCH  ACCESS:          0  HIT:          0  MISS:          0
L1D WRITEBACK ACCESS:          0  HIT:          0  MISS:          0
L1D PREFETCH  REQUESTED:          0  ISSUED:          0  USEFUL:          0  USELESS:          0
L1I TOTAL     ACCESS:   23216398  HIT:   23216398  MISS:          0
L1I LOAD      ACCESS:   23216398  HIT:   23216398  MISS:          0
L1I RFO       ACCESS:          0  HIT:          0  MISS:          0
L1I PREFETCH  ACCESS:          0  HIT:          0  MISS:          0
L1I WRITEBACK ACCESS:          0  HIT:          0  MISS:          0
L1I PREFETCH  REQUESTED:          0  ISSUED:          0  USEFUL:          0  USELESS:          0
L2C TOTAL     ACCESS:   14994034  HIT:    9069701  MISS:    5924333
L2C LOAD      ACCESS:    1189925  HIT:     379833  MISS:     810092
L2C RFO       ACCESS:    6650255  HIT:    1916896  MISS:    4733359
L2C PREFETCH  ACCESS:     503545  HIT:     124695  MISS:     378850
L2C WRITEBACK ACCESS:    6650309  HIT:    6648277  MISS:       2032
L2C PREFETCH  REQUESTED:    2326534  ISSUED:    2326534  USEFUL:     829753  USELESS:       1306
LLC TOTAL     ACCESS:   10654894  HIT:    5906955  MISS:    4747939
LLC LOAD      ACCESS:     647750  HIT:       1080  MISS:     646670
LLC RFO       ACCESS:    4730528  HIT:    1169814  MISS:    3560714
LLC PREFETCH  ACCESS:     541192  HIT:        958  MISS:     540234
LLC WRITEBACK ACCESS:    4735424  HIT:    4735103  MISS:        321
LLC PREFETCH  REQUESTED:          0  ISSUED:          0  USEFUL:     638330  USELESS:   19927325
Major fault: 0 Minor fault: 76911

CPU 3 cumulative IPC: 0.209742 instructions: 100000000 cycles: 476777102
L1D TOTAL     ACCESS:   49568611  HIT:   46845019  MISS:    2723592
L1D LOAD      ACCESS:   21675135  HIT:   19195707  MISS:    2479428
L1D RFO       ACCESS:   27893476  HIT:   27649312  MISS:     244164
L1D PREFETCH  ACCESS:          0  HIT:          0  MISS:          0
L1D WRITEBACK ACCESS:          0  HIT:          0  MISS:          0
L1D PREFETCH  REQUESTED:          0  ISSUED:          0  USEFUL:          0  USELESS:          0
L1I TOTAL     ACCESS:   32364218  HIT:   32364218  MISS:          0
L1I LOAD      ACCESS:   32364218  HIT:   32364218  MISS:          0
L1I RFO       ACCESS:          0  HIT:          0  MISS:          0
L1I PREFETCH  ACCESS:          0  HIT:          0  MISS:          0
L1I WRITEBACK ACCESS:          0  HIT:          0  MISS:          0
L1I PREFETCH  REQUESTED:          0  ISSUED:          0  USEFUL:          0  USELESS:          0
L2C TOTAL     ACCESS:    5313156  HIT:    1748187  MISS:    3564969
L2C LOAD      ACCESS:    2479417  HIT:     520423  MISS:    1958994
L2C RFO       ACCESS:     244156  HIT:      23680  MISS:     220476
L2C PREFETCH  ACCESS:    1924950  HIT:     542533  MISS:    1382417
L2C WRITEBACK ACCESS:     664633  HIT:     661551  MISS:       3082
L2C PREFETCH  REQUESTED:    2725491  ISSUED:    2725491  USEFUL:     590281  USELESS:    1054617
LLC TOTAL     ACCESS:    4167252  HIT:     617800  MISS:    3549452
LLC LOAD      ACCESS:    1695881  HIT:       7975  MISS:    1687906
LLC RFO       ACCESS:     211212  HIT:        158  MISS:     211054
LLC PREFETCH  ACCESS:    1654794  HIT:       5655  MISS:    1649139
LLC WRITEBACK ACCESS:     605365  HIT:     604012  MISS:       1353
LLC PREFETCH  REQUESTED:          0  ISSUED:          0  USEFUL:     638330  USELESS:   19927325
Major fault: 0 Minor fault: 33732

CPU 4 cumulative IPC: 0.305045 instructions: 100000001 cycles: 327820295
L1D TOTAL     ACCESS:   19252447  HIT:   17350150  MISS:    1902297
L1D LOAD      ACCESS:   17941125  HIT:   16039399  MISS:    1901726
L1D RFO       ACCESS:    1311322  HIT:    1310751  MISS:        571
L1D PREFETCH  ACCESS:          0  HIT:          0  MISS:          0
L1D WRITEBACK ACCESS:          0  HIT:          0  MISS:          0
L1D PREFETCH  REQUESTED:          0  ISSUED:          0  USEFUL:          0  USELESS:          0
L1I TOTAL     ACCESS:   35019482  HIT:   35019482  MISS:          0
L1I LOAD      ACCESS:   35019482  HIT:   35019482  MISS:          0
L1I RFO       ACCESS:          0  HIT:          0  MISS:          0
L1I PREFETCH  ACCESS:          0  HIT:          0  MISS:          0
L1I WRITEBACK ACCESS:          0  HIT:          0  MISS:          0
L1I PREFETCH  REQUESTED:          0  ISSUED:          0  USEFUL:          0  USELESS:          0
L2C TOTAL     ACCESS:    2739031  HIT:     675679  MISS:    2063352
L2C LOAD      ACCESS:    1901726  HIT:     545909  MISS:    1355817
L2C RFO       ACCESS:        571  HIT:         61  MISS:        510
L2C PREFETCH  ACCESS:     835895  HIT:     128870  MISS:     707025
L2C WRITEBACK ACCESS:        839  HIT:        839  MISS:          0
L2C PREFETCH  REQUESTED:    3300745  ISSUED:    3300745  USEFUL:    1147467  USELESS:     284379
LLC TOTAL     ACCESS:    2064191  HIT:      86336  MISS:    1977855
LLC LOAD      ACCESS:     812131  HIT:      34206  MISS:     777925
LLC RFO       ACCESS:        510  HIT:          8  MISS:        502
LLC PREFETCH  ACCESS:    1250711  HIT:      51283  MISS:    1199428
LLC WRITEBACK ACCESS:        839  HIT:        839  MISS:          0
LLC PREFETCH  REQUESTED:          0  ISSUED:          0  USEFUL:     638330  USELESS:   19927325
Major fault: 0 Minor fault: 836

CPU 5 cumulative IPC: 0.372459 instructions: 100000001 cycles: 268485623
L1D TOTAL     ACCESS:   24150467  HIT:   19101961  MISS:    5048506
L1D LOAD      ACCESS:   17264822  HIT:   12423255  MISS:    4841567
L1D RFO       ACCESS:    6885645  HIT:    6678706  MISS:     206939
L1D PREFETCH  ACCESS:          0  HIT:          0  MISS:          0
L1D WRITEBACK ACCESS:          0  HIT:          0  MISS:          0
L1D PREFETCH  REQUESTED:          0  ISSUED:          0  USEFUL:          0  USELESS:          0
L1I TOTAL     ACCESS:   43601490  HIT:   43351299  MISS:     250191
L1I LOAD      ACCESS:   43601490  HIT:   43351299  MISS:     250191
L1I RFO       ACCESS:          0  HIT:          0  MISS:          0
L1I PREFETCH  ACCESS:          0  HIT:          0  MISS:          0
L1I WRITEBACK ACCESS:          0  HIT:          0  MISS:          0
L1I PREFETCH  REQUESTED:          0  ISSUED:          0  USEFUL:          0  USELESS:          0
L2C TOTAL     ACCESS:    7559466  HIT:    3695781  MISS:    3863685
L2C LOAD      ACCESS:    5091715  HIT:    2677587  MISS:    2414128
L2C RFO       ACCESS:     206933  HIT:      35928  MISS:     171005
L2C PREFETCH  ACCESS:    1942240  HIT:     663849  MISS:    1278391
L2C WRITEBACK ACCESS:     318578  HIT:     318417  MISS:        161
L2C PREFETCH  REQUESTED:    5203911  ISSUED:    5203911  USEFUL:     657755  USELESS:    1995897
LLC TOTAL     ACCESS:    4108239  HIT:    3874132  MISS:     234107
LLC LOAD      ACCESS:    2261769  HIT:    2219956  MISS:      41813
LLC RFO       ACCESS:     169182  HIT:      14134  MISS:     155048
LLC PREFETCH  ACCESS:    1432995  HIT:    1400542  MISS:      32453
LLC WRITEBACK ACCESS:     244293  HIT:     239500  MISS:       4793
LLC PREFETCH  REQUESTED:          0  ISSUED:          0  USEFUL:     638330  USELESS:   19927325
Major fault: 0 Minor fault: 4264

CPU 6 cumulative IPC: 0.925982 instructions: 100000003 cycles: 107993503
L1D TOTAL     ACCESS:   28306612  HIT:   26622303  MISS:    1684309
L1D LOAD      ACCESS:   23389391  HIT:   21705082  MISS:    1684309
L1D RFO       ACCESS:    4917221  HIT:    4917221  MISS:          0
L1D PREFETCH  ACCESS:          0  HIT:          0  MISS:          0
L1D WRITEBACK ACCESS:          0  HIT:          0  MISS:          0
L1D PREFETCH  REQUESTED:          0  ISSUED:          0  USEFUL:          0  USELESS:          0
L1I TOTAL     ACCESS:   21302019  HIT:   21302019  MISS:          0
L1I LOAD      ACCESS:   21302019  HIT:   21302019  MISS:          0
L1I RFO       ACCESS:          0  HIT:          0  MISS:          0
L1I PREFETCH  ACCESS:          0  HIT:          0  MISS:          0
L1I WRITEBACK ACCESS:          0  HIT:          0  MISS:          0
L1I PREFETCH  REQUESTED:          0  ISSUED:          0  USEFUL:          0  USELESS:          0
L2C TOTAL     ACCESS:    3632268  HIT:    1928676  MISS:    1703592
L2C LOAD      ACCESS:    1684309  HIT:    1397596  MISS:     286713
L2C RFO       ACCESS:          0  HIT:          0  MISS:          0
L2C PREFETCH  ACCESS:    1425777  HIT:       9166  MISS:    1416611
L2C WRITEBACK ACCESS:     522182  HIT:     521914  MISS:        268
L2C PREFETCH  REQUESTED:    7191827  ISSUED:    7191827  USEFUL:    6197691  USELESS:     305519
LLC TOTAL     ACCESS:    2290070  HIT:     583263  MISS:    1706807
LLC LOAD      ACCESS:     199128  HIT:      63074  MISS:     136054
LLC RFO       ACCESS:          0  HIT:          0  MISS:          0
LLC PREFETCH  ACCESS:    1571537  HIT:        848  MISS:    1570689
LLC WRITEBACK ACCESS:     519405  HIT:     519341  MISS:         64
LLC PREFETCH  REQUESTED:          0  ISSUED:          0  USEFUL:     638330  USELESS:   19927325
Major fault: 0 Minor fault: 99330

CPU 7 cumulative IPC: 0.36707 instructions: 100000001 cycles: 272427826
L1D TOTAL     ACCESS:    8331029  HIT:    6768958  MISS:    1562071
L1D LOAD      ACCESS:    5826098  HIT:    4264028  MISS:    1562070
L1D RFO       ACCESS:    2504931  HIT:    2504930  MISS:          1
L1D PREFETCH  ACCESS:          0  HIT:          0  MISS:          0
L1D WRITEBACK ACCESS:          0  HIT:          0  MISS:          0
L1D PREFETCH  REQUESTED:          0  ISSUED:          0  USEFUL:          0  USELESS:          0
L1I TOTAL     ACCESS:   22382092  HIT:   22382088  MISS:          4
L1I LOAD      ACCESS:   22382092  HIT:   22382088  MISS:          4
L1I RFO       ACCESS:          0  HIT:          0  MISS:          0
L1I PREFETCH  ACCESS:          0  HIT:          0  MISS:          0
L1I WRITEBACK ACCESS:          0  HIT:          0  MISS:          0
L1I PREFETCH  REQUESTED:          0  ISSUED:          0  USEFUL:          0  USELESS:          0
L2C TOTAL     ACCESS:    1868966  HIT:     306548  MISS:    1562418
L2C LOAD      ACCESS:    1562074  HIT:     302517  MISS:    1259557
L2C RFO       ACCESS:          1  HIT:          0  MISS:          1
L2C PREFETCH  ACCESS:     302859  HIT:          2  MISS:     302857
L2C WRITEBACK ACCESS:       4032  HIT:       4029  MISS:          3
L2C PREFETCH  REQUESTED:    4031793  ISSUED:    4031793  USEFUL:    1886729  USELESS:       1102
LLC TOTAL     ACCESS:    1568324  HIT:       6616  MISS:    1561708
LLC LOAD      ACCESS:      61056  HIT:        390  MISS:      60666
LLC RFO       ACCESS:          1  HIT:          0  MISS:          1
LLC PREFETCH  ACCESS:    1501392  HIT:        352  MISS:    1501040
LLC WRITEBACK ACCESS:       5875  HIT:       5874  MISS:          1
LLC PREFETCH  REQUESTED:          0  ISSUED:          0  USEFUL:     638330  USELESS:   19927325
Major fault: 0 Minor fault: 54229

L2C Best-offset prefetcher final stats

L2C Best-offset prefetcher final stats

L2C Best-offset prefetcher final stats

L2C Best-offset prefetcher final stats

L2C Best-offset prefetcher final stats

L2C Best-offset prefetcher final stats

L2C Best-offset prefetcher final stats

L2C Best-offset prefetcher final stats

DRAM Statistics
 CHANNEL 0
 RQ ROW_BUFFER_HIT:    4505317  ROW_BUFFER_MISS:   10687665
 DBUS_CONGESTED:   32987899
 WQ ROW_BUFFER_HIT:     389751  ROW_BUFFER_MISS:    4988838  FULL:          0

 CHANNEL 1
 RQ ROW_BUFFER_HIT:    4509799  ROW_BUFFER_MISS:   10713108
 DBUS_CONGESTED:   32987899
 WQ ROW_BUFFER_HIT:     391182  ROW_BUFFER_MISS:    4986703  FULL:          0

 AVG_CONGESTED_CYCLE: 14
