Initialize SIGNATURE TABLE
ST_SET: 1
ST_WAY: 256
ST_TAG_BIT: 16
ST_TAG_MASK: ffff

Initialize PATTERN TABLE
PT_SET: 512
PT_WAY: 4
SIG_DELTA_BIT: 7
C_SIG_BIT: 4
C_DELTA_BIT: 4

Initialize PREFETCH FILTER
FILTER_SET: 1024

*** ChampSim Multicore Out-of-Order Simulator ***

Warmup Instructions: 200000000
Simulation Instructions: 1000000000
Number of CPUs: 1
LLC sets: 2048
LLC ways: 16
Off-chip DRAM Size: 4096 MB Channels: 1 Width: 64-bit Data Rate: 1600 MT/s

CPU 0 runs /scratch/user/djimenez/champsim-traces/speccpu2017/xz/623.xalancbmk_s/623.xalancbmk_s-700B.champsimtrace.xz
Heartbeat CPU 0 instructions: 10000001 cycles: 5942246 heartbeat IPC: 1.68287 cumulative IPC: 1.68287 (Simulation time: 0 hr 0 min 19 sec) 
Heartbeat CPU 0 instructions: 20000000 cycles: 10788617 heartbeat IPC: 2.0634 cumulative IPC: 1.85381 (Simulation time: 0 hr 0 min 38 sec) 
Heartbeat CPU 0 instructions: 30000001 cycles: 16830005 heartbeat IPC: 1.65525 cumulative IPC: 1.78253 (Simulation time: 0 hr 0 min 59 sec) 
Heartbeat CPU 0 instructions: 40000000 cycles: 23092263 heartbeat IPC: 1.59687 cumulative IPC: 1.73218 (Simulation time: 0 hr 1 min 21 sec) 
Heartbeat CPU 0 instructions: 50000001 cycles: 29226865 heartbeat IPC: 1.6301 cumulative IPC: 1.71075 (Simulation time: 0 hr 1 min 41 sec) 
Heartbeat CPU 0 instructions: 60000000 cycles: 34328727 heartbeat IPC: 1.96007 cumulative IPC: 1.74781 (Simulation time: 0 hr 1 min 58 sec) 
Heartbeat CPU 0 instructions: 70000001 cycles: 39241769 heartbeat IPC: 2.0354 cumulative IPC: 1.78381 (Simulation time: 0 hr 2 min 17 sec) 
Heartbeat CPU 0 instructions: 80000000 cycles: 45373702 heartbeat IPC: 1.63081 cumulative IPC: 1.76314 (Simulation time: 0 hr 2 min 39 sec) 
Heartbeat CPU 0 instructions: 90000001 cycles: 51212857 heartbeat IPC: 1.71258 cumulative IPC: 1.75737 (Simulation time: 0 hr 3 min 0 sec) 
Heartbeat CPU 0 instructions: 100000000 cycles: 57457376 heartbeat IPC: 1.6014 cumulative IPC: 1.74042 (Simulation time: 0 hr 3 min 22 sec) 
Heartbeat CPU 0 instructions: 110000002 cycles: 63773902 heartbeat IPC: 1.58315 cumulative IPC: 1.72484 (Simulation time: 0 hr 3 min 43 sec) 
Heartbeat CPU 0 instructions: 120000000 cycles: 69920337 heartbeat IPC: 1.62696 cumulative IPC: 1.71624 (Simulation time: 0 hr 4 min 4 sec) 
Heartbeat CPU 0 instructions: 130000001 cycles: 75173162 heartbeat IPC: 1.90374 cumulative IPC: 1.72934 (Simulation time: 0 hr 4 min 21 sec) 
Heartbeat CPU 0 instructions: 140000000 cycles: 80086070 heartbeat IPC: 2.03545 cumulative IPC: 1.74812 (Simulation time: 0 hr 4 min 40 sec) 
Heartbeat CPU 0 instructions: 150000001 cycles: 86409035 heartbeat IPC: 1.58154 cumulative IPC: 1.73593 (Simulation time: 0 hr 5 min 2 sec) 
Heartbeat CPU 0 instructions: 160000000 cycles: 91878297 heartbeat IPC: 1.8284 cumulative IPC: 1.74143 (Simulation time: 0 hr 5 min 22 sec) 
Heartbeat CPU 0 instructions: 170000000 cycles: 97964343 heartbeat IPC: 1.6431 cumulative IPC: 1.73533 (Simulation time: 0 hr 5 min 44 sec) 
Heartbeat CPU 0 instructions: 180000000 cycles: 104345941 heartbeat IPC: 1.56701 cumulative IPC: 1.72503 (Simulation time: 0 hr 6 min 6 sec) 
Heartbeat CPU 0 instructions: 190000001 cycles: 110525927 heartbeat IPC: 1.61813 cumulative IPC: 1.71905 (Simulation time: 0 hr 6 min 26 sec) 
Heartbeat CPU 0 instructions: 200000000 cycles: 116184191 heartbeat IPC: 1.76733 cumulative IPC: 1.7214 (Simulation time: 0 hr 6 min 45 sec) 

Warmup complete CPU 0 instructions: 200000001 cycles: 116184193 (Simulation time: 0 hr 6 min 45 sec) 

Heartbeat CPU 0 instructions: 210000000 cycles: 135364208 heartbeat IPC: 0.521376 cumulative IPC: 0.521376 (Simulation time: 0 hr 7 min 16 sec) 
Heartbeat CPU 0 instructions: 220000000 cycles: 164814197 heartbeat IPC: 0.339559 cumulative IPC: 0.411269 (Simulation time: 0 hr 7 min 53 sec) 
Heartbeat CPU 0 instructions: 230000000 cycles: 194095611 heartbeat IPC: 0.341514 cumulative IPC: 0.385053 (Simulation time: 0 hr 8 min 32 sec) 
Heartbeat CPU 0 instructions: 240000000 cycles: 221129382 heartbeat IPC: 0.369908 cumulative IPC: 0.381151 (Simulation time: 0 hr 9 min 10 sec) 
Heartbeat CPU 0 instructions: 250000001 cycles: 246712111 heartbeat IPC: 0.390889 cumulative IPC: 0.38306 (Simulation time: 0 hr 9 min 46 sec) 
Heartbeat CPU 0 instructions: 260000000 cycles: 270215939 heartbeat IPC: 0.425463 cumulative IPC: 0.38953 (Simulation time: 0 hr 10 min 22 sec) 
Heartbeat CPU 0 instructions: 270000000 cycles: 286375895 heartbeat IPC: 0.618814 cumulative IPC: 0.411301 (Simulation time: 0 hr 10 min 52 sec) 
Heartbeat CPU 0 instructions: 280000000 cycles: 304017985 heartbeat IPC: 0.566826 cumulative IPC: 0.425908 (Simulation time: 0 hr 11 min 22 sec) 
Heartbeat CPU 0 instructions: 290000000 cycles: 325828025 heartbeat IPC: 0.458504 cumulative IPC: 0.4293 (Simulation time: 0 hr 11 min 53 sec) 
Heartbeat CPU 0 instructions: 300000000 cycles: 357128808 heartbeat IPC: 0.319481 cumulative IPC: 0.415033 (Simulation time: 0 hr 12 min 31 sec) 
Heartbeat CPU 0 instructions: 310000001 cycles: 385765903 heartbeat IPC: 0.349197 cumulative IPC: 0.40804 (Simulation time: 0 hr 13 min 9 sec) 
Heartbeat CPU 0 instructions: 320000000 cycles: 413561057 heartbeat IPC: 0.359775 cumulative IPC: 0.403528 (Simulation time: 0 hr 13 min 46 sec) 
Heartbeat CPU 0 instructions: 330000000 cycles: 443198511 heartbeat IPC: 0.337411 cumulative IPC: 0.397536 (Simulation time: 0 hr 14 min 25 sec) 
Heartbeat CPU 0 instructions: 340000000 cycles: 470515743 heartbeat IPC: 0.366069 cumulative IPC: 0.39511 (Simulation time: 0 hr 15 min 3 sec) 
Heartbeat CPU 0 instructions: 350000000 cycles: 496271985 heartbeat IPC: 0.388255 cumulative IPC: 0.394646 (Simulation time: 0 hr 15 min 40 sec) 
Heartbeat CPU 0 instructions: 360000000 cycles: 520878773 heartbeat IPC: 0.406392 cumulative IPC: 0.39536 (Simulation time: 0 hr 16 min 16 sec) 
Heartbeat CPU 0 instructions: 370000000 cycles: 544596356 heartbeat IPC: 0.421628 cumulative IPC: 0.396814 (Simulation time: 0 hr 16 min 52 sec) 
Heartbeat CPU 0 instructions: 380000000 cycles: 560737336 heartbeat IPC: 0.619541 cumulative IPC: 0.404901 (Simulation time: 0 hr 17 min 22 sec) 
Heartbeat CPU 0 instructions: 390000000 cycles: 576526812 heartbeat IPC: 0.633333 cumulative IPC: 0.412736 (Simulation time: 0 hr 17 min 52 sec) 
Heartbeat CPU 0 instructions: 400000000 cycles: 593864005 heartbeat IPC: 0.576795 cumulative IPC: 0.418691 (Simulation time: 0 hr 18 min 22 sec) 
Heartbeat CPU 0 instructions: 410000001 cycles: 613482466 heartbeat IPC: 0.509724 cumulative IPC: 0.422282 (Simulation time: 0 hr 18 min 52 sec) 
Heartbeat CPU 0 instructions: 420000000 cycles: 640306624 heartbeat IPC: 0.372798 cumulative IPC: 0.419749 (Simulation time: 0 hr 19 min 25 sec) 
Heartbeat CPU 0 instructions: 430000002 cycles: 671002479 heartbeat IPC: 0.325777 cumulative IPC: 0.41455 (Simulation time: 0 hr 20 min 4 sec) 
Heartbeat CPU 0 instructions: 440000000 cycles: 698623179 heartbeat IPC: 0.362047 cumulative IPC: 0.41206 (Simulation time: 0 hr 20 min 42 sec) 
Heartbeat CPU 0 instructions: 450000000 cycles: 722963886 heartbeat IPC: 0.410834 cumulative IPC: 0.412011 (Simulation time: 0 hr 21 min 18 sec) 
Heartbeat CPU 0 instructions: 460000000 cycles: 741216184 heartbeat IPC: 0.547876 cumulative IPC: 0.415979 (Simulation time: 0 hr 21 min 48 sec) 
Heartbeat CPU 0 instructions: 470000000 cycles: 768805256 heartbeat IPC: 0.362462 cumulative IPC: 0.413716 (Simulation time: 0 hr 22 min 23 sec) 
Heartbeat CPU 0 instructions: 480000000 cycles: 798213362 heartbeat IPC: 0.340042 cumulative IPC: 0.41054 (Simulation time: 0 hr 23 min 2 sec) 
Heartbeat CPU 0 instructions: 490000001 cycles: 822680582 heartbeat IPC: 0.40871 cumulative IPC: 0.410476 (Simulation time: 0 hr 23 min 38 sec) 
Heartbeat CPU 0 instructions: 500000000 cycles: 848672250 heartbeat IPC: 0.384739 cumulative IPC: 0.409563 (Simulation time: 0 hr 24 min 12 sec) 
Heartbeat CPU 0 instructions: 510000001 cycles: 879470127 heartbeat IPC: 0.324698 cumulative IPC: 0.406139 (Simulation time: 0 hr 24 min 52 sec) 
Heartbeat CPU 0 instructions: 520000000 cycles: 907590809 heartbeat IPC: 0.35561 cumulative IPC: 0.404343 (Simulation time: 0 hr 25 min 31 sec) 
Heartbeat CPU 0 instructions: 530000001 cycles: 933968647 heartbeat IPC: 0.379106 cumulative IPC: 0.403529 (Simulation time: 0 hr 26 min 8 sec) 
Heartbeat CPU 0 instructions: 540000000 cycles: 959192802 heartbeat IPC: 0.396445 cumulative IPC: 0.403317 (Simulation time: 0 hr 26 min 45 sec) 
Heartbeat CPU 0 instructions: 550000003 cycles: 983197657 heartbeat IPC: 0.416583 cumulative IPC: 0.403685 (Simulation time: 0 hr 27 min 21 sec) 
Heartbeat CPU 0 instructions: 560000000 cycles: 1006430802 heartbeat IPC: 0.430419 cumulative IPC: 0.404382 (Simulation time: 0 hr 27 min 56 sec) 
Heartbeat CPU 0 instructions: 570000003 cycles: 1021834872 heartbeat IPC: 0.649179 cumulative IPC: 0.408546 (Simulation time: 0 hr 28 min 26 sec) 
Heartbeat CPU 0 instructions: 580000000 cycles: 1037151350 heartbeat IPC: 0.652891 cumulative IPC: 0.41261 (Simulation time: 0 hr 28 min 56 sec) 
Heartbeat CPU 0 instructions: 590000000 cycles: 1053784395 heartbeat IPC: 0.601213 cumulative IPC: 0.415956 (Simulation time: 0 hr 29 min 25 sec) 
Heartbeat CPU 0 instructions: 600000000 cycles: 1072071343 heartbeat IPC: 0.546838 cumulative IPC: 0.418459 (Simulation time: 0 hr 29 min 56 sec) 
Heartbeat CPU 0 instructions: 610000000 cycles: 1093677522 heartbeat IPC: 0.462831 cumulative IPC: 0.41944 (Simulation time: 0 hr 30 min 27 sec) 
Heartbeat CPU 0 instructions: 620000000 cycles: 1123355597 heartbeat IPC: 0.336949 cumulative IPC: 0.417009 (Simulation time: 0 hr 31 min 2 sec) 
Heartbeat CPU 0 instructions: 630000002 cycles: 1153556686 heartbeat IPC: 0.331114 cumulative IPC: 0.414509 (Simulation time: 0 hr 31 min 41 sec) 
Heartbeat CPU 0 instructions: 640000000 cycles: 1184675552 heartbeat IPC: 0.321348 cumulative IPC: 0.411796 (Simulation time: 0 hr 32 min 21 sec) 
Heartbeat CPU 0 instructions: 650000000 cycles: 1213460474 heartbeat IPC: 0.347404 cumulative IPC: 0.410106 (Simulation time: 0 hr 32 min 59 sec) 
Heartbeat CPU 0 instructions: 660000000 cycles: 1240249167 heartbeat IPC: 0.373292 cumulative IPC: 0.409229 (Simulation time: 0 hr 33 min 37 sec) 
Heartbeat CPU 0 instructions: 670000003 cycles: 1265536215 heartbeat IPC: 0.395459 cumulative IPC: 0.408926 (Simulation time: 0 hr 34 min 13 sec) 
Heartbeat CPU 0 instructions: 680000000 cycles: 1288537249 heartbeat IPC: 0.434763 cumulative IPC: 0.409433 (Simulation time: 0 hr 34 min 48 sec) 
Heartbeat CPU 0 instructions: 690000000 cycles: 1304191882 heartbeat IPC: 0.638789 cumulative IPC: 0.412455 (Simulation time: 0 hr 35 min 18 sec) 
Heartbeat CPU 0 instructions: 700000000 cycles: 1321566637 heartbeat IPC: 0.575548 cumulative IPC: 0.414806 (Simulation time: 0 hr 35 min 48 sec) 
Heartbeat CPU 0 instructions: 710000001 cycles: 1342754588 heartbeat IPC: 0.471966 cumulative IPC: 0.415794 (Simulation time: 0 hr 36 min 19 sec) 
Heartbeat CPU 0 instructions: 720000000 cycles: 1373151524 heartbeat IPC: 0.328981 cumulative IPC: 0.413694 (Simulation time: 0 hr 36 min 57 sec) 
Heartbeat CPU 0 instructions: 730000000 cycles: 1401269269 heartbeat IPC: 0.355647 cumulative IPC: 0.412424 (Simulation time: 0 hr 37 min 34 sec) 
Heartbeat CPU 0 instructions: 740000000 cycles: 1432211249 heartbeat IPC: 0.323186 cumulative IPC: 0.410326 (Simulation time: 0 hr 38 min 14 sec) 
Heartbeat CPU 0 instructions: 750000002 cycles: 1463795076 heartbeat IPC: 0.316618 cumulative IPC: 0.40813 (Simulation time: 0 hr 38 min 53 sec) 
Heartbeat CPU 0 instructions: 760000000 cycles: 1495583003 heartbeat IPC: 0.314585 cumulative IPC: 0.405974 (Simulation time: 0 hr 39 min 32 sec) 
Heartbeat CPU 0 instructions: 770000001 cycles: 1525289762 heartbeat IPC: 0.336624 cumulative IPC: 0.404512 (Simulation time: 0 hr 40 min 11 sec) 
Heartbeat CPU 0 instructions: 780000000 cycles: 1552580306 heartbeat IPC: 0.366427 cumulative IPC: 0.403788 (Simulation time: 0 hr 40 min 49 sec) 
Heartbeat CPU 0 instructions: 790000000 cycles: 1578001210 heartbeat IPC: 0.393377 cumulative IPC: 0.403607 (Simulation time: 0 hr 41 min 25 sec) 
Heartbeat CPU 0 instructions: 800000000 cycles: 1595312938 heartbeat IPC: 0.577643 cumulative IPC: 0.405644 (Simulation time: 0 hr 41 min 56 sec) 
Heartbeat CPU 0 instructions: 810000000 cycles: 1616521393 heartbeat IPC: 0.47151 cumulative IPC: 0.406575 (Simulation time: 0 hr 42 min 28 sec) 
Heartbeat CPU 0 instructions: 820000000 cycles: 1647378918 heartbeat IPC: 0.32407 cumulative IPC: 0.404913 (Simulation time: 0 hr 43 min 6 sec) 
Heartbeat CPU 0 instructions: 830000000 cycles: 1674509839 heartbeat IPC: 0.368583 cumulative IPC: 0.40428 (Simulation time: 0 hr 43 min 42 sec) 
Heartbeat CPU 0 instructions: 840000000 cycles: 1706331373 heartbeat IPC: 0.314253 cumulative IPC: 0.402478 (Simulation time: 0 hr 44 min 22 sec) 
Heartbeat CPU 0 instructions: 850000000 cycles: 1735031160 heartbeat IPC: 0.348435 cumulative IPC: 0.40152 (Simulation time: 0 hr 45 min 0 sec) 
Heartbeat CPU 0 instructions: 860000000 cycles: 1758451318 heartbeat IPC: 0.426983 cumulative IPC: 0.401883 (Simulation time: 0 hr 45 min 34 sec) 
Heartbeat CPU 0 instructions: 870000000 cycles: 1789132331 heartbeat IPC: 0.325934 cumulative IPC: 0.400491 (Simulation time: 0 hr 46 min 14 sec) 
Heartbeat CPU 0 instructions: 880000000 cycles: 1816676645 heartbeat IPC: 0.363051 cumulative IPC: 0.399884 (Simulation time: 0 hr 46 min 51 sec) 
Heartbeat CPU 0 instructions: 890000000 cycles: 1837367386 heartbeat IPC: 0.483308 cumulative IPC: 0.400887 (Simulation time: 0 hr 47 min 23 sec) 
Heartbeat CPU 0 instructions: 900000000 cycles: 1868683349 heartbeat IPC: 0.319326 cumulative IPC: 0.39943 (Simulation time: 0 hr 48 min 2 sec) 
Heartbeat CPU 0 instructions: 910000000 cycles: 1898663943 heartbeat IPC: 0.333549 cumulative IPC: 0.398322 (Simulation time: 0 hr 48 min 41 sec) 
Heartbeat CPU 0 instructions: 920000000 cycles: 1925943071 heartbeat IPC: 0.366581 cumulative IPC: 0.397843 (Simulation time: 0 hr 49 min 19 sec) 
Heartbeat CPU 0 instructions: 930000003 cycles: 1946884298 heartbeat IPC: 0.477527 cumulative IPC: 0.398755 (Simulation time: 0 hr 49 min 52 sec) 
Heartbeat CPU 0 instructions: 940000000 cycles: 1971078694 heartbeat IPC: 0.413319 cumulative IPC: 0.398945 (Simulation time: 0 hr 50 min 25 sec) 
Heartbeat CPU 0 instructions: 950000002 cycles: 2001649550 heartbeat IPC: 0.327109 cumulative IPC: 0.39778 (Simulation time: 0 hr 51 min 5 sec) 
Heartbeat CPU 0 instructions: 960000000 cycles: 2029486159 heartbeat IPC: 0.359239 cumulative IPC: 0.397219 (Simulation time: 0 hr 51 min 42 sec) 
Heartbeat CPU 0 instructions: 970000000 cycles: 2058816051 heartbeat IPC: 0.340949 cumulative IPC: 0.396369 (Simulation time: 0 hr 52 min 21 sec) 
Heartbeat CPU 0 instructions: 980000000 cycles: 2085845378 heartbeat IPC: 0.369969 cumulative IPC: 0.396007 (Simulation time: 0 hr 52 min 58 sec) 
Heartbeat CPU 0 instructions: 990000000 cycles: 2111326587 heartbeat IPC: 0.392446 cumulative IPC: 0.395962 (Simulation time: 0 hr 53 min 35 sec) 
Heartbeat CPU 0 instructions: 1000000000 cycles: 2129630524 heartbeat IPC: 0.546331 cumulative IPC: 0.397329 (Simulation time: 0 hr 54 min 6 sec) 
Heartbeat CPU 0 instructions: 1010000000 cycles: 2148057741 heartbeat IPC: 0.542676 cumulative IPC: 0.398647 (Simulation time: 0 hr 54 min 37 sec) 
Heartbeat CPU 0 instructions: 1020000000 cycles: 2173484602 heartbeat IPC: 0.393285 cumulative IPC: 0.398581 (Simulation time: 0 hr 55 min 10 sec) 
Heartbeat CPU 0 instructions: 1030000003 cycles: 2203972296 heartbeat IPC: 0.328001 cumulative IPC: 0.39755 (Simulation time: 0 hr 55 min 49 sec) 
Heartbeat CPU 0 instructions: 1040000000 cycles: 2230599215 heartbeat IPC: 0.37556 cumulative IPC: 0.397273 (Simulation time: 0 hr 56 min 26 sec) 
Heartbeat CPU 0 instructions: 1050000000 cycles: 2253161601 heartbeat IPC: 0.443216 cumulative IPC: 0.397758 (Simulation time: 0 hr 56 min 59 sec) 
Heartbeat CPU 0 instructions: 1060000000 cycles: 2283921631 heartbeat IPC: 0.325097 cumulative IPC: 0.396727 (Simulation time: 0 hr 57 min 38 sec) 
Heartbeat CPU 0 instructions: 1070000002 cycles: 2311483781 heartbeat IPC: 0.362816 cumulative IPC: 0.396301 (Simulation time: 0 hr 58 min 16 sec) 
Heartbeat CPU 0 instructions: 1080000000 cycles: 2332049432 heartbeat IPC: 0.486248 cumulative IPC: 0.397136 (Simulation time: 0 hr 58 min 48 sec) 
Heartbeat CPU 0 instructions: 1090000000 cycles: 2360702634 heartbeat IPC: 0.349001 cumulative IPC: 0.396522 (Simulation time: 0 hr 59 min 25 sec) 
Heartbeat CPU 0 instructions: 1100000000 cycles: 2389505683 heartbeat IPC: 0.347185 cumulative IPC: 0.395896 (Simulation time: 1 hr 0 min 4 sec) 
Heartbeat CPU 0 instructions: 1110000002 cycles: 2414404466 heartbeat IPC: 0.401626 cumulative IPC: 0.395959 (Simulation time: 1 hr 0 min 39 sec) 
Heartbeat CPU 0 instructions: 1120000000 cycles: 2435727919 heartbeat IPC: 0.468967 cumulative IPC: 0.39663 (Simulation time: 1 hr 1 min 12 sec) 
Heartbeat CPU 0 instructions: 1130000002 cycles: 2466708007 heartbeat IPC: 0.322788 cumulative IPC: 0.395656 (Simulation time: 1 hr 1 min 51 sec) 
Heartbeat CPU 0 instructions: 1140000000 cycles: 2494698261 heartbeat IPC: 0.357267 cumulative IPC: 0.395205 (Simulation time: 1 hr 2 min 29 sec) 
Heartbeat CPU 0 instructions: 1150000000 cycles: 2520795246 heartbeat IPC: 0.383186 cumulative IPC: 0.395074 (Simulation time: 1 hr 3 min 6 sec) 
Heartbeat CPU 0 instructions: 1160000000 cycles: 2539667317 heartbeat IPC: 0.529884 cumulative IPC: 0.396124 (Simulation time: 1 hr 3 min 38 sec) 
Heartbeat CPU 0 instructions: 1170000000 cycles: 2560431171 heartbeat IPC: 0.481606 cumulative IPC: 0.39685 (Simulation time: 1 hr 4 min 9 sec) 
Heartbeat CPU 0 instructions: 1180000000 cycles: 2591115982 heartbeat IPC: 0.325894 cumulative IPC: 0.395971 (Simulation time: 1 hr 4 min 47 sec) 
Heartbeat CPU 0 instructions: 1190000000 cycles: 2619424684 heartbeat IPC: 0.353248 cumulative IPC: 0.395487 (Simulation time: 1 hr 5 min 24 sec) 
Heartbeat CPU 0 instructions: 1200000000 cycles: 2649339112 heartbeat IPC: 0.334287 cumulative IPC: 0.394765 (Simulation time: 1 hr 6 min 4 sec) 
Finished CPU 0 instructions: 1000000001 cycles: 2533154927 cumulative IPC: 0.394765 (Simulation time: 1 hr 6 min 4 sec) 

CPU 0 Branch Prediction Accuracy: 99.2733% MPKI: 1.86122

ChampSim completed all CPUs

Region of Interest Statistics

CPU 0 cumulative IPC: 0.394765 instructions: 1000000001 cycles: 2533154927
L1D TOTAL     ACCESS:  242797827  HIT:  190034538  MISS:   52763289
L1D LOAD      ACCESS:  175703174  HIT:  124606602  MISS:   51096572
L1D RFO       ACCESS:   67094653  HIT:   65427936  MISS:    1666717
L1D PREFETCH  ACCESS:          0  HIT:          0  MISS:          0
L1D WRITEBACK ACCESS:          0  HIT:          0  MISS:          0
L1D PREFETCH  REQUESTED:          0  ISSUED:          0  USEFUL:          0  USELESS:          0
L1I TOTAL     ACCESS:  436280891  HIT:  433886629  MISS:    2394262
L1I LOAD      ACCESS:  436280891  HIT:  433886629  MISS:    2394262
L1I RFO       ACCESS:          0  HIT:          0  MISS:          0
L1I PREFETCH  ACCESS:          0  HIT:          0  MISS:          0
L1I WRITEBACK ACCESS:          0  HIT:          0  MISS:          0
L1I PREFETCH  REQUESTED:          0  ISSUED:          0  USEFUL:          0  USELESS:          0
L2C TOTAL     ACCESS:   85938873  HIT:   65969169  MISS:   19969704
L2C LOAD      ACCESS:   53490495  HIT:   35685926  MISS:   17804569
L2C RFO       ACCESS:    1666681  HIT:     284121  MISS:    1382560
L2C PREFETCH  ACCESS:   28039447  HIT:   27257079  MISS:     782368
L2C WRITEBACK ACCESS:    2742250  HIT:    2742043  MISS:        207
L2C PREFETCH  REQUESTED:   88461398  ISSUED:   88461398  USEFUL:     345404  USELESS:     626848
LLC TOTAL     ACCESS:   59547173  HIT:   57573538  MISS:    1973635
LLC LOAD      ACCESS:   17525654  HIT:   17290260  MISS:     235394
LLC RFO       ACCESS:    1382384  HIT:     285046  MISS:    1097338
LLC PREFETCH  ACCESS:   38751328  HIT:   38116869  MISS:     634459
LLC WRITEBACK ACCESS:    1887807  HIT:    1881363  MISS:       6444
LLC PREFETCH  REQUESTED:          0  ISSUED:          0  USEFUL:     164969  USELESS:     608625
Major fault: 0 Minor fault: 6230

DRAM Statistics
 CHANNEL 0
 RQ ROW_BUFFER_HIT:    1017045  ROW_BUFFER_MISS:     949647
 DBUS_CONGESTED:    1891868
 WQ ROW_BUFFER_HIT:     302935  ROW_BUFFER_MISS:    1015467  FULL:          0

 AVG_CONGESTED_CYCLE: 13
