Initialize SIGNATURE TABLE
ST_SET: 1
ST_WAY: 256
ST_TAG_BIT: 16
ST_TAG_MASK: ffff

Initialize PATTERN TABLE
PT_SET: 512
PT_WAY: 4
SIG_DELTA_BIT: 7
C_SIG_BIT: 4
C_DELTA_BIT: 4

Initialize PREFETCH FILTER
FILTER_SET: 1024

*** ChampSim Multicore Out-of-Order Simulator ***

Warmup Instructions: 200000000
Simulation Instructions: 1000000000
Number of CPUs: 1
LLC sets: 2048
LLC ways: 16
Off-chip DRAM Size: 4096 MB Channels: 1 Width: 64-bit Data Rate: 1600 MT/s

CPU 0 runs /scratch/user/djimenez/champsim-traces/speccpu2017/xz/628.pop2_s/628.pop2_s-17B.champsimtrace.xz
Heartbeat CPU 0 instructions: 10000002 cycles: 4121380 heartbeat IPC: 2.42637 cumulative IPC: 2.42637 (Simulation time: 0 hr 0 min 14 sec) 
Heartbeat CPU 0 instructions: 20000000 cycles: 8234523 heartbeat IPC: 2.43123 cumulative IPC: 2.4288 (Simulation time: 0 hr 0 min 28 sec) 
Heartbeat CPU 0 instructions: 30000002 cycles: 12346304 heartbeat IPC: 2.43204 cumulative IPC: 2.42988 (Simulation time: 0 hr 0 min 42 sec) 
Heartbeat CPU 0 instructions: 40000000 cycles: 16456844 heartbeat IPC: 2.43277 cumulative IPC: 2.4306 (Simulation time: 0 hr 0 min 56 sec) 
Heartbeat CPU 0 instructions: 50000003 cycles: 20556261 heartbeat IPC: 2.43937 cumulative IPC: 2.43235 (Simulation time: 0 hr 1 min 10 sec) 
Heartbeat CPU 0 instructions: 60000000 cycles: 24642238 heartbeat IPC: 2.44739 cumulative IPC: 2.43484 (Simulation time: 0 hr 1 min 24 sec) 
Heartbeat CPU 0 instructions: 70000001 cycles: 28709658 heartbeat IPC: 2.45856 cumulative IPC: 2.4382 (Simulation time: 0 hr 1 min 38 sec) 
Heartbeat CPU 0 instructions: 80000000 cycles: 32440015 heartbeat IPC: 2.68071 cumulative IPC: 2.46609 (Simulation time: 0 hr 1 min 51 sec) 
Heartbeat CPU 0 instructions: 90000002 cycles: 36441049 heartbeat IPC: 2.49935 cumulative IPC: 2.46974 (Simulation time: 0 hr 2 min 3 sec) 
Heartbeat CPU 0 instructions: 100000000 cycles: 40553099 heartbeat IPC: 2.43188 cumulative IPC: 2.4659 (Simulation time: 0 hr 2 min 17 sec) 
Heartbeat CPU 0 instructions: 110000003 cycles: 44440414 heartbeat IPC: 2.57247 cumulative IPC: 2.47522 (Simulation time: 0 hr 2 min 29 sec) 
Heartbeat CPU 0 instructions: 120000000 cycles: 48428478 heartbeat IPC: 2.50748 cumulative IPC: 2.47788 (Simulation time: 0 hr 2 min 39 sec) 
Heartbeat CPU 0 instructions: 130000003 cycles: 52718297 heartbeat IPC: 2.3311 cumulative IPC: 2.46594 (Simulation time: 0 hr 2 min 50 sec) 
Heartbeat CPU 0 instructions: 140000000 cycles: 56951046 heartbeat IPC: 2.36253 cumulative IPC: 2.45825 (Simulation time: 0 hr 2 min 57 sec) 
Heartbeat CPU 0 instructions: 150000001 cycles: 60792924 heartbeat IPC: 2.60289 cumulative IPC: 2.46739 (Simulation time: 0 hr 3 min 4 sec) 
Heartbeat CPU 0 instructions: 160000000 cycles: 65073704 heartbeat IPC: 2.33602 cumulative IPC: 2.45875 (Simulation time: 0 hr 3 min 11 sec) 
Heartbeat CPU 0 instructions: 170000002 cycles: 69171239 heartbeat IPC: 2.44049 cumulative IPC: 2.45767 (Simulation time: 0 hr 3 min 21 sec) 
Heartbeat CPU 0 instructions: 180000000 cycles: 73266139 heartbeat IPC: 2.44206 cumulative IPC: 2.4568 (Simulation time: 0 hr 3 min 33 sec) 
Heartbeat CPU 0 instructions: 190000002 cycles: 77376767 heartbeat IPC: 2.43272 cumulative IPC: 2.45552 (Simulation time: 0 hr 3 min 47 sec) 
Heartbeat CPU 0 instructions: 200000000 cycles: 81483787 heartbeat IPC: 2.43485 cumulative IPC: 2.45448 (Simulation time: 0 hr 4 min 2 sec) 

Warmup complete CPU 0 instructions: 200000001 cycles: 81483788 (Simulation time: 0 hr 4 min 2 sec) 

Heartbeat CPU 0 instructions: 210000001 cycles: 89947175 heartbeat IPC: 1.18156 cumulative IPC: 1.18156 (Simulation time: 0 hr 4 min 24 sec) 
Heartbeat CPU 0 instructions: 220000000 cycles: 98387863 heartbeat IPC: 1.18474 cumulative IPC: 1.18315 (Simulation time: 0 hr 4 min 45 sec) 
Heartbeat CPU 0 instructions: 230000003 cycles: 106834306 heartbeat IPC: 1.18393 cumulative IPC: 1.18341 (Simulation time: 0 hr 5 min 7 sec) 
Heartbeat CPU 0 instructions: 240000000 cycles: 115248758 heartbeat IPC: 1.18843 cumulative IPC: 1.18466 (Simulation time: 0 hr 5 min 29 sec) 
Heartbeat CPU 0 instructions: 250000003 cycles: 123533102 heartbeat IPC: 1.2071 cumulative IPC: 1.18908 (Simulation time: 0 hr 5 min 51 sec) 
Heartbeat CPU 0 instructions: 260000000 cycles: 130941132 heartbeat IPC: 1.34989 cumulative IPC: 1.21317 (Simulation time: 0 hr 6 min 11 sec) 
Heartbeat CPU 0 instructions: 270000001 cycles: 140552990 heartbeat IPC: 1.04038 cumulative IPC: 1.18505 (Simulation time: 0 hr 6 min 31 sec) 
Heartbeat CPU 0 instructions: 280000000 cycles: 149168381 heartbeat IPC: 1.16071 cumulative IPC: 1.18195 (Simulation time: 0 hr 6 min 53 sec) 
Heartbeat CPU 0 instructions: 290000000 cycles: 157369565 heartbeat IPC: 1.21934 cumulative IPC: 1.18599 (Simulation time: 0 hr 7 min 13 sec) 
Heartbeat CPU 0 instructions: 300000000 cycles: 166379144 heartbeat IPC: 1.10993 cumulative IPC: 1.17792 (Simulation time: 0 hr 7 min 33 sec) 
Heartbeat CPU 0 instructions: 310000000 cycles: 175820742 heartbeat IPC: 1.05914 cumulative IPC: 1.16603 (Simulation time: 0 hr 7 min 52 sec) 
Heartbeat CPU 0 instructions: 320000000 cycles: 184496754 heartbeat IPC: 1.1526 cumulative IPC: 1.1649 (Simulation time: 0 hr 8 min 10 sec) 
Heartbeat CPU 0 instructions: 330000002 cycles: 191889789 heartbeat IPC: 1.35262 cumulative IPC: 1.17747 (Simulation time: 0 hr 8 min 26 sec) 
Heartbeat CPU 0 instructions: 340000000 cycles: 200839114 heartbeat IPC: 1.1174 cumulative IPC: 1.17297 (Simulation time: 0 hr 8 min 44 sec) 
Heartbeat CPU 0 instructions: 350000000 cycles: 210263585 heartbeat IPC: 1.06107 cumulative IPC: 1.16478 (Simulation time: 0 hr 9 min 4 sec) 
Heartbeat CPU 0 instructions: 360000000 cycles: 219987604 heartbeat IPC: 1.02838 cumulative IPC: 1.1552 (Simulation time: 0 hr 9 min 26 sec) 
Heartbeat CPU 0 instructions: 370000001 cycles: 228592629 heartbeat IPC: 1.16211 cumulative IPC: 1.15561 (Simulation time: 0 hr 9 min 48 sec) 
Heartbeat CPU 0 instructions: 380000000 cycles: 237164304 heartbeat IPC: 1.16663 cumulative IPC: 1.15621 (Simulation time: 0 hr 10 min 10 sec) 
Heartbeat CPU 0 instructions: 390000003 cycles: 245711829 heartbeat IPC: 1.16993 cumulative IPC: 1.15693 (Simulation time: 0 hr 10 min 32 sec) 
Heartbeat CPU 0 instructions: 400000000 cycles: 254262669 heartbeat IPC: 1.16948 cumulative IPC: 1.15755 (Simulation time: 0 hr 10 min 54 sec) 
Heartbeat CPU 0 instructions: 410000001 cycles: 262832157 heartbeat IPC: 1.16693 cumulative IPC: 1.15799 (Simulation time: 0 hr 11 min 15 sec) 
Heartbeat CPU 0 instructions: 420000000 cycles: 271354106 heartbeat IPC: 1.17344 cumulative IPC: 1.15869 (Simulation time: 0 hr 11 min 37 sec) 
Heartbeat CPU 0 instructions: 430000001 cycles: 279712746 heartbeat IPC: 1.19637 cumulative IPC: 1.16027 (Simulation time: 0 hr 11 min 59 sec) 
Heartbeat CPU 0 instructions: 440000000 cycles: 286844202 heartbeat IPC: 1.40224 cumulative IPC: 1.16868 (Simulation time: 0 hr 12 min 19 sec) 
Heartbeat CPU 0 instructions: 450000000 cycles: 296818542 heartbeat IPC: 1.00257 cumulative IPC: 1.16098 (Simulation time: 0 hr 12 min 41 sec) 
Heartbeat CPU 0 instructions: 460000000 cycles: 305411646 heartbeat IPC: 1.16372 cumulative IPC: 1.16109 (Simulation time: 0 hr 13 min 2 sec) 
Heartbeat CPU 0 instructions: 470000003 cycles: 313578609 heartbeat IPC: 1.22445 cumulative IPC: 1.16332 (Simulation time: 0 hr 13 min 23 sec) 
Heartbeat CPU 0 instructions: 480000000 cycles: 322299565 heartbeat IPC: 1.14666 cumulative IPC: 1.16271 (Simulation time: 0 hr 13 min 43 sec) 
Heartbeat CPU 0 instructions: 490000000 cycles: 331534185 heartbeat IPC: 1.08288 cumulative IPC: 1.15977 (Simulation time: 0 hr 14 min 2 sec) 
Heartbeat CPU 0 instructions: 500000000 cycles: 340899167 heartbeat IPC: 1.06781 cumulative IPC: 1.15645 (Simulation time: 0 hr 14 min 21 sec) 
Heartbeat CPU 0 instructions: 510000001 cycles: 348069709 heartbeat IPC: 1.39459 cumulative IPC: 1.16285 (Simulation time: 0 hr 14 min 37 sec) 
Heartbeat CPU 0 instructions: 520000000 cycles: 356783896 heartbeat IPC: 1.14755 cumulative IPC: 1.16237 (Simulation time: 0 hr 14 min 55 sec) 
Heartbeat CPU 0 instructions: 530000001 cycles: 365778393 heartbeat IPC: 1.11179 cumulative IPC: 1.16077 (Simulation time: 0 hr 15 min 14 sec) 
Heartbeat CPU 0 instructions: 540000000 cycles: 375765008 heartbeat IPC: 1.00134 cumulative IPC: 1.15536 (Simulation time: 0 hr 15 min 36 sec) 
Heartbeat CPU 0 instructions: 550000003 cycles: 384255669 heartbeat IPC: 1.17777 cumulative IPC: 1.15599 (Simulation time: 0 hr 15 min 58 sec) 
Heartbeat CPU 0 instructions: 560000000 cycles: 392700535 heartbeat IPC: 1.18415 cumulative IPC: 1.15675 (Simulation time: 0 hr 16 min 21 sec) 
Heartbeat CPU 0 instructions: 570000000 cycles: 401137801 heartbeat IPC: 1.18522 cumulative IPC: 1.1575 (Simulation time: 0 hr 16 min 43 sec) 
Heartbeat CPU 0 instructions: 580000000 cycles: 409580891 heartbeat IPC: 1.1844 cumulative IPC: 1.15819 (Simulation time: 0 hr 17 min 5 sec) 
Heartbeat CPU 0 instructions: 590000002 cycles: 418026144 heartbeat IPC: 1.1841 cumulative IPC: 1.15884 (Simulation time: 0 hr 17 min 27 sec) 
Heartbeat CPU 0 instructions: 600000000 cycles: 426472550 heartbeat IPC: 1.18394 cumulative IPC: 1.15946 (Simulation time: 0 hr 17 min 49 sec) 
Heartbeat CPU 0 instructions: 610000002 cycles: 434987027 heartbeat IPC: 1.17447 cumulative IPC: 1.15982 (Simulation time: 0 hr 18 min 11 sec) 
Heartbeat CPU 0 instructions: 620000000 cycles: 442046499 heartbeat IPC: 1.41654 cumulative IPC: 1.16485 (Simulation time: 0 hr 18 min 31 sec) 
Heartbeat CPU 0 instructions: 630000001 cycles: 451854224 heartbeat IPC: 1.0196 cumulative IPC: 1.161 (Simulation time: 0 hr 18 min 53 sec) 
Heartbeat CPU 0 instructions: 640000000 cycles: 461069503 heartbeat IPC: 1.08515 cumulative IPC: 1.15916 (Simulation time: 0 hr 19 min 13 sec) 
Heartbeat CPU 0 instructions: 650000000 cycles: 469301514 heartbeat IPC: 1.21477 cumulative IPC: 1.16034 (Simulation time: 0 hr 19 min 35 sec) 
Heartbeat CPU 0 instructions: 660000000 cycles: 477628636 heartbeat IPC: 1.2009 cumulative IPC: 1.16119 (Simulation time: 0 hr 19 min 56 sec) 
Heartbeat CPU 0 instructions: 670000001 cycles: 486885297 heartbeat IPC: 1.0803 cumulative IPC: 1.15934 (Simulation time: 0 hr 20 min 15 sec) 
Heartbeat CPU 0 instructions: 680000000 cycles: 497400110 heartbeat IPC: 0.951039 cumulative IPC: 1.15408 (Simulation time: 0 hr 20 min 35 sec) 
Heartbeat CPU 0 instructions: 690000000 cycles: 504335103 heartbeat IPC: 1.44196 cumulative IPC: 1.1588 (Simulation time: 0 hr 20 min 50 sec) 
Heartbeat CPU 0 instructions: 700000000 cycles: 511958394 heartbeat IPC: 1.31177 cumulative IPC: 1.16151 (Simulation time: 0 hr 21 min 7 sec) 
Heartbeat CPU 0 instructions: 710000001 cycles: 521476389 heartbeat IPC: 1.05064 cumulative IPC: 1.15911 (Simulation time: 0 hr 21 min 26 sec) 
Heartbeat CPU 0 instructions: 720000000 cycles: 531308962 heartbeat IPC: 1.01703 cumulative IPC: 1.156 (Simulation time: 0 hr 21 min 47 sec) 
Heartbeat CPU 0 instructions: 730000000 cycles: 540364392 heartbeat IPC: 1.10431 cumulative IPC: 1.15498 (Simulation time: 0 hr 22 min 10 sec) 
Heartbeat CPU 0 instructions: 740000000 cycles: 548793989 heartbeat IPC: 1.1863 cumulative IPC: 1.15555 (Simulation time: 0 hr 22 min 32 sec) 
Heartbeat CPU 0 instructions: 750000001 cycles: 557262645 heartbeat IPC: 1.18082 cumulative IPC: 1.156 (Simulation time: 0 hr 22 min 54 sec) 
Heartbeat CPU 0 instructions: 760000000 cycles: 565732108 heartbeat IPC: 1.18071 cumulative IPC: 1.15643 (Simulation time: 0 hr 23 min 16 sec) 
Heartbeat CPU 0 instructions: 770000003 cycles: 574201836 heartbeat IPC: 1.18068 cumulative IPC: 1.15685 (Simulation time: 0 hr 23 min 38 sec) 
Heartbeat CPU 0 instructions: 780000000 cycles: 582699163 heartbeat IPC: 1.17684 cumulative IPC: 1.15719 (Simulation time: 0 hr 24 min 1 sec) 
Heartbeat CPU 0 instructions: 790000001 cycles: 591273601 heartbeat IPC: 1.16626 cumulative IPC: 1.15734 (Simulation time: 0 hr 24 min 22 sec) 
Heartbeat CPU 0 instructions: 800000000 cycles: 599043628 heartbeat IPC: 1.287 cumulative IPC: 1.15929 (Simulation time: 0 hr 24 min 43 sec) 
Heartbeat CPU 0 instructions: 810000000 cycles: 607152549 heartbeat IPC: 1.23321 cumulative IPC: 1.16043 (Simulation time: 0 hr 25 min 4 sec) 
Heartbeat CPU 0 instructions: 820000000 cycles: 616985655 heartbeat IPC: 1.01697 cumulative IPC: 1.15779 (Simulation time: 0 hr 25 min 25 sec) 
Heartbeat CPU 0 instructions: 830000001 cycles: 625562865 heartbeat IPC: 1.16588 cumulative IPC: 1.15792 (Simulation time: 0 hr 25 min 47 sec) 
Heartbeat CPU 0 instructions: 840000000 cycles: 633524715 heartbeat IPC: 1.25599 cumulative IPC: 1.15933 (Simulation time: 0 hr 26 min 8 sec) 
Heartbeat CPU 0 instructions: 850000001 cycles: 642772844 heartbeat IPC: 1.0813 cumulative IPC: 1.15805 (Simulation time: 0 hr 26 min 27 sec) 
Heartbeat CPU 0 instructions: 860000000 cycles: 652514745 heartbeat IPC: 1.02649 cumulative IPC: 1.1558 (Simulation time: 0 hr 26 min 48 sec) 
Heartbeat CPU 0 instructions: 870000001 cycles: 661001306 heartbeat IPC: 1.17833 cumulative IPC: 1.15613 (Simulation time: 0 hr 27 min 4 sec) 
Heartbeat CPU 0 instructions: 880000000 cycles: 668201307 heartbeat IPC: 1.38889 cumulative IPC: 1.15899 (Simulation time: 0 hr 27 min 21 sec) 
Heartbeat CPU 0 instructions: 890000000 cycles: 677293992 heartbeat IPC: 1.09979 cumulative IPC: 1.15809 (Simulation time: 0 hr 27 min 40 sec) 
Heartbeat CPU 0 instructions: 900000000 cycles: 686634141 heartbeat IPC: 1.07065 cumulative IPC: 1.15674 (Simulation time: 0 hr 28 min 0 sec) 
Heartbeat CPU 0 instructions: 910000002 cycles: 696255424 heartbeat IPC: 1.03936 cumulative IPC: 1.1549 (Simulation time: 0 hr 28 min 22 sec) 
Heartbeat CPU 0 instructions: 920000000 cycles: 704625519 heartbeat IPC: 1.19473 cumulative IPC: 1.15544 (Simulation time: 0 hr 28 min 44 sec) 
Heartbeat CPU 0 instructions: 930000002 cycles: 712980436 heartbeat IPC: 1.1969 cumulative IPC: 1.15598 (Simulation time: 0 hr 29 min 7 sec) 
Heartbeat CPU 0 instructions: 940000000 cycles: 721314566 heartbeat IPC: 1.19989 cumulative IPC: 1.15656 (Simulation time: 0 hr 29 min 29 sec) 
Heartbeat CPU 0 instructions: 950000003 cycles: 729681908 heartbeat IPC: 1.19512 cumulative IPC: 1.15705 (Simulation time: 0 hr 29 min 51 sec) 
Heartbeat CPU 0 instructions: 960000000 cycles: 738022859 heartbeat IPC: 1.1989 cumulative IPC: 1.15759 (Simulation time: 0 hr 30 min 14 sec) 
Heartbeat CPU 0 instructions: 970000000 cycles: 746527909 heartbeat IPC: 1.17577 cumulative IPC: 1.15782 (Simulation time: 0 hr 30 min 36 sec) 
Heartbeat CPU 0 instructions: 980000000 cycles: 755136838 heartbeat IPC: 1.16158 cumulative IPC: 1.15787 (Simulation time: 0 hr 30 min 58 sec) 
Heartbeat CPU 0 instructions: 990000001 cycles: 762185514 heartbeat IPC: 1.41871 cumulative IPC: 1.16057 (Simulation time: 0 hr 31 min 17 sec) 
Heartbeat CPU 0 instructions: 1000000000 cycles: 772041672 heartbeat IPC: 1.01459 cumulative IPC: 1.15848 (Simulation time: 0 hr 31 min 38 sec) 
Heartbeat CPU 0 instructions: 1010000002 cycles: 780823680 heartbeat IPC: 1.13869 cumulative IPC: 1.15824 (Simulation time: 0 hr 32 min 0 sec) 
Heartbeat CPU 0 instructions: 1020000000 cycles: 788961672 heartbeat IPC: 1.2288 cumulative IPC: 1.15905 (Simulation time: 0 hr 32 min 21 sec) 
Heartbeat CPU 0 instructions: 1030000000 cycles: 797683542 heartbeat IPC: 1.14654 cumulative IPC: 1.15889 (Simulation time: 0 hr 32 min 41 sec) 
Heartbeat CPU 0 instructions: 1040000000 cycles: 807183992 heartbeat IPC: 1.05258 cumulative IPC: 1.1575 (Simulation time: 0 hr 33 min 0 sec) 
Heartbeat CPU 0 instructions: 1050000001 cycles: 816924574 heartbeat IPC: 1.02663 cumulative IPC: 1.15577 (Simulation time: 0 hr 33 min 19 sec) 
Heartbeat CPU 0 instructions: 1060000000 cycles: 824000961 heartbeat IPC: 1.41315 cumulative IPC: 1.15822 (Simulation time: 0 hr 33 min 35 sec) 
Heartbeat CPU 0 instructions: 1070000001 cycles: 832719220 heartbeat IPC: 1.14702 cumulative IPC: 1.15809 (Simulation time: 0 hr 33 min 53 sec) 
Heartbeat CPU 0 instructions: 1080000000 cycles: 841740542 heartbeat IPC: 1.10848 cumulative IPC: 1.1575 (Simulation time: 0 hr 34 min 12 sec) 
Heartbeat CPU 0 instructions: 1090000000 cycles: 851705781 heartbeat IPC: 1.00349 cumulative IPC: 1.15551 (Simulation time: 0 hr 34 min 34 sec) 
Heartbeat CPU 0 instructions: 1100000000 cycles: 860218909 heartbeat IPC: 1.17466 cumulative IPC: 1.15572 (Simulation time: 0 hr 34 min 56 sec) 
Heartbeat CPU 0 instructions: 1110000001 cycles: 868640262 heartbeat IPC: 1.18746 cumulative IPC: 1.15606 (Simulation time: 0 hr 35 min 18 sec) 
Heartbeat CPU 0 instructions: 1120000000 cycles: 877024150 heartbeat IPC: 1.19276 cumulative IPC: 1.15645 (Simulation time: 0 hr 35 min 41 sec) 
Heartbeat CPU 0 instructions: 1130000000 cycles: 885410988 heartbeat IPC: 1.19234 cumulative IPC: 1.15682 (Simulation time: 0 hr 36 min 3 sec) 
Heartbeat CPU 0 instructions: 1140000000 cycles: 893797780 heartbeat IPC: 1.19235 cumulative IPC: 1.15719 (Simulation time: 0 hr 36 min 25 sec) 
Heartbeat CPU 0 instructions: 1150000001 cycles: 902254145 heartbeat IPC: 1.18254 cumulative IPC: 1.15745 (Simulation time: 0 hr 36 min 47 sec) 
Heartbeat CPU 0 instructions: 1160000000 cycles: 910884447 heartbeat IPC: 1.15871 cumulative IPC: 1.15746 (Simulation time: 0 hr 37 min 9 sec) 
Heartbeat CPU 0 instructions: 1170000003 cycles: 918214489 heartbeat IPC: 1.36425 cumulative IPC: 1.15927 (Simulation time: 0 hr 37 min 29 sec) 
Heartbeat CPU 0 instructions: 1180000000 cycles: 927190952 heartbeat IPC: 1.11402 cumulative IPC: 1.15879 (Simulation time: 0 hr 37 min 50 sec) 
Heartbeat CPU 0 instructions: 1190000000 cycles: 936584939 heartbeat IPC: 1.06451 cumulative IPC: 1.15776 (Simulation time: 0 hr 38 min 11 sec) 
Heartbeat CPU 0 instructions: 1200000000 cycles: 945159458 heartbeat IPC: 1.16625 cumulative IPC: 1.15784 (Simulation time: 0 hr 38 min 33 sec) 
Finished CPU 0 instructions: 1000000000 cycles: 863675678 cumulative IPC: 1.15784 (Simulation time: 0 hr 38 min 33 sec) 

CPU 0 Branch Prediction Accuracy: 97.6106% MPKI: 3.47798

ChampSim completed all CPUs

Region of Interest Statistics

CPU 0 cumulative IPC: 1.15784 instructions: 1000000000 cycles: 863675678
L1D TOTAL     ACCESS:  187479398  HIT:  170058000  MISS:   17421398
L1D LOAD      ACCESS:  134212348  HIT:  122599314  MISS:   11613034
L1D RFO       ACCESS:   53267050  HIT:   47458686  MISS:    5808364
L1D PREFETCH  ACCESS:          0  HIT:          0  MISS:          0
L1D WRITEBACK ACCESS:          0  HIT:          0  MISS:          0
L1D PREFETCH  REQUESTED:          0  ISSUED:          0  USEFUL:          0  USELESS:          0
L1I TOTAL     ACCESS:  240557277  HIT:  240045653  MISS:     511624
L1I LOAD      ACCESS:  240557277  HIT:  240045653  MISS:     511624
L1I RFO       ACCESS:          0  HIT:          0  MISS:          0
L1I PREFETCH  ACCESS:          0  HIT:          0  MISS:          0
L1I WRITEBACK ACCESS:          0  HIT:          0  MISS:          0
L1I PREFETCH  REQUESTED:          0  ISSUED:          0  USEFUL:          0  USELESS:          0
L2C TOTAL     ACCESS:   50181767  HIT:   41963594  MISS:    8218173
L2C LOAD      ACCESS:   12123933  HIT:    8484533  MISS:    3639400
L2C RFO       ACCESS:    5808068  HIT:    3056905  MISS:    2751163
L2C PREFETCH  ACCESS:   24823939  HIT:   23000805  MISS:    1823134
L2C WRITEBACK ACCESS:    7425827  HIT:    7421351  MISS:       4476
L2C PREFETCH  REQUESTED:   77304703  ISSUED:   75193826  USEFUL:    2260742  USELESS:      71930
LLC TOTAL     ACCESS:   34402668  HIT:   30752459  MISS:    3650209
LLC LOAD      ACCESS:    3320949  HIT:    3154962  MISS:     165987
LLC RFO       ACCESS:    2751107  HIT:    1479594  MISS:    1271513
LLC PREFETCH  ACCESS:   24482610  HIT:   22280528  MISS:    2202082
LLC WRITEBACK ACCESS:    3848002  HIT:    3837375  MISS:      10627
LLC PREFETCH  REQUESTED:          0  ISSUED:          0  USEFUL:    1490216  USELESS:    1158425
Major fault: 0 Minor fault: 33761

DRAM Statistics
 CHANNEL 0
 RQ ROW_BUFFER_HIT:    2870533  ROW_BUFFER_MISS:     768428
 DBUS_CONGESTED:    3315219
 WQ ROW_BUFFER_HIT:     926538  ROW_BUFFER_MISS:     833252  FULL:          0

 AVG_CONGESTED_CYCLE: 13
