Initialize SIGNATURE TABLE
ST_SET: 1
ST_WAY: 256
ST_TAG_BIT: 16
ST_TAG_MASK: ffff

Initialize PATTERN TABLE
PT_SET: 512
PT_WAY: 4
SIG_DELTA_BIT: 7
C_SIG_BIT: 4
C_DELTA_BIT: 4

Initialize PREFETCH FILTER
FILTER_SET: 1024

*** ChampSim Multicore Out-of-Order Simulator ***

Warmup Instructions: 200000000
Simulation Instructions: 1000000000
Number of CPUs: 1
LLC sets: 2048
LLC ways: 16
Off-chip DRAM Size: 4096 MB Channels: 1 Width: 64-bit Data Rate: 1600 MT/s

CPU 0 runs /scratch/user/djimenez/champsim-traces/speccpu2017/xz/641.leela_s/641.leela_s-1052B.champsimtrace.xz
Heartbeat CPU 0 instructions: 10000002 cycles: 6327924 heartbeat IPC: 1.5803 cumulative IPC: 1.5803 (Simulation time: 0 hr 0 min 14 sec) 
Heartbeat CPU 0 instructions: 20000000 cycles: 12640999 heartbeat IPC: 1.58401 cumulative IPC: 1.58215 (Simulation time: 0 hr 0 min 27 sec) 
Heartbeat CPU 0 instructions: 30000002 cycles: 18949577 heartbeat IPC: 1.58514 cumulative IPC: 1.58315 (Simulation time: 0 hr 0 min 41 sec) 
Heartbeat CPU 0 instructions: 40000000 cycles: 25263702 heartbeat IPC: 1.58375 cumulative IPC: 1.5833 (Simulation time: 0 hr 0 min 55 sec) 
Heartbeat CPU 0 instructions: 50000000 cycles: 31579490 heartbeat IPC: 1.58333 cumulative IPC: 1.58331 (Simulation time: 0 hr 1 min 9 sec) 
Heartbeat CPU 0 instructions: 60000000 cycles: 37886591 heartbeat IPC: 1.58551 cumulative IPC: 1.58367 (Simulation time: 0 hr 1 min 23 sec) 
Heartbeat CPU 0 instructions: 70000001 cycles: 44188078 heartbeat IPC: 1.58693 cumulative IPC: 1.58414 (Simulation time: 0 hr 1 min 37 sec) 
Heartbeat CPU 0 instructions: 80000000 cycles: 50500347 heartbeat IPC: 1.58422 cumulative IPC: 1.58415 (Simulation time: 0 hr 1 min 51 sec) 
Heartbeat CPU 0 instructions: 90000002 cycles: 56827738 heartbeat IPC: 1.58043 cumulative IPC: 1.58373 (Simulation time: 0 hr 2 min 4 sec) 
Heartbeat CPU 0 instructions: 100000000 cycles: 63161714 heartbeat IPC: 1.57879 cumulative IPC: 1.58324 (Simulation time: 0 hr 2 min 18 sec) 
Heartbeat CPU 0 instructions: 110000000 cycles: 69453156 heartbeat IPC: 1.58946 cumulative IPC: 1.5838 (Simulation time: 0 hr 2 min 32 sec) 
Heartbeat CPU 0 instructions: 120000000 cycles: 75746247 heartbeat IPC: 1.58904 cumulative IPC: 1.58424 (Simulation time: 0 hr 2 min 46 sec) 
Heartbeat CPU 0 instructions: 130000001 cycles: 82070095 heartbeat IPC: 1.58132 cumulative IPC: 1.58401 (Simulation time: 0 hr 3 min 0 sec) 
Heartbeat CPU 0 instructions: 140000000 cycles: 88400617 heartbeat IPC: 1.57965 cumulative IPC: 1.5837 (Simulation time: 0 hr 3 min 14 sec) 
Heartbeat CPU 0 instructions: 150000001 cycles: 94734537 heartbeat IPC: 1.5788 cumulative IPC: 1.58337 (Simulation time: 0 hr 3 min 28 sec) 
Heartbeat CPU 0 instructions: 160000000 cycles: 101019857 heartbeat IPC: 1.59101 cumulative IPC: 1.58385 (Simulation time: 0 hr 3 min 42 sec) 
Heartbeat CPU 0 instructions: 170000001 cycles: 107323393 heartbeat IPC: 1.58641 cumulative IPC: 1.584 (Simulation time: 0 hr 3 min 56 sec) 
Heartbeat CPU 0 instructions: 180000000 cycles: 113614010 heartbeat IPC: 1.58967 cumulative IPC: 1.58431 (Simulation time: 0 hr 4 min 9 sec) 
Heartbeat CPU 0 instructions: 190000001 cycles: 119932351 heartbeat IPC: 1.58269 cumulative IPC: 1.58423 (Simulation time: 0 hr 4 min 23 sec) 
Heartbeat CPU 0 instructions: 200000000 cycles: 126241640 heartbeat IPC: 1.58496 cumulative IPC: 1.58426 (Simulation time: 0 hr 4 min 37 sec) 

Warmup complete CPU 0 instructions: 200000001 cycles: 126241641 (Simulation time: 0 hr 4 min 37 sec) 

Heartbeat CPU 0 instructions: 210000000 cycles: 148958802 heartbeat IPC: 0.440196 cumulative IPC: 0.440196 (Simulation time: 0 hr 5 min 2 sec) 
Heartbeat CPU 0 instructions: 220000000 cycles: 171733738 heartbeat IPC: 0.439079 cumulative IPC: 0.439637 (Simulation time: 0 hr 5 min 27 sec) 
Heartbeat CPU 0 instructions: 230000001 cycles: 194730686 heartbeat IPC: 0.43484 cumulative IPC: 0.438026 (Simulation time: 0 hr 5 min 52 sec) 
Heartbeat CPU 0 instructions: 240000000 cycles: 217740555 heartbeat IPC: 0.434596 cumulative IPC: 0.437164 (Simulation time: 0 hr 6 min 17 sec) 
Heartbeat CPU 0 instructions: 250000000 cycles: 240668249 heartbeat IPC: 0.436154 cumulative IPC: 0.436961 (Simulation time: 0 hr 6 min 41 sec) 
Heartbeat CPU 0 instructions: 260000000 cycles: 263849021 heartbeat IPC: 0.431392 cumulative IPC: 0.436023 (Simulation time: 0 hr 7 min 6 sec) 
Heartbeat CPU 0 instructions: 270000001 cycles: 287058545 heartbeat IPC: 0.430858 cumulative IPC: 0.435278 (Simulation time: 0 hr 7 min 31 sec) 
Heartbeat CPU 0 instructions: 280000000 cycles: 310186163 heartbeat IPC: 0.432383 cumulative IPC: 0.434914 (Simulation time: 0 hr 7 min 56 sec) 
Heartbeat CPU 0 instructions: 290000002 cycles: 333358634 heartbeat IPC: 0.431547 cumulative IPC: 0.434537 (Simulation time: 0 hr 8 min 21 sec) 
Heartbeat CPU 0 instructions: 300000000 cycles: 356541376 heartbeat IPC: 0.431355 cumulative IPC: 0.434217 (Simulation time: 0 hr 8 min 46 sec) 
Heartbeat CPU 0 instructions: 310000001 cycles: 379685590 heartbeat IPC: 0.432073 cumulative IPC: 0.434021 (Simulation time: 0 hr 9 min 11 sec) 
Heartbeat CPU 0 instructions: 320000000 cycles: 402693540 heartbeat IPC: 0.434632 cumulative IPC: 0.434072 (Simulation time: 0 hr 9 min 36 sec) 
Heartbeat CPU 0 instructions: 330000000 cycles: 425894580 heartbeat IPC: 0.431015 cumulative IPC: 0.433835 (Simulation time: 0 hr 10 min 1 sec) 
Heartbeat CPU 0 instructions: 340000000 cycles: 448961736 heartbeat IPC: 0.433517 cumulative IPC: 0.433812 (Simulation time: 0 hr 10 min 26 sec) 
Heartbeat CPU 0 instructions: 350000003 cycles: 472018048 heartbeat IPC: 0.433721 cumulative IPC: 0.433806 (Simulation time: 0 hr 10 min 51 sec) 
Heartbeat CPU 0 instructions: 360000000 cycles: 495090222 heartbeat IPC: 0.433422 cumulative IPC: 0.433782 (Simulation time: 0 hr 11 min 16 sec) 
Heartbeat CPU 0 instructions: 370000000 cycles: 517800003 heartbeat IPC: 0.440339 cumulative IPC: 0.434163 (Simulation time: 0 hr 11 min 40 sec) 
Heartbeat CPU 0 instructions: 380000000 cycles: 540371086 heartbeat IPC: 0.443045 cumulative IPC: 0.434647 (Simulation time: 0 hr 12 min 5 sec) 
Heartbeat CPU 0 instructions: 390000001 cycles: 563118945 heartbeat IPC: 0.439602 cumulative IPC: 0.434905 (Simulation time: 0 hr 12 min 30 sec) 
Heartbeat CPU 0 instructions: 400000000 cycles: 585661379 heartbeat IPC: 0.443608 cumulative IPC: 0.435332 (Simulation time: 0 hr 12 min 55 sec) 
Heartbeat CPU 0 instructions: 410000000 cycles: 608379455 heartbeat IPC: 0.440178 cumulative IPC: 0.43556 (Simulation time: 0 hr 13 min 20 sec) 
Heartbeat CPU 0 instructions: 420000000 cycles: 631125146 heartbeat IPC: 0.439644 cumulative IPC: 0.435744 (Simulation time: 0 hr 13 min 45 sec) 
Heartbeat CPU 0 instructions: 430000000 cycles: 653997821 heartbeat IPC: 0.437203 cumulative IPC: 0.435807 (Simulation time: 0 hr 14 min 10 sec) 
Heartbeat CPU 0 instructions: 440000000 cycles: 677012820 heartbeat IPC: 0.434499 cumulative IPC: 0.435753 (Simulation time: 0 hr 14 min 35 sec) 
Heartbeat CPU 0 instructions: 450000001 cycles: 699885577 heartbeat IPC: 0.437201 cumulative IPC: 0.43581 (Simulation time: 0 hr 14 min 59 sec) 
Heartbeat CPU 0 instructions: 460000000 cycles: 722958620 heartbeat IPC: 0.433406 cumulative IPC: 0.435717 (Simulation time: 0 hr 15 min 24 sec) 
Heartbeat CPU 0 instructions: 470000000 cycles: 745996130 heartbeat IPC: 0.434075 cumulative IPC: 0.435656 (Simulation time: 0 hr 15 min 49 sec) 
Heartbeat CPU 0 instructions: 480000000 cycles: 769133815 heartbeat IPC: 0.432195 cumulative IPC: 0.435532 (Simulation time: 0 hr 16 min 14 sec) 
Heartbeat CPU 0 instructions: 490000003 cycles: 792210855 heartbeat IPC: 0.433331 cumulative IPC: 0.435456 (Simulation time: 0 hr 16 min 39 sec) 
Heartbeat CPU 0 instructions: 500000000 cycles: 821376653 heartbeat IPC: 0.342867 cumulative IPC: 0.431571 (Simulation time: 0 hr 17 min 11 sec) 
Heartbeat CPU 0 instructions: 510000000 cycles: 844620051 heartbeat IPC: 0.43023 cumulative IPC: 0.431527 (Simulation time: 0 hr 17 min 36 sec) 
Heartbeat CPU 0 instructions: 520000000 cycles: 867559935 heartbeat IPC: 0.435922 cumulative IPC: 0.431663 (Simulation time: 0 hr 18 min 1 sec) 
Heartbeat CPU 0 instructions: 530000002 cycles: 890508484 heartbeat IPC: 0.435757 cumulative IPC: 0.431786 (Simulation time: 0 hr 18 min 25 sec) 
Heartbeat CPU 0 instructions: 540000000 cycles: 913519911 heartbeat IPC: 0.434567 cumulative IPC: 0.431868 (Simulation time: 0 hr 18 min 50 sec) 
Heartbeat CPU 0 instructions: 550000000 cycles: 936693030 heartbeat IPC: 0.431534 cumulative IPC: 0.431858 (Simulation time: 0 hr 19 min 15 sec) 
Heartbeat CPU 0 instructions: 560000000 cycles: 959794471 heartbeat IPC: 0.432873 cumulative IPC: 0.431886 (Simulation time: 0 hr 19 min 40 sec) 
Heartbeat CPU 0 instructions: 570000001 cycles: 983007275 heartbeat IPC: 0.430797 cumulative IPC: 0.431857 (Simulation time: 0 hr 20 min 5 sec) 
Heartbeat CPU 0 instructions: 580000000 cycles: 1006155297 heartbeat IPC: 0.432002 cumulative IPC: 0.431861 (Simulation time: 0 hr 20 min 30 sec) 
Heartbeat CPU 0 instructions: 590000001 cycles: 1029138706 heartbeat IPC: 0.435097 cumulative IPC: 0.431943 (Simulation time: 0 hr 20 min 55 sec) 
Heartbeat CPU 0 instructions: 600000000 cycles: 1052015123 heartbeat IPC: 0.437131 cumulative IPC: 0.432071 (Simulation time: 0 hr 21 min 20 sec) 
Heartbeat CPU 0 instructions: 610000002 cycles: 1075003698 heartbeat IPC: 0.434999 cumulative IPC: 0.432142 (Simulation time: 0 hr 21 min 45 sec) 
Heartbeat CPU 0 instructions: 620000000 cycles: 1097968685 heartbeat IPC: 0.435445 cumulative IPC: 0.43222 (Simulation time: 0 hr 22 min 10 sec) 
Heartbeat CPU 0 instructions: 630000001 cycles: 1120857101 heartbeat IPC: 0.436902 cumulative IPC: 0.432328 (Simulation time: 0 hr 22 min 35 sec) 
Heartbeat CPU 0 instructions: 640000000 cycles: 1143850570 heartbeat IPC: 0.434906 cumulative IPC: 0.432386 (Simulation time: 0 hr 23 min 0 sec) 
Heartbeat CPU 0 instructions: 650000001 cycles: 1166746081 heartbeat IPC: 0.436767 cumulative IPC: 0.432483 (Simulation time: 0 hr 23 min 25 sec) 
Heartbeat CPU 0 instructions: 660000000 cycles: 1189904203 heartbeat IPC: 0.431814 cumulative IPC: 0.432468 (Simulation time: 0 hr 23 min 50 sec) 
Heartbeat CPU 0 instructions: 670000000 cycles: 1212981439 heartbeat IPC: 0.433327 cumulative IPC: 0.432486 (Simulation time: 0 hr 24 min 16 sec) 
Heartbeat CPU 0 instructions: 680000000 cycles: 1236024488 heartbeat IPC: 0.43397 cumulative IPC: 0.432517 (Simulation time: 0 hr 24 min 40 sec) 
Heartbeat CPU 0 instructions: 690000000 cycles: 1258856708 heartbeat IPC: 0.437978 cumulative IPC: 0.432627 (Simulation time: 0 hr 25 min 5 sec) 
Heartbeat CPU 0 instructions: 700000000 cycles: 1281713513 heartbeat IPC: 0.437506 cumulative IPC: 0.432724 (Simulation time: 0 hr 25 min 30 sec) 
Heartbeat CPU 0 instructions: 710000000 cycles: 1304508551 heartbeat IPC: 0.438692 cumulative IPC: 0.432839 (Simulation time: 0 hr 25 min 55 sec) 
Heartbeat CPU 0 instructions: 720000000 cycles: 1327310938 heartbeat IPC: 0.438551 cumulative IPC: 0.432948 (Simulation time: 0 hr 26 min 20 sec) 
Heartbeat CPU 0 instructions: 730000003 cycles: 1350139548 heartbeat IPC: 0.438047 cumulative IPC: 0.433043 (Simulation time: 0 hr 26 min 45 sec) 
Heartbeat CPU 0 instructions: 740000000 cycles: 1372986845 heartbeat IPC: 0.437688 cumulative IPC: 0.433128 (Simulation time: 0 hr 27 min 10 sec) 
Heartbeat CPU 0 instructions: 750000002 cycles: 1396024945 heartbeat IPC: 0.434064 cumulative IPC: 0.433145 (Simulation time: 0 hr 27 min 35 sec) 
Heartbeat CPU 0 instructions: 760000000 cycles: 1419177818 heartbeat IPC: 0.431912 cumulative IPC: 0.433123 (Simulation time: 0 hr 28 min 0 sec) 
Heartbeat CPU 0 instructions: 770000002 cycles: 1442134658 heartbeat IPC: 0.4356 cumulative IPC: 0.433166 (Simulation time: 0 hr 28 min 25 sec) 
Heartbeat CPU 0 instructions: 780000000 cycles: 1465071644 heartbeat IPC: 0.435977 cumulative IPC: 0.433214 (Simulation time: 0 hr 28 min 50 sec) 
Heartbeat CPU 0 instructions: 790000002 cycles: 1488021072 heartbeat IPC: 0.435741 cumulative IPC: 0.433257 (Simulation time: 0 hr 29 min 15 sec) 
Heartbeat CPU 0 instructions: 800000000 cycles: 1511013075 heartbeat IPC: 0.434934 cumulative IPC: 0.433284 (Simulation time: 0 hr 29 min 40 sec) 
Heartbeat CPU 0 instructions: 810000001 cycles: 1533910439 heartbeat IPC: 0.436732 cumulative IPC: 0.433341 (Simulation time: 0 hr 30 min 5 sec) 
Heartbeat CPU 0 instructions: 820000000 cycles: 1556714638 heartbeat IPC: 0.438516 cumulative IPC: 0.433423 (Simulation time: 0 hr 30 min 30 sec) 
Heartbeat CPU 0 instructions: 830000000 cycles: 1579778879 heartbeat IPC: 0.433572 cumulative IPC: 0.433425 (Simulation time: 0 hr 30 min 55 sec) 
Heartbeat CPU 0 instructions: 840000000 cycles: 1602692142 heartbeat IPC: 0.436428 cumulative IPC: 0.433472 (Simulation time: 0 hr 31 min 20 sec) 
Heartbeat CPU 0 instructions: 850000000 cycles: 1625665038 heartbeat IPC: 0.435296 cumulative IPC: 0.4335 (Simulation time: 0 hr 31 min 45 sec) 
Heartbeat CPU 0 instructions: 860000000 cycles: 1648405033 heartbeat IPC: 0.439754 cumulative IPC: 0.433593 (Simulation time: 0 hr 32 min 10 sec) 
Heartbeat CPU 0 instructions: 870000000 cycles: 1671308397 heartbeat IPC: 0.436617 cumulative IPC: 0.433638 (Simulation time: 0 hr 32 min 35 sec) 
Heartbeat CPU 0 instructions: 880000000 cycles: 1694102234 heartbeat IPC: 0.438715 cumulative IPC: 0.433712 (Simulation time: 0 hr 33 min 0 sec) 
Heartbeat CPU 0 instructions: 890000001 cycles: 1717147403 heartbeat IPC: 0.43393 cumulative IPC: 0.433715 (Simulation time: 0 hr 33 min 25 sec) 
Heartbeat CPU 0 instructions: 900000000 cycles: 1740176651 heartbeat IPC: 0.43423 cumulative IPC: 0.433723 (Simulation time: 0 hr 33 min 50 sec) 
Heartbeat CPU 0 instructions: 910000000 cycles: 1763090249 heartbeat IPC: 0.436422 cumulative IPC: 0.43376 (Simulation time: 0 hr 34 min 15 sec) 
Heartbeat CPU 0 instructions: 920000000 cycles: 1786243946 heartbeat IPC: 0.431896 cumulative IPC: 0.433734 (Simulation time: 0 hr 34 min 39 sec) 
Heartbeat CPU 0 instructions: 930000000 cycles: 1809379992 heartbeat IPC: 0.432226 cumulative IPC: 0.433714 (Simulation time: 0 hr 35 min 4 sec) 
Heartbeat CPU 0 instructions: 940000000 cycles: 1832445570 heartbeat IPC: 0.433546 cumulative IPC: 0.433711 (Simulation time: 0 hr 35 min 29 sec) 
Heartbeat CPU 0 instructions: 950000000 cycles: 1855525202 heartbeat IPC: 0.433282 cumulative IPC: 0.433706 (Simulation time: 0 hr 35 min 54 sec) 
Heartbeat CPU 0 instructions: 960000000 cycles: 1878439510 heartbeat IPC: 0.436409 cumulative IPC: 0.433741 (Simulation time: 0 hr 36 min 19 sec) 
Heartbeat CPU 0 instructions: 970000001 cycles: 1901446044 heartbeat IPC: 0.434659 cumulative IPC: 0.433753 (Simulation time: 0 hr 36 min 44 sec) 
Heartbeat CPU 0 instructions: 980000000 cycles: 1924465170 heartbeat IPC: 0.434421 cumulative IPC: 0.433761 (Simulation time: 0 hr 37 min 9 sec) 
Heartbeat CPU 0 instructions: 990000002 cycles: 1947322490 heartbeat IPC: 0.437497 cumulative IPC: 0.433808 (Simulation time: 0 hr 37 min 34 sec) 
Heartbeat CPU 0 instructions: 1000000000 cycles: 1970433726 heartbeat IPC: 0.43269 cumulative IPC: 0.433794 (Simulation time: 0 hr 37 min 59 sec) 
Heartbeat CPU 0 instructions: 1010000000 cycles: 1993356474 heartbeat IPC: 0.436248 cumulative IPC: 0.433824 (Simulation time: 0 hr 38 min 24 sec) 
Heartbeat CPU 0 instructions: 1020000000 cycles: 2016321511 heartbeat IPC: 0.435445 cumulative IPC: 0.433844 (Simulation time: 0 hr 38 min 49 sec) 
Heartbeat CPU 0 instructions: 1030000001 cycles: 2039196776 heartbeat IPC: 0.437153 cumulative IPC: 0.433884 (Simulation time: 0 hr 39 min 14 sec) 
Heartbeat CPU 0 instructions: 1040000000 cycles: 2062200516 heartbeat IPC: 0.434712 cumulative IPC: 0.433894 (Simulation time: 0 hr 39 min 39 sec) 
Heartbeat CPU 0 instructions: 1050000001 cycles: 2085264900 heartbeat IPC: 0.433569 cumulative IPC: 0.43389 (Simulation time: 0 hr 40 min 4 sec) 
Heartbeat CPU 0 instructions: 1060000000 cycles: 2108245949 heartbeat IPC: 0.435141 cumulative IPC: 0.433904 (Simulation time: 0 hr 40 min 29 sec) 
Heartbeat CPU 0 instructions: 1070000000 cycles: 2131255460 heartbeat IPC: 0.434603 cumulative IPC: 0.433912 (Simulation time: 0 hr 40 min 54 sec) 
Heartbeat CPU 0 instructions: 1080000000 cycles: 2154208427 heartbeat IPC: 0.435674 cumulative IPC: 0.433932 (Simulation time: 0 hr 41 min 19 sec) 
Heartbeat CPU 0 instructions: 1090000001 cycles: 2177079740 heartbeat IPC: 0.437229 cumulative IPC: 0.433969 (Simulation time: 0 hr 41 min 44 sec) 
Heartbeat CPU 0 instructions: 1100000000 cycles: 2199856276 heartbeat IPC: 0.439048 cumulative IPC: 0.434025 (Simulation time: 0 hr 42 min 9 sec) 
Heartbeat CPU 0 instructions: 1110000001 cycles: 2222848319 heartbeat IPC: 0.434933 cumulative IPC: 0.434035 (Simulation time: 0 hr 42 min 34 sec) 
Heartbeat CPU 0 instructions: 1120000000 cycles: 2245629271 heartbeat IPC: 0.438963 cumulative IPC: 0.434088 (Simulation time: 0 hr 42 min 59 sec) 
Heartbeat CPU 0 instructions: 1130000001 cycles: 2268390369 heartbeat IPC: 0.439346 cumulative IPC: 0.434144 (Simulation time: 0 hr 43 min 24 sec) 
Heartbeat CPU 0 instructions: 1140000000 cycles: 2290906667 heartbeat IPC: 0.444123 cumulative IPC: 0.434247 (Simulation time: 0 hr 43 min 49 sec) 
Heartbeat CPU 0 instructions: 1150000000 cycles: 2313777704 heartbeat IPC: 0.437234 cumulative IPC: 0.434279 (Simulation time: 0 hr 44 min 14 sec) 
Heartbeat CPU 0 instructions: 1160000000 cycles: 2336595681 heartbeat IPC: 0.438251 cumulative IPC: 0.43432 (Simulation time: 0 hr 44 min 39 sec) 
Heartbeat CPU 0 instructions: 1170000003 cycles: 2359336474 heartbeat IPC: 0.439739 cumulative IPC: 0.434375 (Simulation time: 0 hr 45 min 3 sec) 
Heartbeat CPU 0 instructions: 1180000000 cycles: 2382148923 heartbeat IPC: 0.438357 cumulative IPC: 0.434415 (Simulation time: 0 hr 45 min 28 sec) 
Heartbeat CPU 0 instructions: 1190000001 cycles: 2451458485 heartbeat IPC: 0.14428 cumulative IPC: 0.425767 (Simulation time: 0 hr 46 min 46 sec) 
Heartbeat CPU 0 instructions: 1200000000 cycles: 2475634858 heartbeat IPC: 0.413627 cumulative IPC: 0.425642 (Simulation time: 0 hr 47 min 13 sec) 
Finished CPU 0 instructions: 1000000000 cycles: 2349393230 cumulative IPC: 0.425642 (Simulation time: 0 hr 47 min 13 sec) 

CPU 0 Branch Prediction Accuracy: 84.7597% MPKI: 16.5558

ChampSim completed all CPUs

Region of Interest Statistics

CPU 0 cumulative IPC: 0.425642 instructions: 1000000000 cycles: 2349393230
L1D TOTAL     ACCESS:  333410795  HIT:  329470670  MISS:    3940125
L1D LOAD      ACCESS:  218357501  HIT:  215342336  MISS:    3015165
L1D RFO       ACCESS:  115053294  HIT:  114128334  MISS:     924960
L1D PREFETCH  ACCESS:          0  HIT:          0  MISS:          0
L1D WRITEBACK ACCESS:          0  HIT:          0  MISS:          0
L1D PREFETCH  REQUESTED:          0  ISSUED:          0  USEFUL:          0  USELESS:          0
L1I TOTAL     ACCESS:  231051839  HIT:  230981910  MISS:      69929
L1I LOAD      ACCESS:  231051839  HIT:  230981910  MISS:      69929
L1I RFO       ACCESS:          0  HIT:          0  MISS:          0
L1I PREFETCH  ACCESS:          0  HIT:          0  MISS:          0
L1I WRITEBACK ACCESS:          0  HIT:          0  MISS:          0
L1I PREFETCH  REQUESTED:          0  ISSUED:          0  USEFUL:          0  USELESS:          0
L2C TOTAL     ACCESS:    7666474  HIT:    6494046  MISS:    1172428
L2C LOAD      ACCESS:    3084997  HIT:    2752257  MISS:     332740
L2C RFO       ACCESS:     924960  HIT:     384675  MISS:     540285
L2C PREFETCH  ACCESS:    2433456  HIT:    2134433  MISS:     299023
L2C WRITEBACK ACCESS:    1223061  HIT:    1222681  MISS:        380
L2C PREFETCH  REQUESTED:    7837187  ISSUED:    7837179  USEFUL:     298777  USELESS:       1901
LLC TOTAL     ACCESS:    5721312  HIT:    4588342  MISS:    1132970
LLC LOAD      ACCESS:     319747  HIT:     246143  MISS:      73604
LLC RFO       ACCESS:     540280  HIT:      13728  MISS:     526552
LLC PREFETCH  ACCESS:    4288752  HIT:    3756086  MISS:     532666
LLC WRITEBACK ACCESS:     572533  HIT:     572385  MISS:        148
LLC PREFETCH  REQUESTED:          0  ISSUED:          0  USEFUL:     196901  USELESS:     332110
Major fault: 0 Minor fault: 2505

DRAM Statistics
 CHANNEL 0
 RQ ROW_BUFFER_HIT:     873030  ROW_BUFFER_MISS:     259764
 DBUS_CONGESTED:     896450
 WQ ROW_BUFFER_HIT:     268577  ROW_BUFFER_MISS:     273986  FULL:          0

 AVG_CONGESTED_CYCLE: 13
