Initialize SIGNATURE TABLE
ST_SET: 1
ST_WAY: 256
ST_TAG_BIT: 16
ST_TAG_MASK: ffff

Initialize PATTERN TABLE
PT_SET: 512
PT_WAY: 4
SIG_DELTA_BIT: 7
C_SIG_BIT: 4
C_DELTA_BIT: 4

Initialize PREFETCH FILTER
FILTER_SET: 1024

*** ChampSim Multicore Out-of-Order Simulator ***

Warmup Instructions: 200000000
Simulation Instructions: 1000000000
Number of CPUs: 1
LLC sets: 2048
LLC ways: 16
Off-chip DRAM Size: 4096 MB Channels: 1 Width: 64-bit Data Rate: 1600 MT/s

CPU 0 runs /scratch/user/djimenez/champsim-traces/speccpu2017/xz/644.nab_s/644.nab_s-5853B.champsimtrace.xz
Heartbeat CPU 0 instructions: 10000002 cycles: 5536179 heartbeat IPC: 1.8063 cumulative IPC: 1.8063 (Simulation time: 0 hr 0 min 23 sec) 
Heartbeat CPU 0 instructions: 20000000 cycles: 11070635 heartbeat IPC: 1.80686 cumulative IPC: 1.80658 (Simulation time: 0 hr 0 min 46 sec) 
Heartbeat CPU 0 instructions: 30000000 cycles: 16605789 heartbeat IPC: 1.80663 cumulative IPC: 1.8066 (Simulation time: 0 hr 1 min 10 sec) 
Heartbeat CPU 0 instructions: 40000000 cycles: 22140870 heartbeat IPC: 1.80666 cumulative IPC: 1.80661 (Simulation time: 0 hr 1 min 33 sec) 
Heartbeat CPU 0 instructions: 50000000 cycles: 27673201 heartbeat IPC: 1.80756 cumulative IPC: 1.8068 (Simulation time: 0 hr 1 min 56 sec) 
Heartbeat CPU 0 instructions: 60000000 cycles: 33208816 heartbeat IPC: 1.80648 cumulative IPC: 1.80675 (Simulation time: 0 hr 2 min 19 sec) 
Heartbeat CPU 0 instructions: 70000000 cycles: 38742337 heartbeat IPC: 1.80717 cumulative IPC: 1.80681 (Simulation time: 0 hr 2 min 43 sec) 
Heartbeat CPU 0 instructions: 80000000 cycles: 44275786 heartbeat IPC: 1.80719 cumulative IPC: 1.80686 (Simulation time: 0 hr 3 min 6 sec) 
Heartbeat CPU 0 instructions: 90000000 cycles: 49805941 heartbeat IPC: 1.80827 cumulative IPC: 1.80701 (Simulation time: 0 hr 3 min 29 sec) 
Heartbeat CPU 0 instructions: 100000000 cycles: 55341567 heartbeat IPC: 1.80648 cumulative IPC: 1.80696 (Simulation time: 0 hr 3 min 53 sec) 
Heartbeat CPU 0 instructions: 110000000 cycles: 60874887 heartbeat IPC: 1.80723 cumulative IPC: 1.80698 (Simulation time: 0 hr 4 min 16 sec) 
Heartbeat CPU 0 instructions: 120000000 cycles: 66410247 heartbeat IPC: 1.80657 cumulative IPC: 1.80695 (Simulation time: 0 hr 4 min 39 sec) 
Heartbeat CPU 0 instructions: 130000001 cycles: 71942810 heartbeat IPC: 1.80748 cumulative IPC: 1.80699 (Simulation time: 0 hr 5 min 3 sec) 
Heartbeat CPU 0 instructions: 140000000 cycles: 77478370 heartbeat IPC: 1.8065 cumulative IPC: 1.80696 (Simulation time: 0 hr 5 min 26 sec) 
Heartbeat CPU 0 instructions: 150000001 cycles: 83013406 heartbeat IPC: 1.80667 cumulative IPC: 1.80694 (Simulation time: 0 hr 5 min 49 sec) 
Heartbeat CPU 0 instructions: 160000000 cycles: 88549324 heartbeat IPC: 1.80638 cumulative IPC: 1.8069 (Simulation time: 0 hr 6 min 13 sec) 
Heartbeat CPU 0 instructions: 170000001 cycles: 94084712 heartbeat IPC: 1.80656 cumulative IPC: 1.80688 (Simulation time: 0 hr 6 min 36 sec) 
Heartbeat CPU 0 instructions: 180000000 cycles: 99620165 heartbeat IPC: 1.80654 cumulative IPC: 1.80686 (Simulation time: 0 hr 7 min 0 sec) 
Heartbeat CPU 0 instructions: 190000001 cycles: 105155854 heartbeat IPC: 1.80646 cumulative IPC: 1.80684 (Simulation time: 0 hr 7 min 23 sec) 
Heartbeat CPU 0 instructions: 200000000 cycles: 110691432 heartbeat IPC: 1.8065 cumulative IPC: 1.80682 (Simulation time: 0 hr 7 min 46 sec) 

Warmup complete CPU 0 instructions: 200000002 cycles: 110691434 (Simulation time: 0 hr 7 min 46 sec) 

Heartbeat CPU 0 instructions: 210000002 cycles: 125111983 heartbeat IPC: 0.693455 cumulative IPC: 0.693455 (Simulation time: 0 hr 8 min 19 sec) 
Heartbeat CPU 0 instructions: 220000000 cycles: 139537253 heartbeat IPC: 0.693228 cumulative IPC: 0.693341 (Simulation time: 0 hr 8 min 51 sec) 
Heartbeat CPU 0 instructions: 230000000 cycles: 153953112 heartbeat IPC: 0.69368 cumulative IPC: 0.693454 (Simulation time: 0 hr 9 min 23 sec) 
Heartbeat CPU 0 instructions: 240000000 cycles: 168381241 heartbeat IPC: 0.693091 cumulative IPC: 0.693363 (Simulation time: 0 hr 9 min 56 sec) 
Heartbeat CPU 0 instructions: 250000002 cycles: 182829011 heartbeat IPC: 0.692149 cumulative IPC: 0.69312 (Simulation time: 0 hr 10 min 28 sec) 
Heartbeat CPU 0 instructions: 260000000 cycles: 197262084 heartbeat IPC: 0.692853 cumulative IPC: 0.693076 (Simulation time: 0 hr 11 min 0 sec) 
Heartbeat CPU 0 instructions: 270000002 cycles: 211675683 heartbeat IPC: 0.693789 cumulative IPC: 0.693177 (Simulation time: 0 hr 11 min 33 sec) 
Heartbeat CPU 0 instructions: 280000000 cycles: 226092344 heartbeat IPC: 0.693642 cumulative IPC: 0.693235 (Simulation time: 0 hr 12 min 5 sec) 
Heartbeat CPU 0 instructions: 290000000 cycles: 240506534 heartbeat IPC: 0.693761 cumulative IPC: 0.693294 (Simulation time: 0 hr 12 min 37 sec) 
Heartbeat CPU 0 instructions: 300000000 cycles: 254931077 heartbeat IPC: 0.693263 cumulative IPC: 0.693291 (Simulation time: 0 hr 13 min 10 sec) 
Heartbeat CPU 0 instructions: 310000001 cycles: 269361579 heartbeat IPC: 0.692977 cumulative IPC: 0.693262 (Simulation time: 0 hr 13 min 42 sec) 
Heartbeat CPU 0 instructions: 320000000 cycles: 283787711 heartbeat IPC: 0.693186 cumulative IPC: 0.693256 (Simulation time: 0 hr 14 min 14 sec) 
Heartbeat CPU 0 instructions: 330000001 cycles: 298261751 heartbeat IPC: 0.690892 cumulative IPC: 0.693073 (Simulation time: 0 hr 14 min 46 sec) 
Heartbeat CPU 0 instructions: 340000000 cycles: 312694160 heartbeat IPC: 0.692885 cumulative IPC: 0.69306 (Simulation time: 0 hr 15 min 18 sec) 
Heartbeat CPU 0 instructions: 350000000 cycles: 327125095 heartbeat IPC: 0.692956 cumulative IPC: 0.693053 (Simulation time: 0 hr 15 min 51 sec) 
Heartbeat CPU 0 instructions: 360000000 cycles: 341543619 heartbeat IPC: 0.693552 cumulative IPC: 0.693084 (Simulation time: 0 hr 16 min 23 sec) 
Heartbeat CPU 0 instructions: 370000001 cycles: 355974771 heartbeat IPC: 0.692945 cumulative IPC: 0.693076 (Simulation time: 0 hr 16 min 56 sec) 
Heartbeat CPU 0 instructions: 380000000 cycles: 370404933 heartbeat IPC: 0.692993 cumulative IPC: 0.693071 (Simulation time: 0 hr 17 min 28 sec) 
Heartbeat CPU 0 instructions: 390000001 cycles: 384829305 heartbeat IPC: 0.693271 cumulative IPC: 0.693082 (Simulation time: 0 hr 18 min 0 sec) 
Heartbeat CPU 0 instructions: 400000000 cycles: 399251186 heartbeat IPC: 0.693391 cumulative IPC: 0.693097 (Simulation time: 0 hr 18 min 33 sec) 
Heartbeat CPU 0 instructions: 410000003 cycles: 413672792 heartbeat IPC: 0.693404 cumulative IPC: 0.693112 (Simulation time: 0 hr 19 min 5 sec) 
Heartbeat CPU 0 instructions: 420000000 cycles: 428101656 heartbeat IPC: 0.693055 cumulative IPC: 0.693109 (Simulation time: 0 hr 19 min 37 sec) 
Heartbeat CPU 0 instructions: 430000002 cycles: 442531292 heartbeat IPC: 0.693018 cumulative IPC: 0.693105 (Simulation time: 0 hr 20 min 10 sec) 
Heartbeat CPU 0 instructions: 440000000 cycles: 456988160 heartbeat IPC: 0.691713 cumulative IPC: 0.693047 (Simulation time: 0 hr 20 min 42 sec) 
Heartbeat CPU 0 instructions: 450000002 cycles: 471451095 heartbeat IPC: 0.691423 cumulative IPC: 0.692982 (Simulation time: 0 hr 21 min 15 sec) 
Heartbeat CPU 0 instructions: 460000000 cycles: 485916315 heartbeat IPC: 0.691313 cumulative IPC: 0.692918 (Simulation time: 0 hr 21 min 47 sec) 
Heartbeat CPU 0 instructions: 470000001 cycles: 500405675 heartbeat IPC: 0.690162 cumulative IPC: 0.692815 (Simulation time: 0 hr 22 min 19 sec) 
Heartbeat CPU 0 instructions: 480000000 cycles: 514896384 heartbeat IPC: 0.690097 cumulative IPC: 0.692718 (Simulation time: 0 hr 22 min 52 sec) 
Heartbeat CPU 0 instructions: 490000002 cycles: 529383043 heartbeat IPC: 0.69029 cumulative IPC: 0.692634 (Simulation time: 0 hr 23 min 24 sec) 
Heartbeat CPU 0 instructions: 500000000 cycles: 543900211 heartbeat IPC: 0.688839 cumulative IPC: 0.692507 (Simulation time: 0 hr 23 min 57 sec) 
Heartbeat CPU 0 instructions: 510000002 cycles: 558420209 heartbeat IPC: 0.688705 cumulative IPC: 0.692383 (Simulation time: 0 hr 24 min 29 sec) 
Heartbeat CPU 0 instructions: 520000000 cycles: 572944654 heartbeat IPC: 0.688494 cumulative IPC: 0.692261 (Simulation time: 0 hr 25 min 2 sec) 
Heartbeat CPU 0 instructions: 530000001 cycles: 587457291 heartbeat IPC: 0.689055 cumulative IPC: 0.692164 (Simulation time: 0 hr 25 min 34 sec) 
Heartbeat CPU 0 instructions: 540000000 cycles: 601929834 heartbeat IPC: 0.690964 cumulative IPC: 0.692128 (Simulation time: 0 hr 26 min 6 sec) 
Heartbeat CPU 0 instructions: 550000001 cycles: 616412878 heartbeat IPC: 0.690463 cumulative IPC: 0.692081 (Simulation time: 0 hr 26 min 39 sec) 
Heartbeat CPU 0 instructions: 560000000 cycles: 630872780 heartbeat IPC: 0.691568 cumulative IPC: 0.692066 (Simulation time: 0 hr 27 min 11 sec) 
Heartbeat CPU 0 instructions: 570000000 cycles: 645341071 heartbeat IPC: 0.691167 cumulative IPC: 0.692042 (Simulation time: 0 hr 27 min 44 sec) 
Heartbeat CPU 0 instructions: 580000000 cycles: 659799755 heartbeat IPC: 0.691626 cumulative IPC: 0.692031 (Simulation time: 0 hr 28 min 16 sec) 
Heartbeat CPU 0 instructions: 590000003 cycles: 674280350 heartbeat IPC: 0.69058 cumulative IPC: 0.691994 (Simulation time: 0 hr 28 min 48 sec) 
Heartbeat CPU 0 instructions: 600000000 cycles: 688743126 heartbeat IPC: 0.69143 cumulative IPC: 0.69198 (Simulation time: 0 hr 29 min 21 sec) 
Heartbeat CPU 0 instructions: 610000000 cycles: 703214471 heartbeat IPC: 0.691021 cumulative IPC: 0.691956 (Simulation time: 0 hr 29 min 53 sec) 
Heartbeat CPU 0 instructions: 620000000 cycles: 717679692 heartbeat IPC: 0.691313 cumulative IPC: 0.691941 (Simulation time: 0 hr 30 min 26 sec) 
Heartbeat CPU 0 instructions: 630000000 cycles: 732172834 heartbeat IPC: 0.689982 cumulative IPC: 0.691895 (Simulation time: 0 hr 30 min 58 sec) 
Heartbeat CPU 0 instructions: 640000000 cycles: 746643201 heartbeat IPC: 0.691067 cumulative IPC: 0.691876 (Simulation time: 0 hr 31 min 30 sec) 
Heartbeat CPU 0 instructions: 650000002 cycles: 761118571 heartbeat IPC: 0.690829 cumulative IPC: 0.691853 (Simulation time: 0 hr 32 min 3 sec) 
Heartbeat CPU 0 instructions: 660000000 cycles: 775608951 heartbeat IPC: 0.690113 cumulative IPC: 0.691815 (Simulation time: 0 hr 32 min 35 sec) 
Heartbeat CPU 0 instructions: 670000001 cycles: 790123252 heartbeat IPC: 0.688976 cumulative IPC: 0.691754 (Simulation time: 0 hr 33 min 8 sec) 
Heartbeat CPU 0 instructions: 680000000 cycles: 804624146 heartbeat IPC: 0.689613 cumulative IPC: 0.69171 (Simulation time: 0 hr 33 min 40 sec) 
Heartbeat CPU 0 instructions: 690000002 cycles: 819103210 heartbeat IPC: 0.690652 cumulative IPC: 0.691688 (Simulation time: 0 hr 34 min 12 sec) 
Heartbeat CPU 0 instructions: 700000000 cycles: 833598390 heartbeat IPC: 0.689884 cumulative IPC: 0.691652 (Simulation time: 0 hr 34 min 45 sec) 
Heartbeat CPU 0 instructions: 710000000 cycles: 848115371 heartbeat IPC: 0.688848 cumulative IPC: 0.691597 (Simulation time: 0 hr 35 min 17 sec) 
Heartbeat CPU 0 instructions: 720000000 cycles: 862671228 heartbeat IPC: 0.687009 cumulative IPC: 0.691508 (Simulation time: 0 hr 35 min 50 sec) 
Heartbeat CPU 0 instructions: 730000003 cycles: 877201753 heartbeat IPC: 0.688207 cumulative IPC: 0.691445 (Simulation time: 0 hr 36 min 22 sec) 
Heartbeat CPU 0 instructions: 740000000 cycles: 891679696 heartbeat IPC: 0.690706 cumulative IPC: 0.691432 (Simulation time: 0 hr 36 min 55 sec) 
Heartbeat CPU 0 instructions: 750000000 cycles: 906172455 heartbeat IPC: 0.69 cumulative IPC: 0.691406 (Simulation time: 0 hr 37 min 27 sec) 
Heartbeat CPU 0 instructions: 760000000 cycles: 920640013 heartbeat IPC: 0.691202 cumulative IPC: 0.691402 (Simulation time: 0 hr 37 min 59 sec) 
Heartbeat CPU 0 instructions: 770000000 cycles: 935098629 heartbeat IPC: 0.691629 cumulative IPC: 0.691406 (Simulation time: 0 hr 38 min 32 sec) 
Heartbeat CPU 0 instructions: 780000000 cycles: 949557523 heartbeat IPC: 0.691616 cumulative IPC: 0.69141 (Simulation time: 0 hr 39 min 4 sec) 
Heartbeat CPU 0 instructions: 790000000 cycles: 963995422 heartbeat IPC: 0.692622 cumulative IPC: 0.69143 (Simulation time: 0 hr 39 min 37 sec) 
Heartbeat CPU 0 instructions: 800000000 cycles: 978456212 heartbeat IPC: 0.691525 cumulative IPC: 0.691432 (Simulation time: 0 hr 40 min 9 sec) 
Heartbeat CPU 0 instructions: 810000002 cycles: 992896672 heartbeat IPC: 0.692499 cumulative IPC: 0.691449 (Simulation time: 0 hr 40 min 41 sec) 
Heartbeat CPU 0 instructions: 820000000 cycles: 1007316766 heartbeat IPC: 0.693477 cumulative IPC: 0.691482 (Simulation time: 0 hr 41 min 14 sec) 
Heartbeat CPU 0 instructions: 830000001 cycles: 1021742000 heartbeat IPC: 0.69323 cumulative IPC: 0.691509 (Simulation time: 0 hr 41 min 46 sec) 
Heartbeat CPU 0 instructions: 840000000 cycles: 1036167798 heartbeat IPC: 0.693202 cumulative IPC: 0.691536 (Simulation time: 0 hr 42 min 18 sec) 
Heartbeat CPU 0 instructions: 850000003 cycles: 1050593647 heartbeat IPC: 0.6932 cumulative IPC: 0.691561 (Simulation time: 0 hr 42 min 51 sec) 
Heartbeat CPU 0 instructions: 860000000 cycles: 1065030346 heartbeat IPC: 0.692679 cumulative IPC: 0.691578 (Simulation time: 0 hr 43 min 23 sec) 
Heartbeat CPU 0 instructions: 870000000 cycles: 1079451762 heartbeat IPC: 0.693413 cumulative IPC: 0.691606 (Simulation time: 0 hr 43 min 55 sec) 
Heartbeat CPU 0 instructions: 880000000 cycles: 1093888510 heartbeat IPC: 0.692677 cumulative IPC: 0.691621 (Simulation time: 0 hr 44 min 28 sec) 
Heartbeat CPU 0 instructions: 890000001 cycles: 1108312089 heartbeat IPC: 0.693309 cumulative IPC: 0.691646 (Simulation time: 0 hr 45 min 0 sec) 
Heartbeat CPU 0 instructions: 900000000 cycles: 1122742943 heartbeat IPC: 0.69296 cumulative IPC: 0.691664 (Simulation time: 0 hr 45 min 33 sec) 
Heartbeat CPU 0 instructions: 910000000 cycles: 1137177235 heartbeat IPC: 0.692795 cumulative IPC: 0.69168 (Simulation time: 0 hr 46 min 5 sec) 
Heartbeat CPU 0 instructions: 920000000 cycles: 1151612262 heartbeat IPC: 0.692759 cumulative IPC: 0.691695 (Simulation time: 0 hr 46 min 37 sec) 
Heartbeat CPU 0 instructions: 930000000 cycles: 1166083700 heartbeat IPC: 0.691016 cumulative IPC: 0.691686 (Simulation time: 0 hr 47 min 9 sec) 
Heartbeat CPU 0 instructions: 940000000 cycles: 1180569536 heartbeat IPC: 0.690329 cumulative IPC: 0.691668 (Simulation time: 0 hr 47 min 42 sec) 
Heartbeat CPU 0 instructions: 950000000 cycles: 1195045303 heartbeat IPC: 0.69081 cumulative IPC: 0.691656 (Simulation time: 0 hr 48 min 14 sec) 
Heartbeat CPU 0 instructions: 960000000 cycles: 1209586930 heartbeat IPC: 0.687681 cumulative IPC: 0.691604 (Simulation time: 0 hr 48 min 46 sec) 
Heartbeat CPU 0 instructions: 970000000 cycles: 1224119621 heartbeat IPC: 0.688104 cumulative IPC: 0.691558 (Simulation time: 0 hr 49 min 19 sec) 
Heartbeat CPU 0 instructions: 980000000 cycles: 1238649460 heartbeat IPC: 0.688239 cumulative IPC: 0.691515 (Simulation time: 0 hr 49 min 51 sec) 
Heartbeat CPU 0 instructions: 990000000 cycles: 1253158764 heartbeat IPC: 0.689213 cumulative IPC: 0.691486 (Simulation time: 0 hr 50 min 24 sec) 
Heartbeat CPU 0 instructions: 1000000000 cycles: 1267652495 heartbeat IPC: 0.689953 cumulative IPC: 0.691467 (Simulation time: 0 hr 50 min 56 sec) 
Heartbeat CPU 0 instructions: 1010000002 cycles: 1282211072 heartbeat IPC: 0.68688 cumulative IPC: 0.69141 (Simulation time: 0 hr 51 min 29 sec) 
Heartbeat CPU 0 instructions: 1020000000 cycles: 1296791345 heartbeat IPC: 0.685858 cumulative IPC: 0.691341 (Simulation time: 0 hr 52 min 1 sec) 
Heartbeat CPU 0 instructions: 1030000003 cycles: 1311390798 heartbeat IPC: 0.684957 cumulative IPC: 0.691264 (Simulation time: 0 hr 52 min 34 sec) 
Heartbeat CPU 0 instructions: 1040000000 cycles: 1326014070 heartbeat IPC: 0.683841 cumulative IPC: 0.691175 (Simulation time: 0 hr 53 min 6 sec) 
Heartbeat CPU 0 instructions: 1050000001 cycles: 1340662626 heartbeat IPC: 0.682661 cumulative IPC: 0.691073 (Simulation time: 0 hr 53 min 39 sec) 
Heartbeat CPU 0 instructions: 1060000000 cycles: 1355301408 heartbeat IPC: 0.683117 cumulative IPC: 0.69098 (Simulation time: 0 hr 54 min 11 sec) 
Heartbeat CPU 0 instructions: 1070000003 cycles: 1369955525 heartbeat IPC: 0.682402 cumulative IPC: 0.69088 (Simulation time: 0 hr 54 min 44 sec) 
Heartbeat CPU 0 instructions: 1080000000 cycles: 1384604037 heartbeat IPC: 0.682663 cumulative IPC: 0.690785 (Simulation time: 0 hr 55 min 17 sec) 
Heartbeat CPU 0 instructions: 1090000002 cycles: 1399283166 heartbeat IPC: 0.681239 cumulative IPC: 0.690676 (Simulation time: 0 hr 55 min 49 sec) 
Heartbeat CPU 0 instructions: 1100000000 cycles: 1413961379 heartbeat IPC: 0.681282 cumulative IPC: 0.690571 (Simulation time: 0 hr 56 min 22 sec) 
Heartbeat CPU 0 instructions: 1110000001 cycles: 1428619468 heartbeat IPC: 0.682217 cumulative IPC: 0.690478 (Simulation time: 0 hr 56 min 54 sec) 
Heartbeat CPU 0 instructions: 1120000000 cycles: 1443250196 heartbeat IPC: 0.683493 cumulative IPC: 0.690401 (Simulation time: 0 hr 57 min 27 sec) 
Heartbeat CPU 0 instructions: 1130000000 cycles: 1457761777 heartbeat IPC: 0.689105 cumulative IPC: 0.690387 (Simulation time: 0 hr 57 min 59 sec) 
Heartbeat CPU 0 instructions: 1140000000 cycles: 1472278248 heartbeat IPC: 0.688873 cumulative IPC: 0.690371 (Simulation time: 0 hr 58 min 31 sec) 
Heartbeat CPU 0 instructions: 1150000002 cycles: 1486796139 heartbeat IPC: 0.688805 cumulative IPC: 0.690354 (Simulation time: 0 hr 59 min 3 sec) 
Heartbeat CPU 0 instructions: 1160000000 cycles: 1501269759 heartbeat IPC: 0.690912 cumulative IPC: 0.69036 (Simulation time: 0 hr 59 min 36 sec) 
Heartbeat CPU 0 instructions: 1170000001 cycles: 1515857548 heartbeat IPC: 0.685505 cumulative IPC: 0.69031 (Simulation time: 1 hr 0 min 8 sec) 
Heartbeat CPU 0 instructions: 1180000000 cycles: 1530539474 heartbeat IPC: 0.681109 cumulative IPC: 0.690215 (Simulation time: 1 hr 0 min 40 sec) 
Heartbeat CPU 0 instructions: 1190000003 cycles: 1545118007 heartbeat IPC: 0.68594 cumulative IPC: 0.690171 (Simulation time: 1 hr 1 min 13 sec) 
Heartbeat CPU 0 instructions: 1200000000 cycles: 1559682063 heartbeat IPC: 0.686622 cumulative IPC: 0.690136 (Simulation time: 1 hr 1 min 45 sec) 
Finished CPU 0 instructions: 1000000000 cycles: 1448990651 cumulative IPC: 0.690136 (Simulation time: 1 hr 1 min 45 sec) 

CPU 0 Branch Prediction Accuracy: 99.9534% MPKI: 0.034807

ChampSim completed all CPUs

Region of Interest Statistics

CPU 0 cumulative IPC: 0.690136 instructions: 1000000000 cycles: 1448990651
L1D TOTAL     ACCESS:  328611505  HIT:  323634424  MISS:    4977081
L1D LOAD      ACCESS:  217962124  HIT:  212992398  MISS:    4969726
L1D RFO       ACCESS:  110649381  HIT:  110642026  MISS:       7355
L1D PREFETCH  ACCESS:          0  HIT:          0  MISS:          0
L1D WRITEBACK ACCESS:          0  HIT:          0  MISS:          0
L1D PREFETCH  REQUESTED:          0  ISSUED:          0  USEFUL:          0  USELESS:          0
L1I TOTAL     ACCESS:  385516345  HIT:  385516343  MISS:          2
L1I LOAD      ACCESS:  385516345  HIT:  385516343  MISS:          2
L1I RFO       ACCESS:          0  HIT:          0  MISS:          0
L1I PREFETCH  ACCESS:          0  HIT:          0  MISS:          0
L1I WRITEBACK ACCESS:          0  HIT:          0  MISS:          0
L1I PREFETCH  REQUESTED:          0  ISSUED:          0  USEFUL:          0  USELESS:          0
L2C TOTAL     ACCESS:   17900897  HIT:   17691783  MISS:     209114
L2C LOAD      ACCESS:    4969725  HIT:    4844806  MISS:     124919
L2C RFO       ACCESS:       7355  HIT:       6318  MISS:       1037
L2C PREFETCH  ACCESS:   11453079  HIT:   11369935  MISS:      83144
L2C WRITEBACK ACCESS:    1470738  HIT:    1470724  MISS:         14
L2C PREFETCH  REQUESTED:   15833462  ISSUED:   15833459  USEFUL:      97805  USELESS:       2302
LLC TOTAL     ACCESS:    1938966  HIT:    1712182  MISS:     226784
LLC LOAD      ACCESS:     124915  HIT:     108487  MISS:      16428
LLC RFO       ACCESS:       1037  HIT:       1035  MISS:          2
LLC PREFETCH  ACCESS:    1803018  HIT:    1594271  MISS:     208747
LLC WRITEBACK ACCESS:       9996  HIT:       8389  MISS:       1607
LLC PREFETCH  REQUESTED:          0  ISSUED:          0  USEFUL:     120275  USELESS:     116270
Major fault: 0 Minor fault: 9224

DRAM Statistics
 CHANNEL 0
 RQ ROW_BUFFER_HIT:     206726  ROW_BUFFER_MISS:      18384
 DBUS_CONGESTED:      74008
 WQ ROW_BUFFER_HIT:       1662  ROW_BUFFER_MISS:       3248  FULL:          0

 AVG_CONGESTED_CYCLE: 13
