Initialize SIGNATURE TABLE
ST_SET: 1
ST_WAY: 256
ST_TAG_BIT: 16
ST_TAG_MASK: ffff

Initialize PATTERN TABLE
PT_SET: 512
PT_WAY: 4
SIG_DELTA_BIT: 7
C_SIG_BIT: 4
C_DELTA_BIT: 4

Initialize PREFETCH FILTER
FILTER_SET: 1024

*** ChampSim Multicore Out-of-Order Simulator ***

Warmup Instructions: 200000000
Simulation Instructions: 1000000000
Number of CPUs: 1
LLC sets: 2048
LLC ways: 16
Off-chip DRAM Size: 4096 MB Channels: 1 Width: 64-bit Data Rate: 1600 MT/s

CPU 0 runs /scratch/user/djimenez/champsim-traces/speccpu2017/xz/654.roms_s/654.roms_s-1613B.champsimtrace.xz
Heartbeat CPU 0 instructions: 10000003 cycles: 4454358 heartbeat IPC: 2.24499 cumulative IPC: 2.24499 (Simulation time: 0 hr 0 min 20 sec) 
Heartbeat CPU 0 instructions: 20000000 cycles: 8908545 heartbeat IPC: 2.24508 cumulative IPC: 2.24504 (Simulation time: 0 hr 0 min 40 sec) 
Heartbeat CPU 0 instructions: 30000001 cycles: 13362499 heartbeat IPC: 2.2452 cumulative IPC: 2.24509 (Simulation time: 0 hr 1 min 1 sec) 
Heartbeat CPU 0 instructions: 40000000 cycles: 17816801 heartbeat IPC: 2.24502 cumulative IPC: 2.24507 (Simulation time: 0 hr 1 min 21 sec) 
Heartbeat CPU 0 instructions: 50000000 cycles: 22874972 heartbeat IPC: 1.977 cumulative IPC: 2.1858 (Simulation time: 0 hr 1 min 42 sec) 
Heartbeat CPU 0 instructions: 60000000 cycles: 27328437 heartbeat IPC: 2.24544 cumulative IPC: 2.19552 (Simulation time: 0 hr 2 min 3 sec) 
Heartbeat CPU 0 instructions: 70000001 cycles: 31781976 heartbeat IPC: 2.24541 cumulative IPC: 2.20251 (Simulation time: 0 hr 2 min 23 sec) 
Heartbeat CPU 0 instructions: 80000000 cycles: 36235618 heartbeat IPC: 2.24535 cumulative IPC: 2.20777 (Simulation time: 0 hr 2 min 43 sec) 
Heartbeat CPU 0 instructions: 90000003 cycles: 40689579 heartbeat IPC: 2.24519 cumulative IPC: 2.21187 (Simulation time: 0 hr 3 min 4 sec) 
Heartbeat CPU 0 instructions: 100000000 cycles: 45143233 heartbeat IPC: 2.24535 cumulative IPC: 2.21517 (Simulation time: 0 hr 3 min 24 sec) 
Heartbeat CPU 0 instructions: 110000001 cycles: 49596880 heartbeat IPC: 2.24535 cumulative IPC: 2.21788 (Simulation time: 0 hr 3 min 44 sec) 
Heartbeat CPU 0 instructions: 120000000 cycles: 54657597 heartbeat IPC: 1.976 cumulative IPC: 2.19549 (Simulation time: 0 hr 4 min 6 sec) 
Heartbeat CPU 0 instructions: 130000001 cycles: 59111862 heartbeat IPC: 2.24504 cumulative IPC: 2.19922 (Simulation time: 0 hr 4 min 26 sec) 
Heartbeat CPU 0 instructions: 140000000 cycles: 63565764 heartbeat IPC: 2.24522 cumulative IPC: 2.20244 (Simulation time: 0 hr 4 min 46 sec) 
Heartbeat CPU 0 instructions: 150000003 cycles: 68019967 heartbeat IPC: 2.24507 cumulative IPC: 2.20523 (Simulation time: 0 hr 5 min 7 sec) 
Heartbeat CPU 0 instructions: 160000000 cycles: 72474530 heartbeat IPC: 2.24489 cumulative IPC: 2.20767 (Simulation time: 0 hr 5 min 27 sec) 
Heartbeat CPU 0 instructions: 170000001 cycles: 76928780 heartbeat IPC: 2.24505 cumulative IPC: 2.20984 (Simulation time: 0 hr 5 min 47 sec) 
Heartbeat CPU 0 instructions: 180000000 cycles: 81382896 heartbeat IPC: 2.24511 cumulative IPC: 2.21177 (Simulation time: 0 hr 6 min 8 sec) 
Heartbeat CPU 0 instructions: 190000003 cycles: 85837085 heartbeat IPC: 2.24508 cumulative IPC: 2.2135 (Simulation time: 0 hr 6 min 28 sec) 
Heartbeat CPU 0 instructions: 200000000 cycles: 90895705 heartbeat IPC: 1.97682 cumulative IPC: 2.20032 (Simulation time: 0 hr 6 min 49 sec) 

Warmup complete CPU 0 instructions: 200000004 cycles: 90895706 (Simulation time: 0 hr 6 min 49 sec) 

Heartbeat CPU 0 instructions: 210000000 cycles: 104583081 heartbeat IPC: 0.7306 cumulative IPC: 0.7306 (Simulation time: 0 hr 7 min 20 sec) 
Heartbeat CPU 0 instructions: 220000000 cycles: 118274918 heartbeat IPC: 0.730362 cumulative IPC: 0.730481 (Simulation time: 0 hr 7 min 52 sec) 
Heartbeat CPU 0 instructions: 230000001 cycles: 131946250 heartbeat IPC: 0.731458 cumulative IPC: 0.730806 (Simulation time: 0 hr 8 min 23 sec) 
Heartbeat CPU 0 instructions: 240000000 cycles: 145628274 heartbeat IPC: 0.730886 cumulative IPC: 0.730826 (Simulation time: 0 hr 8 min 54 sec) 
Heartbeat CPU 0 instructions: 250000001 cycles: 159296489 heartbeat IPC: 0.731624 cumulative IPC: 0.730986 (Simulation time: 0 hr 9 min 26 sec) 
Heartbeat CPU 0 instructions: 260000000 cycles: 172976556 heartbeat IPC: 0.73099 cumulative IPC: 0.730987 (Simulation time: 0 hr 9 min 57 sec) 
Heartbeat CPU 0 instructions: 270000001 cycles: 191180108 heartbeat IPC: 0.549343 cumulative IPC: 0.698015 (Simulation time: 0 hr 10 min 32 sec) 
Heartbeat CPU 0 instructions: 280000000 cycles: 204862132 heartbeat IPC: 0.730886 cumulative IPC: 0.701961 (Simulation time: 0 hr 11 min 3 sec) 
Heartbeat CPU 0 instructions: 290000002 cycles: 218561900 heartbeat IPC: 0.72994 cumulative IPC: 0.704963 (Simulation time: 0 hr 11 min 34 sec) 
Heartbeat CPU 0 instructions: 300000000 cycles: 232233458 heartbeat IPC: 0.731445 cumulative IPC: 0.707525 (Simulation time: 0 hr 12 min 6 sec) 
Heartbeat CPU 0 instructions: 310000003 cycles: 245913147 heartbeat IPC: 0.731011 cumulative IPC: 0.709598 (Simulation time: 0 hr 12 min 37 sec) 
Heartbeat CPU 0 instructions: 320000000 cycles: 259581100 heartbeat IPC: 0.731638 cumulative IPC: 0.711383 (Simulation time: 0 hr 13 min 8 sec) 
Heartbeat CPU 0 instructions: 330000003 cycles: 273253218 heartbeat IPC: 0.731416 cumulative IPC: 0.712885 (Simulation time: 0 hr 13 min 39 sec) 
Heartbeat CPU 0 instructions: 340000000 cycles: 291373040 heartbeat IPC: 0.551882 cumulative IPC: 0.698333 (Simulation time: 0 hr 14 min 14 sec) 
Heartbeat CPU 0 instructions: 350000000 cycles: 305234942 heartbeat IPC: 0.721402 cumulative IPC: 0.699825 (Simulation time: 0 hr 14 min 46 sec) 
Heartbeat CPU 0 instructions: 360000000 cycles: 318917607 heartbeat IPC: 0.730852 cumulative IPC: 0.701687 (Simulation time: 0 hr 15 min 17 sec) 
Heartbeat CPU 0 instructions: 370000003 cycles: 332601657 heartbeat IPC: 0.730778 cumulative IPC: 0.703334 (Simulation time: 0 hr 15 min 48 sec) 
Heartbeat CPU 0 instructions: 380000000 cycles: 346274432 heartbeat IPC: 0.73138 cumulative IPC: 0.704836 (Simulation time: 0 hr 16 min 20 sec) 
Heartbeat CPU 0 instructions: 390000000 cycles: 359956659 heartbeat IPC: 0.730875 cumulative IPC: 0.70616 (Simulation time: 0 hr 16 min 51 sec) 
Heartbeat CPU 0 instructions: 400000000 cycles: 373618391 heartbeat IPC: 0.731972 cumulative IPC: 0.707407 (Simulation time: 0 hr 17 min 22 sec) 
Heartbeat CPU 0 instructions: 410000002 cycles: 387299371 heartbeat IPC: 0.730942 cumulative IPC: 0.708493 (Simulation time: 0 hr 17 min 53 sec) 
Heartbeat CPU 0 instructions: 420000000 cycles: 405642207 heartbeat IPC: 0.545172 cumulative IPC: 0.698975 (Simulation time: 0 hr 18 min 28 sec) 
Heartbeat CPU 0 instructions: 430000003 cycles: 419329429 heartbeat IPC: 0.730609 cumulative IPC: 0.700293 (Simulation time: 0 hr 19 min 0 sec) 
Heartbeat CPU 0 instructions: 440000000 cycles: 433025711 heartbeat IPC: 0.730125 cumulative IPC: 0.701488 (Simulation time: 0 hr 19 min 31 sec) 
Heartbeat CPU 0 instructions: 450000001 cycles: 446695790 heartbeat IPC: 0.731525 cumulative IPC: 0.702642 (Simulation time: 0 hr 20 min 2 sec) 
Heartbeat CPU 0 instructions: 460000000 cycles: 460380115 heartbeat IPC: 0.730763 cumulative IPC: 0.703683 (Simulation time: 0 hr 20 min 33 sec) 
Heartbeat CPU 0 instructions: 470000000 cycles: 474049137 heartbeat IPC: 0.731581 cumulative IPC: 0.704679 (Simulation time: 0 hr 21 min 5 sec) 
Heartbeat CPU 0 instructions: 480000000 cycles: 487718325 heartbeat IPC: 0.731572 cumulative IPC: 0.705605 (Simulation time: 0 hr 21 min 36 sec) 
Heartbeat CPU 0 instructions: 490000003 cycles: 505951915 heartbeat IPC: 0.548438 cumulative IPC: 0.698701 (Simulation time: 0 hr 22 min 11 sec) 
Heartbeat CPU 0 instructions: 500000000 cycles: 519607761 heartbeat IPC: 0.732287 cumulative IPC: 0.69977 (Simulation time: 0 hr 22 min 42 sec) 
Heartbeat CPU 0 instructions: 510000002 cycles: 533306290 heartbeat IPC: 0.730006 cumulative IPC: 0.700707 (Simulation time: 0 hr 23 min 13 sec) 
Heartbeat CPU 0 instructions: 520000000 cycles: 546991274 heartbeat IPC: 0.730728 cumulative IPC: 0.701607 (Simulation time: 0 hr 23 min 45 sec) 
Heartbeat CPU 0 instructions: 530000000 cycles: 560667080 heartbeat IPC: 0.731218 cumulative IPC: 0.702469 (Simulation time: 0 hr 24 min 16 sec) 
Heartbeat CPU 0 instructions: 540000000 cycles: 574346027 heartbeat IPC: 0.73105 cumulative IPC: 0.703278 (Simulation time: 0 hr 24 min 47 sec) 
Heartbeat CPU 0 instructions: 550000000 cycles: 588014802 heartbeat IPC: 0.731594 cumulative IPC: 0.704057 (Simulation time: 0 hr 25 min 19 sec) 
Heartbeat CPU 0 instructions: 560000000 cycles: 601697498 heartbeat IPC: 0.73085 cumulative IPC: 0.704774 (Simulation time: 0 hr 25 min 50 sec) 
Heartbeat CPU 0 instructions: 570000001 cycles: 619905046 heartbeat IPC: 0.549223 cumulative IPC: 0.699421 (Simulation time: 0 hr 26 min 25 sec) 
Heartbeat CPU 0 instructions: 580000000 cycles: 633587493 heartbeat IPC: 0.730863 cumulative IPC: 0.700213 (Simulation time: 0 hr 26 min 56 sec) 
Heartbeat CPU 0 instructions: 590000000 cycles: 647283000 heartbeat IPC: 0.730166 cumulative IPC: 0.700951 (Simulation time: 0 hr 27 min 27 sec) 
Heartbeat CPU 0 instructions: 600000000 cycles: 660955462 heartbeat IPC: 0.731397 cumulative IPC: 0.701681 (Simulation time: 0 hr 27 min 59 sec) 
Heartbeat CPU 0 instructions: 610000003 cycles: 674639297 heartbeat IPC: 0.730789 cumulative IPC: 0.702363 (Simulation time: 0 hr 28 min 30 sec) 
Heartbeat CPU 0 instructions: 620000000 cycles: 688305274 heartbeat IPC: 0.731744 cumulative IPC: 0.703035 (Simulation time: 0 hr 29 min 1 sec) 
Heartbeat CPU 0 instructions: 630000001 cycles: 701980557 heartbeat IPC: 0.731246 cumulative IPC: 0.703667 (Simulation time: 0 hr 29 min 32 sec) 
Heartbeat CPU 0 instructions: 640000000 cycles: 720254903 heartbeat IPC: 0.547215 cumulative IPC: 0.699124 (Simulation time: 0 hr 30 min 7 sec) 
Heartbeat CPU 0 instructions: 650000002 cycles: 733933944 heartbeat IPC: 0.731046 cumulative IPC: 0.699803 (Simulation time: 0 hr 30 min 39 sec) 
Heartbeat CPU 0 instructions: 660000000 cycles: 747631722 heartbeat IPC: 0.730045 cumulative IPC: 0.700434 (Simulation time: 0 hr 31 min 10 sec) 
Heartbeat CPU 0 instructions: 670000001 cycles: 761310491 heartbeat IPC: 0.73106 cumulative IPC: 0.701059 (Simulation time: 0 hr 31 min 41 sec) 
Heartbeat CPU 0 instructions: 680000000 cycles: 774990879 heartbeat IPC: 0.730973 cumulative IPC: 0.701657 (Simulation time: 0 hr 32 min 13 sec) 
Heartbeat CPU 0 instructions: 690000002 cycles: 788667519 heartbeat IPC: 0.731174 cumulative IPC: 0.702235 (Simulation time: 0 hr 32 min 44 sec) 
Heartbeat CPU 0 instructions: 700000000 cycles: 802340752 heartbeat IPC: 0.731356 cumulative IPC: 0.702795 (Simulation time: 0 hr 33 min 15 sec) 
Heartbeat CPU 0 instructions: 710000000 cycles: 817298766 heartbeat IPC: 0.668538 cumulative IPC: 0.70209 (Simulation time: 0 hr 33 min 48 sec) 
Heartbeat CPU 0 instructions: 720000000 cycles: 831005218 heartbeat IPC: 0.729583 cumulative IPC: 0.702599 (Simulation time: 0 hr 34 min 18 sec) 
Heartbeat CPU 0 instructions: 730000001 cycles: 841472326 heartbeat IPC: 0.955374 cumulative IPC: 0.706124 (Simulation time: 0 hr 34 min 44 sec) 
Heartbeat CPU 0 instructions: 740000000 cycles: 851483451 heartbeat IPC: 0.998889 cumulative IPC: 0.709977 (Simulation time: 0 hr 35 min 12 sec) 
Heartbeat CPU 0 instructions: 750000003 cycles: 862772075 heartbeat IPC: 0.885848 cumulative IPC: 0.712549 (Simulation time: 0 hr 35 min 41 sec) 
Heartbeat CPU 0 instructions: 760000000 cycles: 873514823 heartbeat IPC: 0.93086 cumulative IPC: 0.715546 (Simulation time: 0 hr 36 min 8 sec) 
Heartbeat CPU 0 instructions: 770000003 cycles: 882709931 heartbeat IPC: 1.08754 cumulative IPC: 0.719866 (Simulation time: 0 hr 36 min 33 sec) 
Heartbeat CPU 0 instructions: 780000000 cycles: 894892037 heartbeat IPC: 0.820876 cumulative IPC: 0.721396 (Simulation time: 0 hr 37 min 4 sec) 
Heartbeat CPU 0 instructions: 790000003 cycles: 905867486 heartbeat IPC: 0.911125 cumulative IPC: 0.723951 (Simulation time: 0 hr 37 min 32 sec) 
Heartbeat CPU 0 instructions: 800000000 cycles: 914015559 heartbeat IPC: 1.22728 cumulative IPC: 0.728934 (Simulation time: 0 hr 37 min 55 sec) 
Heartbeat CPU 0 instructions: 810000001 cycles: 926421555 heartbeat IPC: 0.806062 cumulative IPC: 0.730079 (Simulation time: 0 hr 38 min 27 sec) 
Heartbeat CPU 0 instructions: 820000000 cycles: 936082495 heartbeat IPC: 1.0351 cumulative IPC: 0.733566 (Simulation time: 0 hr 38 min 54 sec) 
Heartbeat CPU 0 instructions: 830000002 cycles: 945885875 heartbeat IPC: 1.02006 cumulative IPC: 0.736851 (Simulation time: 0 hr 39 min 19 sec) 
Heartbeat CPU 0 instructions: 840000000 cycles: 957507910 heartbeat IPC: 0.860434 cumulative IPC: 0.738508 (Simulation time: 0 hr 39 min 50 sec) 
Heartbeat CPU 0 instructions: 850000000 cycles: 967597294 heartbeat IPC: 0.991141 cumulative IPC: 0.741415 (Simulation time: 0 hr 40 min 17 sec) 
Heartbeat CPU 0 instructions: 860000000 cycles: 977896304 heartbeat IPC: 0.970967 cumulative IPC: 0.744081 (Simulation time: 0 hr 40 min 43 sec) 
Heartbeat CPU 0 instructions: 870000003 cycles: 988586106 heartbeat IPC: 0.935471 cumulative IPC: 0.74636 (Simulation time: 0 hr 41 min 12 sec) 
Heartbeat CPU 0 instructions: 880000000 cycles: 999358746 heartbeat IPC: 0.928277 cumulative IPC: 0.748517 (Simulation time: 0 hr 41 min 40 sec) 
Heartbeat CPU 0 instructions: 890000003 cycles: 1009913483 heartbeat IPC: 0.947442 cumulative IPC: 0.750802 (Simulation time: 0 hr 42 min 7 sec) 
Heartbeat CPU 0 instructions: 900000000 cycles: 1019705423 heartbeat IPC: 1.02125 cumulative IPC: 0.753653 (Simulation time: 0 hr 42 min 33 sec) 
Heartbeat CPU 0 instructions: 910000001 cycles: 1031316229 heartbeat IPC: 0.861267 cumulative IPC: 0.754981 (Simulation time: 0 hr 43 min 3 sec) 
Heartbeat CPU 0 instructions: 920000000 cycles: 1042200725 heartbeat IPC: 0.918738 cumulative IPC: 0.756855 (Simulation time: 0 hr 43 min 31 sec) 
Heartbeat CPU 0 instructions: 930000002 cycles: 1050929565 heartbeat IPC: 1.14563 cumulative IPC: 0.76039 (Simulation time: 0 hr 43 min 55 sec) 
Heartbeat CPU 0 instructions: 940000000 cycles: 1063143977 heartbeat IPC: 0.818705 cumulative IPC: 0.761122 (Simulation time: 0 hr 44 min 25 sec) 
Heartbeat CPU 0 instructions: 950000003 cycles: 1073169070 heartbeat IPC: 0.997497 cumulative IPC: 0.763535 (Simulation time: 0 hr 44 min 53 sec) 
Heartbeat CPU 0 instructions: 960000000 cycles: 1082040454 heartbeat IPC: 1.12722 cumulative IPC: 0.76679 (Simulation time: 0 hr 45 min 16 sec) 
Heartbeat CPU 0 instructions: 970000002 cycles: 1094289793 heartbeat IPC: 0.816371 cumulative IPC: 0.767395 (Simulation time: 0 hr 45 min 48 sec) 
Heartbeat CPU 0 instructions: 980000000 cycles: 1103947228 heartbeat IPC: 1.03547 cumulative IPC: 0.769951 (Simulation time: 0 hr 46 min 15 sec) 
Heartbeat CPU 0 instructions: 990000000 cycles: 1114085733 heartbeat IPC: 0.986339 cumulative IPC: 0.772095 (Simulation time: 0 hr 46 min 40 sec) 
Heartbeat CPU 0 instructions: 1000000000 cycles: 1125479053 heartbeat IPC: 0.877707 cumulative IPC: 0.773258 (Simulation time: 0 hr 47 min 11 sec) 
Heartbeat CPU 0 instructions: 1010000003 cycles: 1135812146 heartbeat IPC: 0.967765 cumulative IPC: 0.775182 (Simulation time: 0 hr 47 min 38 sec) 
Heartbeat CPU 0 instructions: 1020000000 cycles: 1146219288 heartbeat IPC: 0.960878 cumulative IPC: 0.777013 (Simulation time: 0 hr 48 min 4 sec) 
Heartbeat CPU 0 instructions: 1030000003 cycles: 1156782198 heartbeat IPC: 0.946709 cumulative IPC: 0.778695 (Simulation time: 0 hr 48 min 33 sec) 
Heartbeat CPU 0 instructions: 1040000000 cycles: 1167848908 heartbeat IPC: 0.903611 cumulative IPC: 0.779978 (Simulation time: 0 hr 49 min 1 sec) 
Heartbeat CPU 0 instructions: 1050000001 cycles: 1178573083 heartbeat IPC: 0.932473 cumulative IPC: 0.781482 (Simulation time: 0 hr 49 min 28 sec) 
Heartbeat CPU 0 instructions: 1060000000 cycles: 1188061893 heartbeat IPC: 1.05387 cumulative IPC: 0.783837 (Simulation time: 0 hr 49 min 54 sec) 
Heartbeat CPU 0 instructions: 1070000000 cycles: 1199822561 heartbeat IPC: 0.850292 cumulative IPC: 0.784542 (Simulation time: 0 hr 50 min 24 sec) 
Heartbeat CPU 0 instructions: 1080000000 cycles: 1210614893 heartbeat IPC: 0.926584 cumulative IPC: 0.785911 (Simulation time: 0 hr 50 min 52 sec) 
Heartbeat CPU 0 instructions: 1090000002 cycles: 1218988953 heartbeat IPC: 1.19416 cumulative IPC: 0.788942 (Simulation time: 0 hr 51 min 15 sec) 
Heartbeat CPU 0 instructions: 1100000000 cycles: 1231212759 heartbeat IPC: 0.818076 cumulative IPC: 0.789254 (Simulation time: 0 hr 51 min 46 sec) 
Heartbeat CPU 0 instructions: 1110000002 cycles: 1241036769 heartbeat IPC: 1.01791 cumulative IPC: 0.791207 (Simulation time: 0 hr 52 min 14 sec) 
Heartbeat CPU 0 instructions: 1120000000 cycles: 1250457161 heartbeat IPC: 1.06153 cumulative IPC: 0.793403 (Simulation time: 0 hr 52 min 38 sec) 
Heartbeat CPU 0 instructions: 1130000001 cycles: 1262608115 heartbeat IPC: 0.822981 cumulative IPC: 0.79371 (Simulation time: 0 hr 53 min 9 sec) 
Heartbeat CPU 0 instructions: 1140000000 cycles: 1272370697 heartbeat IPC: 1.02432 cumulative IPC: 0.795616 (Simulation time: 0 hr 53 min 36 sec) 
Heartbeat CPU 0 instructions: 1150000002 cycles: 1282604701 heartbeat IPC: 0.977135 cumulative IPC: 0.797174 (Simulation time: 0 hr 54 min 2 sec) 
Heartbeat CPU 0 instructions: 1160000000 cycles: 1293873048 heartbeat IPC: 0.887441 cumulative IPC: 0.79802 (Simulation time: 0 hr 54 min 32 sec) 
Heartbeat CPU 0 instructions: 1170000003 cycles: 1304434163 heartbeat IPC: 0.94687 cumulative IPC: 0.799315 (Simulation time: 0 hr 54 min 59 sec) 
Heartbeat CPU 0 instructions: 1180000000 cycles: 1314959300 heartbeat IPC: 0.950106 cumulative IPC: 0.800612 (Simulation time: 0 hr 55 min 26 sec) 
Heartbeat CPU 0 instructions: 1190000001 cycles: 1325153341 heartbeat IPC: 0.980965 cumulative IPC: 0.802102 (Simulation time: 0 hr 55 min 54 sec) 
Heartbeat CPU 0 instructions: 1200000000 cycles: 1336375213 heartbeat IPC: 0.891117 cumulative IPC: 0.802904 (Simulation time: 0 hr 56 min 22 sec) 
Finished CPU 0 instructions: 1000000000 cycles: 1245479517 cumulative IPC: 0.802904 (Simulation time: 0 hr 56 min 22 sec) 

CPU 0 Branch Prediction Accuracy: 99.9042% MPKI: 0.066502

ChampSim completed all CPUs

Region of Interest Statistics

CPU 0 cumulative IPC: 0.802904 instructions: 1000000000 cycles: 1245479517
L1D TOTAL     ACCESS:  225597210  HIT:  211188094  MISS:   14409116
L1D LOAD      ACCESS:  170041132  HIT:  159863320  MISS:   10177812
L1D RFO       ACCESS:   55556078  HIT:   51324774  MISS:    4231304
L1D PREFETCH  ACCESS:          0  HIT:          0  MISS:          0
L1D WRITEBACK ACCESS:          0  HIT:          0  MISS:          0
L1D PREFETCH  REQUESTED:          0  ISSUED:          0  USEFUL:          0  USELESS:          0
L1I TOTAL     ACCESS:  327159838  HIT:  327159739  MISS:         99
L1I LOAD      ACCESS:  327159838  HIT:  327159739  MISS:         99
L1I RFO       ACCESS:          0  HIT:          0  MISS:          0
L1I PREFETCH  ACCESS:          0  HIT:          0  MISS:          0
L1I WRITEBACK ACCESS:          0  HIT:          0  MISS:          0
L1I PREFETCH  REQUESTED:          0  ISSUED:          0  USEFUL:          0  USELESS:          0
L2C TOTAL     ACCESS:   27053186  HIT:   13173636  MISS:   13879550
L2C LOAD      ACCESS:   10177891  HIT:    6481356  MISS:    3696535
L2C RFO       ACCESS:    4231303  HIT:        508  MISS:    4230795
L2C PREFETCH  ACCESS:    8404077  HIT:    2453471  MISS:    5950606
L2C WRITEBACK ACCESS:    4239915  HIT:    4238301  MISS:       1614
L2C PREFETCH  REQUESTED:   90924846  ISSUED:   88666208  USEFUL:    6192982  USELESS:      72245
LLC TOTAL     ACCESS:   80319767  HIT:   65645011  MISS:   14674756
LLC LOAD      ACCESS:    3212466  HIT:    2802839  MISS:     409627
LLC RFO       ACCESS:    4230795  HIT:          9  MISS:    4230786
LLC PREFETCH  ACCESS:   68645057  HIT:   58612261  MISS:   10032796
LLC WRITEBACK ACCESS:    4231449  HIT:    4229902  MISS:       1547
LLC PREFETCH  REQUESTED:          0  ISSUED:          0  USEFUL:    2907786  USELESS:    7565523
Major fault: 0 Minor fault: 113658

DRAM Statistics
 CHANNEL 0
 RQ ROW_BUFFER_HIT:   11281504  ROW_BUFFER_MISS:    3391705
 DBUS_CONGESTED:   12276765
 WQ ROW_BUFFER_HIT:    1872440  ROW_BUFFER_MISS:    2362246  FULL:          0

 AVG_CONGESTED_CYCLE: 13
