Initialize SIGNATURE TABLE
ST_SET: 1
ST_WAY: 256
ST_TAG_BIT: 16
ST_TAG_MASK: ffff

Initialize PATTERN TABLE
PT_SET: 512
PT_WAY: 4
SIG_DELTA_BIT: 7
C_SIG_BIT: 4
C_DELTA_BIT: 4

Initialize PREFETCH FILTER
FILTER_SET: 1024

Initialize PERCEPTRON
PERC_ENTRIES: 4096
PERC_FEATURES: 14

*** ChampSim Multicore Out-of-Order Simulator ***

Warmup Instructions: 200000000
Simulation Instructions: 1000000000
Number of CPUs: 4
LLC sets: 8192
LLC ways: 16
Off-chip DRAM Size: 8192 MB Channels: 2 Width: 64-bit Data Rate: 1600 MT/s

CPU 0 runs /scratch/user/djimenez/champsim-traces/speccpu2006/xz/436.cactusADM-1804B.champsimtrace.xz
CPU 1 runs /scratch/user/djimenez/champsim-traces/speccpu2006/xz/437.leslie3d-271B.champsimtrace.xz
CPU 2 runs /scratch/user/djimenez/champsim-traces/speccpu2006/xz/464.h264ref-64B.champsimtrace.xz
CPU 3 runs /scratch/user/djimenez/champsim-traces/speccpu2006/xz/483.xalancbmk-127B.champsimtrace.xz
Heartbeat CPU 3 instructions: 10000002 cycles: 4511368 heartbeat IPC: 2.21662 cumulative IPC: 2.21662 (Simulation time: 0 hr 1 min 42 sec) 
Heartbeat CPU 2 instructions: 10000002 cycles: 4855067 heartbeat IPC: 2.0597 cumulative IPC: 2.0597 (Simulation time: 0 hr 1 min 49 sec) 
Heartbeat CPU 1 instructions: 10000003 cycles: 5152080 heartbeat IPC: 1.94096 cumulative IPC: 1.94096 (Simulation time: 0 hr 1 min 56 sec) 
Heartbeat CPU 0 instructions: 10000003 cycles: 7591029 heartbeat IPC: 1.31734 cumulative IPC: 1.31734 (Simulation time: 0 hr 2 min 49 sec) 
Heartbeat CPU 3 instructions: 20000000 cycles: 9016160 heartbeat IPC: 2.21986 cumulative IPC: 2.21824 (Simulation time: 0 hr 3 min 19 sec) 
Heartbeat CPU 2 instructions: 20000000 cycles: 10015336 heartbeat IPC: 1.93788 cumulative IPC: 1.99694 (Simulation time: 0 hr 3 min 41 sec) 
Heartbeat CPU 1 instructions: 20000000 cycles: 10303768 heartbeat IPC: 1.94111 cumulative IPC: 1.94104 (Simulation time: 0 hr 3 min 48 sec) 
Heartbeat CPU 3 instructions: 30000002 cycles: 13567131 heartbeat IPC: 2.19733 cumulative IPC: 2.21123 (Simulation time: 0 hr 5 min 2 sec) 
Heartbeat CPU 2 instructions: 30000002 cycles: 14998772 heartbeat IPC: 2.00665 cumulative IPC: 2.00016 (Simulation time: 0 hr 5 min 34 sec) 
Heartbeat CPU 0 instructions: 20000000 cycles: 15231549 heartbeat IPC: 1.30881 cumulative IPC: 1.31306 (Simulation time: 0 hr 5 min 39 sec) 
Heartbeat CPU 1 instructions: 30000002 cycles: 15455597 heartbeat IPC: 1.94106 cumulative IPC: 1.94104 (Simulation time: 0 hr 5 min 44 sec) 
Heartbeat CPU 3 instructions: 40000000 cycles: 18090415 heartbeat IPC: 2.21078 cumulative IPC: 2.21112 (Simulation time: 0 hr 6 min 42 sec) 
Heartbeat CPU 2 instructions: 40000000 cycles: 19988104 heartbeat IPC: 2.00428 cumulative IPC: 2.00119 (Simulation time: 0 hr 7 min 25 sec) 
Heartbeat CPU 1 instructions: 40000000 cycles: 20607367 heartbeat IPC: 1.94108 cumulative IPC: 1.94105 (Simulation time: 0 hr 7 min 39 sec) 
Heartbeat CPU 3 instructions: 50000000 cycles: 22616574 heartbeat IPC: 2.20938 cumulative IPC: 2.21077 (Simulation time: 0 hr 8 min 24 sec) 
Heartbeat CPU 0 instructions: 30000002 cycles: 22821940 heartbeat IPC: 1.31746 cumulative IPC: 1.31452 (Simulation time: 0 hr 8 min 29 sec) 
Heartbeat CPU 2 instructions: 50000003 cycles: 24972447 heartbeat IPC: 2.00628 cumulative IPC: 2.00221 (Simulation time: 0 hr 9 min 16 sec) 
Heartbeat CPU 1 instructions: 50000000 cycles: 25760002 heartbeat IPC: 1.94075 cumulative IPC: 1.94099 (Simulation time: 0 hr 9 min 34 sec) 
Heartbeat CPU 3 instructions: 60000000 cycles: 27125930 heartbeat IPC: 2.21761 cumulative IPC: 2.21191 (Simulation time: 0 hr 10 min 4 sec) 
Heartbeat CPU 2 instructions: 60000000 cycles: 29526135 heartbeat IPC: 2.19602 cumulative IPC: 2.0321 (Simulation time: 0 hr 10 min 59 sec) 
Heartbeat CPU 0 instructions: 40000000 cycles: 30412443 heartbeat IPC: 1.31744 cumulative IPC: 1.31525 (Simulation time: 0 hr 11 min 18 sec) 
Heartbeat CPU 1 instructions: 60000000 cycles: 31001890 heartbeat IPC: 1.90771 cumulative IPC: 1.93537 (Simulation time: 0 hr 11 min 32 sec) 
Heartbeat CPU 3 instructions: 70000002 cycles: 31727382 heartbeat IPC: 2.17323 cumulative IPC: 2.2063 (Simulation time: 0 hr 11 min 48 sec) 
Heartbeat CPU 2 instructions: 70000000 cycles: 34523787 heartbeat IPC: 2.00094 cumulative IPC: 2.02759 (Simulation time: 0 hr 12 min 48 sec) 
Heartbeat CPU 3 instructions: 80000000 cycles: 36233847 heartbeat IPC: 2.21903 cumulative IPC: 2.20788 (Simulation time: 0 hr 13 min 25 sec) 
Heartbeat CPU 1 instructions: 70000000 cycles: 36369787 heartbeat IPC: 1.86293 cumulative IPC: 1.92467 (Simulation time: 0 hr 13 min 28 sec) 
Heartbeat CPU 0 instructions: 50000000 cycles: 38052997 heartbeat IPC: 1.30881 cumulative IPC: 1.31396 (Simulation time: 0 hr 14 min 5 sec) 
Heartbeat CPU 2 instructions: 80000000 cycles: 40796750 heartbeat IPC: 1.59414 cumulative IPC: 1.96094 (Simulation time: 0 hr 15 min 4 sec) 
Heartbeat CPU 3 instructions: 90000003 cycles: 40856875 heartbeat IPC: 2.16309 cumulative IPC: 2.20281 (Simulation time: 0 hr 15 min 5 sec) 
Heartbeat CPU 1 instructions: 80000000 cycles: 41773992 heartbeat IPC: 1.85041 cumulative IPC: 1.91507 (Simulation time: 0 hr 15 min 26 sec) 
Heartbeat CPU 3 instructions: 100000000 cycles: 45478096 heartbeat IPC: 2.16393 cumulative IPC: 2.19886 (Simulation time: 0 hr 16 min 49 sec) 
Heartbeat CPU 0 instructions: 60000000 cycles: 45642670 heartbeat IPC: 1.31758 cumulative IPC: 1.31456 (Simulation time: 0 hr 16 min 53 sec) 
Heartbeat CPU 2 instructions: 90000002 cycles: 47123827 heartbeat IPC: 1.58051 cumulative IPC: 1.90986 (Simulation time: 0 hr 17 min 28 sec) 
Heartbeat CPU 1 instructions: 90000003 cycles: 47662495 heartbeat IPC: 1.69823 cumulative IPC: 1.88828 (Simulation time: 0 hr 17 min 41 sec) 
Heartbeat CPU 3 instructions: 110000003 cycles: 50073883 heartbeat IPC: 2.17591 cumulative IPC: 2.19675 (Simulation time: 0 hr 18 min 39 sec) 
Heartbeat CPU 2 instructions: 100000000 cycles: 51998003 heartbeat IPC: 2.05163 cumulative IPC: 1.92315 (Simulation time: 0 hr 19 min 25 sec) 
Heartbeat CPU 0 instructions: 70000001 cycles: 53286598 heartbeat IPC: 1.30823 cumulative IPC: 1.31365 (Simulation time: 0 hr 19 min 56 sec) 
Heartbeat CPU 1 instructions: 100000000 cycles: 53685099 heartbeat IPC: 1.66041 cumulative IPC: 1.86271 (Simulation time: 0 hr 20 min 6 sec) 
Heartbeat CPU 3 instructions: 120000000 cycles: 54664088 heartbeat IPC: 2.17855 cumulative IPC: 2.19523 (Simulation time: 0 hr 20 min 28 sec) 
Heartbeat CPU 2 instructions: 110000001 cycles: 57426053 heartbeat IPC: 1.84228 cumulative IPC: 1.91551 (Simulation time: 0 hr 21 min 32 sec) 
Heartbeat CPU 3 instructions: 130000000 cycles: 59202716 heartbeat IPC: 2.20331 cumulative IPC: 2.19585 (Simulation time: 0 hr 22 min 14 sec) 
Heartbeat CPU 1 instructions: 110000003 cycles: 59708301 heartbeat IPC: 1.66025 cumulative IPC: 1.84229 (Simulation time: 0 hr 22 min 25 sec) 
Heartbeat CPU 0 instructions: 80000000 cycles: 60877265 heartbeat IPC: 1.31741 cumulative IPC: 1.31412 (Simulation time: 0 hr 22 min 53 sec) 
Heartbeat CPU 2 instructions: 120000000 cycles: 63677154 heartbeat IPC: 1.59972 cumulative IPC: 1.88451 (Simulation time: 0 hr 23 min 58 sec) 
Heartbeat CPU 3 instructions: 140000000 cycles: 63685243 heartbeat IPC: 2.23088 cumulative IPC: 2.19831 (Simulation time: 0 hr 23 min 58 sec) 
Heartbeat CPU 1 instructions: 120000000 cycles: 65730660 heartbeat IPC: 1.66048 cumulative IPC: 1.82563 (Simulation time: 0 hr 24 min 46 sec) 
Heartbeat CPU 3 instructions: 150000000 cycles: 68232900 heartbeat IPC: 2.19893 cumulative IPC: 2.19835 (Simulation time: 0 hr 25 min 45 sec) 
Heartbeat CPU 0 instructions: 90000003 cycles: 68521327 heartbeat IPC: 1.30821 cumulative IPC: 1.31346 (Simulation time: 0 hr 25 min 52 sec) 
Heartbeat CPU 2 instructions: 130000000 cycles: 69946650 heartbeat IPC: 1.59502 cumulative IPC: 1.85856 (Simulation time: 0 hr 26 min 25 sec) 
Heartbeat CPU 1 instructions: 130000001 cycles: 70699563 heartbeat IPC: 2.01252 cumulative IPC: 1.83877 (Simulation time: 0 hr 26 min 42 sec) 
Heartbeat CPU 3 instructions: 160000000 cycles: 72741360 heartbeat IPC: 2.21805 cumulative IPC: 2.19957 (Simulation time: 0 hr 27 min 29 sec) 
Heartbeat CPU 2 instructions: 140000000 cycles: 74859867 heartbeat IPC: 2.03533 cumulative IPC: 1.87016 (Simulation time: 0 hr 28 min 17 sec) 
Heartbeat CPU 1 instructions: 140000000 cycles: 75636024 heartbeat IPC: 2.02574 cumulative IPC: 1.85097 (Simulation time: 0 hr 28 min 35 sec) 
Heartbeat CPU 0 instructions: 100000000 cycles: 76112245 heartbeat IPC: 1.31736 cumulative IPC: 1.31385 (Simulation time: 0 hr 28 min 46 sec) 
Heartbeat CPU 3 instructions: 170000002 cycles: 77267052 heartbeat IPC: 2.20961 cumulative IPC: 2.20016 (Simulation time: 0 hr 29 min 11 sec) 
Heartbeat CPU 2 instructions: 150000003 cycles: 80254085 heartbeat IPC: 1.85384 cumulative IPC: 1.86906 (Simulation time: 0 hr 30 min 20 sec) 
Heartbeat CPU 1 instructions: 150000001 cycles: 80572618 heartbeat IPC: 2.02569 cumulative IPC: 1.86167 (Simulation time: 0 hr 30 min 28 sec) 
Heartbeat CPU 3 instructions: 180000000 cycles: 81767190 heartbeat IPC: 2.22215 cumulative IPC: 2.20137 (Simulation time: 0 hr 30 min 56 sec) 
Heartbeat CPU 0 instructions: 110000001 cycles: 83755847 heartbeat IPC: 1.30828 cumulative IPC: 1.31334 (Simulation time: 0 hr 31 min 45 sec) 
Heartbeat CPU 1 instructions: 160000000 cycles: 85507226 heartbeat IPC: 2.0265 cumulative IPC: 1.87119 (Simulation time: 0 hr 32 min 26 sec) 
Heartbeat CPU 3 instructions: 190000000 cycles: 86498581 heartbeat IPC: 2.11354 cumulative IPC: 2.19657 (Simulation time: 0 hr 32 min 50 sec) 
Heartbeat CPU 2 instructions: 160000000 cycles: 86511362 heartbeat IPC: 1.59814 cumulative IPC: 1.84947 (Simulation time: 0 hr 32 min 50 sec) 
Heartbeat CPU 1 instructions: 170000000 cycles: 90446568 heartbeat IPC: 2.02456 cumulative IPC: 1.87956 (Simulation time: 0 hr 34 min 25 sec) 
Heartbeat CPU 3 instructions: 200000000 cycles: 91088449 heartbeat IPC: 2.17871 cumulative IPC: 2.19567 (Simulation time: 0 hr 34 min 40 sec) 
Heartbeat CPU 0 instructions: 120000000 cycles: 91345436 heartbeat IPC: 1.31759 cumulative IPC: 1.31369 (Simulation time: 0 hr 34 min 46 sec) 
Heartbeat CPU 2 instructions: 170000000 cycles: 92807492 heartbeat IPC: 1.58828 cumulative IPC: 1.83175 (Simulation time: 0 hr 35 min 21 sec) 
Heartbeat CPU 1 instructions: 180000000 cycles: 95380988 heartbeat IPC: 2.02658 cumulative IPC: 1.88717 (Simulation time: 0 hr 36 min 25 sec) 
Heartbeat CPU 3 instructions: 210000002 cycles: 95652281 heartbeat IPC: 2.19114 cumulative IPC: 0.104545 (Simulation time: 0 hr 36 min 32 sec) 
Heartbeat CPU 2 instructions: 180000000 cycles: 97724619 heartbeat IPC: 2.03371 cumulative IPC: 1.84191 (Simulation time: 0 hr 37 min 22 sec) 
Heartbeat CPU 0 instructions: 130000001 cycles: 98948891 heartbeat IPC: 1.31519 cumulative IPC: 1.31381 (Simulation time: 0 hr 37 min 51 sec) 
Heartbeat CPU 3 instructions: 220000000 cycles: 100185698 heartbeat IPC: 2.20584 cumulative IPC: 0.199629 (Simulation time: 0 hr 38 min 21 sec) 
Heartbeat CPU 1 instructions: 190000003 cycles: 100318696 heartbeat IPC: 2.02523 cumulative IPC: 1.89396 (Simulation time: 0 hr 38 min 24 sec) 
Heartbeat CPU 2 instructions: 190000003 cycles: 102988068 heartbeat IPC: 1.8999 cumulative IPC: 1.84487 (Simulation time: 0 hr 39 min 26 sec) 
Heartbeat CPU 3 instructions: 230000000 cycles: 104808654 heartbeat IPC: 2.16312 cumulative IPC: 0.286236 (Simulation time: 0 hr 40 min 9 sec) 
Heartbeat CPU 1 instructions: 200000000 cycles: 105255565 heartbeat IPC: 2.02557 cumulative IPC: 1.90014 (Simulation time: 0 hr 40 min 20 sec) 
Heartbeat CPU 0 instructions: 140000000 cycles: 106578271 heartbeat IPC: 1.31072 cumulative IPC: 1.31359 (Simulation time: 0 hr 40 min 57 sec) 
Heartbeat CPU 2 instructions: 200000000 cycles: 109244962 heartbeat IPC: 1.59824 cumulative IPC: 1.83075 (Simulation time: 0 hr 42 min 2 sec) 
Heartbeat CPU 3 instructions: 240000000 cycles: 109392173 heartbeat IPC: 2.18173 cumulative IPC: 0.365657 (Simulation time: 0 hr 42 min 5 sec) 
Heartbeat CPU 1 instructions: 210000003 cycles: 110191246 heartbeat IPC: 2.02606 cumulative IPC: 0.0907513 (Simulation time: 0 hr 42 min 24 sec) 
Heartbeat CPU 3 instructions: 250000002 cycles: 113902572 heartbeat IPC: 2.2171 cumulative IPC: 0.438972 (Simulation time: 0 hr 43 min 53 sec) 
Heartbeat CPU 0 instructions: 150000003 cycles: 114169094 heartbeat IPC: 1.31738 cumulative IPC: 1.31384 (Simulation time: 0 hr 43 min 59 sec) 
Heartbeat CPU 1 instructions: 220000000 cycles: 115128376 heartbeat IPC: 2.02547 cumulative IPC: 0.173719 (Simulation time: 0 hr 44 min 22 sec) 
Heartbeat CPU 2 instructions: 210000002 cycles: 115534308 heartbeat IPC: 1.58999 cumulative IPC: 0.0865544 (Simulation time: 0 hr 44 min 32 sec) 
Heartbeat CPU 3 instructions: 260000000 cycles: 118366495 heartbeat IPC: 2.24018 cumulative IPC: 0.5069 (Simulation time: 0 hr 45 min 41 sec) 
Heartbeat CPU 1 instructions: 230000001 cycles: 120065619 heartbeat IPC: 2.02542 cumulative IPC: 0.249863 (Simulation time: 0 hr 46 min 22 sec) 
Heartbeat CPU 2 instructions: 220000000 cycles: 120658861 heartbeat IPC: 1.95139 cumulative IPC: 0.165757 (Simulation time: 0 hr 46 min 36 sec) 
Heartbeat CPU 0 instructions: 160000000 cycles: 121812453 heartbeat IPC: 1.30832 cumulative IPC: 1.31349 (Simulation time: 0 hr 47 min 4 sec) 
Heartbeat CPU 3 instructions: 270000001 cycles: 122831633 heartbeat IPC: 2.23957 cumulative IPC: 0.569886 (Simulation time: 0 hr 47 min 29 sec) 
Heartbeat CPU 1 instructions: 240000000 cycles: 125000214 heartbeat IPC: 2.02651 cumulative IPC: 0.319999 (Simulation time: 0 hr 48 min 19 sec) 
Heartbeat CPU 2 instructions: 230000002 cycles: 125743880 heartbeat IPC: 1.96656 cumulative IPC: 0.23858 (Simulation time: 0 hr 48 min 37 sec) 
Heartbeat CPU 3 instructions: 280000000 cycles: 127451296 heartbeat IPC: 2.16466 cumulative IPC: 0.627691 (Simulation time: 0 hr 49 min 17 sec) 
Heartbeat CPU 0 instructions: 170000000 cycles: 129403376 heartbeat IPC: 1.31736 cumulative IPC: 1.31372 (Simulation time: 0 hr 50 min 7 sec) 
Heartbeat CPU 1 instructions: 250000003 cycles: 129937477 heartbeat IPC: 2.02541 cumulative IPC: 0.3848 (Simulation time: 0 hr 50 min 20 sec) 
Heartbeat CPU 3 instructions: 290000000 cycles: 131944024 heartbeat IPC: 2.22582 cumulative IPC: 0.682107 (Simulation time: 0 hr 51 min 8 sec) 
Heartbeat CPU 2 instructions: 240000000 cycles: 131974996 heartbeat IPC: 1.60485 cumulative IPC: 0.303088 (Simulation time: 0 hr 51 min 9 sec) 
Heartbeat CPU 1 instructions: 260000000 cycles: 134876343 heartbeat IPC: 2.02476 cumulative IPC: 0.444852 (Simulation time: 0 hr 52 min 18 sec) 
Heartbeat CPU 3 instructions: 300000000 cycles: 136405532 heartbeat IPC: 2.24139 cumulative IPC: 0.733108 (Simulation time: 0 hr 52 min 55 sec) 
Heartbeat CPU 0 instructions: 180000000 cycles: 137047604 heartbeat IPC: 1.30818 cumulative IPC: 1.31341 (Simulation time: 0 hr 53 min 10 sec) 
Heartbeat CPU 2 instructions: 250000002 cycles: 138274200 heartbeat IPC: 1.5875 cumulative IPC: 0.3616 (Simulation time: 0 hr 53 min 39 sec) 
Heartbeat CPU 1 instructions: 270000003 cycles: 139781681 heartbeat IPC: 2.0386 cumulative IPC: 0.500781 (Simulation time: 0 hr 54 min 14 sec) 
Heartbeat CPU 3 instructions: 310000000 cycles: 140962837 heartbeat IPC: 2.19428 cumulative IPC: 0.780348 (Simulation time: 0 hr 54 min 43 sec) 
Heartbeat CPU 2 instructions: 260000000 cycles: 143631355 heartbeat IPC: 1.86666 cumulative IPC: 0.417736 (Simulation time: 0 hr 55 min 48 sec) 
Heartbeat CPU 0 instructions: 190000000 cycles: 144638937 heartbeat IPC: 1.31729 cumulative IPC: 1.31362 (Simulation time: 0 hr 56 min 12 sec) 
Heartbeat CPU 1 instructions: 280000000 cycles: 144811345 heartbeat IPC: 1.9882 cumulative IPC: 0.552443 (Simulation time: 0 hr 56 min 16 sec) 
Heartbeat CPU 3 instructions: 320000000 cycles: 145649145 heartbeat IPC: 2.13388 cumulative IPC: 0.823898 (Simulation time: 0 hr 56 min 35 sec) 
Heartbeat CPU 2 instructions: 270000001 cycles: 148633412 heartbeat IPC: 1.99918 cumulative IPC: 0.470957 (Simulation time: 0 hr 57 min 41 sec) 
Heartbeat CPU 1 instructions: 290000000 cycles: 149840266 heartbeat IPC: 1.9885 cumulative IPC: 0.60064 (Simulation time: 0 hr 58 min 6 sec) 
Heartbeat CPU 3 instructions: 330000000 cycles: 150216959 heartbeat IPC: 2.18923 cumulative IPC: 0.865415 (Simulation time: 0 hr 58 min 15 sec) 
Heartbeat CPU 0 instructions: 200000000 cycles: 152281501 heartbeat IPC: 1.30846 cumulative IPC: 1.31336 (Simulation time: 0 hr 59 min 2 sec) 

Warmup complete CPU 0 instructions: 200000001 cycles: 152281516 (Simulation time: 0 hr 59 min 2 sec) 
Warmup complete CPU 1 instructions: 294854585 cycles: 152281515 (Simulation time: 0 hr 59 min 2 sec) 
Warmup complete CPU 2 instructions: 276040962 cycles: 152281515 (Simulation time: 0 hr 59 min 2 sec) 
Warmup complete CPU 3 instructions: 334352224 cycles: 152281515 (Simulation time: 0 hr 59 min 2 sec) 

Heartbeat CPU 2 instructions: 280000000 cycles: 156353990 heartbeat IPC: 1.29524 cumulative IPC: 0.972145 (Simulation time: 0 hr 59 min 43 sec) 
Heartbeat CPU 1 instructions: 300000000 cycles: 157212617 heartbeat IPC: 1.35642 cumulative IPC: 1.04346 (Simulation time: 0 hr 59 min 52 sec) 
Heartbeat CPU 2 instructions: 290000001 cycles: 166565350 heartbeat IPC: 0.979302 cumulative IPC: 0.977261 (Simulation time: 1 hr 1 min 32 sec) 
Heartbeat CPU 1 instructions: 310000001 cycles: 166791241 heartbeat IPC: 1.04399 cumulative IPC: 1.04381 (Simulation time: 1 hr 1 min 34 sec) 
Heartbeat CPU 3 instructions: 340000000 cycles: 171827132 heartbeat IPC: 0.462745 cumulative IPC: 0.288954 (Simulation time: 1 hr 2 min 27 sec) 
Heartbeat CPU 0 instructions: 210000000 cycles: 172308546 heartbeat IPC: 0.499325 cumulative IPC: 0.499325 (Simulation time: 1 hr 2 min 32 sec) 
Heartbeat CPU 1 instructions: 320000000 cycles: 176365748 heartbeat IPC: 1.04444 cumulative IPC: 1.04406 (Simulation time: 1 hr 3 min 13 sec) 
Heartbeat CPU 2 instructions: 300000000 cycles: 179283892 heartbeat IPC: 0.786254 cumulative IPC: 0.887294 (Simulation time: 1 hr 3 min 42 sec) 
Heartbeat CPU 1 instructions: 330000000 cycles: 185879485 heartbeat IPC: 1.05111 cumulative IPC: 1.04606 (Simulation time: 1 hr 4 min 50 sec) 
Heartbeat CPU 2 instructions: 310000002 cycles: 193276640 heartbeat IPC: 0.714656 cumulative IPC: 0.828368 (Simulation time: 1 hr 6 min 5 sec) 
Heartbeat CPU 1 instructions: 340000000 cycles: 194317426 heartbeat IPC: 1.18512 cumulative IPC: 1.07397 (Simulation time: 1 hr 6 min 13 sec) 
Heartbeat CPU 3 instructions: 350000000 cycles: 198457481 heartbeat IPC: 0.375511 cumulative IPC: 0.338873 (Simulation time: 1 hr 6 min 48 sec) 
Heartbeat CPU 0 instructions: 220000000 cycles: 199776225 heartbeat IPC: 0.364064 cumulative IPC: 0.4211 (Simulation time: 1 hr 6 min 59 sec) 
Heartbeat CPU 1 instructions: 350000002 cycles: 202847531 heartbeat IPC: 1.17232 cumulative IPC: 1.09056 (Simulation time: 1 hr 7 min 26 sec) 
Heartbeat CPU 2 instructions: 320000000 cycles: 205440778 heartbeat IPC: 0.822088 cumulative IPC: 0.826931 (Simulation time: 1 hr 7 min 50 sec) 
Heartbeat CPU 1 instructions: 360000000 cycles: 212366853 heartbeat IPC: 1.05049 cumulative IPC: 1.08421 (Simulation time: 1 hr 9 min 3 sec) 
Heartbeat CPU 2 instructions: 330000000 cycles: 215736142 heartbeat IPC: 0.971311 cumulative IPC: 0.850356 (Simulation time: 1 hr 9 min 41 sec) 
Heartbeat CPU 1 instructions: 370000002 cycles: 223189402 heartbeat IPC: 0.923997 cumulative IPC: 1.05976 (Simulation time: 1 hr 11 min 10 sec) 
Heartbeat CPU 0 instructions: 230000000 cycles: 226851184 heartbeat IPC: 0.369345 cumulative IPC: 0.402308 (Simulation time: 1 hr 11 min 47 sec) 
Heartbeat CPU 2 instructions: 340000000 cycles: 227645968 heartbeat IPC: 0.839643 cumulative IPC: 0.848663 (Simulation time: 1 hr 11 min 55 sec) 
Heartbeat CPU 3 instructions: 360000000 cycles: 233671081 heartbeat IPC: 0.283981 cumulative IPC: 0.315124 (Simulation time: 1 hr 12 min 56 sec) 
Heartbeat CPU 1 instructions: 380000000 cycles: 233898127 heartbeat IPC: 0.933818 cumulative IPC: 1.04324 (Simulation time: 1 hr 12 min 59 sec) 
Heartbeat CPU 2 instructions: 350000000 cycles: 241735653 heartbeat IPC: 0.709739 cumulative IPC: 0.826782 (Simulation time: 1 hr 14 min 16 sec) 
Heartbeat CPU 1 instructions: 390000002 cycles: 244590017 heartbeat IPC: 0.935289 cumulative IPC: 1.03073 (Simulation time: 1 hr 14 min 45 sec) 
Heartbeat CPU 0 instructions: 240000000 cycles: 247054776 heartbeat IPC: 0.494962 cumulative IPC: 0.42206 (Simulation time: 1 hr 15 min 9 sec) 
Heartbeat CPU 1 instructions: 400000000 cycles: 254169610 heartbeat IPC: 1.04389 cumulative IPC: 1.03197 (Simulation time: 1 hr 16 min 17 sec) 
Heartbeat CPU 2 instructions: 360000000 cycles: 254612920 heartbeat IPC: 0.776562 cumulative IPC: 0.820462 (Simulation time: 1 hr 16 min 21 sec) 
Heartbeat CPU 1 instructions: 410000003 cycles: 263086077 heartbeat IPC: 1.12152 cumulative IPC: 1.03918 (Simulation time: 1 hr 17 min 39 sec) 
Heartbeat CPU 2 instructions: 370000001 cycles: 264854235 heartbeat IPC: 0.976437 cumulative IPC: 0.834652 (Simulation time: 1 hr 17 min 56 sec) 
Heartbeat CPU 3 instructions: 370000001 cycles: 265922500 heartbeat IPC: 0.310064 cumulative IPC: 0.313688 (Simulation time: 1 hr 18 min 6 sec) 
Heartbeat CPU 1 instructions: 420000000 cycles: 272001645 heartbeat IPC: 1.12163 cumulative IPC: 1.04532 (Simulation time: 1 hr 19 min 12 sec) 
Heartbeat CPU 2 instructions: 380000000 cycles: 275882761 heartbeat IPC: 0.906739 cumulative IPC: 0.841084 (Simulation time: 1 hr 19 min 55 sec) 
Heartbeat CPU 1 instructions: 430000003 cycles: 280887651 heartbeat IPC: 1.12537 cumulative IPC: 1.05085 (Simulation time: 1 hr 20 min 48 sec) 
Heartbeat CPU 0 instructions: 250000003 cycles: 281575487 heartbeat IPC: 0.289681 cumulative IPC: 0.386716 (Simulation time: 1 hr 20 min 56 sec) 
Heartbeat CPU 2 instructions: 390000002 cycles: 289695332 heartbeat IPC: 0.723978 cumulative IPC: 0.829313 (Simulation time: 1 hr 22 min 22 sec) 
Heartbeat CPU 1 instructions: 440000000 cycles: 289771095 heartbeat IPC: 1.12569 cumulative IPC: 1.05568 (Simulation time: 1 hr 22 min 23 sec) 
Heartbeat CPU 3 instructions: 380000000 cycles: 295000804 heartbeat IPC: 0.343899 cumulative IPC: 0.319843 (Simulation time: 1 hr 23 min 19 sec) 
Heartbeat CPU 1 instructions: 450000000 cycles: 298652687 heartbeat IPC: 1.12592 cumulative IPC: 1.05995 (Simulation time: 1 hr 23 min 58 sec) 
Heartbeat CPU 0 instructions: 260000000 cycles: 301866875 heartbeat IPC: 0.49282 cumulative IPC: 0.401109 (Simulation time: 1 hr 24 min 33 sec) 
Heartbeat CPU 2 instructions: 400000000 cycles: 302897591 heartbeat IPC: 0.757446 cumulative IPC: 0.823013 (Simulation time: 1 hr 24 min 45 sec) 
Heartbeat CPU 1 instructions: 460000000 cycles: 307522616 heartbeat IPC: 1.1274 cumulative IPC: 1.0638 (Simulation time: 1 hr 25 min 40 sec) 
Heartbeat CPU 2 instructions: 410000001 cycles: 312958107 heartbeat IPC: 0.993985 cumulative IPC: 0.833718 (Simulation time: 1 hr 26 min 38 sec) 
Heartbeat CPU 1 instructions: 470000003 cycles: 316423042 heartbeat IPC: 1.12354 cumulative IPC: 1.06704 (Simulation time: 1 hr 27 min 11 sec) 
Heartbeat CPU 3 instructions: 390000001 cycles: 322213272 heartbeat IPC: 0.367479 cumulative IPC: 0.327471 (Simulation time: 1 hr 28 min 5 sec) 
Heartbeat CPU 2 instructions: 420000000 cycles: 323277028 heartbeat IPC: 0.969094 cumulative IPC: 0.841888 (Simulation time: 1 hr 28 min 14 sec) 
Heartbeat CPU 1 instructions: 480000000 cycles: 325334805 heartbeat IPC: 1.12211 cumulative IPC: 1.06988 (Simulation time: 1 hr 28 min 32 sec) 
Heartbeat CPU 1 instructions: 490000001 cycles: 334221713 heartbeat IPC: 1.12525 cumulative IPC: 1.07258 (Simulation time: 1 hr 30 min 4 sec) 
Heartbeat CPU 0 instructions: 270000002 cycles: 336223627 heartbeat IPC: 0.291064 cumulative IPC: 0.380555 (Simulation time: 1 hr 30 min 25 sec) 
Heartbeat CPU 2 instructions: 430000003 cycles: 337019862 heartbeat IPC: 0.727652 cumulative IPC: 0.83339 (Simulation time: 1 hr 30 min 34 sec) 
Heartbeat CPU 1 instructions: 500000000 cycles: 343095053 heartbeat IPC: 1.12697 cumulative IPC: 1.07511 (Simulation time: 1 hr 31 min 40 sec) 
Heartbeat CPU 2 instructions: 440000000 cycles: 349889072 heartbeat IPC: 0.777048 cumulative IPC: 0.82972 (Simulation time: 1 hr 32 min 53 sec) 
Heartbeat CPU 3 instructions: 400000000 cycles: 351255565 heartbeat IPC: 0.344325 cumulative IPC: 0.329931 (Simulation time: 1 hr 33 min 9 sec) 
Heartbeat CPU 1 instructions: 510000000 cycles: 351966393 heartbeat IPC: 1.12723 cumulative IPC: 1.07742 (Simulation time: 1 hr 33 min 18 sec) 
Heartbeat CPU 0 instructions: 280000000 cycles: 356763544 heartbeat IPC: 0.486857 cumulative IPC: 0.391232 (Simulation time: 1 hr 34 min 15 sec) 
Heartbeat CPU 2 instructions: 450000003 cycles: 358017693 heartbeat IPC: 1.23022 cumulative IPC: 0.845544 (Simulation time: 1 hr 34 min 29 sec) 
Heartbeat CPU 1 instructions: 520000000 cycles: 360856078 heartbeat IPC: 1.1249 cumulative IPC: 1.07945 (Simulation time: 1 hr 35 min 3 sec) 
Heartbeat CPU 2 instructions: 460000000 cycles: 366138335 heartbeat IPC: 1.23143 cumulative IPC: 0.860197 (Simulation time: 1 hr 36 min 6 sec) 
Heartbeat CPU 1 instructions: 530000002 cycles: 369741579 heartbeat IPC: 1.12543 cumulative IPC: 1.08133 (Simulation time: 1 hr 36 min 49 sec) 
Heartbeat CPU 2 instructions: 470000001 cycles: 374246019 heartbeat IPC: 1.2334 cumulative IPC: 0.873829 (Simulation time: 1 hr 37 min 32 sec) 
Heartbeat CPU 1 instructions: 540000000 cycles: 378655548 heartbeat IPC: 1.12183 cumulative IPC: 1.08292 (Simulation time: 1 hr 38 min 9 sec) 
Heartbeat CPU 3 instructions: 410000002 cycles: 379356658 heartbeat IPC: 0.355858 cumulative IPC: 0.33314 (Simulation time: 1 hr 38 min 15 sec) 
Heartbeat CPU 2 instructions: 480000000 cycles: 387621168 heartbeat IPC: 0.747655 cumulative IPC: 0.866658 (Simulation time: 1 hr 39 min 20 sec) 
Heartbeat CPU 1 instructions: 550000000 cycles: 388410386 heartbeat IPC: 1.02513 cumulative IPC: 1.08053 (Simulation time: 1 hr 39 min 28 sec) 
Heartbeat CPU 0 instructions: 290000001 cycles: 391209754 heartbeat IPC: 0.290308 cumulative IPC: 0.376682 (Simulation time: 1 hr 39 min 58 sec) 
Heartbeat CPU 1 instructions: 560000000 cycles: 398186713 heartbeat IPC: 1.02288 cumulative IPC: 1.07824 (Simulation time: 1 hr 41 min 10 sec) 
Heartbeat CPU 2 instructions: 490000000 cycles: 401349293 heartbeat IPC: 0.728432 cumulative IPC: 0.859039 (Simulation time: 1 hr 41 min 42 sec) 
Heartbeat CPU 1 instructions: 570000003 cycles: 407960743 heartbeat IPC: 1.02312 cumulative IPC: 1.07614 (Simulation time: 1 hr 42 min 59 sec) 
Heartbeat CPU 3 instructions: 420000000 cycles: 408311627 heartbeat IPC: 0.345364 cumulative IPC: 0.334522 (Simulation time: 1 hr 43 min 3 sec) 
Heartbeat CPU 2 instructions: 500000000 cycles: 409387046 heartbeat IPC: 1.24413 cumulative IPC: 0.871078 (Simulation time: 1 hr 43 min 15 sec) 
Heartbeat CPU 0 instructions: 300000000 cycles: 411506116 heartbeat IPC: 0.492699 cumulative IPC: 0.385766 (Simulation time: 1 hr 43 min 40 sec) 
Heartbeat CPU 2 instructions: 510000002 cycles: 417423741 heartbeat IPC: 1.24429 cumulative IPC: 0.882391 (Simulation time: 1 hr 44 min 48 sec) 
Heartbeat CPU 1 instructions: 580000000 cycles: 417731151 heartbeat IPC: 1.0235 cumulative IPC: 1.0742 (Simulation time: 1 hr 44 min 52 sec) 
Heartbeat CPU 2 instructions: 520000000 cycles: 425413798 heartbeat IPC: 1.25156 cumulative IPC: 0.89319 (Simulation time: 1 hr 46 min 21 sec) 
Heartbeat CPU 1 instructions: 590000000 cycles: 427506563 heartbeat IPC: 1.02297 cumulative IPC: 1.07238 (Simulation time: 1 hr 46 min 45 sec) 
Heartbeat CPU 2 instructions: 530000001 cycles: 436403769 heartbeat IPC: 0.909921 cumulative IPC: 0.893837 (Simulation time: 1 hr 48 min 3 sec) 
Heartbeat CPU 1 instructions: 600000000 cycles: 436445079 heartbeat IPC: 1.11875 cumulative IPC: 1.07384 (Simulation time: 1 hr 48 min 3 sec) 
Heartbeat CPU 3 instructions: 430000000 cycles: 442307452 heartbeat IPC: 0.294154 cumulative IPC: 0.32979 (Simulation time: 1 hr 48 min 52 sec) 
Heartbeat CPU 0 instructions: 310000003 cycles: 442753015 heartbeat IPC: 0.320032 cumulative IPC: 0.378695 (Simulation time: 1 hr 48 min 55 sec) 
Heartbeat CPU 1 instructions: 610000001 cycles: 444916396 heartbeat IPC: 1.18045 cumulative IPC: 1.07692 (Simulation time: 1 hr 49 min 13 sec) 
Heartbeat CPU 2 instructions: 540000000 cycles: 449724999 heartbeat IPC: 0.750681 cumulative IPC: 0.887426 (Simulation time: 1 hr 50 min 0 sec) 
Heartbeat CPU 1 instructions: 620000000 cycles: 454779934 heartbeat IPC: 1.01383 cumulative IPC: 1.07487 (Simulation time: 1 hr 50 min 55 sec) 
Heartbeat CPU 2 instructions: 550000002 cycles: 459927947 heartbeat IPC: 0.980109 cumulative IPC: 0.8905 (Simulation time: 1 hr 51 min 52 sec) 
Heartbeat CPU 1 instructions: 630000000 cycles: 465518218 heartbeat IPC: 0.931247 cumulative IPC: 1.06994 (Simulation time: 1 hr 52 min 53 sec) 
Heartbeat CPU 0 instructions: 320000000 cycles: 466011174 heartbeat IPC: 0.429957 cumulative IPC: 0.382495 (Simulation time: 1 hr 52 min 59 sec) 
Heartbeat CPU 2 instructions: 560000000 cycles: 470158707 heartbeat IPC: 0.977444 cumulative IPC: 0.893298 (Simulation time: 1 hr 53 min 44 sec) 
Heartbeat CPU 3 instructions: 440000000 cycles: 471402379 heartbeat IPC: 0.343703 cumulative IPC: 0.331059 (Simulation time: 1 hr 53 min 58 sec) 
Heartbeat CPU 1 instructions: 640000000 cycles: 476258018 heartbeat IPC: 0.931116 cumulative IPC: 1.06534 (Simulation time: 1 hr 54 min 47 sec) 
Heartbeat CPU 2 instructions: 570000002 cycles: 483666195 heartbeat IPC: 0.74033 cumulative IPC: 0.887063 (Simulation time: 1 hr 56 min 3 sec) 
Heartbeat CPU 0 instructions: 330000001 cycles: 486251142 heartbeat IPC: 0.494072 cumulative IPC: 0.389257 (Simulation time: 1 hr 56 min 31 sec) 
Heartbeat CPU 1 instructions: 650000001 cycles: 486284590 heartbeat IPC: 0.99735 cumulative IPC: 1.0633 (Simulation time: 1 hr 56 min 31 sec) 
Heartbeat CPU 1 instructions: 660000000 cycles: 495212716 heartbeat IPC: 1.12006 cumulative IPC: 1.06478 (Simulation time: 1 hr 57 min 54 sec) 
Heartbeat CPU 2 instructions: 580000000 cycles: 497524750 heartbeat IPC: 0.721576 cumulative IPC: 0.88042 (Simulation time: 1 hr 58 min 13 sec) 
Heartbeat CPU 3 instructions: 450000002 cycles: 499563276 heartbeat IPC: 0.355102 cumulative IPC: 0.333008 (Simulation time: 1 hr 58 min 31 sec) 
Heartbeat CPU 1 instructions: 670000000 cycles: 504169489 heartbeat IPC: 1.11647 cumulative IPC: 1.06609 (Simulation time: 1 hr 59 min 13 sec) 
Heartbeat CPU 2 instructions: 590000003 cycles: 508095618 heartbeat IPC: 0.945996 cumulative IPC: 0.882368 (Simulation time: 1 hr 59 min 55 sec) 
Heartbeat CPU 1 instructions: 680000000 cycles: 513114323 heartbeat IPC: 1.11796 cumulative IPC: 1.06738 (Simulation time: 2 hr 0 min 52 sec) 
Heartbeat CPU 2 instructions: 600000000 cycles: 518280348 heartbeat IPC: 0.981862 cumulative IPC: 0.885137 (Simulation time: 2 hr 1 min 52 sec) 
Heartbeat CPU 0 instructions: 340000000 cycles: 520654409 heartbeat IPC: 0.29067 cumulative IPC: 0.38005 (Simulation time: 2 hr 2 min 20 sec) 
Heartbeat CPU 1 instructions: 690000001 cycles: 522073659 heartbeat IPC: 1.11615 cumulative IPC: 1.06856 (Simulation time: 2 hr 2 min 35 sec) 
Heartbeat CPU 3 instructions: 460000000 cycles: 528411403 heartbeat IPC: 0.346643 cumulative IPC: 0.334054 (Simulation time: 2 hr 3 min 42 sec) 
Heartbeat CPU 1 instructions: 700000000 cycles: 531007892 heartbeat IPC: 1.11929 cumulative IPC: 1.06976 (Simulation time: 2 hr 4 min 8 sec) 
Heartbeat CPU 2 instructions: 610000003 cycles: 531223003 heartbeat IPC: 0.772639 cumulative IPC: 0.881294 (Simulation time: 2 hr 4 min 10 sec) 
Heartbeat CPU 1 instructions: 710000002 cycles: 539926299 heartbeat IPC: 1.12128 cumulative IPC: 1.07094 (Simulation time: 2 hr 5 min 42 sec) 
Heartbeat CPU 0 instructions: 350000003 cycles: 540915663 heartbeat IPC: 0.493553 cumulative IPC: 0.385967 (Simulation time: 2 hr 5 min 52 sec) 
Heartbeat CPU 2 instructions: 620000000 cycles: 545016813 heartbeat IPC: 0.724963 cumulative IPC: 0.875804 (Simulation time: 2 hr 6 min 33 sec) 
Heartbeat CPU 1 instructions: 720000000 cycles: 548855407 heartbeat IPC: 1.11993 cumulative IPC: 1.07205 (Simulation time: 2 hr 7 min 14 sec) 
Heartbeat CPU 2 instructions: 630000003 cycles: 555702319 heartbeat IPC: 0.935847 cumulative IPC: 0.877394 (Simulation time: 2 hr 8 min 15 sec) 
Heartbeat CPU 1 instructions: 730000002 cycles: 557794179 heartbeat IPC: 1.11872 cumulative IPC: 1.07307 (Simulation time: 2 hr 8 min 34 sec) 
Heartbeat CPU 3 instructions: 470000003 cycles: 564065371 heartbeat IPC: 0.280474 cumulative IPC: 0.329415 (Simulation time: 2 hr 9 min 32 sec) 
Heartbeat CPU 2 instructions: 640000000 cycles: 565938510 heartbeat IPC: 0.976926 cumulative IPC: 0.879857 (Simulation time: 2 hr 9 min 50 sec) 
Heartbeat CPU 1 instructions: 740000000 cycles: 566766230 heartbeat IPC: 1.11457 cumulative IPC: 1.07397 (Simulation time: 2 hr 9 min 59 sec) 
Heartbeat CPU 0 instructions: 360000000 cycles: 575328182 heartbeat IPC: 0.290592 cumulative IPC: 0.378209 (Simulation time: 2 hr 11 min 49 sec) 
Heartbeat CPU 1 instructions: 750000001 cycles: 575709971 heartbeat IPC: 1.1181 cumulative IPC: 1.07491 (Simulation time: 2 hr 11 min 54 sec) 
Heartbeat CPU 2 instructions: 650000002 cycles: 579012048 heartbeat IPC: 0.764904 cumulative IPC: 0.876335 (Simulation time: 2 hr 12 min 36 sec) 
Heartbeat CPU 1 instructions: 760000000 cycles: 584629859 heartbeat IPC: 1.12109 cumulative IPC: 1.07586 (Simulation time: 2 hr 13 min 51 sec) 
Heartbeat CPU 2 instructions: 660000000 cycles: 592793119 heartbeat IPC: 0.725633 cumulative IPC: 0.871621 (Simulation time: 2 hr 15 min 20 sec) 
Heartbeat CPU 1 instructions: 770000000 cycles: 593527189 heartbeat IPC: 1.12393 cumulative IPC: 1.07683 (Simulation time: 2 hr 15 min 28 sec) 
Heartbeat CPU 0 instructions: 370000000 cycles: 595573060 heartbeat IPC: 0.493952 cumulative IPC: 0.383495 (Simulation time: 2 hr 15 min 49 sec) 
Heartbeat CPU 3 instructions: 480000000 cycles: 596071443 heartbeat IPC: 0.312441 cumulative IPC: 0.328191 (Simulation time: 2 hr 15 min 54 sec) 
Heartbeat CPU 1 instructions: 780000000 cycles: 602441237 heartbeat IPC: 1.12182 cumulative IPC: 1.07772 (Simulation time: 2 hr 17 min 6 sec) 
Heartbeat CPU 2 instructions: 670000002 cycles: 603919834 heartbeat IPC: 0.898738 cumulative IPC: 0.872289 (Simulation time: 2 hr 17 min 24 sec) 
Heartbeat CPU 1 instructions: 790000003 cycles: 611383823 heartbeat IPC: 1.11825 cumulative IPC: 1.07851 (Simulation time: 2 hr 18 min 48 sec) 
Heartbeat CPU 2 instructions: 680000000 cycles: 614202626 heartbeat IPC: 0.972498 cumulative IPC: 0.87452 (Simulation time: 2 hr 19 min 14 sec) 
Heartbeat CPU 1 instructions: 800000000 cycles: 620505724 heartbeat IPC: 1.09626 cumulative IPC: 1.07885 (Simulation time: 2 hr 20 min 13 sec) 
Heartbeat CPU 2 instructions: 690000000 cycles: 627083489 heartbeat IPC: 0.776345 cumulative IPC: 0.871856 (Simulation time: 2 hr 21 min 13 sec) 
Heartbeat CPU 0 instructions: 380000000 cycles: 629779246 heartbeat IPC: 0.292345 cumulative IPC: 0.376965 (Simulation time: 2 hr 21 min 40 sec) 
Heartbeat CPU 1 instructions: 810000003 cycles: 631110257 heartbeat IPC: 0.942993 cumulative IPC: 1.07584 (Simulation time: 2 hr 21 min 54 sec) 
Heartbeat CPU 3 instructions: 490000002 cycles: 634240128 heartbeat IPC: 0.261995 cumulative IPC: 0.322948 (Simulation time: 2 hr 22 min 27 sec) 
Heartbeat CPU 2 instructions: 700000000 cycles: 641257427 heartbeat IPC: 0.70552 cumulative IPC: 0.867035 (Simulation time: 2 hr 23 min 40 sec) 
Heartbeat CPU 1 instructions: 820000000 cycles: 641746951 heartbeat IPC: 0.940141 cumulative IPC: 1.0729 (Simulation time: 2 hr 23 min 45 sec) 
Heartbeat CPU 0 instructions: 390000003 cycles: 650478813 heartbeat IPC: 0.483102 cumulative IPC: 0.381375 (Simulation time: 2 hr 25 min 9 sec) 
Heartbeat CPU 1 instructions: 830000002 cycles: 652294422 heartbeat IPC: 0.948095 cumulative IPC: 1.07026 (Simulation time: 2 hr 25 min 28 sec) 
Heartbeat CPU 2 instructions: 710000000 cycles: 653269154 heartbeat IPC: 0.83252 cumulative IPC: 0.866207 (Simulation time: 2 hr 25 min 38 sec) 
Heartbeat CPU 1 instructions: 840000000 cycles: 663017041 heartbeat IPC: 0.932608 cumulative IPC: 1.06737 (Simulation time: 2 hr 27 min 21 sec) 
Heartbeat CPU 2 instructions: 720000000 cycles: 663570973 heartbeat IPC: 0.970702 cumulative IPC: 0.868313 (Simulation time: 2 hr 27 min 27 sec) 
Heartbeat CPU 3 instructions: 500000000 cycles: 671473499 heartbeat IPC: 0.268576 cumulative IPC: 0.319049 (Simulation time: 2 hr 28 min 39 sec) 
Heartbeat CPU 1 instructions: 850000002 cycles: 674875510 heartbeat IPC: 0.843279 cumulative IPC: 1.06229 (Simulation time: 2 hr 29 min 5 sec) 
Heartbeat CPU 2 instructions: 730000003 cycles: 675747267 heartbeat IPC: 0.821268 cumulative IPC: 0.867218 (Simulation time: 2 hr 29 min 13 sec) 
Heartbeat CPU 1 instructions: 860000000 cycles: 683457914 heartbeat IPC: 1.16517 cumulative IPC: 1.06395 (Simulation time: 2 hr 30 min 21 sec) 
Heartbeat CPU 0 instructions: 400000000 cycles: 684795924 heartbeat IPC: 0.2914 cumulative IPC: 0.375577 (Simulation time: 2 hr 30 min 33 sec) 
Heartbeat CPU 2 instructions: 740000000 cycles: 690119318 heartbeat IPC: 0.695795 cumulative IPC: 0.862637 (Simulation time: 2 hr 31 min 34 sec) 
Heartbeat CPU 1 instructions: 870000001 cycles: 692614104 heartbeat IPC: 1.09216 cumulative IPC: 1.06443 (Simulation time: 2 hr 32 min 2 sec) 
Heartbeat CPU 1 instructions: 880000000 cycles: 701786487 heartbeat IPC: 1.09023 cumulative IPC: 1.06486 (Simulation time: 2 hr 33 min 41 sec) 
Heartbeat CPU 2 instructions: 750000000 cycles: 702696607 heartbeat IPC: 0.795084 cumulative IPC: 0.861094 (Simulation time: 2 hr 33 min 51 sec) 
Heartbeat CPU 3 instructions: 510000000 cycles: 702871371 heartbeat IPC: 0.318493 cumulative IPC: 0.319017 (Simulation time: 2 hr 33 min 53 sec) 
Heartbeat CPU 0 instructions: 410000001 cycles: 704931733 heartbeat IPC: 0.496628 cumulative IPC: 0.379987 (Simulation time: 2 hr 34 min 16 sec) 
Heartbeat CPU 1 instructions: 890000000 cycles: 710959428 heartbeat IPC: 1.09016 cumulative IPC: 1.06527 (Simulation time: 2 hr 35 min 24 sec) 
Heartbeat CPU 2 instructions: 760000000 cycles: 713015469 heartbeat IPC: 0.969099 cumulative IPC: 0.863081 (Simulation time: 2 hr 35 min 48 sec) 
Heartbeat CPU 1 instructions: 900000000 cycles: 720137518 heartbeat IPC: 1.08955 cumulative IPC: 1.06567 (Simulation time: 2 hr 37 min 10 sec) 
Heartbeat CPU 2 instructions: 770000001 cycles: 724285825 heartbeat IPC: 0.887284 cumulative IPC: 0.863558 (Simulation time: 2 hr 37 min 54 sec) 
Heartbeat CPU 0 instructions: 420000000 cycles: 725091506 heartbeat IPC: 0.496037 cumulative IPC: 0.384071 (Simulation time: 2 hr 38 min 2 sec) 
Heartbeat CPU 1 instructions: 910000003 cycles: 729319191 heartbeat IPC: 1.08913 cumulative IPC: 1.06604 (Simulation time: 2 hr 38 min 43 sec) 
Heartbeat CPU 3 instructions: 520000000 cycles: 731563999 heartbeat IPC: 0.348522 cumulative IPC: 0.320479 (Simulation time: 2 hr 39 min 2 sec) 
Heartbeat CPU 2 instructions: 780000000 cycles: 738460972 heartbeat IPC: 0.70546 cumulative IPC: 0.859735 (Simulation time: 2 hr 39 min 58 sec) 
Heartbeat CPU 1 instructions: 920000000 cycles: 738495459 heartbeat IPC: 1.08977 cumulative IPC: 1.06641 (Simulation time: 2 hr 39 min 58 sec) 
Heartbeat CPU 1 instructions: 930000003 cycles: 747668947 heartbeat IPC: 1.0901 cumulative IPC: 1.06678 (Simulation time: 2 hr 41 min 18 sec) 
Heartbeat CPU 2 instructions: 790000002 cycles: 751761590 heartbeat IPC: 0.751845 cumulative IPC: 0.857341 (Simulation time: 2 hr 42 min 2 sec) 
Heartbeat CPU 1 instructions: 940000000 cycles: 756198622 heartbeat IPC: 1.17238 cumulative IPC: 1.06827 (Simulation time: 2 hr 42 min 52 sec) 
Heartbeat CPU 0 instructions: 430000000 cycles: 759192712 heartbeat IPC: 0.293245 cumulative IPC: 0.378968 (Simulation time: 2 hr 43 min 25 sec) 
Heartbeat CPU 2 instructions: 800000000 cycles: 762009176 heartbeat IPC: 0.975839 cumulative IPC: 0.859333 (Simulation time: 2 hr 43 min 56 sec) 
Heartbeat CPU 1 instructions: 950000002 cycles: 764802051 heartbeat IPC: 1.16233 cumulative IPC: 1.06959 (Simulation time: 2 hr 44 min 26 sec) 
Heartbeat CPU 3 instructions: 530000002 cycles: 771403301 heartbeat IPC: 0.251008 cumulative IPC: 0.316009 (Simulation time: 2 hr 45 min 39 sec) 
Heartbeat CPU 2 instructions: 810000001 cycles: 772525984 heartbeat IPC: 0.950859 cumulative IPC: 0.860885 (Simulation time: 2 hr 45 min 51 sec) 
Heartbeat CPU 1 instructions: 960000000 cycles: 774098556 heartbeat IPC: 1.07567 cumulative IPC: 1.06968 (Simulation time: 2 hr 46 min 6 sec) 
Heartbeat CPU 0 instructions: 440000000 cycles: 779491459 heartbeat IPC: 0.492641 cumulative IPC: 0.382647 (Simulation time: 2 hr 47 min 3 sec) 
Heartbeat CPU 1 instructions: 970000000 cycles: 785016920 heartbeat IPC: 0.915888 cumulative IPC: 1.06703 (Simulation time: 2 hr 48 min 0 sec) 
Heartbeat CPU 2 instructions: 820000000 cycles: 786941145 heartbeat IPC: 0.693714 cumulative IPC: 0.857088 (Simulation time: 2 hr 48 min 20 sec) 
Heartbeat CPU 1 instructions: 980000000 cycles: 795885321 heartbeat IPC: 0.920099 cumulative IPC: 1.06455 (Simulation time: 2 hr 49 min 30 sec) 
Heartbeat CPU 2 instructions: 830000000 cycles: 800758443 heartbeat IPC: 0.723731 cumulative IPC: 0.854246 (Simulation time: 2 hr 50 min 7 sec) 
Heartbeat CPU 3 instructions: 540000000 cycles: 806322042 heartbeat IPC: 0.286379 cumulative IPC: 0.314427 (Simulation time: 2 hr 51 min 3 sec) 
Heartbeat CPU 1 instructions: 990000000 cycles: 806816271 heartbeat IPC: 0.914834 cumulative IPC: 1.06205 (Simulation time: 2 hr 51 min 9 sec) 
Heartbeat CPU 2 instructions: 840000000 cycles: 810888110 heartbeat IPC: 0.987199 cumulative IPC: 0.856291 (Simulation time: 2 hr 51 min 54 sec) 
Heartbeat CPU 0 instructions: 450000000 cycles: 813729384 heartbeat IPC: 0.292074 cumulative IPC: 0.377959 (Simulation time: 2 hr 52 min 27 sec) 
Heartbeat CPU 1 instructions: 1000000000 cycles: 816742648 heartbeat IPC: 1.00742 cumulative IPC: 1.06123 (Simulation time: 2 hr 53 min 1 sec) 
Heartbeat CPU 2 instructions: 850000000 cycles: 820984069 heartbeat IPC: 0.990495 cumulative IPC: 0.858317 (Simulation time: 2 hr 53 min 50 sec) 
Heartbeat CPU 1 instructions: 1010000003 cycles: 825604802 heartbeat IPC: 1.12839 cumulative IPC: 1.06211 (Simulation time: 2 hr 54 min 40 sec) 
Heartbeat CPU 0 instructions: 460000000 cycles: 833604215 heartbeat IPC: 0.503149 cumulative IPC: 0.381611 (Simulation time: 2 hr 56 min 8 sec) 
Heartbeat CPU 1 instructions: 1020000000 cycles: 834460287 heartbeat IPC: 1.12924 cumulative IPC: 1.06298 (Simulation time: 2 hr 56 min 17 sec) 
Heartbeat CPU 2 instructions: 860000000 cycles: 834675085 heartbeat IPC: 0.730406 cumulative IPC: 0.855751 (Simulation time: 2 hr 56 min 20 sec) 
Heartbeat CPU 3 instructions: 550000003 cycles: 838276415 heartbeat IPC: 0.312946 cumulative IPC: 0.314358 (Simulation time: 2 hr 56 min 59 sec) 
Heartbeat CPU 1 instructions: 1030000002 cycles: 843308273 heartbeat IPC: 1.1302 cumulative IPC: 1.06385 (Simulation time: 2 hr 57 min 53 sec) 
Heartbeat CPU 2 instructions: 870000000 cycles: 848070171 heartbeat IPC: 0.746542 cumulative IPC: 0.853649 (Simulation time: 2 hr 58 min 39 sec) 
Heartbeat CPU 1 instructions: 1040000000 cycles: 852159037 heartbeat IPC: 1.12985 cumulative IPC: 1.06468 (Simulation time: 2 hr 59 min 16 sec) 
Heartbeat CPU 2 instructions: 880000000 cycles: 858223589 heartbeat IPC: 0.98489 cumulative IPC: 0.855536 (Simulation time: 3 hr 0 min 9 sec) 
Heartbeat CPU 1 instructions: 1050000003 cycles: 861028750 heartbeat IPC: 1.12743 cumulative IPC: 1.06547 (Simulation time: 3 hr 0 min 34 sec) 
Heartbeat CPU 0 instructions: 470000000 cycles: 867416778 heartbeat IPC: 0.295748 cumulative IPC: 0.377551 (Simulation time: 3 hr 1 min 43 sec) 
Heartbeat CPU 2 instructions: 890000003 cycles: 868349065 heartbeat IPC: 0.987608 cumulative IPC: 0.857404 (Simulation time: 3 hr 1 min 54 sec) 
Heartbeat CPU 1 instructions: 1060000000 cycles: 869891306 heartbeat IPC: 1.12834 cumulative IPC: 1.06624 (Simulation time: 3 hr 2 min 10 sec) 
Heartbeat CPU 3 instructions: 560000000 cycles: 875052360 heartbeat IPC: 0.271917 cumulative IPC: 0.312198 (Simulation time: 3 hr 3 min 4 sec) 
Heartbeat CPU 1 instructions: 1070000003 cycles: 878729688 heartbeat IPC: 1.13143 cumulative IPC: 1.06703 (Simulation time: 3 hr 3 min 43 sec) 
Heartbeat CPU 2 instructions: 900000000 cycles: 882242712 heartbeat IPC: 0.719753 cumulative IPC: 0.854784 (Simulation time: 3 hr 4 min 21 sec) 
Heartbeat CPU 0 instructions: 480000000 cycles: 887288686 heartbeat IPC: 0.503223 cumulative IPC: 0.380949 (Simulation time: 3 hr 5 min 14 sec) 
Heartbeat CPU 1 instructions: 1080000000 cycles: 887577422 heartbeat IPC: 1.13023 cumulative IPC: 1.0678 (Simulation time: 3 hr 5 min 17 sec) 
Heartbeat CPU 2 instructions: 910000002 cycles: 895866979 heartbeat IPC: 0.733985 cumulative IPC: 0.852571 (Simulation time: 3 hr 6 min 43 sec) 
Heartbeat CPU 1 instructions: 1090000003 cycles: 896398566 heartbeat IPC: 1.13364 cumulative IPC: 1.06858 (Simulation time: 3 hr 6 min 48 sec) 
Heartbeat CPU 3 instructions: 570000003 cycles: 902805935 heartbeat IPC: 0.360314 cumulative IPC: 0.313978 (Simulation time: 3 hr 8 min 2 sec) 
Heartbeat CPU 2 instructions: 920000000 cycles: 903915187 heartbeat IPC: 1.24251 cumulative IPC: 0.856746 (Simulation time: 3 hr 8 min 15 sec) 
Heartbeat CPU 1 instructions: 1100000000 cycles: 905257477 heartbeat IPC: 1.12881 cumulative IPC: 1.06928 (Simulation time: 3 hr 8 min 30 sec) 
Heartbeat CPU 2 instructions: 930000001 cycles: 912003136 heartbeat IPC: 1.23641 cumulative IPC: 0.860788 (Simulation time: 3 hr 9 min 31 sec) 
Heartbeat CPU 1 instructions: 1110000000 cycles: 914111969 heartbeat IPC: 1.12937 cumulative IPC: 1.06998 (Simulation time: 3 hr 9 min 51 sec) 
Heartbeat CPU 2 instructions: 940000000 cycles: 920060896 heartbeat IPC: 1.24104 cumulative IPC: 0.864778 (Simulation time: 3 hr 10 min 45 sec) 
Heartbeat CPU 0 instructions: 490000003 cycles: 921502419 heartbeat IPC: 0.29228 cumulative IPC: 0.377005 (Simulation time: 3 hr 11 min 0 sec) 
Heartbeat CPU 1 instructions: 1120000000 cycles: 922985842 heartbeat IPC: 1.1269 cumulative IPC: 1.07064 (Simulation time: 3 hr 11 min 17 sec) 
Heartbeat CPU 1 instructions: 1130000002 cycles: 931845128 heartbeat IPC: 1.12876 cumulative IPC: 1.0713 (Simulation time: 3 hr 12 min 54 sec) 
Heartbeat CPU 3 instructions: 580000000 cycles: 932148658 heartbeat IPC: 0.3408 cumulative IPC: 0.314987 (Simulation time: 3 hr 12 min 57 sec) 
Heartbeat CPU 2 instructions: 950000002 cycles: 932323194 heartbeat IPC: 0.815508 cumulative IPC: 0.864004 (Simulation time: 3 hr 12 min 59 sec) 
Heartbeat CPU 1 instructions: 1140000000 cycles: 940701890 heartbeat IPC: 1.12908 cumulative IPC: 1.07195 (Simulation time: 3 hr 14 min 31 sec) 
Heartbeat CPU 0 instructions: 500000000 cycles: 941534972 heartbeat IPC: 0.499187 cumulative IPC: 0.380106 (Simulation time: 3 hr 14 min 39 sec) 
Heartbeat CPU 2 instructions: 960000000 cycles: 946198328 heartbeat IPC: 0.720714 cumulative IPC: 0.8615 (Simulation time: 3 hr 15 min 27 sec) 
Heartbeat CPU 1 instructions: 1150000000 cycles: 949942049 heartbeat IPC: 1.08223 cumulative IPC: 1.07207 (Simulation time: 3 hr 16 min 7 sec) 
Heartbeat CPU 2 instructions: 970000002 cycles: 954713702 heartbeat IPC: 1.17435 cumulative IPC: 0.86482 (Simulation time: 3 hr 17 min 0 sec) 
Heartbeat CPU 1 instructions: 1160000000 cycles: 959527648 heartbeat IPC: 1.04323 cumulative IPC: 1.07172 (Simulation time: 3 hr 17 min 53 sec) 
Heartbeat CPU 3 instructions: 590000002 cycles: 960860114 heartbeat IPC: 0.348293 cumulative IPC: 0.316169 (Simulation time: 3 hr 18 min 8 sec) 
Heartbeat CPU 0 instructions: 510000003 cycles: 961446438 heartbeat IPC: 0.502223 cumulative IPC: 0.383111 (Simulation time: 3 hr 18 min 15 sec) 
Heartbeat CPU 2 instructions: 980000000 cycles: 962760615 heartbeat IPC: 1.24271 cumulative IPC: 0.868571 (Simulation time: 3 hr 18 min 30 sec) 
Heartbeat CPU 1 instructions: 1170000001 cycles: 969123697 heartbeat IPC: 1.0421 cumulative IPC: 1.07138 (Simulation time: 3 hr 19 min 28 sec) 
Heartbeat CPU 2 instructions: 990000000 cycles: 970774060 heartbeat IPC: 1.2479 cumulative IPC: 0.872285 (Simulation time: 3 hr 19 min 43 sec) 
Heartbeat CPU 1 instructions: 1180000000 cycles: 978724530 heartbeat IPC: 1.04158 cumulative IPC: 1.07103 (Simulation time: 3 hr 20 min 51 sec) 
Heartbeat CPU 2 instructions: 1000000000 cycles: 981169206 heartbeat IPC: 0.961987 cumulative IPC: 0.87341 (Simulation time: 3 hr 21 min 14 sec) 
Heartbeat CPU 1 instructions: 1190000002 cycles: 988328900 heartbeat IPC: 1.04119 cumulative IPC: 1.07069 (Simulation time: 3 hr 22 min 28 sec) 
Heartbeat CPU 3 instructions: 600000000 cycles: 988918139 heartbeat IPC: 0.356404 cumulative IPC: 0.317519 (Simulation time: 3 hr 22 min 33 sec) 
Heartbeat CPU 2 instructions: 1010000003 cycles: 994305473 heartbeat IPC: 0.761252 cumulative IPC: 0.871661 (Simulation time: 3 hr 23 min 28 sec) 
Heartbeat CPU 0 instructions: 520000000 cycles: 995462185 heartbeat IPC: 0.293981 cumulative IPC: 0.379515 (Simulation time: 3 hr 23 min 39 sec) 
Heartbeat CPU 1 instructions: 1200000000 cycles: 997911262 heartbeat IPC: 1.04358 cumulative IPC: 1.07038 (Simulation time: 3 hr 24 min 5 sec) 
Heartbeat CPU 2 instructions: 1020000000 cycles: 1005207872 heartbeat IPC: 0.917229 cumulative IPC: 0.872243 (Simulation time: 3 hr 25 min 23 sec) 
Heartbeat CPU 1 instructions: 1210000003 cycles: 1006851484 heartbeat IPC: 1.11854 cumulative IPC: 1.07088 (Simulation time: 3 hr 25 min 41 sec) 
Heartbeat CPU 1 instructions: 1220000000 cycles: 1015385046 heartbeat IPC: 1.17184 cumulative IPC: 1.07188 (Simulation time: 3 hr 27 min 11 sec) 
Heartbeat CPU 2 instructions: 1030000003 cycles: 1015489600 heartbeat IPC: 0.972599 cumulative IPC: 0.873438 (Simulation time: 3 hr 27 min 12 sec) 
Heartbeat CPU 0 instructions: 530000002 cycles: 1015727846 heartbeat IPC: 0.493446 cumulative IPC: 0.382189 (Simulation time: 3 hr 27 min 15 sec) 
Heartbeat CPU 3 instructions: 610000001 cycles: 1021905961 heartbeat IPC: 0.303142 cumulative IPC: 0.316973 (Simulation time: 3 hr 28 min 17 sec) 
Heartbeat CPU 1 instructions: 1230000001 cycles: 1023830823 heartbeat IPC: 1.18402 cumulative IPC: 1.07297 (Simulation time: 3 hr 28 min 34 sec) 
Heartbeat CPU 2 instructions: 1040000000 cycles: 1028337454 heartbeat IPC: 0.77834 cumulative IPC: 0.872044 (Simulation time: 3 hr 29 min 8 sec) 
Heartbeat CPU 1 instructions: 1240000000 cycles: 1034637998 heartbeat IPC: 0.925311 cumulative IPC: 1.07116 (Simulation time: 3 hr 29 min 55 sec) 
Heartbeat CPU 2 instructions: 1050000000 cycles: 1041507980 heartbeat IPC: 0.759271 cumulative IPC: 0.870373 (Simulation time: 3 hr 30 min 54 sec) 
Heartbeat CPU 1 instructions: 1250000001 cycles: 1045363927 heartbeat IPC: 0.93232 cumulative IPC: 1.06949 (Simulation time: 3 hr 31 min 31 sec) 
Heartbeat CPU 0 instructions: 540000000 cycles: 1049918898 heartbeat IPC: 0.292474 cumulative IPC: 0.378772 (Simulation time: 3 hr 32 min 17 sec) 
Heartbeat CPU 3 instructions: 620000000 cycles: 1052277287 heartbeat IPC: 0.329258 cumulative IPC: 0.317388 (Simulation time: 3 hr 32 min 42 sec) 
Heartbeat CPU 2 instructions: 1060000000 cycles: 1053648437 heartbeat IPC: 0.823692 cumulative IPC: 0.869745 (Simulation time: 3 hr 32 min 57 sec) 
Heartbeat CPU 1 instructions: 1260000000 cycles: 1056057208 heartbeat IPC: 0.935167 cumulative IPC: 1.0679 (Simulation time: 3 hr 33 min 22 sec) 
Heartbeat CPU 2 instructions: 1070000001 cycles: 1063827058 heartbeat IPC: 0.982451 cumulative IPC: 0.871003 (Simulation time: 3 hr 34 min 44 sec) 
Heartbeat CPU 1 instructions: 1270000002 cycles: 1066491547 heartbeat IPC: 0.958374 cumulative IPC: 1.06665 (Simulation time: 3 hr 35 min 12 sec) 
Heartbeat CPU 0 instructions: 550000000 cycles: 1070027175 heartbeat IPC: 0.497308 cumulative IPC: 0.381369 (Simulation time: 3 hr 35 min 49 sec) 
Heartbeat CPU 2 instructions: 1080000000 cycles: 1075378058 heartbeat IPC: 0.865726 cumulative IPC: 0.870937 (Simulation time: 3 hr 36 min 45 sec) 
Heartbeat CPU 1 instructions: 1280000000 cycles: 1075409072 heartbeat IPC: 1.12139 cumulative IPC: 1.06718 (Simulation time: 3 hr 36 min 46 sec) 
Heartbeat CPU 1 instructions: 1290000000 cycles: 1084297542 heartbeat IPC: 1.12505 cumulative IPC: 1.06773 (Simulation time: 3 hr 38 min 14 sec) 
Heartbeat CPU 3 instructions: 630000000 cycles: 1086383142 heartbeat IPC: 0.293205 cumulative IPC: 0.316505 (Simulation time: 3 hr 38 min 32 sec) 
Finished CPU 1 instructions: 1000000000 cycles: 936377303 cumulative IPC: 1.06795 (Simulation time: 3 hr 38 min 51 sec) 
Heartbeat CPU 2 instructions: 1090000003 cycles: 1089117906 heartbeat IPC: 0.72781 cumulative IPC: 0.868838 (Simulation time: 3 hr 38 min 55 sec) 
Heartbeat CPU 1 instructions: 1300000000 cycles: 1093190609 heartbeat IPC: 1.12447 cumulative IPC: 1.06827 (Simulation time: 3 hr 39 min 28 sec) 
Heartbeat CPU 2 instructions: 1100000000 cycles: 1101777912 heartbeat IPC: 0.789889 cumulative IPC: 0.867785 (Simulation time: 3 hr 40 min 51 sec) 
Heartbeat CPU 1 instructions: 1310000000 cycles: 1102081034 heartbeat IPC: 1.12481 cumulative IPC: 1.0688 (Simulation time: 3 hr 40 min 55 sec) 
Heartbeat CPU 0 instructions: 560000000 cycles: 1104210708 heartbeat IPC: 0.292539 cumulative IPC: 0.378179 (Simulation time: 3 hr 41 min 20 sec) 
Heartbeat CPU 1 instructions: 1320000000 cycles: 1110978467 heartbeat IPC: 1.12392 cumulative IPC: 1.06931 (Simulation time: 3 hr 42 min 39 sec) 
Heartbeat CPU 2 instructions: 1110000001 cycles: 1112030175 heartbeat IPC: 0.975394 cumulative IPC: 0.868935 (Simulation time: 3 hr 42 min 51 sec) 
Heartbeat CPU 3 instructions: 640000000 cycles: 1118465853 heartbeat IPC: 0.311694 cumulative IPC: 0.316345 (Simulation time: 3 hr 44 min 5 sec) 
Heartbeat CPU 1 instructions: 1330000003 cycles: 1119905220 heartbeat IPC: 1.12023 cumulative IPC: 1.06978 (Simulation time: 3 hr 44 min 22 sec) 
Heartbeat CPU 2 instructions: 1120000000 cycles: 1123182409 heartbeat IPC: 0.896681 cumulative IPC: 0.869254 (Simulation time: 3 hr 44 min 59 sec) 
Heartbeat CPU 0 instructions: 570000002 cycles: 1124530356 heartbeat IPC: 0.492135 cumulative IPC: 0.380561 (Simulation time: 3 hr 45 min 13 sec) 
Heartbeat CPU 1 instructions: 1340000000 cycles: 1128817820 heartbeat IPC: 1.12201 cumulative IPC: 1.07026 (Simulation time: 3 hr 45 min 57 sec) 
Heartbeat CPU 2 instructions: 1130000000 cycles: 1137270100 heartbeat IPC: 0.70984 cumulative IPC: 0.866974 (Simulation time: 3 hr 47 min 25 sec) 
Heartbeat CPU 1 instructions: 1350000002 cycles: 1137702770 heartbeat IPC: 1.1255 cumulative IPC: 1.07076 (Simulation time: 3 hr 47 min 29 sec) 
Heartbeat CPU 1 instructions: 1360000000 cycles: 1146610716 heartbeat IPC: 1.12259 cumulative IPC: 1.07122 (Simulation time: 3 hr 49 min 5 sec) 
Heartbeat CPU 2 instructions: 1140000000 cycles: 1150415616 heartbeat IPC: 0.760716 cumulative IPC: 0.865574 (Simulation time: 3 hr 49 min 45 sec) 
Heartbeat CPU 3 instructions: 650000002 cycles: 1150682241 heartbeat IPC: 0.310401 cumulative IPC: 0.316153 (Simulation time: 3 hr 49 min 48 sec) 
Heartbeat CPU 1 instructions: 1370000000 cycles: 1155515202 heartbeat IPC: 1.12303 cumulative IPC: 1.07168 (Simulation time: 3 hr 50 min 36 sec) 
Heartbeat CPU 0 instructions: 580000000 cycles: 1158709413 heartbeat IPC: 0.292577 cumulative IPC: 0.377573 (Simulation time: 3 hr 51 min 13 sec) 
Heartbeat CPU 2 instructions: 1150000000 cycles: 1160655152 heartbeat IPC: 0.976607 cumulative IPC: 0.866702 (Simulation time: 3 hr 51 min 35 sec) 
Heartbeat CPU 1 instructions: 1380000000 cycles: 1164415979 heartbeat IPC: 1.1235 cumulative IPC: 1.07214 (Simulation time: 3 hr 52 min 17 sec) 
Heartbeat CPU 2 instructions: 1160000000 cycles: 1171272337 heartbeat IPC: 0.941869 cumulative IPC: 0.867485 (Simulation time: 3 hr 53 min 41 sec) 
Heartbeat CPU 1 instructions: 1390000000 cycles: 1173318280 heartbeat IPC: 1.12331 cumulative IPC: 1.07258 (Simulation time: 3 hr 54 min 7 sec) 
Heartbeat CPU 0 instructions: 590000001 cycles: 1179059978 heartbeat IPC: 0.491387 cumulative IPC: 0.379829 (Simulation time: 3 hr 55 min 22 sec) 
Heartbeat CPU 1 instructions: 1400000000 cycles: 1182223604 heartbeat IPC: 1.12292 cumulative IPC: 1.07302 (Simulation time: 3 hr 56 min 7 sec) 
Heartbeat CPU 3 instructions: 660000000 cycles: 1182504180 heartbeat IPC: 0.314249 cumulative IPC: 0.316095 (Simulation time: 3 hr 56 min 12 sec) 
Heartbeat CPU 2 instructions: 1170000000 cycles: 1185652452 heartbeat IPC: 0.695405 cumulative IPC: 0.86509 (Simulation time: 3 hr 56 min 48 sec) 
Heartbeat CPU 1 instructions: 1410000000 cycles: 1191110818 heartbeat IPC: 1.12521 cumulative IPC: 1.07346 (Simulation time: 3 hr 57 min 47 sec) 
Heartbeat CPU 0 instructions: 600000000 cycles: 1199158380 heartbeat IPC: 0.497552 cumulative IPC: 0.382089 (Simulation time: 3 hr 59 min 10 sec) 
Heartbeat CPU 2 instructions: 1180000000 cycles: 1199671982 heartbeat IPC: 0.713291 cumulative IPC: 0.863058 (Simulation time: 3 hr 59 min 16 sec) 
Heartbeat CPU 1 instructions: 1420000000 cycles: 1200428820 heartbeat IPC: 1.07319 cumulative IPC: 1.07346 (Simulation time: 3 hr 59 min 24 sec) 
Heartbeat CPU 2 instructions: 1190000001 cycles: 1209907316 heartbeat IPC: 0.977008 cumulative IPC: 0.864161 (Simulation time: 4 hr 0 min 46 sec) 
Heartbeat CPU 1 instructions: 1430000000 cycles: 1210206945 heartbeat IPC: 1.02269 cumulative IPC: 1.07299 (Simulation time: 4 hr 0 min 49 sec) 
Heartbeat CPU 3 instructions: 670000002 cycles: 1213461626 heartbeat IPC: 0.323024 cumulative IPC: 0.316297 (Simulation time: 4 hr 1 min 19 sec) 
Heartbeat CPU 1 instructions: 1440000000 cycles: 1219995341 heartbeat IPC: 1.02162 cumulative IPC: 1.07252 (Simulation time: 4 hr 2 min 24 sec) 
Heartbeat CPU 2 instructions: 1200000000 cycles: 1220220912 heartbeat IPC: 0.969594 cumulative IPC: 0.865179 (Simulation time: 4 hr 2 min 26 sec) 
Heartbeat CPU 1 instructions: 1450000001 cycles: 1229781813 heartbeat IPC: 1.02182 cumulative IPC: 1.07206 (Simulation time: 4 hr 4 min 3 sec) 
Heartbeat CPU 0 instructions: 610000003 cycles: 1233314193 heartbeat IPC: 0.292776 cumulative IPC: 0.379267 (Simulation time: 4 hr 4 min 38 sec) 
Heartbeat CPU 2 instructions: 1210000000 cycles: 1233953929 heartbeat IPC: 0.728172 cumulative IPC: 0.86344 (Simulation time: 4 hr 4 min 44 sec) 
Heartbeat CPU 1 instructions: 1460000000 cycles: 1239562329 heartbeat IPC: 1.02244 cumulative IPC: 1.07161 (Simulation time: 4 hr 5 min 40 sec) 
Heartbeat CPU 2 instructions: 1220000000 cycles: 1248161753 heartbeat IPC: 0.703838 cumulative IPC: 0.861371 (Simulation time: 4 hr 7 min 9 sec) 
Heartbeat CPU 3 instructions: 680000000 cycles: 1248947650 heartbeat IPC: 0.281801 cumulative IPC: 0.315181 (Simulation time: 4 hr 7 min 17 sec) 
Heartbeat CPU 1 instructions: 1470000002 cycles: 1248982977 heartbeat IPC: 1.0615 cumulative IPC: 1.07153 (Simulation time: 4 hr 7 min 17 sec) 
Heartbeat CPU 0 instructions: 620000000 cycles: 1253391328 heartbeat IPC: 0.498079 cumulative IPC: 0.381433 (Simulation time: 4 hr 8 min 5 sec) 
Heartbeat CPU 1 instructions: 1480000000 cycles: 1257579686 heartbeat IPC: 1.16324 cumulative IPC: 1.07224 (Simulation time: 4 hr 8 min 51 sec) 
Heartbeat CPU 2 instructions: 1230000001 cycles: 1259010828 heartbeat IPC: 0.921738 cumulative IPC: 0.861962 (Simulation time: 4 hr 9 min 6 sec) 
Heartbeat CPU 1 instructions: 1490000003 cycles: 1266313836 heartbeat IPC: 1.14493 cumulative IPC: 1.07281 (Simulation time: 4 hr 10 min 8 sec) 
Heartbeat CPU 2 instructions: 1240000000 cycles: 1269373053 heartbeat IPC: 0.965044 cumulative IPC: 0.862919 (Simulation time: 4 hr 10 min 31 sec) 
Heartbeat CPU 1 instructions: 1500000000 cycles: 1277277997 heartbeat IPC: 0.912062 cumulative IPC: 1.07124 (Simulation time: 4 hr 11 min 35 sec) 
Heartbeat CPU 2 instructions: 1250000002 cycles: 1282493217 heartbeat IPC: 0.762186 cumulative IPC: 0.861749 (Simulation time: 4 hr 12 min 24 sec) 
Heartbeat CPU 3 instructions: 690000001 cycles: 1286983013 heartbeat IPC: 0.262913 cumulative IPC: 0.313428 (Simulation time: 4 hr 13 min 8 sec) 
Heartbeat CPU 0 instructions: 630000000 cycles: 1287354230 heartbeat IPC: 0.294439 cumulative IPC: 0.37883 (Simulation time: 4 hr 13 min 11 sec) 
Heartbeat CPU 1 instructions: 1510000001 cycles: 1288077469 heartbeat IPC: 0.925971 cumulative IPC: 1.06986 (Simulation time: 4 hr 13 min 18 sec) 
Heartbeat CPU 2 instructions: 1260000000 cycles: 1296549719 heartbeat IPC: 0.711414 cumulative IPC: 0.859902 (Simulation time: 4 hr 14 min 42 sec) 
Heartbeat CPU 1 instructions: 1520000000 cycles: 1298789979 heartbeat IPC: 0.933488 cumulative IPC: 1.06859 (Simulation time: 4 hr 15 min 5 sec) 
Heartbeat CPU 0 instructions: 640000000 cycles: 1307341799 heartbeat IPC: 0.500311 cumulative IPC: 0.380933 (Simulation time: 4 hr 16 min 40 sec) 
Heartbeat CPU 1 instructions: 1530000003 cycles: 1307899844 heartbeat IPC: 1.09771 cumulative IPC: 1.06882 (Simulation time: 4 hr 16 min 47 sec) 
Heartbeat CPU 2 instructions: 1270000002 cycles: 1308341997 heartbeat IPC: 0.848013 cumulative IPC: 0.859781 (Simulation time: 4 hr 16 min 52 sec) 
Finished CPU 2 instructions: 1000000001 cycles: 1162225097 cumulative IPC: 0.860418 (Simulation time: 4 hr 18 min 4 sec) 
Heartbeat CPU 3 instructions: 700000000 cycles: 1315147604 heartbeat IPC: 0.355056 cumulative IPC: 0.314437 (Simulation time: 4 hr 18 min 12 sec) 
Heartbeat CPU 1 instructions: 1540000000 cycles: 1316856234 heartbeat IPC: 1.11652 cumulative IPC: 1.06918 (Simulation time: 4 hr 18 min 31 sec) 
Heartbeat CPU 2 instructions: 1280000000 cycles: 1318583237 heartbeat IPC: 0.976444 cumulative IPC: 0.860806 (Simulation time: 4 hr 18 min 52 sec) 
Heartbeat CPU 1 instructions: 1550000000 cycles: 1325813013 heartbeat IPC: 1.11647 cumulative IPC: 1.06955 (Simulation time: 4 hr 19 min 57 sec) 
Heartbeat CPU 2 instructions: 1290000000 cycles: 1330926703 heartbeat IPC: 0.810145 cumulative IPC: 0.860275 (Simulation time: 4 hr 20 min 55 sec) 
Heartbeat CPU 1 instructions: 1560000000 cycles: 1334767681 heartbeat IPC: 1.11674 cumulative IPC: 1.0699 (Simulation time: 4 hr 21 min 37 sec) 
Heartbeat CPU 0 instructions: 650000002 cycles: 1341612752 heartbeat IPC: 0.291792 cumulative IPC: 0.378364 (Simulation time: 4 hr 22 min 53 sec) 
Heartbeat CPU 3 instructions: 710000002 cycles: 1342914117 heartbeat IPC: 0.360146 cumulative IPC: 0.315503 (Simulation time: 4 hr 23 min 7 sec) 
Heartbeat CPU 1 instructions: 1570000000 cycles: 1343707540 heartbeat IPC: 1.11859 cumulative IPC: 1.07027 (Simulation time: 4 hr 23 min 16 sec) 
Heartbeat CPU 2 instructions: 1300000000 cycles: 1344845572 heartbeat IPC: 0.718449 cumulative IPC: 0.85862 (Simulation time: 4 hr 23 min 28 sec) 
Heartbeat CPU 1 instructions: 1580000000 cycles: 1352644825 heartbeat IPC: 1.11891 cumulative IPC: 1.07063 (Simulation time: 4 hr 24 min 54 sec) 
Heartbeat CPU 2 instructions: 1310000003 cycles: 1357148064 heartbeat IPC: 0.812844 cumulative IPC: 0.858152 (Simulation time: 4 hr 25 min 50 sec) 
Heartbeat CPU 1 instructions: 1590000000 cycles: 1361578307 heartbeat IPC: 1.11938 cumulative IPC: 1.07099 (Simulation time: 4 hr 26 min 50 sec) 
Heartbeat CPU 0 instructions: 660000000 cycles: 1361620911 heartbeat IPC: 0.499796 cumulative IPC: 0.380373 (Simulation time: 4 hr 26 min 50 sec) 
Heartbeat CPU 2 instructions: 1320000000 cycles: 1367333074 heartbeat IPC: 0.981835 cumulative IPC: 0.859189 (Simulation time: 4 hr 28 min 1 sec) 
Heartbeat CPU 1 instructions: 1600000000 cycles: 1370531238 heartbeat IPC: 1.11695 cumulative IPC: 1.07133 (Simulation time: 4 hr 28 min 38 sec) 
Heartbeat CPU 3 instructions: 720000000 cycles: 1377029770 heartbeat IPC: 0.293121 cumulative IPC: 0.314879 (Simulation time: 4 hr 29 min 48 sec) 
Heartbeat CPU 2 instructions: 1330000000 cycles: 1378933802 heartbeat IPC: 0.862015 cumulative IPC: 0.859216 (Simulation time: 4 hr 30 min 5 sec) 
Heartbeat CPU 1 instructions: 1610000003 cycles: 1379482825 heartbeat IPC: 1.11712 cumulative IPC: 1.07166 (Simulation time: 4 hr 30 min 9 sec) 
Heartbeat CPU 1 instructions: 1620000000 cycles: 1388431758 heartbeat IPC: 1.11745 cumulative IPC: 1.07199 (Simulation time: 4 hr 31 min 22 sec) 
Heartbeat CPU 2 instructions: 1340000000 cycles: 1392714894 heartbeat IPC: 0.725632 cumulative IPC: 0.857732 (Simulation time: 4 hr 31 min 56 sec) 
Heartbeat CPU 0 instructions: 670000002 cycles: 1395538062 heartbeat IPC: 0.294836 cumulative IPC: 0.378039 (Simulation time: 4 hr 32 min 23 sec) 
Heartbeat CPU 1 instructions: 1630000002 cycles: 1397362223 heartbeat IPC: 1.11976 cumulative IPC: 1.07234 (Simulation time: 4 hr 32 min 42 sec) 
Heartbeat CPU 2 instructions: 1350000001 cycles: 1405250366 heartbeat IPC: 0.797736 cumulative IPC: 0.857131 (Simulation time: 4 hr 34 min 7 sec) 
Heartbeat CPU 1 instructions: 1640000000 cycles: 1406290633 heartbeat IPC: 1.12002 cumulative IPC: 1.07268 (Simulation time: 4 hr 34 min 18 sec) 
Heartbeat CPU 1 instructions: 1650000000 cycles: 1415219109 heartbeat IPC: 1.12001 cumulative IPC: 1.07301 (Simulation time: 4 hr 36 min 0 sec) 
Heartbeat CPU 2 instructions: 1360000000 cycles: 1415326114 heartbeat IPC: 0.992482 cumulative IPC: 0.858211 (Simulation time: 4 hr 36 min 1 sec) 
Heartbeat CPU 0 instructions: 680000000 cycles: 1415531999 heartbeat IPC: 0.500152 cumulative IPC: 0.379972 (Simulation time: 4 hr 36 min 3 sec) 
Heartbeat CPU 3 instructions: 730000003 cycles: 1415925428 heartbeat IPC: 0.257098 cumulative IPC: 0.313101 (Simulation time: 4 hr 36 min 8 sec) 
Heartbeat CPU 1 instructions: 1660000000 cycles: 1424167151 heartbeat IPC: 1.11756 cumulative IPC: 1.07332 (Simulation time: 4 hr 37 min 44 sec) 
Heartbeat CPU 2 instructions: 1370000002 cycles: 1426360092 heartbeat IPC: 0.906292 cumulative IPC: 0.858628 (Simulation time: 4 hr 38 min 7 sec) 
Heartbeat CPU 1 instructions: 1670000002 cycles: 1433114259 heartbeat IPC: 1.11768 cumulative IPC: 1.07363 (Simulation time: 4 hr 39 min 15 sec) 
Heartbeat CPU 0 instructions: 690000000 cycles: 1435980596 heartbeat IPC: 0.489031 cumulative IPC: 0.381709 (Simulation time: 4 hr 39 min 46 sec) 
Heartbeat CPU 2 instructions: 1380000000 cycles: 1440036357 heartbeat IPC: 0.731194 cumulative IPC: 0.857274 (Simulation time: 4 hr 40 min 19 sec) 
Heartbeat CPU 1 instructions: 1680000000 cycles: 1443040146 heartbeat IPC: 1.00747 cumulative IPC: 1.07313 (Simulation time: 4 hr 40 min 42 sec) 
Heartbeat CPU 3 instructions: 740000000 cycles: 1447910086 heartbeat IPC: 0.31265 cumulative IPC: 0.31309 (Simulation time: 4 hr 41 min 18 sec) 
Heartbeat CPU 2 instructions: 1390000001 cycles: 1452041785 heartbeat IPC: 0.832957 cumulative IPC: 0.85705 (Simulation time: 4 hr 41 min 52 sec) 
Heartbeat CPU 1 instructions: 1690000001 cycles: 1453783889 heartbeat IPC: 0.930774 cumulative IPC: 1.07195 (Simulation time: 4 hr 42 min 10 sec) 
Heartbeat CPU 2 instructions: 1400000000 cycles: 1460173132 heartbeat IPC: 1.22981 cumulative IPC: 0.859367 (Simulation time: 4 hr 43 min 17 sec) 
Heartbeat CPU 1 instructions: 1700000000 cycles: 1464420385 heartbeat IPC: 0.940159 cumulative IPC: 1.07088 (Simulation time: 4 hr 44 min 3 sec) 
Heartbeat CPU 2 instructions: 1410000003 cycles: 1468306514 heartbeat IPC: 1.2295 cumulative IPC: 0.861655 (Simulation time: 4 hr 44 min 45 sec) 
Heartbeat CPU 0 instructions: 700000000 cycles: 1469961418 heartbeat IPC: 0.294284 cumulative IPC: 0.379455 (Simulation time: 4 hr 45 min 3 sec) 
Heartbeat CPU 1 instructions: 1710000003 cycles: 1475124695 heartbeat IPC: 0.934203 cumulative IPC: 1.06978 (Simulation time: 4 hr 46 min 0 sec) 
Heartbeat CPU 2 instructions: 1420000000 cycles: 1476605527 heartbeat IPC: 1.20496 cumulative IPC: 0.863806 (Simulation time: 4 hr 46 min 16 sec) 
Heartbeat CPU 1 instructions: 1720000000 cycles: 1485845094 heartbeat IPC: 0.932801 cumulative IPC: 1.06867 (Simulation time: 4 hr 47 min 44 sec) 
Heartbeat CPU 0 instructions: 710000002 cycles: 1490184864 heartbeat IPC: 0.494476 cumulative IPC: 0.381193 (Simulation time: 4 hr 48 min 23 sec) 
Heartbeat CPU 2 instructions: 1430000003 cycles: 1490385211 heartbeat IPC: 0.725706 cumulative IPC: 0.862384 (Simulation time: 4 hr 48 min 25 sec) 
Heartbeat CPU 3 instructions: 750000002 cycles: 1490593955 heartbeat IPC: 0.234281 cumulative IPC: 0.310576 (Simulation time: 4 hr 48 min 27 sec) 
Heartbeat CPU 1 instructions: 1730000000 cycles: 1496397059 heartbeat IPC: 0.947691 cumulative IPC: 1.06772 (Simulation time: 4 hr 49 min 27 sec) 
Heartbeat CPU 2 instructions: 1440000000 cycles: 1503247173 heartbeat IPC: 0.777486 cumulative IPC: 0.861576 (Simulation time: 4 hr 50 min 24 sec) 
Heartbeat CPU 1 instructions: 1740000000 cycles: 1505614081 heartbeat IPC: 1.08495 cumulative IPC: 1.06784 (Simulation time: 4 hr 50 min 45 sec) 
Heartbeat CPU 2 instructions: 1450000001 cycles: 1511267577 heartbeat IPC: 1.24682 cumulative IPC: 0.863849 (Simulation time: 4 hr 51 min 36 sec) 
Heartbeat CPU 1 instructions: 1750000002 cycles: 1514696821 heartbeat IPC: 1.10099 cumulative IPC: 1.06806 (Simulation time: 4 hr 52 min 12 sec) 
Heartbeat CPU 2 instructions: 1460000000 cycles: 1519275074 heartbeat IPC: 1.24883 cumulative IPC: 0.866104 (Simulation time: 4 hr 53 min 4 sec) 
Heartbeat CPU 1 instructions: 1760000000 cycles: 1523862275 heartbeat IPC: 1.09105 cumulative IPC: 1.06822 (Simulation time: 4 hr 53 min 57 sec) 
Heartbeat CPU 0 instructions: 720000000 cycles: 1524026110 heartbeat IPC: 0.295497 cumulative IPC: 0.379079 (Simulation time: 4 hr 53 min 59 sec) 
Heartbeat CPU 3 instructions: 760000000 cycles: 1526988699 heartbeat IPC: 0.274765 cumulative IPC: 0.309628 (Simulation time: 4 hr 54 min 33 sec) 
Heartbeat CPU 2 instructions: 1470000002 cycles: 1527287302 heartbeat IPC: 1.24809 cumulative IPC: 0.86833 (Simulation time: 4 hr 54 min 37 sec) 
Heartbeat CPU 1 instructions: 1770000000 cycles: 1533021215 heartbeat IPC: 1.09183 cumulative IPC: 1.06837 (Simulation time: 4 hr 55 min 39 sec) 
Heartbeat CPU 2 instructions: 1480000000 cycles: 1539143272 heartbeat IPC: 0.843457 cumulative IPC: 0.868118 (Simulation time: 4 hr 56 min 44 sec) 
Heartbeat CPU 1 instructions: 1780000000 cycles: 1542184768 heartbeat IPC: 1.09128 cumulative IPC: 1.06852 (Simulation time: 4 hr 57 min 16 sec) 
Heartbeat CPU 0 instructions: 730000003 cycles: 1543986978 heartbeat IPC: 0.50098 cumulative IPC: 0.380828 (Simulation time: 4 hr 57 min 35 sec) 
Heartbeat CPU 1 instructions: 1790000003 cycles: 1551332922 heartbeat IPC: 1.09312 cumulative IPC: 1.06869 (Simulation time: 4 hr 58 min 52 sec) 
Heartbeat CPU 2 instructions: 1490000001 cycles: 1551931736 heartbeat IPC: 0.781955 cumulative IPC: 0.86733 (Simulation time: 4 hr 58 min 58 sec) 
Heartbeat CPU 3 instructions: 770000001 cycles: 1555184976 heartbeat IPC: 0.354657 cumulative IPC: 0.310533 (Simulation time: 4 hr 59 min 33 sec) 
Heartbeat CPU 1 instructions: 1800000000 cycles: 1560486486 heartbeat IPC: 1.09247 cumulative IPC: 1.06884 (Simulation time: 5 hr 0 min 20 sec) 
Heartbeat CPU 2 instructions: 1500000000 cycles: 1562088226 heartbeat IPC: 0.984592 cumulative IPC: 0.868175 (Simulation time: 5 hr 0 min 35 sec) 
Heartbeat CPU 1 instructions: 1810000001 cycles: 1569555819 heartbeat IPC: 1.10262 cumulative IPC: 1.06906 (Simulation time: 5 hr 1 min 38 sec) 
Heartbeat CPU 2 instructions: 1510000000 cycles: 1572313431 heartbeat IPC: 0.977975 cumulative IPC: 0.868966 (Simulation time: 5 hr 2 min 6 sec) 
Heartbeat CPU 0 instructions: 740000000 cycles: 1577936914 heartbeat IPC: 0.294551 cumulative IPC: 0.378773 (Simulation time: 5 hr 3 min 4 sec) 
Heartbeat CPU 1 instructions: 1820000000 cycles: 1578055057 heartbeat IPC: 1.17658 cumulative IPC: 1.0697 (Simulation time: 5 hr 3 min 5 sec) 
Heartbeat CPU 2 instructions: 1520000000 cycles: 1585350709 heartbeat IPC: 0.767031 cumulative IPC: 0.868038 (Simulation time: 5 hr 4 min 23 sec) 
Heartbeat CPU 1 instructions: 1830000003 cycles: 1586655636 heartbeat IPC: 1.16271 cumulative IPC: 1.07025 (Simulation time: 5 hr 4 min 40 sec) 
Heartbeat CPU 3 instructions: 780000000 cycles: 1590572638 heartbeat IPC: 0.282584 cumulative IPC: 0.309845 (Simulation time: 5 hr 5 min 28 sec) 
Heartbeat CPU 1 instructions: 1840000000 cycles: 1596471697 heartbeat IPC: 1.01874 cumulative IPC: 1.0699 (Simulation time: 5 hr 6 min 37 sec) 
Heartbeat CPU 2 instructions: 1530000000 cycles: 1597810126 heartbeat IPC: 0.802606 cumulative IPC: 0.867474 (Simulation time: 5 hr 6 min 52 sec) 
Heartbeat CPU 0 instructions: 750000001 cycles: 1598070781 heartbeat IPC: 0.496676 cumulative IPC: 0.380415 (Simulation time: 5 hr 6 min 55 sec) 
Heartbeat CPU 1 instructions: 1850000000 cycles: 1607293271 heartbeat IPC: 0.92408 cumulative IPC: 1.06882 (Simulation time: 5 hr 8 min 35 sec) 
Heartbeat CPU 2 instructions: 1540000000 cycles: 1609786031 heartbeat IPC: 0.83501 cumulative IPC: 0.867208 (Simulation time: 5 hr 9 min 3 sec) 
Heartbeat CPU 1 instructions: 1860000000 cycles: 1618172904 heartbeat IPC: 0.919149 cumulative IPC: 1.06771 (Simulation time: 5 hr 10 min 25 sec) 
Heartbeat CPU 3 instructions: 790000001 cycles: 1619091722 heartbeat IPC: 0.350642 cumulative IPC: 0.310639 (Simulation time: 5 hr 10 min 34 sec) 
Heartbeat CPU 2 instructions: 1550000002 cycles: 1619919756 heartbeat IPC: 0.986804 cumulative IPC: 0.868033 (Simulation time: 5 hr 10 min 41 sec) 
Heartbeat CPU 1 instructions: 1870000000 cycles: 1629138775 heartbeat IPC: 0.91192 cumulative IPC: 1.06655 (Simulation time: 5 hr 11 min 59 sec) 
Heartbeat CPU 2 instructions: 1560000000 cycles: 1631601438 heartbeat IPC: 0.856041 cumulative IPC: 0.867939 (Simulation time: 5 hr 12 min 22 sec) 
Heartbeat CPU 0 instructions: 760000000 cycles: 1632191199 heartbeat IPC: 0.29308 cumulative IPC: 0.378401 (Simulation time: 5 hr 12 min 28 sec) 
Heartbeat CPU 1 instructions: 1880000000 cycles: 1638600808 heartbeat IPC: 1.05686 cumulative IPC: 1.06649 (Simulation time: 5 hr 13 min 34 sec) 
Heartbeat CPU 2 instructions: 1570000003 cycles: 1644802967 heartbeat IPC: 0.757488 cumulative IPC: 0.866962 (Simulation time: 5 hr 14 min 41 sec) 
Heartbeat CPU 1 instructions: 1890000000 cycles: 1647454674 heartbeat IPC: 1.12945 cumulative IPC: 1.06686 (Simulation time: 5 hr 15 min 9 sec) 
Heartbeat CPU 0 instructions: 770000002 cycles: 1651996828 heartbeat IPC: 0.504907 cumulative IPC: 0.380072 (Simulation time: 5 hr 15 min 57 sec) 
Heartbeat CPU 3 instructions: 800000000 cycles: 1654838687 heartbeat IPC: 0.279744 cumulative IPC: 0.309904 (Simulation time: 5 hr 16 min 26 sec) 
Heartbeat CPU 1 instructions: 1900000000 cycles: 1656296820 heartbeat IPC: 1.13095 cumulative IPC: 1.06724 (Simulation time: 5 hr 16 min 41 sec) 
Heartbeat CPU 2 instructions: 1580000000 cycles: 1657872383 heartbeat IPC: 0.765145 cumulative IPC: 0.866078 (Simulation time: 5 hr 16 min 59 sec) 
Heartbeat CPU 1 instructions: 1910000001 cycles: 1665140492 heartbeat IPC: 1.13075 cumulative IPC: 1.06761 (Simulation time: 5 hr 18 min 22 sec) 
Heartbeat CPU 2 instructions: 1590000002 cycles: 1668004726 heartbeat IPC: 0.986939 cumulative IPC: 0.866886 (Simulation time: 5 hr 18 min 55 sec) 
Heartbeat CPU 0 instructions: 780000000 cycles: 1671743961 heartbeat IPC: 0.506403 cumulative IPC: 0.381714 (Simulation time: 5 hr 19 min 36 sec) 
Heartbeat CPU 1 instructions: 1920000000 cycles: 1673990761 heartbeat IPC: 1.12991 cumulative IPC: 1.06797 (Simulation time: 5 hr 19 min 56 sec) 
Heartbeat CPU 2 instructions: 1600000000 cycles: 1678239282 heartbeat IPC: 0.977082 cumulative IPC: 0.867625 (Simulation time: 5 hr 20 min 35 sec) 
Heartbeat CPU 1 instructions: 1930000003 cycles: 1682856206 heartbeat IPC: 1.12798 cumulative IPC: 1.06832 (Simulation time: 5 hr 21 min 14 sec) 
Heartbeat CPU 3 instructions: 810000001 cycles: 1690145654 heartbeat IPC: 0.28323 cumulative IPC: 0.309291 (Simulation time: 5 hr 22 min 20 sec) 
Heartbeat CPU 1 instructions: 1940000000 cycles: 1691716747 heartbeat IPC: 1.1286 cumulative IPC: 1.06867 (Simulation time: 5 hr 22 min 37 sec) 
Heartbeat CPU 2 instructions: 1610000001 cycles: 1692306303 heartbeat IPC: 0.710883 cumulative IPC: 0.866193 (Simulation time: 5 hr 22 min 44 sec) 
Heartbeat CPU 1 instructions: 1950000001 cycles: 1700562577 heartbeat IPC: 1.13048 cumulative IPC: 1.06902 (Simulation time: 5 hr 24 min 9 sec) 
Heartbeat CPU 2 instructions: 1620000000 cycles: 1705762800 heartbeat IPC: 0.743135 cumulative IPC: 0.865127 (Simulation time: 5 hr 25 min 4 sec) 
Heartbeat CPU 0 instructions: 790000000 cycles: 1705828030 heartbeat IPC: 0.293392 cumulative IPC: 0.379776 (Simulation time: 5 hr 25 min 5 sec) 
Heartbeat CPU 1 instructions: 1960000000 cycles: 1709399481 heartbeat IPC: 1.13162 cumulative IPC: 1.06938 (Simulation time: 5 hr 25 min 45 sec) 
Heartbeat CPU 2 instructions: 1630000002 cycles: 1715927510 heartbeat IPC: 0.983796 cumulative IPC: 0.865899 (Simulation time: 5 hr 27 min 2 sec) 
Heartbeat CPU 1 instructions: 1970000001 cycles: 1718251729 heartbeat IPC: 1.12966 cumulative IPC: 1.06972 (Simulation time: 5 hr 27 min 29 sec) 
Heartbeat CPU 3 instructions: 820000000 cycles: 1721438653 heartbeat IPC: 0.31956 cumulative IPC: 0.309496 (Simulation time: 5 hr 28 min 6 sec) 
Heartbeat CPU 0 instructions: 800000000 cycles: 1725884594 heartbeat IPC: 0.49859 cumulative IPC: 0.381291 (Simulation time: 5 hr 28 min 57 sec) 
Heartbeat CPU 2 instructions: 1640000000 cycles: 1726109800 heartbeat IPC: 0.982097 cumulative IPC: 0.86665 (Simulation time: 5 hr 29 min 0 sec) 
Heartbeat CPU 1 instructions: 1980000000 cycles: 1727128415 heartbeat IPC: 1.12655 cumulative IPC: 1.07004 (Simulation time: 5 hr 29 min 11 sec) 
Heartbeat CPU 1 instructions: 1990000001 cycles: 1735989670 heartbeat IPC: 1.12851 cumulative IPC: 1.07036 (Simulation time: 5 hr 30 min 35 sec) 
Heartbeat CPU 2 instructions: 1650000000 cycles: 1740132022 heartbeat IPC: 0.713154 cumulative IPC: 0.865295 (Simulation time: 5 hr 31 min 10 sec) 
*** Reached end of trace for Core: 1 Repeating trace: /scratch/user/djimenez/champsim-traces/speccpu2006/xz/437.leslie3d-271B.champsimtrace.xz
Heartbeat CPU 1 instructions: 2000000000 cycles: 1744860207 heartbeat IPC: 1.12733 cumulative IPC: 1.07068 (Simulation time: 5 hr 31 min 51 sec) 
Heartbeat CPU 3 instructions: 830000001 cycles: 1750643951 heartbeat IPC: 0.342404 cumulative IPC: 0.310097 (Simulation time: 5 hr 32 min 44 sec) 
Heartbeat CPU 1 instructions: 2010000003 cycles: 1754057691 heartbeat IPC: 1.08725 cumulative IPC: 1.07078 (Simulation time: 5 hr 33 min 19 sec) 
Heartbeat CPU 2 instructions: 1660000000 cycles: 1754230610 heartbeat IPC: 0.709291 cumulative IPC: 0.863922 (Simulation time: 5 hr 33 min 20 sec) 
Heartbeat CPU 0 instructions: 810000001 cycles: 1759777213 heartbeat IPC: 0.29505 cumulative IPC: 0.379472 (Simulation time: 5 hr 34 min 34 sec) 
Heartbeat CPU 1 instructions: 2020000000 cycles: 1763251482 heartbeat IPC: 1.08769 cumulative IPC: 1.07087 (Simulation time: 5 hr 35 min 15 sec) 
Heartbeat CPU 2 instructions: 1670000000 cycles: 1764517630 heartbeat IPC: 0.972099 cumulative IPC: 0.864612 (Simulation time: 5 hr 35 min 29 sec) 
Heartbeat CPU 1 instructions: 2030000002 cycles: 1772448077 heartbeat IPC: 1.08736 cumulative IPC: 1.07097 (Simulation time: 5 hr 36 min 57 sec) 
Heartbeat CPU 2 instructions: 1680000000 cycles: 1774683231 heartbeat IPC: 0.98371 cumulative IPC: 0.865358 (Simulation time: 5 hr 37 min 22 sec) 
Heartbeat CPU 0 instructions: 820000000 cycles: 1779620530 heartbeat IPC: 0.503948 cumulative IPC: 0.38099 (Simulation time: 5 hr 38 min 14 sec) 
Heartbeat CPU 3 instructions: 840000000 cycles: 1780193563 heartbeat IPC: 0.338414 cumulative IPC: 0.310611 (Simulation time: 5 hr 38 min 20 sec) 
Heartbeat CPU 1 instructions: 2040000000 cycles: 1781647479 heartbeat IPC: 1.08703 cumulative IPC: 1.07106 (Simulation time: 5 hr 38 min 34 sec) 
Heartbeat CPU 2 instructions: 1690000003 cycles: 1788200352 heartbeat IPC: 0.739803 cumulative IPC: 0.864321 (Simulation time: 5 hr 39 min 39 sec) 
[...]
LLC PREFETCH  ACCESS:   24777577  HIT:    3832080  MISS:   20945497
LLC WRITEBACK ACCESS:     217911  HIT:     216362  MISS:       1549

Region of Interest Statistics

CPU 0 cumulative IPC: 0.377194 instructions: 1000000000 cycles: 2651153794
L1D TOTAL     ACCESS:  523596119  HIT:  515616322  MISS:    7979797
L1D LOAD      ACCESS:  356522902  HIT:  350048168  MISS:    6474734
L1D RFO       ACCESS:  167073217  HIT:  165568154  MISS:    1505063
L1D PREFETCH  ACCESS:          0  HIT:          0  MISS:          0
L1D WRITEBACK ACCESS:          0  HIT:          0  MISS:          0
L1D PREFETCH  REQUESTED:          0  ISSUED:          0  USEFUL:          0  USELESS:          0
L1I TOTAL     ACCESS:  285128113  HIT:  285128113  MISS:          0
L1I LOAD      ACCESS:  285128113  HIT:  285128113  MISS:          0
L1I RFO       ACCESS:          0  HIT:          0  MISS:          0
L1I PREFETCH  ACCESS:          0  HIT:          0  MISS:          0
L1I WRITEBACK ACCESS:          0  HIT:          0  MISS:          0
L1I PREFETCH  REQUESTED:          0  ISSUED:          0  USEFUL:          0  USELESS:          0
L2C TOTAL     ACCESS:   17196126  HIT:   12019635  MISS:    5176491
L2C LOAD      ACCESS:    6474733  HIT:    5705070  MISS:     769663
L2C RFO       ACCESS:    1505063  HIT:        598  MISS:    1504465
L2C PREFETCH  ACCESS:    7643643  HIT:    4742550  MISS:    2901093
L2C WRITEBACK ACCESS:    1572687  HIT:    1571417  MISS:       1270
L2C PREFETCH  REQUESTED:   12574804  ISSUED:   12567353  USEFUL:    3973612  USELESS:      14705
LLC TOTAL     ACCESS:    7949157  HIT:    2769452  MISS:    5179705
LLC LOAD      ACCESS:     676016  HIT:     353325  MISS:     322691
LLC RFO       ACCESS:    1504465  HIT:        462  MISS:    1504003
LLC PREFETCH  ACCESS:    4262725  HIT:     915117  MISS:    3347608
LLC WRITEBACK ACCESS:    1505951  HIT:    1500548  MISS:       5403
LLC PREFETCH  REQUESTED:          0  ISSUED:          0  USEFUL:    3309605  USELESS:   50520271
Major fault: 0 Minor fault: 55035

CPU 1 cumulative IPC: 1.06795 instructions: 1000000000 cycles: 936377303
L1D TOTAL     ACCESS:  308325298  HIT:  297481262  MISS:   10844036
L1D LOAD      ACCESS:  282735702  HIT:  274625592  MISS:    8110110
L1D RFO       ACCESS:   25589596  HIT:   22855670  MISS:    2733926
L1D PREFETCH  ACCESS:          0  HIT:          0  MISS:          0
L1D WRITEBACK ACCESS:          0  HIT:          0  MISS:          0
L1D PREFETCH  REQUESTED:          0  ISSUED:          0  USEFUL:          0  USELESS:          0
L1I TOTAL     ACCESS:  234201157  HIT:  234200452  MISS:        705
L1I LOAD      ACCESS:  234201157  HIT:  234200452  MISS:        705
L1I RFO       ACCESS:          0  HIT:          0  MISS:          0
L1I PREFETCH  ACCESS:          0  HIT:          0  MISS:          0
L1I WRITEBACK ACCESS:          0  HIT:          0  MISS:          0
L1I PREFETCH  REQUESTED:          0  ISSUED:          0  USEFUL:          0  USELESS:          0
L2C TOTAL     ACCESS:   23797426  HIT:   15589632  MISS:    8207794
L2C LOAD      ACCESS:    8110776  HIT:    7858784  MISS:     251992
L2C RFO       ACCESS:    2731552  HIT:     860522  MISS:    1871030
L2C PREFETCH  ACCESS:    9431298  HIT:    3349893  MISS:    6081405
L2C WRITEBACK ACCESS:    3523800  HIT:    3520433  MISS:       3367
L2C PREFETCH  REQUESTED:   38896795  ISSUED:   38878412  USEFUL:   21838131  USELESS:     717544
LLC TOTAL     ACCESS:   11111094  HIT:    4096053  MISS:    7015041
LLC LOAD      ACCESS:     227156  HIT:      94733  MISS:     132423
LLC RFO       ACCESS:    1871009  HIT:     192059  MISS:    1678950
LLC PREFETCH  ACCESS:    6634741  HIT:    1437112  MISS:    5197629
LLC WRITEBACK ACCESS:    2378188  HIT:    2372149  MISS:       6039
LLC PREFETCH  REQUESTED:          0  ISSUED:          0  USEFUL:    3309605  USELESS:   50520271
Major fault: 0 Minor fault: 19885

CPU 2 cumulative IPC: 0.860418 instructions: 1000000001 cycles: 1162225097
L1D TOTAL     ACCESS:  298584943  HIT:  295636933  MISS:    2948010
L1D LOAD      ACCESS:  228282793  HIT:  226107461  MISS:    2175332
L1D RFO       ACCESS:   70302150  HIT:   69529472  MISS:     772678
L1D PREFETCH  ACCESS:          0  HIT:          0  MISS:          0
L1D WRITEBACK ACCESS:          0  HIT:          0  MISS:          0
L1D PREFETCH  REQUESTED:          0  ISSUED:          0  USEFUL:          0  USELESS:          0
L1I TOTAL     ACCESS:  244922188  HIT:  244853529  MISS:      68659
L1I LOAD      ACCESS:  244922188  HIT:  244853529  MISS:      68659
L1I RFO       ACCESS:          0  HIT:          0  MISS:          0
L1I PREFETCH  ACCESS:          0  HIT:          0  MISS:          0
L1I WRITEBACK ACCESS:          0  HIT:          0  MISS:          0
L1I PREFETCH  REQUESTED:          0  ISSUED:          0  USEFUL:          0  USELESS:          0
L2C TOTAL     ACCESS:    5964337  HIT:    3996377  MISS:    1967960
L2C LOAD      ACCESS:    2243984  HIT:    1935900  MISS:     308084
L2C RFO       ACCESS:     772648  HIT:      58941  MISS:     713707
L2C PREFETCH  ACCESS:    2149577  HIT:    1206076  MISS:     943501
L2C WRITEBACK ACCESS:     798128  HIT:     795460  MISS:       2668
L2C PREFETCH  REQUESTED:    7318351  ISSUED:    7318211  USEFUL:    2373034  USELESS:     531490
LLC TOTAL     ACCESS:    2876600  HIT:    1043316  MISS:    1833284
LLC LOAD      ACCESS:     281102  HIT:     119555  MISS:     161547
LLC RFO       ACCESS:     713312  HIT:      17154  MISS:     696158
LLC PREFETCH  ACCESS:    1151960  HIT:     222964  MISS:     928996
LLC WRITEBACK ACCESS:     730226  HIT:     683643  MISS:      46583
LLC PREFETCH  REQUESTED:          0  ISSUED:          0  USEFUL:    3309605  USELESS:   50520271
Major fault: 0 Minor fault: 2479

CPU 3 cumulative IPC: 0.311862 instructions: 1000000003 cycles: 3206541393
L1D TOTAL     ACCESS:  205919420  HIT:  177865331  MISS:   28054089
L1D LOAD      ACCESS:  172049225  HIT:  144185722  MISS:   27863503
L1D RFO       ACCESS:   33870195  HIT:   33679609  MISS:     190586
L1D PREFETCH  ACCESS:          0  HIT:          0  MISS:          0
L1D WRITEBACK ACCESS:          0  HIT:          0  MISS:          0
L1D PREFETCH  REQUESTED:          0  ISSUED:          0  USEFUL:          0  USELESS:          0
L1I TOTAL     ACCESS:  329544161  HIT:  328215364  MISS:    1328797
L1I LOAD      ACCESS:  329544161  HIT:  328215364  MISS:    1328797
L1I RFO       ACCESS:          0  HIT:          0  MISS:          0
L1I PREFETCH  ACCESS:          0  HIT:          0  MISS:          0
L1I WRITEBACK ACCESS:          0  HIT:          0  MISS:          0
L1I PREFETCH  REQUESTED:          0  ISSUED:          0  USEFUL:          0  USELESS:          0
L2C TOTAL     ACCESS:   50232030  HIT:   13282202  MISS:   36949828
L2C LOAD      ACCESS:   29192268  HIT:    8610708  MISS:   20581560
L2C RFO       ACCESS:     190574  HIT:      86027  MISS:     104547
L2C PREFETCH  ACCESS:   20390322  HIT:    4144859  MISS:   16245463
L2C WRITEBACK ACCESS:     458866  HIT:     440608  MISS:      18258
L2C PREFETCH  REQUESTED:   44609684  ISSUED:   44607650  USEFUL:   10584280  USELESS:   11597661
LLC TOTAL     ACCESS:   43644466  HIT:    7269991  MISS:   36374475
LLC LOAD      ACCESS:   18544905  HIT:    3192352  MISS:   15352553
LLC RFO       ACCESS:     104073  HIT:      29197  MISS:      74876
LLC PREFETCH  ACCESS:   24777577  HIT:    3832080  MISS:   20945497
LLC WRITEBACK ACCESS:     217911  HIT:     216362  MISS:       1549
LLC PREFETCH  REQUESTED:          0  ISSUED:          0  USEFUL:    3309605  USELESS:   50520271
Major fault: 0 Minor fault: 28276
Printing all the perceptron weights to: perc_weights_0.csv


****HISTOGRAMMING STATS****
	Index		 hist_tots 		 hist_hits 		 hist_ratio
      -224   	          0 	          0 	          0
      -214   	          0 	          0 	          0
      -204   	          0 	          0 	          0
      -194   	          0 	          0 	          0
      -184   	          0 	          0 	          0
      -174   	          0 	          0 	          0
      -164   	          0 	          0 	          0
      -154   	          0 	          0 	          0
      -144   	          0 	          0 	          0
      -134   	          0 	          0 	          0
      -124   	          0 	          0 	          0
      -114   	          0 	          0 	          0
      -104   	          0 	          0 	          0
       -94   	          0 	          0 	          0
       -84   	          0 	          0 	          0
       -74   	          0 	          0 	          0
       -64   	          0 	          0 	          0
       -54   	          0 	          0 	          0
       -44   	          0 	          0 	          0
       -34   	          0 	          0 	          0
       -24   	    2072302 	          0 	          0
       -14   	   16777216 	     859411 	  0.0512249
        -4   	   16777216 	    9974246 	   0.594511
         6   	   16777216 	   11948732 	     0.7122
        16   	   16777216 	   11917045 	   0.710311
        26   	   11781511 	    9020631 	    0.76566
        36   	    6258659 	    4965194 	   0.793332
        46   	    2545186 	    2041316 	    0.80203
        56   	     829073 	     665122 	   0.802248
        66   	     231047 	     184804 	   0.799855
        76   	      57661 	      45985 	   0.797506
        86   	      13084 	      10587 	   0.809156
        96   	       2654 	       2193 	     0.8263
       106   	        471 	        395 	   0.838641
       116   	         74 	         67 	   0.905405
       126   	          9 	          7 	   0.777778
       136   	          0 	          0 	          0
       146   	          0 	          0 	          0
       156   	          0 	          0 	          0
       166   	          0 	          0 	          0
       176   	          0 	          0 	          0
       186   	          0 	          0 	          0
       196   	          0 	          0 	          0
       206   	          0 	          0 	          0
       216   	          0 	          0 	          0
       226   	          0 	          0 	          0
       236   	          0 	          0 	          0
       246   	          0 	          0 	          0
       256   	          0 	          0 	          0
       266   	          0 	          0 	          0
       276   	          0 	          0 	          0
       286   	          0 	          0 	          0
       296   	          0 	          0 	          0
       306   	          0 	          0 	          0
       316   	          0 	          0 	          0
Printing all the perceptron weights to: perc_weights_0.csv


****HISTOGRAMMING STATS****
	Index		 hist_tots 		 hist_hits 		 hist_ratio
      -224   	          0 	          0 	          0
      -214   	          0 	          0 	          0
      -204   	          0 	          0 	          0
      -194   	          0 	          0 	          0
      -184   	          0 	          0 	          0
      -174   	          0 	          0 	          0
      -164   	          0 	          0 	          0
      -154   	          0 	          0 	          0
      -144   	          0 	          0 	          0
      -134   	          0 	          0 	          0
      -124   	          0 	          0 	          0
      -114   	          0 	          0 	          0
      -104   	          0 	          0 	          0
       -94   	          0 	          0 	          0
       -84   	          0 	          0 	          0
       -74   	          0 	          0 	          0
       -64   	          0 	          0 	          0
       -54   	          0 	          0 	          0
       -44   	          0 	          0 	          0
       -34   	          0 	          0 	          0
       -24   	    2072302 	          0 	          0
       -14   	   16777216 	     859411 	  0.0512249
        -4   	   16777216 	    9974246 	   0.594511
         6   	   16777216 	   11948732 	     0.7122
        16   	   16777216 	   11917045 	   0.710311
        26   	   11781511 	    9020631 	    0.76566
        36   	    6258659 	    4965194 	   0.793332
        46   	    2545186 	    2041316 	    0.80203
        56   	     829073 	     665122 	   0.802248
        66   	     231047 	     184804 	   0.799855
        76   	      57661 	      45985 	   0.797506
        86   	      13084 	      10587 	   0.809156
        96   	       2654 	       2193 	     0.8263
       106   	        471 	        395 	   0.838641
       116   	         74 	         67 	   0.905405
       126   	          9 	          7 	   0.777778
       136   	          0 	          0 	          0
       146   	          0 	          0 	          0
       156   	          0 	          0 	          0
       166   	          0 	          0 	          0
       176   	          0 	          0 	          0
       186   	          0 	          0 	          0
       196   	          0 	          0 	          0
       206   	          0 	          0 	          0
       216   	          0 	          0 	          0
       226   	          0 	          0 	          0
       236   	          0 	          0 	          0
       246   	          0 	          0 	          0
       256   	          0 	          0 	          0
       266   	          0 	          0 	          0
       276   	          0 	          0 	          0
       286   	          0 	          0 	          0
       296   	          0 	          0 	          0
       306   	          0 	          0 	          0
       316   	          0 	          0 	          0
Printing all the perceptron weights to: perc_weights_0.csv


****HISTOGRAMMING STATS****
	Index		 hist_tots 		 hist_hits 		 hist_ratio
      -224   	          0 	          0 	          0
      -214   	          0 	          0 	          0
      -204   	          0 	          0 	          0
      -194   	          0 	          0 	          0
      -184   	          0 	          0 	          0
      -174   	          0 	          0 	          0
      -164   	          0 	          0 	          0
      -154   	          0 	          0 	          0
      -144   	          0 	          0 	          0
      -134   	          0 	          0 	          0
      -124   	          0 	          0 	          0
      -114   	          0 	          0 	          0
      -104   	          0 	          0 	          0
       -94   	          0 	          0 	          0
       -84   	          0 	          0 	          0
       -74   	          0 	          0 	          0
       -64   	          0 	          0 	          0
       -54   	          0 	          0 	          0
       -44   	          0 	          0 	          0
       -34   	          0 	          0 	          0
       -24   	    2072302 	          0 	          0
       -14   	   16777216 	     859411 	  0.0512249
        -4   	   16777216 	    9974246 	   0.594511
         6   	   16777216 	   11948732 	     0.7122
        16   	   16777216 	   11917045 	   0.710311
        26   	   11781511 	    9020631 	    0.76566
        36   	    6258659 	    4965194 	   0.793332
        46   	    2545186 	    2041316 	    0.80203
        56   	     829073 	     665122 	   0.802248
        66   	     231047 	     184804 	   0.799855
        76   	      57661 	      45985 	   0.797506
        86   	      13084 	      10587 	   0.809156
        96   	       2654 	       2193 	     0.8263
       106   	        471 	        395 	   0.838641
       116   	         74 	         67 	   0.905405
       126   	          9 	          7 	   0.777778
       136   	          0 	          0 	          0
       146   	          0 	          0 	          0
       156   	          0 	          0 	          0
       166   	          0 	          0 	          0
       176   	          0 	          0 	          0
       186   	          0 	          0 	          0
       196   	          0 	          0 	          0
       206   	          0 	          0 	          0
       216   	          0 	          0 	          0
       226   	          0 	          0 	          0
       236   	          0 	          0 	          0
       246   	          0 	          0 	          0
       256   	          0 	          0 	          0
       266   	          0 	          0 	          0
       276   	          0 	          0 	          0
       286   	          0 	          0 	          0
       296   	          0 	          0 	          0
       306   	          0 	          0 	          0
       316   	          0 	          0 	          0
Printing all the perceptron weights to: perc_weights_0.csv


****HISTOGRAMMING STATS****
	Index		 hist_tots 		 hist_hits 		 hist_ratio
      -224   	          0 	          0 	          0
      -214   	          0 	          0 	          0
      -204   	          0 	          0 	          0
      -194   	          0 	          0 	          0
      -184   	          0 	          0 	          0
      -174   	          0 	          0 	          0
      -164   	          0 	          0 	          0
      -154   	          0 	          0 	          0
      -144   	          0 	          0 	          0
      -134   	          0 	          0 	          0
      -124   	          0 	          0 	          0
      -114   	          0 	          0 	          0
      -104   	          0 	          0 	          0
       -94   	          0 	          0 	          0
       -84   	          0 	          0 	          0
       -74   	          0 	          0 	          0
       -64   	          0 	          0 	          0
       -54   	          0 	          0 	          0
       -44   	          0 	          0 	          0
       -34   	          0 	          0 	          0
       -24   	    2072302 	          0 	          0
       -14   	   16777216 	     859411 	  0.0512249
        -4   	   16777216 	    9974246 	   0.594511
         6   	   16777216 	   11948732 	     0.7122
        16   	   16777216 	   11917045 	   0.710311
        26   	   11781511 	    9020631 	    0.76566
        36   	    6258659 	    4965194 	   0.793332
        46   	    2545186 	    2041316 	    0.80203
        56   	     829073 	     665122 	   0.802248
        66   	     231047 	     184804 	   0.799855
        76   	      57661 	      45985 	   0.797506
        86   	      13084 	      10587 	   0.809156
        96   	       2654 	       2193 	     0.8263
       106   	        471 	        395 	   0.838641
       116   	         74 	         67 	   0.905405
       126   	          9 	          7 	   0.777778
       136   	          0 	          0 	          0
       146   	          0 	          0 	          0
       156   	          0 	          0 	          0
       166   	          0 	          0 	          0
       176   	          0 	          0 	          0
       186   	          0 	          0 	          0
       196   	          0 	          0 	          0
       206   	          0 	          0 	          0
       216   	          0 	          0 	          0
       226   	          0 	          0 	          0
       236   	          0 	          0 	          0
       246   	          0 	          0 	          0
       256   	          0 	          0 	          0
       266   	          0 	          0 	          0
       276   	          0 	          0 	          0
       286   	          0 	          0 	          0
       296   	          0 	          0 	          0
       306   	          0 	          0 	          0
       316   	          0 	          0 	          0

DRAM Statistics
 CHANNEL 0
 RQ ROW_BUFFER_HIT:   16047240  ROW_BUFFER_MISS:   19406377
 DBUS_CONGESTED:   37284769
 WQ ROW_BUFFER_HIT:     469277  ROW_BUFFER_MISS:    5113875  FULL:          0

 CHANNEL 1
 RQ ROW_BUFFER_HIT:   16109341  ROW_BUFFER_MISS:   19447013
 DBUS_CONGESTED:   37284769
 WQ ROW_BUFFER_HIT:     470528  ROW_BUFFER_MISS:    5114123  FULL:          0

 AVG_CONGESTED_CYCLE: 13
