
*** ChampSim Multicore Out-of-Order Simulator ***

Warmup Instructions: 200000000
Simulation Instructions: 1000000000
Number of CPUs: 4
LLC sets: 8192
LLC ways: 16
Off-chip DRAM Size: 8192 MB Channels: 2 Width: 64-bit Data Rate: 1600 MT/s

CPU 0 runs /scratch/user/djimenez/champsim-traces/speccpu2006/xz//482.sphinx3-1297B.champsimtrace.xz
CPU 1 runs /scratch/user/djimenez/champsim-traces/speccpu2006/xz//445.gobmk-17B.champsimtrace.xz
CPU 2 runs /scratch/user/djimenez/champsim-traces/speccpu2006/xz//482.sphinx3-234B.champsimtrace.xz
CPU 3 runs /scratch/user/djimenez/champsim-traces/speccpu2006/xz//444.namd-321B.champsimtrace.xz
Heartbeat CPU 2 instructions: 10000003 cycles: 3848131 heartbeat IPC: 2.59866 cumulative IPC: 2.59866 (Simulation time: 0 hr 1 min 12 sec) 
Heartbeat CPU 0 instructions: 10000003 cycles: 3957206 heartbeat IPC: 2.52704 cumulative IPC: 2.52704 (Simulation time: 0 hr 1 min 14 sec) 
Heartbeat CPU 3 instructions: 10000001 cycles: 4566168 heartbeat IPC: 2.19002 cumulative IPC: 2.19002 (Simulation time: 0 hr 1 min 26 sec) 
Heartbeat CPU 1 instructions: 10000000 cycles: 6724904 heartbeat IPC: 1.48701 cumulative IPC: 1.48701 (Simulation time: 0 hr 2 min 5 sec) 
Heartbeat CPU 2 instructions: 20000000 cycles: 7680930 heartbeat IPC: 2.60906 cumulative IPC: 2.60385 (Simulation time: 0 hr 2 min 23 sec) 
Heartbeat CPU 0 instructions: 20000000 cycles: 7812308 heartbeat IPC: 2.59396 cumulative IPC: 2.56006 (Simulation time: 0 hr 2 min 25 sec) 
Heartbeat CPU 3 instructions: 20000000 cycles: 8773405 heartbeat IPC: 2.37686 cumulative IPC: 2.27962 (Simulation time: 0 hr 2 min 44 sec) 
Heartbeat CPU 2 instructions: 30000000 cycles: 11589787 heartbeat IPC: 2.55829 cumulative IPC: 2.58849 (Simulation time: 0 hr 3 min 37 sec) 
Heartbeat CPU 0 instructions: 30000001 cycles: 11650998 heartbeat IPC: 2.60506 cumulative IPC: 2.57489 (Simulation time: 0 hr 3 min 38 sec) 
Heartbeat CPU 3 instructions: 30000002 cycles: 13233683 heartbeat IPC: 2.24201 cumulative IPC: 2.26694 (Simulation time: 0 hr 4 min 8 sec) 
Heartbeat CPU 1 instructions: 20000000 cycles: 13376895 heartbeat IPC: 1.50331 cumulative IPC: 1.49512 (Simulation time: 0 hr 4 min 10 sec) 
Heartbeat CPU 2 instructions: 40000000 cycles: 15365441 heartbeat IPC: 2.64855 cumulative IPC: 2.60324 (Simulation time: 0 hr 4 min 45 sec) 
Heartbeat CPU 0 instructions: 40000000 cycles: 15579569 heartbeat IPC: 2.54545 cumulative IPC: 2.56747 (Simulation time: 0 hr 4 min 49 sec) 
Heartbeat CPU 3 instructions: 40000000 cycles: 17434912 heartbeat IPC: 2.38026 cumulative IPC: 2.29425 (Simulation time: 0 hr 5 min 22 sec) 
Heartbeat CPU 2 instructions: 50000003 cycles: 19096828 heartbeat IPC: 2.67997 cumulative IPC: 2.61824 (Simulation time: 0 hr 5 min 51 sec) 
Heartbeat CPU 0 instructions: 50000001 cycles: 19368926 heartbeat IPC: 2.63897 cumulative IPC: 2.58145 (Simulation time: 0 hr 5 min 56 sec) 
Heartbeat CPU 1 instructions: 30000001 cycles: 20046441 heartbeat IPC: 1.49935 cumulative IPC: 1.49653 (Simulation time: 0 hr 6 min 7 sec) 
Heartbeat CPU 3 instructions: 50000000 cycles: 22134215 heartbeat IPC: 2.12798 cumulative IPC: 2.25895 (Simulation time: 0 hr 6 min 45 sec) 
Heartbeat CPU 2 instructions: 60000000 cycles: 22854218 heartbeat IPC: 2.66142 cumulative IPC: 2.62534 (Simulation time: 0 hr 6 min 57 sec) 
Heartbeat CPU 0 instructions: 60000000 cycles: 23387330 heartbeat IPC: 2.48855 cumulative IPC: 2.56549 (Simulation time: 0 hr 7 min 7 sec) 
Heartbeat CPU 2 instructions: 70000000 cycles: 26533923 heartbeat IPC: 2.71761 cumulative IPC: 2.63813 (Simulation time: 0 hr 8 min 3 sec) 
Heartbeat CPU 3 instructions: 60000000 cycles: 26640050 heartbeat IPC: 2.21934 cumulative IPC: 2.25225 (Simulation time: 0 hr 8 min 5 sec) 
Heartbeat CPU 1 instructions: 40000000 cycles: 26646393 heartbeat IPC: 1.51516 cumulative IPC: 1.50114 (Simulation time: 0 hr 8 min 5 sec) 
Heartbeat CPU 0 instructions: 70000001 cycles: 27273737 heartbeat IPC: 2.57307 cumulative IPC: 2.56657 (Simulation time: 0 hr 8 min 16 sec) 
Heartbeat CPU 2 instructions: 80000000 cycles: 30227960 heartbeat IPC: 2.70707 cumulative IPC: 2.64656 (Simulation time: 0 hr 9 min 9 sec) 
Heartbeat CPU 3 instructions: 70000002 cycles: 30857080 heartbeat IPC: 2.37134 cumulative IPC: 2.26852 (Simulation time: 0 hr 9 min 21 sec) 
Heartbeat CPU 0 instructions: 80000000 cycles: 31103502 heartbeat IPC: 2.61113 cumulative IPC: 2.57206 (Simulation time: 0 hr 9 min 25 sec) 
Heartbeat CPU 1 instructions: 50000000 cycles: 33224607 heartbeat IPC: 1.52017 cumulative IPC: 1.50491 (Simulation time: 0 hr 10 min 3 sec) 
Heartbeat CPU 2 instructions: 90000000 cycles: 33927361 heartbeat IPC: 2.70314 cumulative IPC: 2.65273 (Simulation time: 0 hr 10 min 17 sec) 
Heartbeat CPU 0 instructions: 90000000 cycles: 35054554 heartbeat IPC: 2.53097 cumulative IPC: 2.56743 (Simulation time: 0 hr 10 min 37 sec) 
Heartbeat CPU 3 instructions: 80000000 cycles: 35162455 heartbeat IPC: 2.32268 cumulative IPC: 2.27515 (Simulation time: 0 hr 10 min 39 sec) 
Heartbeat CPU 2 instructions: 100000000 cycles: 37629282 heartbeat IPC: 2.7013 cumulative IPC: 2.6575 (Simulation time: 0 hr 11 min 24 sec) 
Heartbeat CPU 0 instructions: 100000000 cycles: 38815586 heartbeat IPC: 2.65884 cumulative IPC: 2.57628 (Simulation time: 0 hr 11 min 46 sec) 
Heartbeat CPU 3 instructions: 90000000 cycles: 39561753 heartbeat IPC: 2.27309 cumulative IPC: 2.27492 (Simulation time: 0 hr 11 min 59 sec) 
Heartbeat CPU 1 instructions: 60000000 cycles: 39816393 heartbeat IPC: 1.51704 cumulative IPC: 1.50692 (Simulation time: 0 hr 12 min 4 sec) 
Heartbeat CPU 2 instructions: 110000003 cycles: 41361386 heartbeat IPC: 2.67945 cumulative IPC: 2.65949 (Simulation time: 0 hr 12 min 31 sec) 
Heartbeat CPU 0 instructions: 110000002 cycles: 42811817 heartbeat IPC: 2.50236 cumulative IPC: 2.56938 (Simulation time: 0 hr 12 min 57 sec) 
Heartbeat CPU 3 instructions: 100000000 cycles: 43749868 heartbeat IPC: 2.38771 cumulative IPC: 2.28572 (Simulation time: 0 hr 13 min 14 sec) 
Heartbeat CPU 2 instructions: 120000000 cycles: 45206507 heartbeat IPC: 2.6007 cumulative IPC: 2.65449 (Simulation time: 0 hr 13 min 41 sec) 
Heartbeat CPU 1 instructions: 70000000 cycles: 46408513 heartbeat IPC: 1.51696 cumulative IPC: 1.50834 (Simulation time: 0 hr 14 min 2 sec) 
Heartbeat CPU 0 instructions: 120000000 cycles: 46570487 heartbeat IPC: 2.66052 cumulative IPC: 2.57674 (Simulation time: 0 hr 14 min 5 sec) 
Heartbeat CPU 3 instructions: 110000002 cycles: 48273312 heartbeat IPC: 2.21071 cumulative IPC: 2.27869 (Simulation time: 0 hr 14 min 36 sec) 
Heartbeat CPU 2 instructions: 130000000 cycles: 48997312 heartbeat IPC: 2.63796 cumulative IPC: 2.65321 (Simulation time: 0 hr 14 min 49 sec) 
Heartbeat CPU 0 instructions: 130000001 cycles: 50283529 heartbeat IPC: 2.69321 cumulative IPC: 2.58534 (Simulation time: 0 hr 15 min 13 sec) 
Heartbeat CPU 3 instructions: 120000000 cycles: 52568738 heartbeat IPC: 2.32806 cumulative IPC: 2.28273 (Simulation time: 0 hr 15 min 55 sec) 
Heartbeat CPU 2 instructions: 140000000 cycles: 52692867 heartbeat IPC: 2.70595 cumulative IPC: 2.65691 (Simulation time: 0 hr 15 min 57 sec) 
Heartbeat CPU 1 instructions: 80000000 cycles: 52967376 heartbeat IPC: 1.52465 cumulative IPC: 1.51036 (Simulation time: 0 hr 16 min 1 sec) 
Heartbeat CPU 0 instructions: 140000000 cycles: 53997480 heartbeat IPC: 2.69255 cumulative IPC: 2.59271 (Simulation time: 0 hr 16 min 20 sec) 
Heartbeat CPU 2 instructions: 150000001 cycles: 56480543 heartbeat IPC: 2.64014 cumulative IPC: 2.65578 (Simulation time: 0 hr 17 min 5 sec) 
Heartbeat CPU 3 instructions: 130000000 cycles: 56994443 heartbeat IPC: 2.25953 cumulative IPC: 2.28092 (Simulation time: 0 hr 17 min 13 sec) 
Heartbeat CPU 0 instructions: 150000001 cycles: 57739589 heartbeat IPC: 2.67229 cumulative IPC: 2.59787 (Simulation time: 0 hr 17 min 28 sec) 
Heartbeat CPU 1 instructions: 90000002 cycles: 59561170 heartbeat IPC: 1.51658 cumulative IPC: 1.51105 (Simulation time: 0 hr 18 min 0 sec) 
Heartbeat CPU 2 instructions: 160000000 cycles: 60240970 heartbeat IPC: 2.65927 cumulative IPC: 2.656 (Simulation time: 0 hr 18 min 12 sec) 
Heartbeat CPU 3 instructions: 140000000 cycles: 61530125 heartbeat IPC: 2.20474 cumulative IPC: 2.27531 (Simulation time: 0 hr 18 min 38 sec) 
Heartbeat CPU 0 instructions: 160000000 cycles: 61664506 heartbeat IPC: 2.54782 cumulative IPC: 2.59469 (Simulation time: 0 hr 18 min 41 sec) 
Heartbeat CPU 2 instructions: 170000000 cycles: 64037568 heartbeat IPC: 2.63394 cumulative IPC: 2.65469 (Simulation time: 0 hr 19 min 27 sec) 
Heartbeat CPU 0 instructions: 170000000 cycles: 65428954 heartbeat IPC: 2.65643 cumulative IPC: 2.59824 (Simulation time: 0 hr 19 min 54 sec) 
Heartbeat CPU 1 instructions: 100000000 cycles: 66118492 heartbeat IPC: 1.52501 cumulative IPC: 1.51244 (Simulation time: 0 hr 20 min 7 sec) 
Heartbeat CPU 3 instructions: 150000000 cycles: 66273852 heartbeat IPC: 2.10805 cumulative IPC: 2.26334 (Simulation time: 0 hr 20 min 10 sec) 
Heartbeat CPU 2 instructions: 180000000 cycles: 67826364 heartbeat IPC: 2.63936 cumulative IPC: 2.65384 (Simulation time: 0 hr 20 min 40 sec) 
Heartbeat CPU 0 instructions: 180000000 cycles: 69248086 heartbeat IPC: 2.6184 cumulative IPC: 2.59935 (Simulation time: 0 hr 21 min 8 sec) 
Heartbeat CPU 3 instructions: 160000000 cycles: 70444406 heartbeat IPC: 2.39776 cumulative IPC: 2.27129 (Simulation time: 0 hr 21 min 31 sec) 
Heartbeat CPU 2 instructions: 190000003 cycles: 71561451 heartbeat IPC: 2.67731 cumulative IPC: 2.65506 (Simulation time: 0 hr 21 min 53 sec) 
Heartbeat CPU 1 instructions: 110000002 cycles: 72700724 heartbeat IPC: 1.51924 cumulative IPC: 1.51305 (Simulation time: 0 hr 22 min 15 sec) 
Heartbeat CPU 0 instructions: 190000002 cycles: 73126767 heartbeat IPC: 2.5782 cumulative IPC: 2.59823 (Simulation time: 0 hr 22 min 23 sec) 
Heartbeat CPU 3 instructions: 170000002 cycles: 75100864 heartbeat IPC: 2.14756 cumulative IPC: 2.26362 (Simulation time: 0 hr 23 min 1 sec) 
Heartbeat CPU 2 instructions: 200000000 cycles: 75289333 heartbeat IPC: 2.68249 cumulative IPC: 2.65642 (Simulation time: 0 hr 23 min 5 sec) 
Heartbeat CPU 0 instructions: 200000000 cycles: 77108245 heartbeat IPC: 2.51163 cumulative IPC: 2.59376 (Simulation time: 0 hr 23 min 40 sec) 
Heartbeat CPU 2 instructions: 210000003 cycles: 79014493 heartbeat IPC: 2.68445 cumulative IPC: 0.126559 (Simulation time: 0 hr 24 min 17 sec) 
Heartbeat CPU 1 instructions: 120000000 cycles: 79238935 heartbeat IPC: 1.52947 cumulative IPC: 1.51441 (Simulation time: 0 hr 24 min 21 sec) 
Heartbeat CPU 3 instructions: 180000000 cycles: 79472347 heartbeat IPC: 2.28755 cumulative IPC: 2.26494 (Simulation time: 0 hr 24 min 26 sec) 
Heartbeat CPU 0 instructions: 210000002 cycles: 80947453 heartbeat IPC: 2.6047 cumulative IPC: 0.123537 (Simulation time: 0 hr 24 min 54 sec) 
Heartbeat CPU 2 instructions: 220000000 cycles: 82865839 heartbeat IPC: 2.59649 cumulative IPC: 0.241354 (Simulation time: 0 hr 25 min 32 sec) 
Heartbeat CPU 3 instructions: 190000000 cycles: 83693274 heartbeat IPC: 2.36915 cumulative IPC: 2.27019 (Simulation time: 0 hr 25 min 49 sec) 
Heartbeat CPU 0 instructions: 220000000 cycles: 84765482 heartbeat IPC: 2.61915 cumulative IPC: 0.235945 (Simulation time: 0 hr 26 min 9 sec) 
Heartbeat CPU 1 instructions: 130000001 cycles: 85791116 heartbeat IPC: 1.52621 cumulative IPC: 1.51531 (Simulation time: 0 hr 26 min 31 sec) 
Heartbeat CPU 2 instructions: 230000002 cycles: 86541450 heartbeat IPC: 2.72064 cumulative IPC: 0.346655 (Simulation time: 0 hr 26 min 46 sec) 
Heartbeat CPU 3 instructions: 200000000 cycles: 88345716 heartbeat IPC: 2.14941 cumulative IPC: 2.26383 (Simulation time: 0 hr 27 min 22 sec) 
Heartbeat CPU 0 instructions: 230000003 cycles: 88519561 heartbeat IPC: 2.66377 cumulative IPC: 0.338908 (Simulation time: 0 hr 27 min 25 sec) 
Heartbeat CPU 2 instructions: 240000000 cycles: 90225000 heartbeat IPC: 2.71477 cumulative IPC: 0.443336 (Simulation time: 0 hr 27 min 59 sec) 
Heartbeat CPU 0 instructions: 240000000 cycles: 92244781 heartbeat IPC: 2.6844 cumulative IPC: 0.433629 (Simulation time: 0 hr 28 min 40 sec) 
Heartbeat CPU 1 instructions: 140000000 cycles: 92355285 heartbeat IPC: 1.52342 cumulative IPC: 1.51589 (Simulation time: 0 hr 28 min 42 sec) 
Heartbeat CPU 3 instructions: 210000001 cycles: 92641747 heartbeat IPC: 2.32773 cumulative IPC: 0.107943 (Simulation time: 0 hr 28 min 47 sec) 
Heartbeat CPU 2 instructions: 250000000 cycles: 93910426 heartbeat IPC: 2.71339 cumulative IPC: 0.532422 (Simulation time: 0 hr 29 min 13 sec) 
Heartbeat CPU 0 instructions: 250000002 cycles: 96049947 heartbeat IPC: 2.62801 cumulative IPC: 0.520563 (Simulation time: 0 hr 29 min 56 sec) 
Heartbeat CPU 3 instructions: 220000000 cycles: 97089468 heartbeat IPC: 2.24834 cumulative IPC: 0.205996 (Simulation time: 0 hr 30 min 17 sec) 
Heartbeat CPU 2 instructions: 260000000 cycles: 97600593 heartbeat IPC: 2.7099 cumulative IPC: 0.61475 (Simulation time: 0 hr 30 min 27 sec) 
Heartbeat CPU 1 instructions: 150000001 cycles: 98922170 heartbeat IPC: 1.52279 cumulative IPC: 1.51634 (Simulation time: 0 hr 30 min 53 sec) 
Heartbeat CPU 0 instructions: 260000000 cycles: 99736095 heartbeat IPC: 2.71286 cumulative IPC: 0.601588 (Simulation time: 0 hr 31 min 9 sec) 
Heartbeat CPU 2 instructions: 270000001 cycles: 101320328 heartbeat IPC: 2.68836 cumulative IPC: 0.690878 (Simulation time: 0 hr 31 min 40 sec) 
Heartbeat CPU 3 instructions: 230000000 cycles: 101437173 heartbeat IPC: 2.30006 cumulative IPC: 0.29575 (Simulation time: 0 hr 31 min 42 sec) 
Heartbeat CPU 0 instructions: 270000001 cycles: 103487108 heartbeat IPC: 2.66595 cumulative IPC: 0.676413 (Simulation time: 0 hr 32 min 23 sec) 
Heartbeat CPU 2 instructions: 280000000 cycles: 105046786 heartbeat IPC: 2.68351 cumulative IPC: 0.761565 (Simulation time: 0 hr 32 min 54 sec) 
Heartbeat CPU 1 instructions: 160000000 cycles: 105466252 heartbeat IPC: 1.5281 cumulative IPC: 1.51707 (Simulation time: 0 hr 33 min 2 sec) 
Heartbeat CPU 3 instructions: 240000000 cycles: 105689988 heartbeat IPC: 2.35138 cumulative IPC: 0.378465 (Simulation time: 0 hr 33 min 7 sec) 
Heartbeat CPU 0 instructions: 280000000 cycles: 107192728 heartbeat IPC: 2.6986 cumulative IPC: 0.746319 (Simulation time: 0 hr 33 min 36 sec) 
Heartbeat CPU 2 instructions: 290000001 cycles: 108739518 heartbeat IPC: 2.70802 cumulative IPC: 0.827666 (Simulation time: 0 hr 34 min 7 sec) 
Heartbeat CPU 3 instructions: 250000001 cycles: 110182551 heartbeat IPC: 2.2259 cumulative IPC: 0.453792 (Simulation time: 0 hr 34 min 35 sec) 
Heartbeat CPU 0 instructions: 290000001 cycles: 111074494 heartbeat IPC: 2.57615 cumulative IPC: 0.810267 (Simulation time: 0 hr 34 min 52 sec) 
Heartbeat CPU 1 instructions: 170000002 cycles: 112050104 heartbeat IPC: 1.51887 cumulative IPC: 1.51718 (Simulation time: 0 hr 35 min 11 sec) 
Heartbeat CPU 2 instructions: 300000000 cycles: 112590494 heartbeat IPC: 2.59674 cumulative IPC: 0.888174 (Simulation time: 0 hr 35 min 21 sec) 
Heartbeat CPU 3 instructions: 260000000 cycles: 114390223 heartbeat IPC: 2.37661 cumulative IPC: 0.52452 (Simulation time: 0 hr 35 min 57 sec) 
Heartbeat CPU 0 instructions: 300000000 cycles: 114837026 heartbeat IPC: 2.65778 cumulative IPC: 0.870799 (Simulation time: 0 hr 36 min 5 sec) 
Heartbeat CPU 2 instructions: 310000000 cycles: 116357838 heartbeat IPC: 2.65439 cumulative IPC: 0.94536 (Simulation time: 0 hr 36 min 34 sec) 
Heartbeat CPU 0 instructions: 310000000 cycles: 118603162 heartbeat IPC: 2.65524 cumulative IPC: 0.927463 (Simulation time: 0 hr 37 min 19 sec) 
Heartbeat CPU 1 instructions: 180000000 cycles: 118637880 heartbeat IPC: 1.51796 cumulative IPC: 1.51722 (Simulation time: 0 hr 37 min 20 sec) 
Heartbeat CPU 3 instructions: 270000000 cycles: 118741961 heartbeat IPC: 2.29793 cumulative IPC: 0.589514 (Simulation time: 0 hr 37 min 22 sec) 
Heartbeat CPU 2 instructions: 320000000 cycles: 120039466 heartbeat IPC: 2.71619 cumulative IPC: 0.999671 (Simulation time: 0 hr 37 min 47 sec) 
Heartbeat CPU 0 instructions: 320000000 cycles: 122460220 heartbeat IPC: 2.59265 cumulative IPC: 0.97991 (Simulation time: 0 hr 38 min 33 sec) 
Heartbeat CPU 3 instructions: 280000000 cycles: 123322311 heartbeat IPC: 2.18324 cumulative IPC: 0.648707 (Simulation time: 0 hr 38 min 51 sec) 
Heartbeat CPU 2 instructions: 330000003 cycles: 123770170 heartbeat IPC: 2.68046 cumulative IPC: 1.05033 (Simulation time: 0 hr 39 min 0 sec) 
Heartbeat CPU 1 instructions: 190000002 cycles: 125222500 heartbeat IPC: 1.51869 cumulative IPC: 1.5173 (Simulation time: 0 hr 39 min 27 sec) 
Heartbeat CPU 0 instructions: 330000001 cycles: 126194798 heartbeat IPC: 2.67768 cumulative IPC: 1.03015 (Simulation time: 0 hr 39 min 46 sec) 
Heartbeat CPU 2 instructions: 340000000 cycles: 127516652 heartbeat IPC: 2.66917 cumulative IPC: 1.0979 (Simulation time: 0 hr 40 min 13 sec) 
Heartbeat CPU 3 instructions: 290000001 cycles: 127559060 heartbeat IPC: 2.3603 cumulative IPC: 0.705556 (Simulation time: 0 hr 40 min 14 sec) 
Heartbeat CPU 0 instructions: 340000000 cycles: 130136854 heartbeat IPC: 2.53675 cumulative IPC: 1.07579 (Simulation time: 0 hr 41 min 3 sec) 
Heartbeat CPU 2 instructions: 350000002 cycles: 131267724 heartbeat IPC: 2.6659 cumulative IPC: 1.1427 (Simulation time: 0 hr 41 min 24 sec) 
Heartbeat CPU 1 instructions: 200000000 cycles: 131798232 heartbeat IPC: 1.52074 cumulative IPC: 1.51747 (Simulation time: 0 hr 41 min 34 sec) 

Warmup complete CPU 0 instructions: 344280802 cycles: 131798233 (Simulation time: 0 hr 41 min 34 sec) 
Warmup complete CPU 1 instructions: 200000001 cycles: 131798233 (Simulation time: 0 hr 41 min 34 sec) 
Warmup complete CPU 2 instructions: 351403955 cycles: 131798232 (Simulation time: 0 hr 41 min 34 sec) 
Warmup complete CPU 3 instructions: 299491854 cycles: 131798232 (Simulation time: 0 hr 41 min 34 sec) 

Heartbeat CPU 3 instructions: 300000000 cycles: 132089632 heartbeat IPC: 2.20723 cumulative IPC: 1.74381 (Simulation time: 0 hr 41 min 38 sec) 
Heartbeat CPU 0 instructions: 350000001 cycles: 137489166 heartbeat IPC: 1.36012 cumulative IPC: 1.00497 (Simulation time: 0 hr 42 min 32 sec) 
Heartbeat CPU 3 instructions: 310000003 cycles: 139205809 heartbeat IPC: 1.40525 cumulative IPC: 1.41857 (Simulation time: 0 hr 42 min 48 sec) 
Heartbeat CPU 2 instructions: 360000000 cycles: 146414188 heartbeat IPC: 0.66022 cumulative IPC: 0.588127 (Simulation time: 0 hr 44 min 1 sec) 
Heartbeat CPU 3 instructions: 320000000 cycles: 147687482 heartbeat IPC: 1.17901 cumulative IPC: 1.29069 (Simulation time: 0 hr 44 min 14 sec) 
Heartbeat CPU 0 instructions: 360000000 cycles: 147745276 heartbeat IPC: 0.975028 cumulative IPC: 0.985712 (Simulation time: 0 hr 44 min 15 sec) 
Heartbeat CPU 1 instructions: 210000002 cycles: 151392281 heartbeat IPC: 0.510359 cumulative IPC: 0.510359 (Simulation time: 0 hr 44 min 52 sec) 
Heartbeat CPU 3 instructions: 330000002 cycles: 155088209 heartbeat IPC: 1.35122 cumulative IPC: 1.30993 (Simulation time: 0 hr 45 min 30 sec) 
Heartbeat CPU 0 instructions: 370000001 cycles: 157422162 heartbeat IPC: 1.03339 cumulative IPC: 1.00372 (Simulation time: 0 hr 45 min 52 sec) 
Heartbeat CPU 2 instructions: 370000000 cycles: 163567059 heartbeat IPC: 0.582993 cumulative IPC: 0.585355 (Simulation time: 0 hr 46 min 54 sec) 
Heartbeat CPU 3 instructions: 340000000 cycles: 163611546 heartbeat IPC: 1.17325 cumulative IPC: 1.27331 (Simulation time: 0 hr 46 min 55 sec) 
Heartbeat CPU 0 instructions: 380000000 cycles: 167105547 heartbeat IPC: 1.0327 cumulative IPC: 1.01167 (Simulation time: 0 hr 47 min 27 sec) 
Heartbeat CPU 1 instructions: 220000000 cycles: 171066468 heartbeat IPC: 0.50828 cumulative IPC: 0.509318 (Simulation time: 0 hr 48 min 5 sec) 
Heartbeat CPU 3 instructions: 350000001 cycles: 172490445 heartbeat IPC: 1.12627 cumulative IPC: 1.24122 (Simulation time: 0 hr 48 min 18 sec) 
Heartbeat CPU 0 instructions: 390000002 cycles: 177156174 heartbeat IPC: 0.994963 cumulative IPC: 1.00796 (Simulation time: 0 hr 49 min 2 sec) 
Heartbeat CPU 2 instructions: 380000000 cycles: 180877970 heartbeat IPC: 0.57767 cumulative IPC: 0.582645 (Simulation time: 0 hr 49 min 38 sec) 
Heartbeat CPU 3 instructions: 360000000 cycles: 181088699 heartbeat IPC: 1.16303 cumulative IPC: 1.22758 (Simulation time: 0 hr 49 min 40 sec) 
Heartbeat CPU 0 instructions: 400000000 cycles: 188746633 heartbeat IPC: 0.862778 cumulative IPC: 0.978415 (Simulation time: 0 hr 50 min 52 sec) 
Heartbeat CPU 3 instructions: 370000001 cycles: 189707066 heartbeat IPC: 1.16031 cumulative IPC: 1.21757 (Simulation time: 0 hr 51 min 1 sec) 
Heartbeat CPU 1 instructions: 230000001 cycles: 191137342 heartbeat IPC: 0.498234 cumulative IPC: 0.505569 (Simulation time: 0 hr 51 min 14 sec) 
Heartbeat CPU 3 instructions: 380000000 cycles: 198143035 heartbeat IPC: 1.1854 cumulative IPC: 1.21348 (Simulation time: 0 hr 52 min 21 sec) 
Heartbeat CPU 2 instructions: 390000003 cycles: 198863938 heartbeat IPC: 0.555989 cumulative IPC: 0.575496 (Simulation time: 0 hr 52 min 27 sec) 
Heartbeat CPU 0 instructions: 410000002 cycles: 200029814 heartbeat IPC: 0.886275 cumulative IPC: 0.963179 (Simulation time: 0 hr 52 min 39 sec) 
Heartbeat CPU 3 instructions: 390000003 cycles: 206518164 heartbeat IPC: 1.19401 cumulative IPC: 1.2113 (Simulation time: 0 hr 53 min 42 sec) 
Heartbeat CPU 0 instructions: 420000000 cycles: 209875417 heartbeat IPC: 1.01568 cumulative IPC: 0.969799 (Simulation time: 0 hr 54 min 16 sec) 
Heartbeat CPU 1 instructions: 240000000 cycles: 211229566 heartbeat IPC: 0.497705 cumulative IPC: 0.50358 (Simulation time: 0 hr 54 min 28 sec) 
Heartbeat CPU 3 instructions: 400000000 cycles: 215005858 heartbeat IPC: 1.17818 cumulative IPC: 1.20792 (Simulation time: 0 hr 55 min 3 sec) 
Heartbeat CPU 2 instructions: 400000000 cycles: 216768334 heartbeat IPC: 0.558522 cumulative IPC: 0.571919 (Simulation time: 0 hr 55 min 20 sec) 
Heartbeat CPU 0 instructions: 430000000 cycles: 220975196 heartbeat IPC: 0.900919 cumulative IPC: 0.961226 (Simulation time: 0 hr 56 min 1 sec) 
Heartbeat CPU 3 instructions: 410000002 cycles: 223256321 heartbeat IPC: 1.21205 cumulative IPC: 1.20829 (Simulation time: 0 hr 56 min 24 sec) 
Heartbeat CPU 1 instructions: 250000002 cycles: 230718560 heartbeat IPC: 0.51311 cumulative IPC: 0.505457 (Simulation time: 0 hr 57 min 37 sec) 
Heartbeat CPU 0 instructions: 440000000 cycles: 231354159 heartbeat IPC: 0.963487 cumulative IPC: 0.961462 (Simulation time: 0 hr 57 min 43 sec) 
Heartbeat CPU 3 instructions: 420000000 cycles: 231819448 heartbeat IPC: 1.1678 cumulative IPC: 1.20483 (Simulation time: 0 hr 57 min 47 sec) 
Heartbeat CPU 2 instructions: 410000000 cycles: 234239285 heartbeat IPC: 0.572379 cumulative IPC: 0.571998 (Simulation time: 0 hr 58 min 10 sec) 
Heartbeat CPU 3 instructions: 430000002 cycles: 240428813 heartbeat IPC: 1.16153 cumulative IPC: 1.20139 (Simulation time: 0 hr 59 min 7 sec) 
Heartbeat CPU 0 instructions: 450000002 cycles: 240848219 heartbeat IPC: 1.05329 cumulative IPC: 0.969456 (Simulation time: 0 hr 59 min 12 sec) 
Heartbeat CPU 3 instructions: 440000000 cycles: 248949998 heartbeat IPC: 1.17355 cumulative IPC: 1.19937 (Simulation time: 1 hr 0 min 30 sec) 
Heartbeat CPU 0 instructions: 460000000 cycles: 250188558 heartbeat IPC: 1.07062 cumulative IPC: 0.977438 (Simulation time: 1 hr 0 min 42 sec) 
Heartbeat CPU 1 instructions: 260000000 cycles: 250272000 heartbeat IPC: 0.511419 cumulative IPC: 0.506441 (Simulation time: 1 hr 0 min 43 sec) 
Heartbeat CPU 2 instructions: 420000000 cycles: 250954908 heartbeat IPC: 0.598243 cumulative IPC: 0.575679 (Simulation time: 1 hr 0 min 49 sec) 
Heartbeat CPU 3 instructions: 450000002 cycles: 257192416 heartbeat IPC: 1.21324 cumulative IPC: 1.20028 (Simulation time: 1 hr 1 min 48 sec) 
Heartbeat CPU 0 instructions: 470000002 cycles: 259383653 heartbeat IPC: 1.08754 cumulative IPC: 0.985373 (Simulation time: 1 hr 2 min 8 sec) 
Heartbeat CPU 3 instructions: 460000000 cycles: 265644453 heartbeat IPC: 1.18315 cumulative IPC: 1.1992 (Simulation time: 1 hr 3 min 7 sec) 
Heartbeat CPU 2 instructions: 430000001 cycles: 268528779 heartbeat IPC: 0.569027 cumulative IPC: 0.574824 (Simulation time: 1 hr 3 min 35 sec) 
Heartbeat CPU 0 instructions: 480000000 cycles: 268552771 heartbeat IPC: 1.09062 cumulative IPC: 0.992429 (Simulation time: 1 hr 3 min 35 sec) 
Heartbeat CPU 1 instructions: 270000002 cycles: 269721104 heartbeat IPC: 0.514163 cumulative IPC: 0.50753 (Simulation time: 1 hr 3 min 47 sec) 
Heartbeat CPU 3 instructions: 470000000 cycles: 274248676 heartbeat IPC: 1.16222 cumulative IPC: 1.19696 (Simulation time: 1 hr 4 min 30 sec) 
Heartbeat CPU 0 instructions: 490000000 cycles: 277756103 heartbeat IPC: 1.08656 cumulative IPC: 0.998365 (Simulation time: 1 hr 5 min 2 sec) 
Heartbeat CPU 3 instructions: 480000000 cycles: 282626370 heartbeat IPC: 1.19365 cumulative IPC: 1.19678 (Simulation time: 1 hr 5 min 49 sec) 
Heartbeat CPU 2 instructions: 440000000 cycles: 285967398 heartbeat IPC: 0.57344 cumulative IPC: 0.574668 (Simulation time: 1 hr 6 min 22 sec) 
Heartbeat CPU 0 instructions: 500000000 cycles: 286908072 heartbeat IPC: 1.09266 cumulative IPC: 1.00393 (Simulation time: 1 hr 6 min 31 sec) 
Heartbeat CPU 1 instructions: 280000000 cycles: 289075572 heartbeat IPC: 0.516676 cumulative IPC: 0.508656 (Simulation time: 1 hr 6 min 52 sec) 
Heartbeat CPU 3 instructions: 490000001 cycles: 291286089 heartbeat IPC: 1.15477 cumulative IPC: 1.1945 (Simulation time: 1 hr 7 min 15 sec) 
Heartbeat CPU 0 instructions: 510000003 cycles: 296135605 heartbeat IPC: 1.08371 cumulative IPC: 1.00841 (Simulation time: 1 hr 8 min 5 sec) 
Heartbeat CPU 3 instructions: 500000000 cycles: 299827110 heartbeat IPC: 1.17082 cumulative IPC: 1.1933 (Simulation time: 1 hr 8 min 42 sec) 
Heartbeat CPU 2 instructions: 450000003 cycles: 303289136 heartbeat IPC: 0.577309 cumulative IPC: 0.574935 (Simulation time: 1 hr 9 min 15 sec) 
Heartbeat CPU 0 instructions: 520000000 cycles: 305348724 heartbeat IPC: 1.08541 cumulative IPC: 1.0125 (Simulation time: 1 hr 9 min 34 sec) 
Heartbeat CPU 3 instructions: 510000003 cycles: 308298968 heartbeat IPC: 1.18038 cumulative IPC: 1.19268 (Simulation time: 1 hr 10 min 2 sec) 
Heartbeat CPU 1 instructions: 290000001 cycles: 308691035 heartbeat IPC: 0.509802 cumulative IPC: 0.508783 (Simulation time: 1 hr 10 min 6 sec) 
Heartbeat CPU 0 instructions: 530000003 cycles: 315219142 heartbeat IPC: 1.01313 cumulative IPC: 1.01253 (Simulation time: 1 hr 11 min 6 sec) 
Heartbeat CPU 3 instructions: 520000000 cycles: 316641214 heartbeat IPC: 1.19872 cumulative IPC: 1.19295 (Simulation time: 1 hr 11 min 21 sec) 
Heartbeat CPU 2 instructions: 460000000 cycles: 321024417 heartbeat IPC: 0.563848 cumulative IPC: 0.573895 (Simulation time: 1 hr 12 min 3 sec) 
Heartbeat CPU 3 instructions: 530000002 cycles: 325126582 heartbeat IPC: 1.1785 cumulative IPC: 1.19231 (Simulation time: 1 hr 12 min 44 sec) 
Heartbeat CPU 0 instructions: 540000000 cycles: 325313907 heartbeat IPC: 0.990612 cumulative IPC: 1.01139 (Simulation time: 1 hr 12 min 45 sec) 
Heartbeat CPU 1 instructions: 300000000 cycles: 328268504 heartbeat IPC: 0.510791 cumulative IPC: 0.508983 (Simulation time: 1 hr 13 min 12 sec) 
Heartbeat CPU 3 instructions: 540000000 cycles: 333691844 heartbeat IPC: 1.16751 cumulative IPC: 1.19126 (Simulation time: 1 hr 14 min 2 sec) 
Heartbeat CPU 0 instructions: 550000000 cycles: 336458474 heartbeat IPC: 0.897298 cumulative IPC: 1.00517 (Simulation time: 1 hr 14 min 25 sec) 
Heartbeat CPU 2 instructions: 470000003 cycles: 339288180 heartbeat IPC: 0.547532 cumulative IPC: 0.571575 (Simulation time: 1 hr 14 min 51 sec) 
Heartbeat CPU 3 instructions: 550000001 cycles: 342347126 heartbeat IPC: 1.15536 cumulative IPC: 1.18979 (Simulation time: 1 hr 15 min 20 sec) 
Heartbeat CPU 0 instructions: 560000000 cycles: 346841186 heartbeat IPC: 0.963139 cumulative IPC: 1.00314 (Simulation time: 1 hr 16 min 0 sec) 
Heartbeat CPU 1 instructions: 310000002 cycles: 347765063 heartbeat IPC: 0.512911 cumulative IPC: 0.509337 (Simulation time: 1 hr 16 min 8 sec) 
Heartbeat CPU 3 instructions: 560000000 cycles: 351122399 heartbeat IPC: 1.13957 cumulative IPC: 1.18778 (Simulation time: 1 hr 16 min 41 sec) 
Heartbeat CPU 2 instructions: 480000000 cycles: 356387835 heartbeat IPC: 0.584807 cumulative IPC: 0.572582 (Simulation time: 1 hr 17 min 31 sec) 
Heartbeat CPU 0 instructions: 570000003 cycles: 357727219 heartbeat IPC: 0.918609 cumulative IPC: 0.999071 (Simulation time: 1 hr 17 min 44 sec) 
Heartbeat CPU 3 instructions: 570000002 cycles: 359586833 heartbeat IPC: 1.18141 cumulative IPC: 1.18754 (Simulation time: 1 hr 18 min 3 sec) 
Heartbeat CPU 1 instructions: 320000000 cycles: 367492966 heartbeat IPC: 0.506896 cumulative IPC: 0.509133 (Simulation time: 1 hr 19 min 20 sec) 
Heartbeat CPU 0 instructions: 580000000 cycles: 367515680 heartbeat IPC: 1.02161 cumulative IPC: 1.00001 (Simulation time: 1 hr 19 min 20 sec) 
Heartbeat CPU 3 instructions: 580000000 cycles: 368179783 heartbeat IPC: 1.16374 cumulative IPC: 1.18668 (Simulation time: 1 hr 19 min 26 sec) 
Heartbeat CPU 2 instructions: 490000000 cycles: 374149685 heartbeat IPC: 0.563004 cumulative IPC: 0.57188 (Simulation time: 1 hr 20 min 24 sec) 
Heartbeat CPU 3 instructions: 590000001 cycles: 376631378 heartbeat IPC: 1.18321 cumulative IPC: 1.18656 (Simulation time: 1 hr 20 min 48 sec) 
Heartbeat CPU 0 instructions: 590000003 cycles: 378433601 heartbeat IPC: 0.915926 cumulative IPC: 0.996285 (Simulation time: 1 hr 21 min 5 sec) 
Heartbeat CPU 3 instructions: 600000000 cycles: 384994041 heartbeat IPC: 1.19579 cumulative IPC: 1.18686 (Simulation time: 1 hr 22 min 10 sec) 
Heartbeat CPU 1 instructions: 330000003 cycles: 386908781 heartbeat IPC: 0.515044 cumulative IPC: 0.509583 (Simulation time: 1 hr 22 min 27 sec) 
Heartbeat CPU 0 instructions: 600000000 cycles: 388982285 heartbeat IPC: 0.947985 cumulative IPC: 0.994304 (Simulation time: 1 hr 22 min 46 sec) 
Heartbeat CPU 2 instructions: 500000000 cycles: 392341201 heartbeat IPC: 0.549707 cumulative IPC: 0.570332 (Simulation time: 1 hr 23 min 17 sec) 
Heartbeat CPU 3 instructions: 610000003 cycles: 393564845 heartbeat IPC: 1.16675 cumulative IPC: 1.1862 (Simulation time: 1 hr 23 min 31 sec) 
Heartbeat CPU 0 instructions: 610000003 cycles: 399875709 heartbeat IPC: 0.917985 cumulative IPC: 0.991203 (Simulation time: 1 hr 24 min 39 sec) 
Heartbeat CPU 3 instructions: 620000000 cycles: 402035379 heartbeat IPC: 1.18056 cumulative IPC: 1.18603 (Simulation time: 1 hr 25 min 24 sec) 
Heartbeat CPU 1 instructions: 340000000 cycles: 406670926 heartbeat IPC: 0.506018 cumulative IPC: 0.509327 (Simulation time: 1 hr 26 min 59 sec) 
Heartbeat CPU 2 instructions: 510000000 cycles: 409657285 heartbeat IPC: 0.577498 cumulative IPC: 0.570779 (Simulation time: 1 hr 27 min 58 sec) 
Heartbeat CPU 0 instructions: 620000000 cycles: 409868284 heartbeat IPC: 1.00074 cumulative IPC: 0.991546 (Simulation time: 1 hr 28 min 2 sec) 
Heartbeat CPU 3 instructions: 630000001 cycles: 410420094 heartbeat IPC: 1.19265 cumulative IPC: 1.18622 (Simulation time: 1 hr 28 min 14 sec) 
Heartbeat CPU 3 instructions: 640000000 cycles: 418778067 heartbeat IPC: 1.19646 cumulative IPC: 1.18652 (Simulation time: 1 hr 30 min 58 sec) 
Heartbeat CPU 0 instructions: 630000001 cycles: 419747388 heartbeat IPC: 1.01224 cumulative IPC: 0.992256 (Simulation time: 1 hr 31 min 8 sec) 
Heartbeat CPU 1 instructions: 350000002 cycles: 426367294 heartbeat IPC: 0.507708 cumulative IPC: 0.509218 (Simulation time: 1 hr 32 min 42 sec) 
Heartbeat CPU 3 instructions: 650000000 cycles: 427113672 heartbeat IPC: 1.19967 cumulative IPC: 1.18689 (Simulation time: 1 hr 32 min 57 sec) 
Heartbeat CPU 2 instructions: 520000000 cycles: 427475385 heartbeat IPC: 0.561227 cumulative IPC: 0.570203 (Simulation time: 1 hr 33 min 3 sec) 
Heartbeat CPU 0 instructions: 640000000 cycles: 429090234 heartbeat IPC: 1.07034 cumulative IPC: 0.99471 (Simulation time: 1 hr 33 min 20 sec) 
Heartbeat CPU 3 instructions: 660000000 cycles: 435791823 heartbeat IPC: 1.15232 cumulative IPC: 1.18591 (Simulation time: 1 hr 35 min 3 sec) 
Heartbeat CPU 0 instructions: 650000002 cycles: 438517630 heartbeat IPC: 1.06074 cumulative IPC: 0.996739 (Simulation time: 1 hr 35 min 30 sec) 
Heartbeat CPU 3 instructions: 670000001 cycles: 444263194 heartbeat IPC: 1.18045 cumulative IPC: 1.18576 (Simulation time: 1 hr 36 min 26 sec) 
Heartbeat CPU 2 instructions: 530000001 cycles: 445693372 heartbeat IPC: 0.548908 cumulative IPC: 0.568967 (Simulation time: 1 hr 36 min 42 sec) 
Heartbeat CPU 1 instructions: 360000000 cycles: 446499414 heartbeat IPC: 0.496719 cumulative IPC: 0.508419 (Simulation time: 1 hr 36 min 49 sec) 
Heartbeat CPU 0 instructions: 660000000 cycles: 447791414 heartbeat IPC: 1.07831 cumulative IPC: 0.999133 (Simulation time: 1 hr 37 min 3 sec) 
Heartbeat CPU 3 instructions: 680000000 cycles: 452502456 heartbeat IPC: 1.2137 cumulative IPC: 1.18648 (Simulation time: 1 hr 37 min 50 sec) 
Heartbeat CPU 0 instructions: 670000001 cycles: 457674881 heartbeat IPC: 1.01179 cumulative IPC: 0.999517 (Simulation time: 1 hr 38 min 40 sec) 
Heartbeat CPU 3 instructions: 690000001 cycles: 461146439 heartbeat IPC: 1.15687 cumulative IPC: 1.1857 (Simulation time: 1 hr 39 min 13 sec) 
Heartbeat CPU 2 instructions: 540000000 cycles: 462952182 heartbeat IPC: 0.579414 cumulative IPC: 0.569512 (Simulation time: 1 hr 39 min 32 sec) 
Heartbeat CPU 1 instructions: 370000001 cycles: 466934085 heartbeat IPC: 0.489364 cumulative IPC: 0.507257 (Simulation time: 1 hr 40 min 10 sec) 
Heartbeat CPU 0 instructions: 680000000 cycles: 467611642 heartbeat IPC: 1.00636 cumulative IPC: 0.999719 (Simulation time: 1 hr 40 min 16 sec) 
Heartbeat CPU 3 instructions: 700000000 cycles: 469941237 heartbeat IPC: 1.13704 cumulative IPC: 1.18443 (Simulation time: 1 hr 40 min 39 sec) 
Heartbeat CPU 0 instructions: 690000002 cycles: 476835324 heartbeat IPC: 1.08417 cumulative IPC: 1.00198 (Simulation time: 1 hr 41 min 49 sec) 
Heartbeat CPU 3 instructions: 710000000 cycles: 478472702 heartbeat IPC: 1.17213 cumulative IPC: 1.18413 (Simulation time: 1 hr 42 min 4 sec) 
Heartbeat CPU 2 instructions: 550000000 cycles: 480907559 heartbeat IPC: 0.556936 cumulative IPC: 0.568865 (Simulation time: 1 hr 42 min 29 sec) 
Heartbeat CPU 0 instructions: 700000000 cycles: 486505639 heartbeat IPC: 1.03409 cumulative IPC: 1.00285 (Simulation time: 1 hr 43 min 25 sec) 
Heartbeat CPU 3 instructions: 720000000 cycles: 486960425 heartbeat IPC: 1.17817 cumulative IPC: 1.18399 (Simulation time: 1 hr 43 min 30 sec) 
Heartbeat CPU 1 instructions: 380000000 cycles: 487186771 heartbeat IPC: 0.493762 cumulative IPC: 0.506488 (Simulation time: 1 hr 43 min 32 sec) 
Heartbeat CPU 3 instructions: 730000002 cycles: 495355550 heartbeat IPC: 1.19117 cumulative IPC: 1.18415 (Simulation time: 1 hr 44 min 50 sec) 
Heartbeat CPU 0 instructions: 710000001 cycles: 497094451 heartbeat IPC: 0.944393 cumulative IPC: 1.00116 (Simulation time: 1 hr 45 min 5 sec) 
Heartbeat CPU 2 instructions: 560000000 cycles: 499416262 heartbeat IPC: 0.540286 cumulative IPC: 0.567426 (Simulation time: 1 hr 45 min 30 sec) 
Heartbeat CPU 3 instructions: 740000000 cycles: 503582960 heartbeat IPC: 1.21545 cumulative IPC: 1.18485 (Simulation time: 1 hr 46 min 12 sec) 
Heartbeat CPU 0 instructions: 720000000 cycles: 506653180 heartbeat IPC: 1.04616 cumulative IPC: 1.00231 (Simulation time: 1 hr 46 min 42 sec) 
Heartbeat CPU 1 instructions: 390000002 cycles: 507334996 heartbeat IPC: 0.496322 cumulative IPC: 0.505942 (Simulation time: 1 hr 46 min 49 sec) 
Heartbeat CPU 3 instructions: 750000003 cycles: 511924329 heartbeat IPC: 1.19884 cumulative IPC: 1.18515 (Simulation time: 1 hr 47 min 34 sec) 
Heartbeat CPU 2 instructions: 570000003 cycles: 516536394 heartbeat IPC: 0.584108 cumulative IPC: 0.568168 (Simulation time: 1 hr 48 min 20 sec) 
Heartbeat CPU 0 instructions: 730000002 cycles: 516624563 heartbeat IPC: 1.00287 cumulative IPC: 1.00232 (Simulation time: 1 hr 48 min 21 sec) 
Heartbeat CPU 3 instructions: 760000000 cycles: 520435736 heartbeat IPC: 1.17489 cumulative IPC: 1.18493 (Simulation time: 1 hr 48 min 58 sec) 
Heartbeat CPU 0 instructions: 740000000 cycles: 526100499 heartbeat IPC: 1.0553 cumulative IPC: 1.00359 (Simulation time: 1 hr 49 min 55 sec) 
Heartbeat CPU 1 instructions: 400000000 cycles: 527627666 heartbeat IPC: 0.492789 cumulative IPC: 0.505268 (Simulation time: 1 hr 50 min 10 sec) 
Heartbeat CPU 3 instructions: 770000001 cycles: 528693652 heartbeat IPC: 1.21096 cumulative IPC: 1.18547 (Simulation time: 1 hr 50 min 22 sec) 
Heartbeat CPU 2 instructions: 580000000 cycles: 534546012 heartbeat IPC: 0.555259 cumulative IPC: 0.567591 (Simulation time: 1 hr 51 min 46 sec) 
Heartbeat CPU 0 instructions: 750000001 cycles: 535565133 heartbeat IPC: 1.05657 cumulative IPC: 1.00484 (Simulation time: 1 hr 52 min 8 sec) 
Heartbeat CPU 3 instructions: 780000000 cycles: 536957555 heartbeat IPC: 1.21008 cumulative IPC: 1.18597 (Simulation time: 1 hr 52 min 36 sec) 
Heartbeat CPU 0 instructions: 760000000 cycles: 545125877 heartbeat IPC: 1.04594 cumulative IPC: 1.00579 (Simulation time: 1 hr 55 min 0 sec) 
Heartbeat CPU 3 instructions: 790000000 cycles: 545163881 heartbeat IPC: 1.21857 cumulative IPC: 1.18662 (Simulation time: 1 hr 55 min 0 sec) 
Heartbeat CPU 1 instructions: 410000003 cycles: 548147432 heartbeat IPC: 0.487335 cumulative IPC: 0.504384 (Simulation time: 1 hr 55 min 29 sec) 
Heartbeat CPU 2 instructions: 590000003 cycles: 553092550 heartbeat IPC: 0.539184 cumulative IPC: 0.566341 (Simulation time: 1 hr 56 min 17 sec) 
Heartbeat CPU 3 instructions: 800000000 cycles: 553834988 heartbeat IPC: 1.15326 cumulative IPC: 1.18594 (Simulation time: 1 hr 56 min 24 sec) 
Heartbeat CPU 0 instructions: 770000002 cycles: 554701154 heartbeat IPC: 1.04436 cumulative IPC: 1.00666 (Simulation time: 1 hr 56 min 33 sec) 
Heartbeat CPU 3 instructions: 810000002 cycles: 562283724 heartbeat IPC: 1.18361 cumulative IPC: 1.18589 (Simulation time: 1 hr 57 min 49 sec) 
Heartbeat CPU 0 instructions: 780000000 cycles: 564143339 heartbeat IPC: 1.05908 cumulative IPC: 1.0078 (Simulation time: 1 hr 58 min 9 sec) 
Heartbeat CPU 1 instructions: 420000000 cycles: 568472529 heartbeat IPC: 0.492002 cumulative IPC: 0.503808 (Simulation time: 1 hr 58 min 52 sec) 
Heartbeat CPU 2 instructions: 600000000 cycles: 570001160 heartbeat IPC: 0.591415 cumulative IPC: 0.567308 (Simulation time: 1 hr 59 min 7 sec) 
Heartbeat CPU 3 instructions: 820000000 cycles: 570318386 heartbeat IPC: 1.24461 cumulative IPC: 1.18697 (Simulation time: 1 hr 59 min 10 sec) 
Heartbeat CPU 0 instructions: 790000002 cycles: 573791252 heartbeat IPC: 1.03649 cumulative IPC: 1.00843 (Simulation time: 1 hr 59 min 46 sec) 
Heartbeat CPU 3 instructions: 830000001 cycles: 578924517 heartbeat IPC: 1.16196 cumulative IPC: 1.18648 (Simulation time: 2 hr 0 min 38 sec) 
Heartbeat CPU 0 instructions: 800000000 cycles: 583690893 heartbeat IPC: 1.01014 cumulative IPC: 1.00847 (Simulation time: 2 hr 1 min 27 sec) 
Heartbeat CPU 2 instructions: 610000003 cycles: 587224333 heartbeat IPC: 0.580613 cumulative IPC: 0.567811 (Simulation time: 2 hr 2 min 7 sec) 
Heartbeat CPU 3 instructions: 840000000 cycles: 587995943 heartbeat IPC: 1.10236 cumulative IPC: 1.18481 (Simulation time: 2 hr 2 min 16 sec) 
Heartbeat CPU 1 instructions: 430000002 cycles: 589155192 heartbeat IPC: 0.483497 cumulative IPC: 0.502889 (Simulation time: 2 hr 2 min 29 sec) 
Heartbeat CPU 0 instructions: 810000000 cycles: 593833356 heartbeat IPC: 0.985954 cumulative IPC: 1.00797 (Simulation time: 2 hr 3 min 19 sec) 
Heartbeat CPU 3 instructions: 850000003 cycles: 596442751 heartbeat IPC: 1.18388 cumulative IPC: 1.18479 (Simulation time: 2 hr 3 min 44 sec) 
Heartbeat CPU 0 instructions: 820000000 cycles: 604350883 heartbeat IPC: 0.950794 cumulative IPC: 1.0067 (Simulation time: 2 hr 4 min 59 sec) 
Heartbeat CPU 2 instructions: 620000000 cycles: 604930927 heartbeat IPC: 0.564761 cumulative IPC: 0.567697 (Simulation time: 2 hr 5 min 5 sec) 
Heartbeat CPU 3 instructions: 860000000 cycles: 605002682 heartbeat IPC: 1.16823 cumulative IPC: 1.18449 (Simulation time: 2 hr 5 min 6 sec) 
Heartbeat CPU 1 instructions: 440000000 cycles: 611088556 heartbeat IPC: 0.455926 cumulative IPC: 0.50074 (Simulation time: 2 hr 6 min 4 sec) 
Heartbeat CPU 3 instructions: 870000000 cycles: 613489273 heartbeat IPC: 1.17833 cumulative IPC: 1.18439 (Simulation time: 2 hr 6 min 27 sec) 
Heartbeat CPU 0 instructions: 830000002 cycles: 614499296 heartbeat IPC: 0.985376 cumulative IPC: 1.00625 (Simulation time: 2 hr 6 min 38 sec) 
Heartbeat CPU 3 instructions: 880000000 cycles: 621924943 heartbeat IPC: 1.18544 cumulative IPC: 1.1844 (Simulation time: 2 hr 7 min 49 sec) 
Heartbeat CPU 2 instructions: 630000001 cycles: 622845573 heartbeat IPC: 0.558203 cumulative IPC: 0.567351 (Simulation time: 2 hr 8 min 2 sec) 
Heartbeat CPU 0 instructions: 840000000 cycles: 625030202 heartbeat IPC: 0.949586 cumulative IPC: 1.00504 (Simulation time: 2 hr 8 min 45 sec) 
Heartbeat CPU 3 instructions: 890000001 cycles: 630136797 heartbeat IPC: 1.21775 cumulative IPC: 1.18495 (Simulation time: 2 hr 10 min 7 sec) 
Heartbeat CPU 1 instructions: 450000000 cycles: 632905200 heartbeat IPC: 0.458366 cumulative IPC: 0.498895 (Simulation time: 2 hr 10 min 37 sec) 
Heartbeat CPU 0 instructions: 850000002 cycles: 634789386 heartbeat IPC: 1.02468 cumulative IPC: 1.00542 (Simulation time: 2 hr 10 min 55 sec) 
Heartbeat CPU 3 instructions: 900000000 cycles: 638458602 heartbeat IPC: 1.20166 cumulative IPC: 1.18523 (Simulation time: 2 hr 11 min 33 sec) 
Heartbeat CPU 2 instructions: 640000000 cycles: 640853314 heartbeat IPC: 0.555317 cumulative IPC: 0.566925 (Simulation time: 2 hr 11 min 56 sec) 
Heartbeat CPU 0 instructions: 860000000 cycles: 644532939 heartbeat IPC: 1.02632 cumulative IPC: 1.00582 (Simulation time: 2 hr 12 min 32 sec) 
Heartbeat CPU 3 instructions: 910000003 cycles: 646892255 heartbeat IPC: 1.18573 cumulative IPC: 1.18524 (Simulation time: 2 hr 12 min 55 sec) 
Heartbeat CPU 0 instructions: 870000003 cycles: 654189997 heartbeat IPC: 1.03551 cumulative IPC: 1.00637 (Simulation time: 2 hr 14 min 13 sec) 
Heartbeat CPU 3 instructions: 920000000 cycles: 655457220 heartbeat IPC: 1.16755 cumulative IPC: 1.18495 (Simulation time: 2 hr 14 min 26 sec) 
Heartbeat CPU 1 instructions: 460000000 cycles: 656036746 heartbeat IPC: 0.43231 cumulative IPC: 0.495957 (Simulation time: 2 hr 14 min 34 sec) 
Heartbeat CPU 2 instructions: 650000003 cycles: 658570027 heartbeat IPC: 0.564439 cumulative IPC: 0.566841 (Simulation time: 2 hr 15 min 1 sec) 
Heartbeat CPU 3 instructions: 930000001 cycles: 663606458 heartbeat IPC: 1.22711 cumulative IPC: 1.18559 (Simulation time: 2 hr 15 min 59 sec) 
Heartbeat CPU 0 instructions: 880000000 cycles: 663673669 heartbeat IPC: 1.05444 cumulative IPC: 1.00723 (Simulation time: 2 hr 16 min 0 sec) 
Heartbeat CPU 3 instructions: 940000000 cycles: 671882963 heartbeat IPC: 1.20824 cumulative IPC: 1.18594 (Simulation time: 2 hr 17 min 21 sec) 
Heartbeat CPU 0 instructions: 890000000 cycles: 674193523 heartbeat IPC: 0.950584 cumulative IPC: 1.00613 (Simulation time: 2 hr 17 min 43 sec) 
Heartbeat CPU 2 instructions: 660000000 cycles: 676395231 heartbeat IPC: 0.561003 cumulative IPC: 0.56665 (Simulation time: 2 hr 18 min 4 sec) 
Heartbeat CPU 1 instructions: 470000001 cycles: 677079884 heartbeat IPC: 0.475214 cumulative IPC: 0.495157 (Simulation time: 2 hr 18 min 10 sec) 
Heartbeat CPU 3 instructions: 950000002 cycles: 680448136 heartbeat IPC: 1.16752 cumulative IPC: 1.18565 (Simulation time: 2 hr 18 min 44 sec) 
Heartbeat CPU 0 instructions: 900000000 cycles: 685043418 heartbeat IPC: 0.921668 cumulative IPC: 1.00447 (Simulation time: 2 hr 19 min 27 sec) 
Heartbeat CPU 3 instructions: 960000000 cycles: 688963115 heartbeat IPC: 1.1744 cumulative IPC: 1.18548 (Simulation time: 2 hr 20 min 5 sec) 
Heartbeat CPU 2 instructions: 670000002 cycles: 694275873 heartbeat IPC: 0.559264 cumulative IPC: 0.566415 (Simulation time: 2 hr 20 min 56 sec) 
Heartbeat CPU 0 instructions: 910000000 cycles: 695881983 heartbeat IPC: 0.922631 cumulative IPC: 1.0029 (Simulation time: 2 hr 21 min 12 sec) 
Heartbeat CPU 3 instructions: 970000002 cycles: 697114878 heartbeat IPC: 1.22673 cumulative IPC: 1.18608 (Simulation time: 2 hr 21 min 25 sec) 
Heartbeat CPU 1 instructions: 480000000 cycles: 697148890 heartbeat IPC: 0.498281 cumulative IPC: 0.495268 (Simulation time: 2 hr 21 min 25 sec) 
Heartbeat CPU 3 instructions: 980000000 cycles: 705736215 heartbeat IPC: 1.15991 cumulative IPC: 1.18568 (Simulation time: 2 hr 22 min 47 sec) 
Heartbeat CPU 0 instructions: 920000000 cycles: 706822289 heartbeat IPC: 0.914051 cumulative IPC: 1.00121 (Simulation time: 2 hr 22 min 57 sec) 
Heartbeat CPU 2 instructions: 680000000 cycles: 712705999 heartbeat IPC: 0.54259 cumulative IPC: 0.56566 (Simulation time: 2 hr 23 min 52 sec) 
Heartbeat CPU 3 instructions: 990000001 cycles: 714619682 heartbeat IPC: 1.12569 cumulative IPC: 1.18477 (Simulation time: 2 hr 24 min 11 sec) 
Heartbeat CPU 1 instructions: 490000002 cycles: 717097472 heartbeat IPC: 0.501289 cumulative IPC: 0.495473 (Simulation time: 2 hr 24 min 35 sec) 
Heartbeat CPU 0 instructions: 930000001 cycles: 717977910 heartbeat IPC: 0.896409 cumulative IPC: 0.999214 (Simulation time: 2 hr 24 min 43 sec) 
Heartbeat CPU 3 instructions: 1000000000 cycles: 723123864 heartbeat IPC: 1.17589 cumulative IPC: 1.18464 (Simulation time: 2 hr 25 min 34 sec) 
Heartbeat CPU 0 instructions: 940000000 cycles: 727939369 heartbeat IPC: 1.00387 cumulative IPC: 0.999292 (Simulation time: 2 hr 26 min 22 sec) 
Heartbeat CPU 2 instructions: 690000003 cycles: 729598493 heartbeat IPC: 0.591979 cumulative IPC: 0.566403 (Simulation time: 2 hr 26 min 37 sec) 
Heartbeat CPU 3 instructions: 1010000001 cycles: 731792980 heartbeat IPC: 1.15352 cumulative IPC: 1.18419 (Simulation time: 2 hr 26 min 59 sec) 
Heartbeat CPU 1 instructions: 500000000 cycles: 736901046 heartbeat IPC: 0.504959 cumulative IPC: 0.495784 (Simulation time: 2 hr 27 min 47 sec) 
Heartbeat CPU 0 instructions: 950000003 cycles: 738280220 heartbeat IPC: 0.967039 cumulative IPC: 0.998742 (Simulation time: 2 hr 28 min 1 sec) 
Heartbeat CPU 3 instructions: 1020000000 cycles: 740274530 heartbeat IPC: 1.17903 cumulative IPC: 1.18412 (Simulation time: 2 hr 28 min 22 sec) 
Heartbeat CPU 2 instructions: 700000000 cycles: 747147826 heartbeat IPC: 0.569822 cumulative IPC: 0.566501 (Simulation time: 2 hr 29 min 30 sec) 
Heartbeat CPU 0 instructions: 960000000 cycles: 748386238 heartbeat IPC: 0.989509 cumulative IPC: 0.998591 (Simulation time: 2 hr 29 min 42 sec) 
Heartbeat CPU 3 instructions: 1030000000 cycles: 748849393 heartbeat IPC: 1.1662 cumulative IPC: 1.18387 (Simulation time: 2 hr 29 min 46 sec) 
Heartbeat CPU 1 instructions: 510000001 cycles: 756609337 heartbeat IPC: 0.507401 cumulative IPC: 0.49615 (Simulation time: 2 hr 31 min 3 sec) 
Heartbeat CPU 3 instructions: 1040000000 cycles: 757371892 heartbeat IPC: 1.17336 cumulative IPC: 1.18373 (Simulation time: 2 hr 31 min 10 sec) 
Heartbeat CPU 0 instructions: 970000000 cycles: 758050159 heartbeat IPC: 1.03478 cumulative IPC: 0.999149 (Simulation time: 2 hr 31 min 17 sec) 
Heartbeat CPU 2 instructions: 710000000 cycles: 764721925 heartbeat IPC: 0.569019 cumulative IPC: 0.566571 (Simulation time: 2 hr 32 min 18 sec) 
Heartbeat CPU 3 instructions: 1050000000 cycles: 765692873 heartbeat IPC: 1.20178 cumulative IPC: 1.18396 (Simulation time: 2 hr 32 min 26 sec) 
Heartbeat CPU 0 instructions: 980000000 cycles: 770091253 heartbeat IPC: 0.830489 cumulative IPC: 0.995968 (Simulation time: 2 hr 33 min 5 sec) 
Heartbeat CPU 3 instructions: 1060000000 cycles: 774137863 heartbeat IPC: 1.18413 cumulative IPC: 1.18397 (Simulation time: 2 hr 33 min 41 sec) 
Heartbeat CPU 1 instructions: 520000000 cycles: 776106420 heartbeat IPC: 0.512897 cumulative IPC: 0.496657 (Simulation time: 2 hr 33 min 57 sec) 
Heartbeat CPU 3 instructions: 1070000003 cycles: 782490049 heartbeat IPC: 1.19729 cumulative IPC: 1.18414 (Simulation time: 2 hr 34 min 53 sec) 
Heartbeat CPU 0 instructions: 990000000 cycles: 782821415 heartbeat IPC: 0.785536 cumulative IPC: 0.991853 (Simulation time: 2 hr 34 min 55 sec) 
Heartbeat CPU 2 instructions: 720000000 cycles: 783359615 heartbeat IPC: 0.536547 cumulative IPC: 0.565712 (Simulation time: 2 hr 35 min 0 sec) 
Heartbeat CPU 3 instructions: 1080000000 cycles: 790936032 heartbeat IPC: 1.18399 cumulative IPC: 1.18413 (Simulation time: 2 hr 36 min 9 sec) 
Heartbeat CPU 0 instructions: 1000000000 cycles: 794821301 heartbeat IPC: 0.833341 cumulative IPC: 0.988984 (Simulation time: 2 hr 36 min 42 sec) 
Heartbeat CPU 1 instructions: 530000002 cycles: 795668750 heartbeat IPC: 0.511187 cumulative IPC: 0.497085 (Simulation time: 2 hr 36 min 51 sec) 
Heartbeat CPU 3 instructions: 1090000001 cycles: 799438579 heartbeat IPC: 1.17612 cumulative IPC: 1.18403 (Simulation time: 2 hr 37 min 23 sec) 
Heartbeat CPU 2 instructions: 730000000 cycles: 800528977 heartbeat IPC: 0.582433 cumulative IPC: 0.566141 (Simulation time: 2 hr 37 min 34 sec) 
Heartbeat CPU 0 instructions: 1010000003 cycles: 805591052 heartbeat IPC: 0.928527 cumulative IPC: 0.988018 (Simulation time: 2 hr 38 min 19 sec) 
Heartbeat CPU 3 instructions: 1100000000 cycles: 807609272 heartbeat IPC: 1.22389 cumulative IPC: 1.18451 (Simulation time: 2 hr 38 min 38 sec) 
Heartbeat CPU 1 instructions: 540000000 cycles: 815315595 heartbeat IPC: 0.508987 cumulative IPC: 0.497427 (Simulation time: 2 hr 39 min 50 sec) 
Heartbeat CPU 3 instructions: 1110000003 cycles: 816205339 heartbeat IPC: 1.16332 cumulative IPC: 1.18425 (Simulation time: 2 hr 39 min 57 sec) 
Heartbeat CPU 0 instructions: 1020000000 cycles: 816260133 heartbeat IPC: 0.937288 cumulative IPC: 0.987227 (Simulation time: 2 hr 39 min 58 sec) 
Heartbeat CPU 2 instructions: 740000000 cycles: 817863700 heartbeat IPC: 0.576877 cumulative IPC: 0.566413 (Simulation time: 2 hr 40 min 14 sec) 
Heartbeat CPU 3 instructions: 1120000000 cycles: 825110856 heartbeat IPC: 1.1229 cumulative IPC: 1.18346 (Simulation time: 2 hr 41 min 18 sec) 
Heartbeat CPU 0 instructions: 1030000002 cycles: 826056531 heartbeat IPC: 1.02078 cumulative IPC: 0.9877 (Simulation time: 2 hr 41 min 27 sec) 
Heartbeat CPU 3 instructions: 1130000003 cycles: 833978091 heartbeat IPC: 1.12775 cumulative IPC: 1.18276 (Simulation time: 2 hr 42 min 42 sec) 
Heartbeat CPU 2 instructions: 750000000 cycles: 835083179 heartbeat IPC: 0.580738 cumulative IPC: 0.566763 (Simulation time: 2 hr 42 min 51 sec) 
Heartbeat CPU 1 instructions: 550000001 cycles: 835404444 heartbeat IPC: 0.497789 cumulative IPC: 0.497437 (Simulation time: 2 hr 42 min 54 sec) 
Heartbeat CPU 0 instructions: 1040000000 cycles: 836026778 heartbeat IPC: 1.00298 cumulative IPC: 0.987917 (Simulation time: 2 hr 43 min 0 sec) 
Heartbeat CPU 3 instructions: 1140000000 cycles: 842672957 heartbeat IPC: 1.1501 cumulative IPC: 1.18236 (Simulation time: 2 hr 44 min 2 sec) 
Heartbeat CPU 0 instructions: 1050000000 cycles: 845456260 heartbeat IPC: 1.0605 cumulative IPC: 0.988876 (Simulation time: 2 hr 44 min 28 sec) 
Heartbeat CPU 3 instructions: 1150000000 cycles: 851535184 heartbeat IPC: 1.12838 cumulative IPC: 1.18169 (Simulation time: 2 hr 45 min 26 sec) 
Heartbeat CPU 2 instructions: 760000000 cycles: 852081929 heartbeat IPC: 0.588279 cumulative IPC: 0.567271 (Simulation time: 2 hr 45 min 31 sec) 
Heartbeat CPU 0 instructions: 1060000000 cycles: 854949455 heartbeat IPC: 1.05339 cumulative IPC: 0.989723 (Simulation time: 2 hr 45 min 58 sec) 
Heartbeat CPU 1 instructions: 560000000 cycles: 855128320 heartbeat IPC: 0.507 cumulative IPC: 0.497698 (Simulation time: 2 hr 46 min 0 sec) 
Heartbeat CPU 3 instructions: 1160000000 cycles: 860409084 heartbeat IPC: 1.1269 cumulative IPC: 1.18103 (Simulation time: 2 hr 46 min 48 sec) 
Heartbeat CPU 0 instructions: 1070000000 cycles: 865983811 heartbeat IPC: 0.90626 cumulative IPC: 0.988468 (Simulation time: 2 hr 47 min 33 sec) 
Heartbeat CPU 2 instructions: 770000002 cycles: 870463055 heartbeat IPC: 0.544036 cumulative IPC: 0.566693 (Simulation time: 2 hr 48 min 1 sec) 
Heartbeat CPU 1 instructions: 570000001 cycles: 874796327 heartbeat IPC: 0.50844 cumulative IPC: 0.497982 (Simulation time: 2 hr 48 min 32 sec) 
Heartbeat CPU 3 instructions: 1170000000 cycles: 879930409 heartbeat IPC: 0.51226 cumulative IPC: 1.16358 (Simulation time: 2 hr 49 min 7 sec) 
Heartbeat CPU 0 instructions: 1080000000 cycles: 884747344 heartbeat IPC: 0.532949 cumulative IPC: 0.977117 (Simulation time: 2 hr 49 min 45 sec) 
Heartbeat CPU 3 instructions: 1180000000 cycles: 889871786 heartbeat IPC: 1.0059 cumulative IPC: 1.16151 (Simulation time: 2 hr 50 min 28 sec) 
Heartbeat CPU 2 instructions: 780000000 cycles: 891116900 heartbeat IPC: 0.484171 cumulative IPC: 0.564448 (Simulation time: 2 hr 50 min 39 sec) 
Heartbeat CPU 1 instructions: 580000000 cycles: 894430331 heartbeat IPC: 0.50932 cumulative IPC: 0.498274 (Simulation time: 2 hr 51 min 9 sec) 
Heartbeat CPU 0 instructions: 1090000003 cycles: 897044348 heartbeat IPC: 0.813206 cumulative IPC: 0.974483 (Simulation time: 2 hr 51 min 34 sec) 
Heartbeat CPU 3 instructions: 1190000000 cycles: 898722316 heartbeat IPC: 1.12988 cumulative IPC: 1.16114 (Simulation time: 2 hr 51 min 48 sec) 
Heartbeat CPU 3 instructions: 1200000000 cycles: 907573259 heartbeat IPC: 1.12982 cumulative IPC: 1.16079 (Simulation time: 2 hr 53 min 11 sec) 
Heartbeat CPU 0 instructions: 1100000000 cycles: 907749707 heartbeat IPC: 0.934111 cumulative IPC: 0.973926 (Simulation time: 2 hr 53 min 13 sec) 
Heartbeat CPU 2 instructions: 790000000 cycles: 909003159 heartbeat IPC: 0.559088 cumulative IPC: 0.564325 (Simulation time: 2 hr 53 min 26 sec) 
Heartbeat CPU 1 instructions: 590000003 cycles: 913851151 heartbeat IPC: 0.514911 cumulative IPC: 0.498687 (Simulation time: 2 hr 54 min 11 sec) 
Heartbeat CPU 3 instructions: 1210000003 cycles: 916448330 heartbeat IPC: 1.12675 cumulative IPC: 1.1604 (Simulation time: 2 hr 54 min 36 sec) 
Heartbeat CPU 0 instructions: 1110000002 cycles: 917904109 heartbeat IPC: 0.984795 cumulative IPC: 0.974066 (Simulation time: 2 hr 54 min 49 sec) 
Heartbeat CPU 3 instructions: 1220000000 cycles: 925270571 heartbeat IPC: 1.1335 cumulative IPC: 1.1601 (Simulation time: 2 hr 55 min 59 sec) 
Heartbeat CPU 2 instructions: 800000000 cycles: 925498059 heartbeat IPC: 0.606248 cumulative IPC: 0.565196 (Simulation time: 2 hr 56 min 1 sec) 
Heartbeat CPU 0 instructions: 1120000000 cycles: 928731956 heartbeat IPC: 0.923544 cumulative IPC: 0.97338 (Simulation time: 2 hr 56 min 30 sec) 
Heartbeat CPU 1 instructions: 600000000 cycles: 933245297 heartbeat IPC: 0.515619 cumulative IPC: 0.499097 (Simulation time: 2 hr 57 min 12 sec) 
Heartbeat CPU 3 instructions: 1230000000 cycles: 934122764 heartbeat IPC: 1.12966 cumulative IPC: 1.15977 (Simulation time: 2 hr 57 min 21 sec) 
Heartbeat CPU 0 instructions: 1130000003 cycles: 939846810 heartbeat IPC: 0.899697 cumulative IPC: 0.972366 (Simulation time: 2 hr 58 min 14 sec) 
Heartbeat CPU 2 instructions: 810000000 cycles: 942078339 heartbeat IPC: 0.603126 cumulative IPC: 0.565972 (Simulation time: 2 hr 58 min 33 sec) 
Heartbeat CPU 3 instructions: 1240000000 cycles: 942961266 heartbeat IPC: 1.13141 cumulative IPC: 1.15946 (Simulation time: 2 hr 58 min 42 sec) 
Heartbeat CPU 3 instructions: 1250000003 cycles: 951751140 heartbeat IPC: 1.13767 cumulative IPC: 1.15922 (Simulation time: 3 hr 0 min 2 sec) 
Heartbeat CPU 0 instructions: 1140000000 cycles: 951831029 heartbeat IPC: 0.83443 cumulative IPC: 0.97035 (Simulation time: 3 hr 0 min 3 sec) 
Heartbeat CPU 1 instructions: 610000000 cycles: 952743512 heartbeat IPC: 0.512867 cumulative IPC: 0.499424 (Simulation time: 3 hr 0 min 11 sec) 
Heartbeat CPU 2 instructions: 820000000 cycles: 958506257 heartbeat IPC: 0.60872 cumulative IPC: 0.566822 (Simulation time: 3 hr 1 min 4 sec) 
Heartbeat CPU 3 instructions: 1260000000 cycles: 960640294 heartbeat IPC: 1.12497 cumulative IPC: 1.15886 (Simulation time: 3 hr 1 min 23 sec) 
Heartbeat CPU 0 instructions: 1150000000 cycles: 963896876 heartbeat IPC: 0.828786 cumulative IPC: 0.968298 (Simulation time: 3 hr 1 min 52 sec) 
Heartbeat CPU 3 instructions: 1270000002 cycles: 969434804 heartbeat IPC: 1.13707 cumulative IPC: 1.15863 (Simulation time: 3 hr 2 min 43 sec) 
Heartbeat CPU 1 instructions: 620000000 cycles: 972354704 heartbeat IPC: 0.509913 cumulative IPC: 0.499669 (Simulation time: 3 hr 3 min 9 sec) 
Heartbeat CPU 2 instructions: 830000001 cycles: 975109929 heartbeat IPC: 0.602276 cumulative IPC: 0.56752 (Simulation time: 3 hr 3 min 33 sec) 
Heartbeat CPU 0 instructions: 1160000000 cycles: 976236230 heartbeat IPC: 0.810415 cumulative IPC: 0.965991 (Simulation time: 3 hr 3 min 44 sec) 
Heartbeat CPU 3 instructions: 1280000000 cycles: 978302053 heartbeat IPC: 1.12775 cumulative IPC: 1.1583 (Simulation time: 3 hr 4 min 2 sec) 
Heartbeat CPU 3 instructions: 1290000003 cycles: 987177968 heartbeat IPC: 1.12664 cumulative IPC: 1.15797 (Simulation time: 3 hr 5 min 25 sec) 
Heartbeat CPU 0 instructions: 1170000000 cycles: 987774938 heartbeat IPC: 0.866648 cumulative IPC: 0.964651 (Simulation time: 3 hr 5 min 30 sec) 
Heartbeat CPU 2 instructions: 840000000 cycles: 991140036 heartbeat IPC: 0.623826 cumulative IPC: 0.56857 (Simulation time: 3 hr 6 min 2 sec) 
Heartbeat CPU 1 instructions: 630000001 cycles: 991965799 heartbeat IPC: 0.509915 cumulative IPC: 0.499903 (Simulation time: 3 hr 6 min 10 sec) 
Finished CPU 3 instructions: 1000000000 cycles: 863707651 cumulative IPC: 1.1578 (Simulation time: 3 hr 6 min 45 sec) 
Heartbeat CPU 3 instructions: 1300000000 cycles: 995950768 heartbeat IPC: 1.13989 cumulative IPC: 1.15779 (Simulation time: 3 hr 6 min 49 sec) 
Heartbeat CPU 0 instructions: 1180000000 cycles: 997723725 heartbeat IPC: 1.00515 cumulative IPC: 0.965117 (Simulation time: 3 hr 7 min 7 sec) 
Heartbeat CPU 3 instructions: 1310000001 cycles: 1004903304 heartbeat IPC: 1.117 cumulative IPC: 1.15737 (Simulation time: 3 hr 8 min 16 sec) 
Heartbeat CPU 2 instructions: 850000001 cycles: 1006036363 heartbeat IPC: 0.671306 cumulative IPC: 0.570321 (Simulation time: 3 hr 8 min 28 sec) 
Heartbeat CPU 0 instructions: 1190000002 cycles: 1008103927 heartbeat IPC: 0.963373 cumulative IPC: 0.965096 (Simulation time: 3 hr 8 min 47 sec) 
Heartbeat CPU 1 instructions: 640000000 cycles: 1011513420 heartbeat IPC: 0.511571 cumulative IPC: 0.500162 (Simulation time: 3 hr 9 min 19 sec) 
Heartbeat CPU 3 instructions: 1320000000 cycles: 1013746864 heartbeat IPC: 1.13077 cumulative IPC: 1.15711 (Simulation time: 3 hr 9 min 41 sec) 
Heartbeat CPU 0 instructions: 1200000000 cycles: 1018822801 heartbeat IPC: 0.932934 cumulative IPC: 0.964707 (Simulation time: 3 hr 10 min 29 sec) 
Heartbeat CPU 2 instructions: 860000000 cycles: 1021468727 heartbeat IPC: 0.647989 cumulative IPC: 0.571668 (Simulation time: 3 hr 10 min 51 sec) 
Heartbeat CPU 3 instructions: 1330000001 cycles: 1022526030 heartbeat IPC: 1.13906 cumulative IPC: 1.15693 (Simulation time: 3 hr 11 min 1 sec) 
Heartbeat CPU 1 instructions: 650000001 cycles: 1031207693 heartbeat IPC: 0.507762 cumulative IPC: 0.500328 (Simulation time: 3 hr 12 min 20 sec) 
Heartbeat CPU 3 instructions: 1340000000 cycles: 1031464132 heartbeat IPC: 1.11881 cumulative IPC: 1.15655 (Simulation time: 3 hr 12 min 22 sec) 
Heartbeat CPU 0 instructions: 1210000002 cycles: 1032238187 heartbeat IPC: 0.745413 cumulative IPC: 0.96144 (Simulation time: 3 hr 12 min 29 sec) 
Heartbeat CPU 2 instructions: 870000002 cycles: 1037759168 heartbeat IPC: 0.613857 cumulative IPC: 0.572426 (Simulation time: 3 hr 13 min 17 sec) 
Heartbeat CPU 3 instructions: 1350000003 cycles: 1040324756 heartbeat IPC: 1.12859 cumulative IPC: 1.15628 (Simulation time: 3 hr 13 min 39 sec) 
Heartbeat CPU 0 instructions: 1220000000 cycles: 1045821589 heartbeat IPC: 0.736192 cumulative IPC: 0.958093 (Simulation time: 3 hr 14 min 29 sec) 
Heartbeat CPU 3 instructions: 1360000000 cycles: 1049093055 heartbeat IPC: 1.14047 cumulative IPC: 1.15613 (Simulation time: 3 hr 14 min 59 sec) 
Heartbeat CPU 1 instructions: 660000000 cycles: 1051032557 heartbeat IPC: 0.504417 cumulative IPC: 0.500416 (Simulation time: 3 hr 15 min 15 sec) 
Heartbeat CPU 2 instructions: 880000000 cycles: 1053339778 heartbeat IPC: 0.641823 cumulative IPC: 0.5736 (Simulation time: 3 hr 15 min 36 sec) 
Heartbeat CPU 3 instructions: 1370000002 cycles: 1058080545 heartbeat IPC: 1.11266 cumulative IPC: 1.1557 (Simulation time: 3 hr 16 min 19 sec) 
Heartbeat CPU 0 instructions: 1230000000 cycles: 1059303643 heartbeat IPC: 0.741727 cumulative IPC: 0.954948 (Simulation time: 3 hr 16 min 29 sec) 
Heartbeat CPU 3 instructions: 1380000000 cycles: 1066895648 heartbeat IPC: 1.13442 cumulative IPC: 1.1555 (Simulation time: 3 hr 17 min 38 sec) 
Heartbeat CPU 2 instructions: 890000002 cycles: 1068871706 heartbeat IPC: 0.643835 cumulative IPC: 0.574764 (Simulation time: 3 hr 17 min 57 sec) 
Heartbeat CPU 1 instructions: 670000000 cycles: 1070839671 heartbeat IPC: 0.504869 cumulative IPC: 0.50051 (Simulation time: 3 hr 18 min 15 sec) 
Heartbeat CPU 0 instructions: 1240000000 cycles: 1071608608 heartbeat IPC: 0.81268 cumulative IPC: 0.953085 (Simulation time: 3 hr 18 min 22 sec) 
Heartbeat CPU 3 instructions: 1390000003 cycles: 1075712522 heartbeat IPC: 1.13419 cumulative IPC: 1.1553 (Simulation time: 3 hr 18 min 59 sec) 
Heartbeat CPU 0 instructions: 1250000000 cycles: 1082735135 heartbeat IPC: 0.898753 cumulative IPC: 0.952449 (Simulation time: 3 hr 20 min 6 sec) 
Heartbeat CPU 2 instructions: 900000000 cycles: 1084367258 heartbeat IPC: 0.645346 cumulative IPC: 0.575912 (Simulation time: 3 hr 20 min 20 sec) 
Heartbeat CPU 3 instructions: 1400000000 cycles: 1084552822 heartbeat IPC: 1.13118 cumulative IPC: 1.15508 (Simulation time: 3 hr 20 min 22 sec) 
Heartbeat CPU 1 instructions: 680000000 cycles: 1090490971 heartbeat IPC: 0.508872 cumulative IPC: 0.500682 (Simulation time: 3 hr 21 min 15 sec) 
Heartbeat CPU 3 instructions: 1410000003 cycles: 1093339575 heartbeat IPC: 1.13808 cumulative IPC: 1.15492 (Simulation time: 3 hr 21 min 44 sec) 
Heartbeat CPU 0 instructions: 1260000000 cycles: 1095340581 heartbeat IPC: 0.793308 cumulative IPC: 0.950367 (Simulation time: 3 hr 22 min 1 sec) 
Heartbeat CPU 2 instructions: 910000002 cycles: 1100440927 heartbeat IPC: 0.622136 cumulative IPC: 0.576679 (Simulation time: 3 hr 22 min 45 sec) 
Heartbeat CPU 3 instructions: 1420000000 cycles: 1102197527 heartbeat IPC: 1.12893 cumulative IPC: 1.15469 (Simulation time: 3 hr 23 min 0 sec) 
Heartbeat CPU 0 instructions: 1270000003 cycles: 1108880539 heartbeat IPC: 0.738555 cumulative IPC: 0.947432 (Simulation time: 3 hr 24 min 5 sec) 
Heartbeat CPU 1 instructions: 690000001 cycles: 1110177764 heartbeat IPC: 0.507955 cumulative IPC: 0.500828 (Simulation time: 3 hr 24 min 18 sec) 
Heartbeat CPU 3 instructions: 1430000000 cycles: 1111065306 heartbeat IPC: 1.12768 cumulative IPC: 1.15444 (Simulation time: 3 hr 24 min 27 sec) 
Heartbeat CPU 2 instructions: 920000000 cycles: 1116767655 heartbeat IPC: 0.612493 cumulative IPC: 0.577273 (Simulation time: 3 hr 25 min 23 sec) 
Heartbeat CPU 3 instructions: 1440000000 cycles: 1119808697 heartbeat IPC: 1.14372 cumulative IPC: 1.15435 (Simulation time: 3 hr 25 min 53 sec) 
Heartbeat CPU 0 instructions: 1280000000 cycles: 1120559006 heartbeat IPC: 0.856277 cumulative IPC: 0.946356 (Simulation time: 3 hr 26 min 1 sec) 
Heartbeat CPU 3 instructions: 1450000001 cycles: 1128768870 heartbeat IPC: 1.11605 cumulative IPC: 1.154 (Simulation time: 3 hr 27 min 19 sec) 
Heartbeat CPU 1 instructions: 700000000 cycles: 1129751145 heartbeat IPC: 0.510898 cumulative IPC: 0.501026 (Simulation time: 3 hr 27 min 28 sec) 
Heartbeat CPU 2 instructions: 930000000 cycles: 1131879969 heartbeat IPC: 0.661712 cumulative IPC: 0.578549 (Simulation time: 3 hr 27 min 50 sec) 
Heartbeat CPU 0 instructions: 1290000003 cycles: 1132019035 heartbeat IPC: 0.872598 cumulative IPC: 0.94551 (Simulation time: 3 hr 27 min 52 sec) 
Heartbeat CPU 3 instructions: 1460000000 cycles: 1137601087 heartbeat IPC: 1.13222 cumulative IPC: 1.15381 (Simulation time: 3 hr 28 min 43 sec) 
Heartbeat CPU 0 instructions: 1300000000 cycles: 1143418081 heartbeat IPC: 0.877266 cumulative IPC: 0.944741 (Simulation time: 3 hr 29 min 38 sec) 
Heartbeat CPU 3 instructions: 1470000001 cycles: 1146433882 heartbeat IPC: 1.13214 cumulative IPC: 1.15362 (Simulation time: 3 hr 30 min 6 sec) 
Heartbeat CPU 2 instructions: 940000000 cycles: 1147234009 heartbeat IPC: 0.651294 cumulative IPC: 0.579649 (Simulation time: 3 hr 30 min 13 sec) 
Heartbeat CPU 1 instructions: 710000000 cycles: 1149329653 heartbeat IPC: 0.510764 cumulative IPC: 0.501213 (Simulation time: 3 hr 30 min 33 sec) 
Heartbeat CPU 0 instructions: 1310000000 cycles: 1154193310 heartbeat IPC: 0.928055 cumulative IPC: 0.944566 (Simulation time: 3 hr 31 min 27 sec) 
Heartbeat CPU 3 instructions: 1480000000 cycles: 1155342744 heartbeat IPC: 1.12248 cumulative IPC: 1.15335 (Simulation time: 3 hr 31 min 38 sec) 
Heartbeat CPU 2 instructions: 950000001 cycles: 1162738078 heartbeat IPC: 0.644992 cumulative IPC: 0.580631 (Simulation time: 3 hr 32 min 59 sec) 
Heartbeat CPU 3 instructions: 1490000002 cycles: 1164125421 heartbeat IPC: 1.13861 cumulative IPC: 1.15323 (Simulation time: 3 hr 33 min 13 sec) 
Heartbeat CPU 0 instructions: 1320000000 cycles: 1165484956 heartbeat IPC: 0.88561 cumulative IPC: 0.943922 (Simulation time: 3 hr 33 min 30 sec) 
Heartbeat CPU 1 instructions: 720000000 cycles: 1168925802 heartbeat IPC: 0.510304 cumulative IPC: 0.501385 (Simulation time: 3 hr 34 min 9 sec) 
Heartbeat CPU 3 instructions: 1500000000 cycles: 1173002015 heartbeat IPC: 1.12656 cumulative IPC: 1.153 (Simulation time: 3 hr 34 min 51 sec) 
Heartbeat CPU 0 instructions: 1330000001 cycles: 1175988294 heartbeat IPC: 0.952078 cumulative IPC: 0.944004 (Simulation time: 3 hr 35 min 22 sec) 
Heartbeat CPU 2 instructions: 960000000 cycles: 1177616253 heartbeat IPC: 0.672125 cumulative IPC: 0.581933 (Simulation time: 3 hr 35 min 39 sec) 
Heartbeat CPU 3 instructions: 1510000000 cycles: 1181854371 heartbeat IPC: 1.12964 cumulative IPC: 1.1528 (Simulation time: 3 hr 36 min 23 sec) 
Heartbeat CPU 0 instructions: 1340000000 cycles: 1187250056 heartbeat IPC: 0.88796 cumulative IPC: 0.943406 (Simulation time: 3 hr 37 min 18 sec) 
Heartbeat CPU 1 instructions: 730000003 cycles: 1188409896 heartbeat IPC: 0.513239 cumulative IPC: 0.501603 (Simulation time: 3 hr 37 min 31 sec) 
Heartbeat CPU 3 instructions: 1520000000 cycles: 1190593873 heartbeat IPC: 1.14423 cumulative IPC: 1.15273 (Simulation time: 3 hr 37 min 54 sec) 
Finished CPU 0 instructions: 1000000001 cycles: 1059992697 cumulative IPC: 0.943403 (Simulation time: 3 hr 38 min 6 sec) 
Heartbeat CPU 2 instructions: 970000000 cycles: 1192225471 heartbeat IPC: 0.684499 cumulative IPC: 0.583346 (Simulation time: 3 hr 38 min 11 sec) 
Heartbeat CPU 0 instructions: 1350000002 cycles: 1197600701 heartbeat IPC: 0.966124 cumulative IPC: 0.943626 (Simulation time: 3 hr 39 min 5 sec) 
Heartbeat CPU 3 instructions: 1530000003 cycles: 1199497759 heartbeat IPC: 1.12311 cumulative IPC: 1.15249 (Simulation time: 3 hr 39 min 23 sec) 
Heartbeat CPU 2 instructions: 980000000 cycles: 1206827517 heartbeat IPC: 0.684836 cumulative IPC: 0.584725 (Simulation time: 3 hr 40 min 48 sec) 
Heartbeat CPU 1 instructions: 740000000 cycles: 1207689698 heartbeat IPC: 0.518677 cumulative IPC: 0.501909 (Simulation time: 3 hr 40 min 56 sec) 
Heartbeat CPU 3 instructions: 1540000000 cycles: 1208315783 heartbeat IPC: 1.13404 cumulative IPC: 1.15233 (Simulation time: 3 hr 41 min 2 sec) 
Heartbeat CPU 0 instructions: 1360000000 cycles: 1209281645 heartbeat IPC: 0.856095 cumulative IPC: 0.942677 (Simulation time: 3 hr 41 min 11 sec) 
Heartbeat CPU 3 instructions: 1550000000 cycles: 1217119722 heartbeat IPC: 1.13586 cumulative IPC: 1.1522 (Simulation time: 3 hr 42 min 36 sec) 
Heartbeat CPU 0 instructions: 1370000003 cycles: 1220345056 heartbeat IPC: 0.903881 cumulative IPC: 0.942283 (Simulation time: 3 hr 43 min 9 sec) 
Heartbeat CPU 2 instructions: 990000003 cycles: 1221389033 heartbeat IPC: 0.686742 cumulative IPC: 0.586088 (Simulation time: 3 hr 43 min 20 sec) 
Heartbeat CPU 3 instructions: 1560000000 cycles: 1225885640 heartbeat IPC: 1.14078 cumulative IPC: 1.15211 (Simulation time: 3 hr 44 min 13 sec) 
Heartbeat CPU 1 instructions: 750000000 cycles: 1227307483 heartbeat IPC: 0.509742 cumulative IPC: 0.50205 (Simulation time: 3 hr 44 min 27 sec) 
Heartbeat CPU 0 instructions: 1380000000 cycles: 1231392555 heartbeat IPC: 0.905182 cumulative IPC: 0.94191 (Simulation time: 3 hr 45 min 7 sec) 
Heartbeat CPU 3 instructions: 1570000002 cycles: 1234672831 heartbeat IPC: 1.13802 cumulative IPC: 1.152 (Simulation time: 3 hr 45 min 42 sec) 
Heartbeat CPU 2 instructions: 1000000000 cycles: 1235813124 heartbeat IPC: 0.693284 cumulative IPC: 0.587488 (Simulation time: 3 hr 45 min 53 sec) 
Heartbeat CPU 0 instructions: 1390000003 cycles: 1242140504 heartbeat IPC: 0.93041 cumulative IPC: 0.941799 (Simulation time: 3 hr 46 min 57 sec) 
Heartbeat CPU 3 instructions: 1580000000 cycles: 1243466027 heartbeat IPC: 1.13724 cumulative IPC: 1.15188 (Simulation time: 3 hr 47 min 10 sec) 
Heartbeat CPU 1 instructions: 760000000 cycles: 1246767674 heartbeat IPC: 0.51387 cumulative IPC: 0.502256 (Simulation time: 3 hr 47 min 44 sec) 
Heartbeat CPU 2 instructions: 1010000001 cycles: 1250963568 heartbeat IPC: 0.660047 cumulative IPC: 0.588471 (Simulation time: 3 hr 48 min 26 sec) 
Heartbeat CPU 3 instructions: 1590000000 cycles: 1252256751 heartbeat IPC: 1.13756 cumulative IPC: 1.15177 (Simulation time: 3 hr 48 min 39 sec) 
Heartbeat CPU 0 instructions: 1400000000 cycles: 1253251119 heartbeat IPC: 0.90004 cumulative IPC: 0.941385 (Simulation time: 3 hr 48 min 48 sec) 
Heartbeat CPU 3 instructions: 1600000000 cycles: 1261046176 heartbeat IPC: 1.13773 cumulative IPC: 1.15166 (Simulation time: 3 hr 50 min 8 sec) 
Heartbeat CPU 0 instructions: 1410000002 cycles: 1264166361 heartbeat IPC: 0.91615 cumulative IPC: 0.941142 (Simulation time: 3 hr 50 min 39 sec) 
Heartbeat CPU 1 instructions: 770000000 cycles: 1266323798 heartbeat IPC: 0.511349 cumulative IPC: 0.502413 (Simulation time: 3 hr 50 min 59 sec) 
Heartbeat CPU 2 instructions: 1020000000 cycles: 1266443610 heartbeat IPC: 0.645993 cumulative IPC: 0.589256 (Simulation time: 3 hr 51 min 1 sec) 
Heartbeat CPU 3 instructions: 1610000000 cycles: 1269901994 heartbeat IPC: 1.1292 cumulative IPC: 1.15148 (Simulation time: 3 hr 51 min 44 sec) 
Heartbeat CPU 0 instructions: 1420000000 cycles: 1275555054 heartbeat IPC: 0.878064 cumulative IPC: 0.940514 (Simulation time: 3 hr 52 min 39 sec) 
Heartbeat CPU 3 instructions: 1620000000 cycles: 1278706978 heartbeat IPC: 1.13572 cumulative IPC: 1.15136 (Simulation time: 3 hr 53 min 10 sec) 
Heartbeat CPU 2 instructions: 1030000000 cycles: 1281212002 heartbeat IPC: 0.677122 cumulative IPC: 0.590384 (Simulation time: 3 hr 53 min 35 sec) 
Heartbeat CPU 1 instructions: 780000000 cycles: 1286280167 heartbeat IPC: 0.501093 cumulative IPC: 0.50239 (Simulation time: 3 hr 54 min 26 sec) 
Heartbeat CPU 0 instructions: 1430000003 cycles: 1286407877 heartbeat IPC: 0.92142 cumulative IPC: 0.940334 (Simulation time: 3 hr 54 min 27 sec) 
Heartbeat CPU 3 instructions: 1630000001 cycles: 1287466607 heartbeat IPC: 1.1416 cumulative IPC: 1.15129 (Simulation time: 3 hr 54 min 39 sec) 
Heartbeat CPU 3 instructions: 1640000000 cycles: 1296396521 heartbeat IPC: 1.11983 cumulative IPC: 1.15105 (Simulation time: 3 hr 56 min 8 sec) 
Heartbeat CPU 2 instructions: 1040000000 cycles: 1296411634 heartbeat IPC: 0.657911 cumulative IPC: 0.591266 (Simulation time: 3 hr 56 min 8 sec) 
Heartbeat CPU 0 instructions: 1440000000 cycles: 1296760687 heartbeat IPC: 0.965921 cumulative IPC: 0.940562 (Simulation time: 3 hr 56 min 12 sec) 
Heartbeat CPU 3 instructions: 1650000000 cycles: 1305235836 heartbeat IPC: 1.13131 cumulative IPC: 1.1509 (Simulation time: 3 hr 57 min 34 sec) 
Heartbeat CPU 1 instructions: 790000000 cycles: 1308419670 heartbeat IPC: 0.451681 cumulative IPC: 0.501436 (Simulation time: 3 hr 58 min 4 sec) 
Heartbeat CPU 0 instructions: 1450000000 cycles: 1308473642 heartbeat IPC: 0.853756 cumulative IPC: 0.939698 (Simulation time: 3 hr 58 min 4 sec) 
Heartbeat CPU 2 instructions: 1050000003 cycles: 1312623403 heartbeat IPC: 0.616836 cumulative IPC: 0.591617 (Simulation time: 3 hr 58 min 42 sec) 
Heartbeat CPU 3 instructions: 1660000000 cycles: 1314046218 heartbeat IPC: 1.13502 cumulative IPC: 1.15078 (Simulation time: 3 hr 58 min 55 sec) 
Heartbeat CPU 0 instructions: 1460000000 cycles: 1320994680 heartbeat IPC: 0.798656 cumulative IPC: 0.938213 (Simulation time: 4 hr 0 min 2 sec) 
Heartbeat CPU 3 instructions: 1670000002 cycles: 1322954920 heartbeat IPC: 1.1225 cumulative IPC: 1.15057 (Simulation time: 4 hr 0 min 20 sec) 
Heartbeat CPU 2 instructions: 1060000000 cycles: 1328999804 heartbeat IPC: 0.610635 cumulative IPC: 0.591877 (Simulation time: 4 hr 1 min 17 sec) 
Heartbeat CPU 1 instructions: 800000000 cycles: 1330709927 heartbeat IPC: 0.448626 cumulative IPC: 0.500454 (Simulation time: 4 hr 1 min 36 sec) 
Heartbeat CPU 3 instructions: 1680000000 cycles: 1331733246 heartbeat IPC: 1.13917 cumulative IPC: 1.15049 (Simulation time: 4 hr 1 min 45 sec) 
Heartbeat CPU 0 instructions: 1470000002 cycles: 1333465161 heartbeat IPC: 0.801894 cumulative IPC: 0.936798 (Simulation time: 4 hr 2 min 1 sec) 
Heartbeat CPU 3 instructions: 1690000001 cycles: 1340646685 heartbeat IPC: 1.1219 cumulative IPC: 1.15027 (Simulation time: 4 hr 3 min 13 sec) 
Heartbeat CPU 0 instructions: 1480000000 cycles: 1344031775 heartbeat IPC: 0.946377 cumulative IPC: 0.936882 (Simulation time: 4 hr 3 min 48 sec) 
Heartbeat CPU 2 instructions: 1070000001 cycles: 1344734324 heartbeat IPC: 0.635545 cumulative IPC: 0.592443 (Simulation time: 4 hr 3 min 54 sec) 
Heartbeat CPU 3 instructions: 1700000000 cycles: 1349465184 heartbeat IPC: 1.13398 cumulative IPC: 1.15016 (Simulation time: 4 hr 4 min 41 sec) 
Heartbeat CPU 1 instructions: 810000002 cycles: 1350866246 heartbeat IPC: 0.496122 cumulative IPC: 0.500382 (Simulation time: 4 hr 4 min 56 sec) 
Heartbeat CPU 0 instructions: 1490000001 cycles: 1354876558 heartbeat IPC: 0.922102 cumulative IPC: 0.93675 (Simulation time: 4 hr 5 min 35 sec) 
Heartbeat CPU 3 instructions: 1710000002 cycles: 1358197438 heartbeat IPC: 1.14518 cumulative IPC: 1.15012 (Simulation time: 4 hr 6 min 8 sec) 
Heartbeat CPU 2 instructions: 1080000000 cycles: 1358822353 heartbeat IPC: 0.709822 cumulative IPC: 0.593791 (Simulation time: 4 hr 6 min 15 sec) 
Heartbeat CPU 0 instructions: 1500000000 cycles: 1365292483 heartbeat IPC: 0.960068 cumulative IPC: 0.936947 (Simulation time: 4 hr 7 min 20 sec) 
Heartbeat CPU 3 instructions: 1720000000 cycles: 1367061740 heartbeat IPC: 1.12812 cumulative IPC: 1.14996 (Simulation time: 4 hr 7 min 39 sec) 
Heartbeat CPU 2 instructions: 1090000000 cycles: 1372853237 heartbeat IPC: 0.712713 cumulative IPC: 0.595136 (Simulation time: 4 hr 8 min 35 sec) 
Heartbeat CPU 1 instructions: 820000000 cycles: 1373111272 heartbeat IPC: 0.449539 cumulative IPC: 0.499471 (Simulation time: 4 hr 8 min 38 sec) 
Heartbeat CPU 0 instructions: 1510000000 cycles: 1375086099 heartbeat IPC: 1.02107 cumulative IPC: 0.93761 (Simulation time: 4 hr 8 min 59 sec) 
Heartbeat CPU 3 instructions: 1730000000 cycles: 1375869610 heartbeat IPC: 1.13535 cumulative IPC: 1.14986 (Simulation time: 4 hr 9 min 6 sec) 
Heartbeat CPU 3 instructions: 1740000000 cycles: 1384620476 heartbeat IPC: 1.14274 cumulative IPC: 1.14981 (Simulation time: 4 hr 10 min 29 sec) 
Heartbeat CPU 0 instructions: 1520000000 cycles: 1384899806 heartbeat IPC: 1.01898 cumulative IPC: 0.938247 (Simulation time: 4 hr 10 min 32 sec) 
Heartbeat CPU 2 instructions: 1100000000 cycles: 1386850577 heartbeat IPC: 0.714421 cumulative IPC: 0.596466 (Simulation time: 4 hr 10 min 50 sec) 
Heartbeat CPU 3 instructions: 1750000002 cycles: 1393473123 heartbeat IPC: 1.12961 cumulative IPC: 1.14967 (Simulation time: 4 hr 11 min 50 sec) 
Heartbeat CPU 1 instructions: 830000002 cycles: 1395695785 heartbeat IPC: 0.442781 cumulative IPC: 0.498458 (Simulation time: 4 hr 12 min 9 sec) 
Heartbeat CPU 0 instructions: 1530000000 cycles: 1396130706 heartbeat IPC: 0.890401 cumulative IPC: 0.937822 (Simulation time: 4 hr 12 min 12 sec) 
Heartbeat CPU 3 instructions: 1760000000 cycles: 1402260440 heartbeat IPC: 1.138 cumulative IPC: 1.14959 (Simulation time: 4 hr 13 min 8 sec) 
Heartbeat CPU 2 instructions: 1110000001 cycles: 1403626288 heartbeat IPC: 0.5961 cumulative IPC: 0.596461 (Simulation time: 4 hr 13 min 20 sec) 
Heartbeat CPU 0 instructions: 1540000000 cycles: 1407626448 heartbeat IPC: 0.869887 cumulative IPC: 0.93721 (Simulation time: 4 hr 13 min 55 sec) 
Heartbeat CPU 3 instructions: 1770000003 cycles: 1411069128 heartbeat IPC: 1.13524 cumulative IPC: 1.14949 (Simulation time: 4 hr 14 min 27 sec) 
Heartbeat CPU 1 instructions: 840000000 cycles: 1417878402 heartbeat IPC: 0.450803 cumulative IPC: 0.497636 (Simulation time: 4 hr 15 min 29 sec) 
Heartbeat CPU 0 instructions: 1550000000 cycles: 1419511650 heartbeat IPC: 0.841382 cumulative IPC: 0.936326 (Simulation time: 4 hr 15 min 45 sec) 
Heartbeat CPU 3 instructions: 1780000000 cycles: 1419914462 heartbeat IPC: 1.13054 cumulative IPC: 1.14936 (Simulation time: 4 hr 15 min 49 sec) 
Heartbeat CPU 2 instructions: 1120000000 cycles: 1421317018 heartbeat IPC: 0.565268 cumulative IPC: 0.596033 (Simulation time: 4 hr 16 min 1 sec) 
Heartbeat CPU 3 instructions: 1790000003 cycles: 1428724023 heartbeat IPC: 1.13513 cumulative IPC: 1.14926 (Simulation time: 4 hr 17 min 8 sec) 
Heartbeat CPU 0 instructions: 1560000000 cycles: 1432361191 heartbeat IPC: 0.778238 cumulative IPC: 0.934764 (Simulation time: 4 hr 17 min 42 sec) 
Heartbeat CPU 3 instructions: 1800000000 cycles: 1437606934 heartbeat IPC: 1.12576 cumulative IPC: 1.1491 (Simulation time: 4 hr 18 min 30 sec) 
Heartbeat CPU 2 instructions: 1130000002 cycles: 1439302665 heartbeat IPC: 0.555999 cumulative IPC: 0.595483 (Simulation time: 4 hr 18 min 44 sec) 
Heartbeat CPU 1 instructions: 850000000 cycles: 1440225833 heartbeat IPC: 0.447479 cumulative IPC: 0.49678 (Simulation time: 4 hr 18 min 52 sec) 
Heartbeat CPU 0 instructions: 1570000002 cycles: 1446264796 heartbeat IPC: 0.719238 cumulative IPC: 0.932484 (Simulation time: 4 hr 19 min 46 sec) 
Heartbeat CPU 3 instructions: 1810000000 cycles: 1446465717 heartbeat IPC: 1.12882 cumulative IPC: 1.14897 (Simulation time: 4 hr 19 min 48 sec) 
Heartbeat CPU 3 instructions: 1820000000 cycles: 1455216722 heartbeat IPC: 1.14273 cumulative IPC: 1.14892 (Simulation time: 4 hr 21 min 7 sec) 
Heartbeat CPU 2 instructions: 1140000000 cycles: 1457359507 heartbeat IPC: 0.553807 cumulative IPC: 0.594915 (Simulation time: 4 hr 21 min 24 sec) 
Heartbeat CPU 0 instructions: 1580000000 cycles: 1459665250 heartbeat IPC: 0.746243 cumulative IPC: 0.930605 (Simulation time: 4 hr 21 min 43 sec) 
Heartbeat CPU 1 instructions: 860000000 cycles: 1463150068 heartbeat IPC: 0.43622 cumulative IPC: 0.495737 (Simulation time: 4 hr 22 min 13 sec) 
Heartbeat CPU 3 instructions: 1830000000 cycles: 1464179074 heartbeat IPC: 1.11578 cumulative IPC: 1.1487 (Simulation time: 4 hr 22 min 22 sec) 
Heartbeat CPU 0 instructions: 1590000003 cycles: 1471011246 heartbeat IPC: 0.881368 cumulative IPC: 0.930188 (Simulation time: 4 hr 23 min 23 sec) 
Heartbeat CPU 3 instructions: 1840000000 cycles: 1473020049 heartbeat IPC: 1.1311 cumulative IPC: 1.14859 (Simulation time: 4 hr 23 min 42 sec) 
Heartbeat CPU 2 instructions: 1150000000 cycles: 1475218842 heartbeat IPC: 0.559931 cumulative IPC: 0.59445 (Simulation time: 4 hr 24 min 1 sec) 
[...]
Heartbeat CPU 2 instructions: 1500000000 cycles: 2076283969 heartbeat IPC: 0.57894 cumulative IPC: 0.590694 (Simulation time: 6 hr 2 min 55 sec) 
Heartbeat CPU 0 instructions: 2150000003 cycles: 2079855891 heartbeat IPC: 1.07465 cumulative IPC: 0.926933 (Simulation time: 6 hr 3 min 28 sec) 
Heartbeat CPU 3 instructions: 2570000002 cycles: 2080497620 heartbeat IPC: 1.18143 cumulative IPC: 1.16514 (Simulation time: 6 hr 3 min 34 sec) 
Heartbeat CPU 3 instructions: 2580000000 cycles: 2089091963 heartbeat IPC: 1.16356 cumulative IPC: 1.16513 (Simulation time: 6 hr 4 min 53 sec) 
Heartbeat CPU 0 instructions: 2160000000 cycles: 2090084344 heartbeat IPC: 0.977665 cumulative IPC: 0.927198 (Simulation time: 6 hr 5 min 2 sec) 
Heartbeat CPU 1 instructions: 1150000001 cycles: 2090778826 heartbeat IPC: 0.439671 cumulative IPC: 0.484946 (Simulation time: 6 hr 5 min 9 sec) 
Heartbeat CPU 2 instructions: 1510000002 cycles: 2093803854 heartbeat IPC: 0.57078 cumulative IPC: 0.590516 (Simulation time: 6 hr 5 min 36 sec) 
Heartbeat CPU 3 instructions: 2590000001 cycles: 2097543922 heartbeat IPC: 1.18316 cumulative IPC: 1.16521 (Simulation time: 6 hr 6 min 9 sec) 
Heartbeat CPU 0 instructions: 2170000000 cycles: 2100363466 heartbeat IPC: 0.972846 cumulative IPC: 0.927436 (Simulation time: 6 hr 6 min 35 sec) 
Heartbeat CPU 3 instructions: 2600000000 cycles: 2105902894 heartbeat IPC: 1.19632 cumulative IPC: 1.16534 (Simulation time: 6 hr 7 min 26 sec) 
Heartbeat CPU 0 instructions: 2180000000 cycles: 2110753540 heartbeat IPC: 0.962457 cumulative IPC: 0.92762 (Simulation time: 6 hr 8 min 11 sec) 
Heartbeat CPU 2 instructions: 1520000000 cycles: 2110841702 heartbeat IPC: 0.586928 cumulative IPC: 0.590485 (Simulation time: 6 hr 8 min 12 sec) 
Heartbeat CPU 1 instructions: 1160000000 cycles: 2112758045 heartbeat IPC: 0.454975 cumulative IPC: 0.484614 (Simulation time: 6 hr 8 min 28 sec) 
Heartbeat CPU 3 instructions: 2610000003 cycles: 2114484144 heartbeat IPC: 1.16533 cumulative IPC: 1.16534 (Simulation time: 6 hr 8 min 42 sec) 
Heartbeat CPU 0 instructions: 2190000002 cycles: 2122903270 heartbeat IPC: 0.823064 cumulative IPC: 0.926982 (Simulation time: 6 hr 9 min 57 sec) 
Heartbeat CPU 3 instructions: 2620000000 cycles: 2122957315 heartbeat IPC: 1.1802 cumulative IPC: 1.16541 (Simulation time: 6 hr 9 min 58 sec) 
Heartbeat CPU 2 instructions: 1530000003 cycles: 2129344915 heartbeat IPC: 0.540447 cumulative IPC: 0.590022 (Simulation time: 6 hr 10 min 54 sec) 
Heartbeat CPU 3 instructions: 2630000001 cycles: 2131339252 heartbeat IPC: 1.19304 cumulative IPC: 1.16552 (Simulation time: 6 hr 11 min 14 sec) 
Heartbeat CPU 1 instructions: 1170000000 cycles: 2134262657 heartbeat IPC: 0.465017 cumulative IPC: 0.484403 (Simulation time: 6 hr 11 min 38 sec) 
Heartbeat CPU 0 instructions: 2200000000 cycles: 2134553030 heartbeat IPC: 0.858387 cumulative IPC: 0.926583 (Simulation time: 6 hr 11 min 40 sec) 
Heartbeat CPU 3 instructions: 2640000000 cycles: 2139705890 heartbeat IPC: 1.19522 cumulative IPC: 1.16565 (Simulation time: 6 hr 12 min 26 sec) 
Heartbeat CPU 0 instructions: 2210000000 cycles: 2145591483 heartbeat IPC: 0.905924 cumulative IPC: 0.92647 (Simulation time: 6 hr 13 min 19 sec) 
Heartbeat CPU 3 instructions: 2650000000 cycles: 2148041367 heartbeat IPC: 1.19969 cumulative IPC: 1.16579 (Simulation time: 6 hr 13 min 40 sec) 
Heartbeat CPU 2 instructions: 1540000000 cycles: 2148237276 heartbeat IPC: 0.529314 cumulative IPC: 0.589453 (Simulation time: 6 hr 13 min 41 sec) 
Heartbeat CPU 0 instructions: 2220000000 cycles: 2155852907 heartbeat IPC: 0.974524 cumulative IPC: 0.926714 (Simulation time: 6 hr 14 min 52 sec) 
Heartbeat CPU 1 instructions: 1180000000 cycles: 2156431151 heartbeat IPC: 0.451091 cumulative IPC: 0.484038 (Simulation time: 6 hr 14 min 57 sec) 
Heartbeat CPU 3 instructions: 2660000000 cycles: 2156721921 heartbeat IPC: 1.152 cumulative IPC: 1.16573 (Simulation time: 6 hr 15 min 1 sec) 
Heartbeat CPU 3 instructions: 2670000001 cycles: 2165195543 heartbeat IPC: 1.18013 cumulative IPC: 1.16579 (Simulation time: 6 hr 16 min 18 sec) 
Heartbeat CPU 2 instructions: 1550000003 cycles: 2165900335 heartbeat IPC: 0.566154 cumulative IPC: 0.589251 (Simulation time: 6 hr 16 min 23 sec) 
Heartbeat CPU 0 instructions: 2230000003 cycles: 2166003974 heartbeat IPC: 0.985118 cumulative IPC: 0.927005 (Simulation time: 6 hr 16 min 24 sec) 
Heartbeat CPU 3 instructions: 2680000000 cycles: 2173434643 heartbeat IPC: 1.21372 cumulative IPC: 1.16598 (Simulation time: 6 hr 17 min 33 sec) 
Heartbeat CPU 0 instructions: 2240000000 cycles: 2175436428 heartbeat IPC: 1.06017 cumulative IPC: 0.92762 (Simulation time: 6 hr 17 min 51 sec) 
Heartbeat CPU 1 instructions: 1190000002 cycles: 2178670590 heartbeat IPC: 0.449652 cumulative IPC: 0.483665 (Simulation time: 6 hr 18 min 21 sec) 
Heartbeat CPU 3 instructions: 2690000001 cycles: 2182076193 heartbeat IPC: 1.1572 cumulative IPC: 1.16594 (Simulation time: 6 hr 18 min 52 sec) 
Heartbeat CPU 2 instructions: 1560000000 cycles: 2183660479 heartbeat IPC: 0.563058 cumulative IPC: 0.589024 (Simulation time: 6 hr 19 min 7 sec) 
Heartbeat CPU 0 instructions: 2250000003 cycles: 2184131696 heartbeat IPC: 1.15005 cumulative IPC: 0.928562 (Simulation time: 6 hr 19 min 11 sec) 
Heartbeat CPU 3 instructions: 2700000000 cycles: 2190871665 heartbeat IPC: 1.13695 cumulative IPC: 1.16582 (Simulation time: 6 hr 20 min 15 sec) 
Heartbeat CPU 0 instructions: 2260000000 cycles: 2193147687 heartbeat IPC: 1.10914 cumulative IPC: 0.929352 (Simulation time: 6 hr 20 min 38 sec) 
Heartbeat CPU 3 instructions: 2710000000 cycles: 2199407102 heartbeat IPC: 1.17159 cumulative IPC: 1.16584 (Simulation time: 6 hr 21 min 34 sec) 
Heartbeat CPU 1 instructions: 1200000000 cycles: 2200503757 heartbeat IPC: 0.458019 cumulative IPC: 0.483394 (Simulation time: 6 hr 21 min 43 sec) 
Finished CPU 1 instructions: 1000000000 cycles: 2068705532 cumulative IPC: 0.483394 (Simulation time: 6 hr 21 min 43 sec) 

CPU 0 Branch Prediction Accuracy: 97.8519% MPKI: 1.78851

CPU 1 Branch Prediction Accuracy: 85.7191% MPKI: 22.4622

CPU 2 Branch Prediction Accuracy: 96.6256% MPKI: 2.71575

CPU 3 Branch Prediction Accuracy: 95.7888% MPKI: 1.70576

ChampSim completed all CPUs

Total Simulation Statistics (not including warmup)

CPU 0 cumulative IPC: 0.929708 instructions: 1923292293 cycles: 2068705532
L1D TOTAL     ACCESS:  332278896  HIT:  300459608  MISS:   31819288
L1D LOAD      ACCESS:  294000807  HIT:  264472786  MISS:   29528021
L1D RFO       ACCESS:   38278089  HIT:   35986822  MISS:    2291267
L1D PREFETCH  ACCESS:          0  HIT:          0  MISS:          0
L1D WRITEBACK ACCESS:          0  HIT:          0  MISS:          0
L1I TOTAL     ACCESS:  518791768  HIT:  518787720  MISS:       4048
L1I LOAD      ACCESS:  518791768  HIT:  518787720  MISS:       4048
L1I RFO       ACCESS:          0  HIT:          0  MISS:          0
L1I PREFETCH  ACCESS:          0  HIT:          0  MISS:          0
L1I WRITEBACK ACCESS:          0  HIT:          0  MISS:          0
L2C TOTAL     ACCESS:   35069791  HIT:    9167318  MISS:   25902473
L2C LOAD      ACCESS:   29532043  HIT:    5633442  MISS:   23898601
L2C RFO       ACCESS:    2291169  HIT:     293521  MISS:    1997648
L2C PREFETCH  ACCESS:          0  HIT:          0  MISS:          0
L2C WRITEBACK ACCESS:    3246579  HIT:    3240355  MISS:       6224
LLC TOTAL     ACCESS:   28669355  HIT:   26382776  MISS:    2286579
LLC LOAD      ACCESS:   23898572  HIT:   21790150  MISS:    2108422
LLC RFO       ACCESS:    1997648  HIT:    1819629  MISS:     178019
LLC PREFETCH  ACCESS:          0  HIT:          0  MISS:          0
LLC WRITEBACK ACCESS:    2773135  HIT:    2772997  MISS:        138

CPU 1 cumulative IPC: 0.483394 instructions: 1000000000 cycles: 2068705532
L1D TOTAL     ACCESS:  332917277  HIT:  329500059  MISS:    3417218
L1D LOAD      ACCESS:  182888350  HIT:  181441253  MISS:    1447097
L1D RFO       ACCESS:  150028927  HIT:  148058806  MISS:    1970121
L1D PREFETCH  ACCESS:          0  HIT:          0  MISS:          0
L1D WRITEBACK ACCESS:          0  HIT:          0  MISS:          0
L1I TOTAL     ACCESS:  228989286  HIT:  226161337  MISS:    2827949
L1I LOAD      ACCESS:  228989286  HIT:  226161337  MISS:    2827949
L1I RFO       ACCESS:          0  HIT:          0  MISS:          0
L1I PREFETCH  ACCESS:          0  HIT:          0  MISS:          0
L1I WRITEBACK ACCESS:          0  HIT:          0  MISS:          0
L2C TOTAL     ACCESS:    8599103  HIT:    7448276  MISS:    1150827
L2C LOAD      ACCESS:    4275034  HIT:    3935389  MISS:     339645
L2C RFO       ACCESS:    1970034  HIT:    1161218  MISS:     808816
L2C PREFETCH  ACCESS:          0  HIT:          0  MISS:          0
L2C WRITEBACK ACCESS:    2354035  HIT:    2351669  MISS:       2366
LLC TOTAL     ACCESS:    2083844  HIT:     985025  MISS:    1098819
LLC LOAD      ACCESS:     339645  HIT:      83274  MISS:     256371
LLC RFO       ACCESS:     808815  HIT:      36378  MISS:     772437
LLC PREFETCH  ACCESS:          0  HIT:          0  MISS:          0
LLC WRITEBACK ACCESS:     935384  HIT:     865373  MISS:      70011

CPU 2 cumulative IPC: 0.588713 instructions: 1217873087 cycles: 2068705533
L1D TOTAL     ACCESS:  198007058  HIT:  179243347  MISS:   18763711
L1D LOAD      ACCESS:  175995784  HIT:  157894437  MISS:   18101347
L1D RFO       ACCESS:   22011274  HIT:   21348910  MISS:     662364
L1D PREFETCH  ACCESS:          0  HIT:          0  MISS:          0
L1D WRITEBACK ACCESS:          0  HIT:          0  MISS:          0
L1I TOTAL     ACCESS:  318323010  HIT:  318322233  MISS:        777
L1I LOAD      ACCESS:  318323010  HIT:  318322233  MISS:        777
L1I RFO       ACCESS:          0  HIT:          0  MISS:          0
L1I PREFETCH  ACCESS:          0  HIT:          0  MISS:          0
L1I WRITEBACK ACCESS:          0  HIT:          0  MISS:          0
L2C TOTAL     ACCESS:   19956729  HIT:    4470615  MISS:   15486114
L2C LOAD      ACCESS:   18102106  HIT:    3144623  MISS:   14957483
L2C RFO       ACCESS:     662336  HIT:     136031  MISS:     526305
L2C PREFETCH  ACCESS:          0  HIT:          0  MISS:          0
L2C WRITEBACK ACCESS:    1192287  HIT:    1189961  MISS:       2326
LLC TOTAL     ACCESS:   16453820  HIT:    4517737  MISS:   11936083
LLC LOAD      ACCESS:   14957474  HIT:    3307215  MISS:   11650259
LLC RFO       ACCESS:     526301  HIT:     241271  MISS:     285030
LLC PREFETCH  ACCESS:          0  HIT:          0  MISS:          0
LLC WRITEBACK ACCESS:     970045  HIT:     969251  MISS:        794

CPU 3 cumulative IPC: 1.16582 instructions: 2411732620 cycles: 2068705533
L1D TOTAL     ACCESS:  568207015  HIT:  549673024  MISS:   18533991
L1D LOAD      ACCESS:  402656141  HIT:  384973301  MISS:   17682840
L1D RFO       ACCESS:  165550874  HIT:  164699723  MISS:     851151
L1D PREFETCH  ACCESS:          0  HIT:          0  MISS:          0
L1D WRITEBACK ACCESS:          0  HIT:          0  MISS:          0
L1I TOTAL     ACCESS:  580994013  HIT:  580993634  MISS:        379
L1I LOAD      ACCESS:  580994013  HIT:  580993634  MISS:        379
L1I RFO       ACCESS:          0  HIT:          0  MISS:          0
L1I PREFETCH  ACCESS:          0  HIT:          0  MISS:          0
L1I WRITEBACK ACCESS:          0  HIT:          0  MISS:          0
L2C TOTAL     ACCESS:   23038985  HIT:   22468430  MISS:     570555
L2C LOAD      ACCESS:   17682735  HIT:   17271132  MISS:     411603
L2C RFO       ACCESS:     850926  HIT:     692049  MISS:     158877
L2C PREFETCH  ACCESS:          0  HIT:          0  MISS:          0
L2C WRITEBACK ACCESS:    4505324  HIT:    4505249  MISS:         75
LLC TOTAL     ACCESS:     788478  HIT:     213932  MISS:     574546
LLC LOAD      ACCESS:     411603  HIT:      26419  MISS:     385184
LLC RFO       ACCESS:     158877  HIT:      18994  MISS:     139883
LLC PREFETCH  ACCESS:          0  HIT:          0  MISS:          0
LLC WRITEBACK ACCESS:     217998  HIT:     168519  MISS:      49479

Region of Interest Statistics

CPU 0 cumulative IPC: 0.943403 instructions: 1000000001 cycles: 1059992697
L1D TOTAL     ACCESS:  172784031  HIT:  156272936  MISS:   16511095
L1D LOAD      ACCESS:  152929831  HIT:  137602472  MISS:   15327359
L1D RFO       ACCESS:   19854200  HIT:   18670464  MISS:    1183736
L1D PREFETCH  ACCESS:          0  HIT:          0  MISS:          0
L1D WRITEBACK ACCESS:          0  HIT:          0  MISS:          0
L1D PREFETCH  REQUESTED:          0  ISSUED:          0  USEFUL:          0  USELESS:          0
L1I TOTAL     ACCESS:  269642679  HIT:  269640574  MISS:       2105
L1I LOAD      ACCESS:  269642679  HIT:  269640574  MISS:       2105
L1I RFO       ACCESS:          0  HIT:          0  MISS:          0
L1I PREFETCH  ACCESS:          0  HIT:          0  MISS:          0
L1I WRITEBACK ACCESS:          0  HIT:          0  MISS:          0
L1I PREFETCH  REQUESTED:          0  ISSUED:          0  USEFUL:          0  USELESS:          0
L2C TOTAL     ACCESS:   18191662  HIT:    4729259  MISS:   13462403
L2C LOAD      ACCESS:   15329454  HIT:    2904648  MISS:   12424806
L2C RFO       ACCESS:    1183685  HIT:     149335  MISS:    1034350
L2C PREFETCH  ACCESS:          0  HIT:          0  MISS:          0
L2C WRITEBACK ACCESS:    1678523  HIT:    1675276  MISS:       3247
L2C PREFETCH  REQUESTED:          0  ISSUED:          0  USEFUL:          0  USELESS:          0
LLC TOTAL     ACCESS:   14894333  HIT:   13832584  MISS:    1061749
LLC LOAD      ACCESS:   12424787  HIT:   11447188  MISS:     977599
LLC RFO       ACCESS:    1034350  HIT:     950208  MISS:      84142
LLC PREFETCH  ACCESS:          0  HIT:          0  MISS:          0
LLC WRITEBACK ACCESS:    1435196  HIT:    1435188  MISS:          8
LLC PREFETCH  REQUESTED:          0  ISSUED:          0  USEFUL:          0  USELESS:          0
Major fault: 0 Minor fault: 4264

CPU 1 cumulative IPC: 0.483394 instructions: 1000000000 cycles: 2068705532
L1D TOTAL     ACCESS:  332917277  HIT:  329500059  MISS:    3417218
L1D LOAD      ACCESS:  182888350  HIT:  181441253  MISS:    1447097
L1D RFO       ACCESS:  150028927  HIT:  148058806  MISS:    1970121
L1D PREFETCH  ACCESS:          0  HIT:          0  MISS:          0
L1D WRITEBACK ACCESS:          0  HIT:          0  MISS:          0
L1D PREFETCH  REQUESTED:          0  ISSUED:          0  USEFUL:          0  USELESS:          0
L1I TOTAL     ACCESS:  228989286  HIT:  226161337  MISS:    2827949
L1I LOAD      ACCESS:  228989286  HIT:  226161337  MISS:    2827949
L1I RFO       ACCESS:          0  HIT:          0  MISS:          0
L1I PREFETCH  ACCESS:          0  HIT:          0  MISS:          0
L1I WRITEBACK ACCESS:          0  HIT:          0  MISS:          0
L1I PREFETCH  REQUESTED:          0  ISSUED:          0  USEFUL:          0  USELESS:          0
L2C TOTAL     ACCESS:    8599103  HIT:    7448276  MISS:    1150827
L2C LOAD      ACCESS:    4275034  HIT:    3935389  MISS:     339645
L2C RFO       ACCESS:    1970034  HIT:    1161218  MISS:     808816
L2C PREFETCH  ACCESS:          0  HIT:          0  MISS:          0
L2C WRITEBACK ACCESS:    2354035  HIT:    2351669  MISS:       2366
L2C PREFETCH  REQUESTED:          0  ISSUED:          0  USEFUL:          0  USELESS:          0
LLC TOTAL     ACCESS:    2083844  HIT:     985025  MISS:    1098819
LLC LOAD      ACCESS:     339645  HIT:      83274  MISS:     256371
LLC RFO       ACCESS:     808815  HIT:      36378  MISS:     772437
LLC PREFETCH  ACCESS:          0  HIT:          0  MISS:          0
LLC WRITEBACK ACCESS:     935384  HIT:     865373  MISS:      70011
LLC PREFETCH  REQUESTED:          0  ISSUED:          0  USEFUL:          0  USELESS:          0
Major fault: 0 Minor fault: 6649

CPU 2 cumulative IPC: 0.59489 instructions: 1000000000 cycles: 1680984062
L1D TOTAL     ACCESS:  162530979  HIT:  147119846  MISS:   15411133
L1D LOAD      ACCESS:  144494714  HIT:  129623927  MISS:   14870787
L1D RFO       ACCESS:   18036265  HIT:   17495919  MISS:     540346
L1D PREFETCH  ACCESS:          0  HIT:          0  MISS:          0
L1D WRITEBACK ACCESS:          0  HIT:          0  MISS:          0
L1D PREFETCH  REQUESTED:          0  ISSUED:          0  USEFUL:          0  USELESS:          0
L1I TOTAL     ACCESS:  261384254  HIT:  261383629  MISS:        625
L1I LOAD      ACCESS:  261384254  HIT:  261383629  MISS:        625
L1I RFO       ACCESS:          0  HIT:          0  MISS:          0
L1I PREFETCH  ACCESS:          0  HIT:          0  MISS:          0
L1I WRITEBACK ACCESS:          0  HIT:          0  MISS:          0
L1I PREFETCH  REQUESTED:          0  ISSUED:          0  USEFUL:          0  USELESS:          0
L2C TOTAL     ACCESS:   16396702  HIT:    3679621  MISS:   12717081
L2C LOAD      ACCESS:   14871394  HIT:    2585014  MISS:   12286380
L2C RFO       ACCESS:     540324  HIT:     111526  MISS:     428798
L2C PREFETCH  ACCESS:          0  HIT:          0  MISS:          0
L2C WRITEBACK ACCESS:     984984  HIT:     983081  MISS:       1903
L2C PREFETCH  REQUESTED:          0  ISSUED:          0  USEFUL:          0  USELESS:          0
LLC TOTAL     ACCESS:   13517766  HIT:    3787657  MISS:    9730109
LLC LOAD      ACCESS:   12286372  HIT:    2784868  MISS:    9501504
LLC RFO       ACCESS:     428795  HIT:     200805  MISS:     227990
LLC PREFETCH  ACCESS:          0  HIT:          0  MISS:          0
LLC WRITEBACK ACCESS:     802599  HIT:     801984  MISS:        615
LLC PREFETCH  REQUESTED:          0  ISSUED:          0  USEFUL:          0  USELESS:          0
Major fault: 0 Minor fault: 4473

CPU 3 cumulative IPC: 1.1578 instructions: 1000000000 cycles: 863707651
L1D TOTAL     ACCESS:  227822208  HIT:  220203184  MISS:    7619024
L1D LOAD      ACCESS:  168197886  HIT:  161039828  MISS:    7158058
L1D RFO       ACCESS:   59624322  HIT:   59163356  MISS:     460966
L1D PREFETCH  ACCESS:          0  HIT:          0  MISS:          0
L1D WRITEBACK ACCESS:          0  HIT:          0  MISS:          0
L1D PREFETCH  REQUESTED:          0  ISSUED:          0  USEFUL:          0  USELESS:          0
L1I TOTAL     ACCESS:  239033094  HIT:  239032750  MISS:        344
L1I LOAD      ACCESS:  239033094  HIT:  239032750  MISS:        344
L1I RFO       ACCESS:          0  HIT:          0  MISS:          0
L1I PREFETCH  ACCESS:          0  HIT:          0  MISS:          0
L1I WRITEBACK ACCESS:          0  HIT:          0  MISS:          0
L1I PREFETCH  REQUESTED:          0  ISSUED:          0  USEFUL:          0  USELESS:          0
L2C TOTAL     ACCESS:    9309287  HIT:    8869122  MISS:     440165
L2C LOAD      ACCESS:    7158172  HIT:    6876192  MISS:     281980
L2C RFO       ACCESS:     460859  HIT:     302704  MISS:     158155
L2C PREFETCH  ACCESS:          0  HIT:          0  MISS:          0
L2C WRITEBACK ACCESS:    1690256  HIT:    1690226  MISS:         30
L2C PREFETCH  REQUESTED:          0  ISSUED:          0  USEFUL:          0  USELESS:          0
LLC TOTAL     ACCESS:     622901  HIT:     198353  MISS:     424548
LLC LOAD      ACCESS:     281980  HIT:      18464  MISS:     263516
LLC RFO       ACCESS:     158155  HIT:      18528  MISS:     139627
LLC PREFETCH  ACCESS:          0  HIT:          0  MISS:          0
LLC WRITEBACK ACCESS:     182766  HIT:     161361  MISS:      21405
LLC PREFETCH  REQUESTED:          0  ISSUED:          0  USEFUL:          0  USELESS:          0
Major fault: 0 Minor fault: 3854

DRAM Statistics
 CHANNEL 0
 RQ ROW_BUFFER_HIT:    5462396  ROW_BUFFER_MISS:    2428849
 DBUS_CONGESTED:    3086719
 WQ ROW_BUFFER_HIT:     160208  ROW_BUFFER_MISS:     830845  FULL:          0

 CHANNEL 1
 RQ ROW_BUFFER_HIT:    5437897  ROW_BUFFER_MISS:    2426747
 DBUS_CONGESTED:    3086719
 WQ ROW_BUFFER_HIT:     160551  ROW_BUFFER_MISS:     829761  FULL:          0

 AVG_CONGESTED_CYCLE: 12
