
*** ChampSim Multicore Out-of-Order Simulator ***

Warmup Instructions: 200000000
Simulation Instructions: 1000000000
Number of CPUs: 4
LLC sets: 8192
LLC ways: 16
Off-chip DRAM Size: 8192 MB Channels: 2 Width: 64-bit Data Rate: 1600 MT/s

CPU 0 runs /scratch/user/djimenez/champsim-traces/speccpu2006/xz//473.astar-359B.champsimtrace.xz
CPU 1 runs /scratch/user/djimenez/champsim-traces/speccpu2006/xz//458.sjeng-31B.champsimtrace.xz
CPU 2 runs /scratch/user/djimenez/champsim-traces/speccpu2006/xz//454.calculix-104B.champsimtrace.xz
CPU 3 runs /scratch/user/djimenez/champsim-traces/speccpu2006/xz//437.leslie3d-134B.champsimtrace.xz
Heartbeat CPU 2 instructions: 10000001 cycles: 4099477 heartbeat IPC: 2.43934 cumulative IPC: 2.43934 (Simulation time: 0 hr 1 min 15 sec) 
Heartbeat CPU 3 instructions: 10000000 cycles: 5000618 heartbeat IPC: 1.99975 cumulative IPC: 1.99975 (Simulation time: 0 hr 1 min 31 sec) 
Heartbeat CPU 1 instructions: 10000001 cycles: 5604928 heartbeat IPC: 1.78414 cumulative IPC: 1.78414 (Simulation time: 0 hr 1 min 41 sec) 
Heartbeat CPU 0 instructions: 10000000 cycles: 7454733 heartbeat IPC: 1.34143 cumulative IPC: 1.34143 (Simulation time: 0 hr 2 min 14 sec) 
Heartbeat CPU 2 instructions: 20000000 cycles: 8199688 heartbeat IPC: 2.4389 cumulative IPC: 2.43912 (Simulation time: 0 hr 2 min 28 sec) 
Heartbeat CPU 3 instructions: 20000000 cycles: 9991666 heartbeat IPC: 2.00359 cumulative IPC: 2.00167 (Simulation time: 0 hr 2 min 59 sec) 
Heartbeat CPU 1 instructions: 20000000 cycles: 11119126 heartbeat IPC: 1.8135 cumulative IPC: 1.7987 (Simulation time: 0 hr 3 min 21 sec) 
Heartbeat CPU 2 instructions: 30000002 cycles: 12298842 heartbeat IPC: 2.43953 cumulative IPC: 2.43925 (Simulation time: 0 hr 3 min 41 sec) 
Heartbeat CPU 0 instructions: 20000000 cycles: 14723182 heartbeat IPC: 1.37581 cumulative IPC: 1.3584 (Simulation time: 0 hr 4 min 26 sec) 
Heartbeat CPU 3 instructions: 30000000 cycles: 14977842 heartbeat IPC: 2.00554 cumulative IPC: 2.00296 (Simulation time: 0 hr 4 min 30 sec) 
Heartbeat CPU 2 instructions: 40000000 cycles: 16399626 heartbeat IPC: 2.43856 cumulative IPC: 2.43908 (Simulation time: 0 hr 4 min 55 sec) 
Heartbeat CPU 1 instructions: 30000002 cycles: 16718481 heartbeat IPC: 1.78592 cumulative IPC: 1.79442 (Simulation time: 0 hr 5 min 0 sec) 
Heartbeat CPU 3 instructions: 40000000 cycles: 19974256 heartbeat IPC: 2.00144 cumulative IPC: 2.00258 (Simulation time: 0 hr 5 min 58 sec) 
Heartbeat CPU 2 instructions: 50000002 cycles: 20499076 heartbeat IPC: 2.43935 cumulative IPC: 2.43913 (Simulation time: 0 hr 6 min 7 sec) 
Heartbeat CPU 0 instructions: 30000003 cycles: 22270735 heartbeat IPC: 1.32493 cumulative IPC: 1.34706 (Simulation time: 0 hr 6 min 39 sec) 
Heartbeat CPU 1 instructions: 40000000 cycles: 22341672 heartbeat IPC: 1.77835 cumulative IPC: 1.79038 (Simulation time: 0 hr 6 min 41 sec) 
Heartbeat CPU 2 instructions: 60000000 cycles: 24595443 heartbeat IPC: 2.44119 cumulative IPC: 2.43948 (Simulation time: 0 hr 7 min 21 sec) 
Heartbeat CPU 3 instructions: 50000003 cycles: 24972462 heartbeat IPC: 2.00072 cumulative IPC: 2.00221 (Simulation time: 0 hr 7 min 27 sec) 
Heartbeat CPU 1 instructions: 50000001 cycles: 27875726 heartbeat IPC: 1.80699 cumulative IPC: 1.79368 (Simulation time: 0 hr 8 min 20 sec) 
Heartbeat CPU 2 instructions: 70000002 cycles: 28694465 heartbeat IPC: 2.43961 cumulative IPC: 2.43949 (Simulation time: 0 hr 8 min 35 sec) 
Heartbeat CPU 0 instructions: 40000000 cycles: 29688249 heartbeat IPC: 1.34816 cumulative IPC: 1.34733 (Simulation time: 0 hr 8 min 52 sec) 
Heartbeat CPU 3 instructions: 60000000 cycles: 29969586 heartbeat IPC: 2.00115 cumulative IPC: 2.00203 (Simulation time: 0 hr 8 min 58 sec) 
Heartbeat CPU 2 instructions: 80000000 cycles: 32794279 heartbeat IPC: 2.43913 cumulative IPC: 2.43945 (Simulation time: 0 hr 9 min 45 sec) 
Heartbeat CPU 1 instructions: 60000000 cycles: 33430748 heartbeat IPC: 1.80017 cumulative IPC: 1.79475 (Simulation time: 0 hr 9 min 56 sec) 
Heartbeat CPU 3 instructions: 70000000 cycles: 34962564 heartbeat IPC: 2.00281 cumulative IPC: 2.00214 (Simulation time: 0 hr 10 min 21 sec) 
Heartbeat CPU 2 instructions: 90000002 cycles: 36894189 heartbeat IPC: 2.43908 cumulative IPC: 2.43941 (Simulation time: 0 hr 10 min 53 sec) 
Heartbeat CPU 0 instructions: 50000003 cycles: 37128900 heartbeat IPC: 1.34397 cumulative IPC: 1.34666 (Simulation time: 0 hr 10 min 57 sec) 
Heartbeat CPU 1 instructions: 70000000 cycles: 39031651 heartbeat IPC: 1.78543 cumulative IPC: 1.79342 (Simulation time: 0 hr 11 min 28 sec) 
Heartbeat CPU 3 instructions: 80000000 cycles: 39945986 heartbeat IPC: 2.00665 cumulative IPC: 2.0027 (Simulation time: 0 hr 11 min 45 sec) 
Heartbeat CPU 2 instructions: 100000000 cycles: 40993681 heartbeat IPC: 2.43933 cumulative IPC: 2.4394 (Simulation time: 0 hr 12 min 3 sec) 
Heartbeat CPU 1 instructions: 80000000 cycles: 44473309 heartbeat IPC: 1.83768 cumulative IPC: 1.79883 (Simulation time: 0 hr 13 min 7 sec) 
Heartbeat CPU 0 instructions: 60000000 cycles: 44609983 heartbeat IPC: 1.3367 cumulative IPC: 1.34499 (Simulation time: 0 hr 13 min 9 sec) 
Heartbeat CPU 3 instructions: 90000002 cycles: 44945324 heartbeat IPC: 2.00027 cumulative IPC: 2.00243 (Simulation time: 0 hr 13 min 15 sec) 
Heartbeat CPU 2 instructions: 110000002 cycles: 45093089 heartbeat IPC: 2.43938 cumulative IPC: 2.4394 (Simulation time: 0 hr 13 min 18 sec) 
Heartbeat CPU 2 instructions: 120000000 cycles: 49192032 heartbeat IPC: 2.43965 cumulative IPC: 2.43942 (Simulation time: 0 hr 14 min 31 sec) 
Heartbeat CPU 3 instructions: 100000000 cycles: 49944417 heartbeat IPC: 2.00036 cumulative IPC: 2.00223 (Simulation time: 0 hr 14 min 44 sec) 
Heartbeat CPU 1 instructions: 90000002 cycles: 50036057 heartbeat IPC: 1.79767 cumulative IPC: 1.7987 (Simulation time: 0 hr 14 min 46 sec) 
Heartbeat CPU 0 instructions: 70000002 cycles: 52043180 heartbeat IPC: 1.34532 cumulative IPC: 1.34504 (Simulation time: 0 hr 15 min 23 sec) 
Heartbeat CPU 2 instructions: 130000000 cycles: 53291684 heartbeat IPC: 2.43923 cumulative IPC: 2.4394 (Simulation time: 0 hr 15 min 45 sec) 
Heartbeat CPU 3 instructions: 110000001 cycles: 54943565 heartbeat IPC: 2.00034 cumulative IPC: 2.00205 (Simulation time: 0 hr 16 min 16 sec) 
Heartbeat CPU 1 instructions: 100000000 cycles: 55461216 heartbeat IPC: 1.84326 cumulative IPC: 1.80306 (Simulation time: 0 hr 16 min 25 sec) 
Heartbeat CPU 2 instructions: 140000000 cycles: 57387840 heartbeat IPC: 2.44131 cumulative IPC: 2.43954 (Simulation time: 0 hr 16 min 59 sec) 
Heartbeat CPU 0 instructions: 80000000 cycles: 59398818 heartbeat IPC: 1.3595 cumulative IPC: 1.34683 (Simulation time: 0 hr 17 min 36 sec) 
Heartbeat CPU 3 instructions: 120000000 cycles: 59938290 heartbeat IPC: 2.00211 cumulative IPC: 2.00206 (Simulation time: 0 hr 17 min 46 sec) 
Heartbeat CPU 1 instructions: 110000002 cycles: 61033766 heartbeat IPC: 1.79451 cumulative IPC: 1.80228 (Simulation time: 0 hr 18 min 6 sec) 
Heartbeat CPU 2 instructions: 150000001 cycles: 61487730 heartbeat IPC: 2.43909 cumulative IPC: 2.43951 (Simulation time: 0 hr 18 min 14 sec) 
Heartbeat CPU 3 instructions: 130000002 cycles: 64917510 heartbeat IPC: 2.00835 cumulative IPC: 2.00254 (Simulation time: 0 hr 19 min 15 sec) 
Heartbeat CPU 2 instructions: 160000000 cycles: 65587422 heartbeat IPC: 2.43921 cumulative IPC: 2.43949 (Simulation time: 0 hr 19 min 28 sec) 
Heartbeat CPU 1 instructions: 120000000 cycles: 66618636 heartbeat IPC: 1.79055 cumulative IPC: 1.8013 (Simulation time: 0 hr 19 min 46 sec) 
Heartbeat CPU 0 instructions: 90000002 cycles: 66777428 heartbeat IPC: 1.35527 cumulative IPC: 1.34776 (Simulation time: 0 hr 19 min 49 sec) 
Heartbeat CPU 2 instructions: 170000002 cycles: 69686492 heartbeat IPC: 2.43958 cumulative IPC: 2.4395 (Simulation time: 0 hr 20 min 41 sec) 
Heartbeat CPU 3 instructions: 140000000 cycles: 69915589 heartbeat IPC: 2.00077 cumulative IPC: 2.00241 (Simulation time: 0 hr 20 min 45 sec) 
Heartbeat CPU 1 instructions: 130000000 cycles: 72242482 heartbeat IPC: 1.77814 cumulative IPC: 1.7995 (Simulation time: 0 hr 21 min 28 sec) 
Heartbeat CPU 2 instructions: 180000000 cycles: 73786580 heartbeat IPC: 2.43897 cumulative IPC: 2.43947 (Simulation time: 0 hr 21 min 54 sec) 
Heartbeat CPU 0 instructions: 100000000 cycles: 74112707 heartbeat IPC: 1.36327 cumulative IPC: 1.3493 (Simulation time: 0 hr 21 min 59 sec) 
Heartbeat CPU 3 instructions: 150000002 cycles: 74953497 heartbeat IPC: 1.98495 cumulative IPC: 2.00124 (Simulation time: 0 hr 22 min 12 sec) 
Heartbeat CPU 1 instructions: 140000000 cycles: 77872207 heartbeat IPC: 1.77629 cumulative IPC: 1.79782 (Simulation time: 0 hr 23 min 2 sec) 
Heartbeat CPU 2 instructions: 190000000 cycles: 77886288 heartbeat IPC: 2.4392 cumulative IPC: 2.43945 (Simulation time: 0 hr 23 min 2 sec) 
Heartbeat CPU 3 instructions: 160000000 cycles: 79994514 heartbeat IPC: 1.98373 cumulative IPC: 2.00014 (Simulation time: 0 hr 23 min 36 sec) 
Heartbeat CPU 0 instructions: 110000001 cycles: 81494166 heartbeat IPC: 1.35475 cumulative IPC: 1.34979 (Simulation time: 0 hr 24 min 1 sec) 
Heartbeat CPU 2 instructions: 200000000 cycles: 81985638 heartbeat IPC: 2.43941 cumulative IPC: 2.43945 (Simulation time: 0 hr 24 min 9 sec) 
Heartbeat CPU 1 instructions: 150000000 cycles: 83441587 heartbeat IPC: 1.79553 cumulative IPC: 1.79766 (Simulation time: 0 hr 24 min 33 sec) 
Heartbeat CPU 3 instructions: 170000001 cycles: 85034865 heartbeat IPC: 1.98399 cumulative IPC: 1.99918 (Simulation time: 0 hr 24 min 58 sec) 
Heartbeat CPU 2 instructions: 210000000 cycles: 86085729 heartbeat IPC: 2.43897 cumulative IPC: 0.116163 (Simulation time: 0 hr 25 min 16 sec) 
Heartbeat CPU 0 instructions: 120000000 cycles: 88853783 heartbeat IPC: 1.35877 cumulative IPC: 1.35053 (Simulation time: 0 hr 26 min 1 sec) 
Heartbeat CPU 1 instructions: 160000000 cycles: 89041332 heartbeat IPC: 1.7858 cumulative IPC: 1.79692 (Simulation time: 0 hr 26 min 4 sec) 
Heartbeat CPU 3 instructions: 180000000 cycles: 90077542 heartbeat IPC: 1.98307 cumulative IPC: 1.99828 (Simulation time: 0 hr 26 min 21 sec) 
Heartbeat CPU 2 instructions: 220000000 cycles: 90185491 heartbeat IPC: 2.43917 cumulative IPC: 0.221765 (Simulation time: 0 hr 26 min 22 sec) 
Heartbeat CPU 2 instructions: 230000000 cycles: 94279920 heartbeat IPC: 2.44234 cumulative IPC: 0.318201 (Simulation time: 0 hr 27 min 30 sec) 
Heartbeat CPU 1 instructions: 170000003 cycles: 94694094 heartbeat IPC: 1.76905 cumulative IPC: 1.79525 (Simulation time: 0 hr 27 min 38 sec) 
Heartbeat CPU 3 instructions: 190000003 cycles: 95117200 heartbeat IPC: 1.98426 cumulative IPC: 1.99754 (Simulation time: 0 hr 27 min 46 sec) 
Heartbeat CPU 0 instructions: 130000000 cycles: 96130079 heartbeat IPC: 1.37433 cumulative IPC: 1.35233 (Simulation time: 0 hr 28 min 8 sec) 
Heartbeat CPU 2 instructions: 240000000 cycles: 98380373 heartbeat IPC: 2.43876 cumulative IPC: 0.406585 (Simulation time: 0 hr 29 min 9 sec) 
Heartbeat CPU 1 instructions: 180000000 cycles: 100328009 heartbeat IPC: 1.77496 cumulative IPC: 1.79412 (Simulation time: 0 hr 29 min 58 sec) 
Heartbeat CPU 3 instructions: 200000000 cycles: 100517119 heartbeat IPC: 1.85188 cumulative IPC: 1.98971 (Simulation time: 0 hr 30 min 5 sec) 
Heartbeat CPU 2 instructions: 250000001 cycles: 102479962 heartbeat IPC: 2.43927 cumulative IPC: 0.4879 (Simulation time: 0 hr 30 min 42 sec) 
Heartbeat CPU 0 instructions: 140000000 cycles: 103719509 heartbeat IPC: 1.31762 cumulative IPC: 1.34979 (Simulation time: 0 hr 31 min 5 sec) 
Heartbeat CPU 3 instructions: 210000000 cycles: 105628616 heartbeat IPC: 1.95637 cumulative IPC: 0.0946713 (Simulation time: 0 hr 31 min 39 sec) 
Heartbeat CPU 1 instructions: 190000001 cycles: 105888810 heartbeat IPC: 1.7983 cumulative IPC: 1.79434 (Simulation time: 0 hr 31 min 44 sec) 
Heartbeat CPU 2 instructions: 260000000 cycles: 106579102 heartbeat IPC: 2.43954 cumulative IPC: 0.562962 (Simulation time: 0 hr 31 min 56 sec) 
Heartbeat CPU 3 instructions: 220000000 cycles: 110606768 heartbeat IPC: 2.00878 cumulative IPC: 0.180821 (Simulation time: 0 hr 33 min 8 sec) 
Heartbeat CPU 2 instructions: 270000000 cycles: 110678197 heartbeat IPC: 2.43956 cumulative IPC: 0.632464 (Simulation time: 0 hr 33 min 9 sec) 
Heartbeat CPU 0 instructions: 150000003 cycles: 111160756 heartbeat IPC: 1.34386 cumulative IPC: 1.3494 (Simulation time: 0 hr 33 min 17 sec) 
Heartbeat CPU 1 instructions: 200000000 cycles: 111499378 heartbeat IPC: 1.78235 cumulative IPC: 1.79373 (Simulation time: 0 hr 33 min 23 sec) 
Heartbeat CPU 2 instructions: 280000000 cycles: 114777900 heartbeat IPC: 2.4392 cumulative IPC: 0.696998 (Simulation time: 0 hr 34 min 24 sec) 
Heartbeat CPU 3 instructions: 230000002 cycles: 115772446 heartbeat IPC: 1.93585 cumulative IPC: 0.259129 (Simulation time: 0 hr 34 min 41 sec) 
Heartbeat CPU 1 instructions: 210000003 cycles: 117038259 heartbeat IPC: 1.80542 cumulative IPC: 0.0854422 (Simulation time: 0 hr 35 min 5 sec) 
Heartbeat CPU 0 instructions: 160000000 cycles: 118504813 heartbeat IPC: 1.36164 cumulative IPC: 1.35016 (Simulation time: 0 hr 35 min 32 sec) 
Heartbeat CPU 2 instructions: 290000003 cycles: 118877464 heartbeat IPC: 2.43928 cumulative IPC: 0.757082 (Simulation time: 0 hr 35 min 39 sec) 
Heartbeat CPU 3 instructions: 240000000 cycles: 120938984 heartbeat IPC: 1.93553 cumulative IPC: 0.330745 (Simulation time: 0 hr 36 min 16 sec) 
Heartbeat CPU 1 instructions: 220000000 cycles: 122561547 heartbeat IPC: 1.81052 cumulative IPC: 0.163183 (Simulation time: 0 hr 36 min 45 sec) 
Heartbeat CPU 2 instructions: 300000000 cycles: 122976489 heartbeat IPC: 2.4396 cumulative IPC: 0.813164 (Simulation time: 0 hr 36 min 52 sec) 
Heartbeat CPU 0 instructions: 170000000 cycles: 125937795 heartbeat IPC: 1.34536 cumulative IPC: 1.34987 (Simulation time: 0 hr 37 min 46 sec) 
Heartbeat CPU 3 instructions: 250000002 cycles: 126104914 heartbeat IPC: 1.93576 cumulative IPC: 0.396495 (Simulation time: 0 hr 37 min 49 sec) 
Heartbeat CPU 2 instructions: 310000003 cycles: 127071322 heartbeat IPC: 2.4421 cumulative IPC: 0.865656 (Simulation time: 0 hr 38 min 6 sec) 
Heartbeat CPU 1 instructions: 230000003 cycles: 128021929 heartbeat IPC: 1.83137 cumulative IPC: 0.234335 (Simulation time: 0 hr 38 min 23 sec) 
Heartbeat CPU 2 instructions: 320000000 cycles: 131171667 heartbeat IPC: 2.43882 cumulative IPC: 0.914832 (Simulation time: 0 hr 39 min 20 sec) 
Heartbeat CPU 3 instructions: 260000000 cycles: 131271876 heartbeat IPC: 1.93537 cumulative IPC: 0.457067 (Simulation time: 0 hr 39 min 21 sec) 
Heartbeat CPU 0 instructions: 180000000 cycles: 133360606 heartbeat IPC: 1.3472 cumulative IPC: 1.34972 (Simulation time: 0 hr 39 min 59 sec) 
Heartbeat CPU 1 instructions: 240000000 cycles: 133579252 heartbeat IPC: 1.79943 cumulative IPC: 0.299448 (Simulation time: 0 hr 40 min 4 sec) 
Heartbeat CPU 2 instructions: 330000003 cycles: 135271928 heartbeat IPC: 2.43887 cumulative IPC: 0.961027 (Simulation time: 0 hr 40 min 33 sec) 
Heartbeat CPU 3 instructions: 270000000 cycles: 136438184 heartbeat IPC: 1.93562 cumulative IPC: 0.513053 (Simulation time: 0 hr 40 min 53 sec) 
Heartbeat CPU 1 instructions: 250000003 cycles: 139161862 heartbeat IPC: 1.79128 cumulative IPC: 0.359294 (Simulation time: 0 hr 41 min 43 sec) 
Heartbeat CPU 2 instructions: 340000000 cycles: 139371252 heartbeat IPC: 2.43943 cumulative IPC: 1.00451 (Simulation time: 0 hr 41 min 46 sec) 
Heartbeat CPU 0 instructions: 190000002 cycles: 140964501 heartbeat IPC: 1.31512 cumulative IPC: 1.34786 (Simulation time: 0 hr 42 min 14 sec) 
Heartbeat CPU 3 instructions: 280000000 cycles: 141604366 heartbeat IPC: 1.93567 cumulative IPC: 0.564954 (Simulation time: 0 hr 42 min 25 sec) 
Heartbeat CPU 2 instructions: 350000003 cycles: 143471068 heartbeat IPC: 2.43913 cumulative IPC: 1.04551 (Simulation time: 0 hr 42 min 59 sec) 
Heartbeat CPU 1 instructions: 260000000 cycles: 144752326 heartbeat IPC: 1.78876 cumulative IPC: 0.414501 (Simulation time: 0 hr 43 min 24 sec) 
Heartbeat CPU 3 instructions: 290000002 cycles: 146948806 heartbeat IPC: 1.8711 cumulative IPC: 0.612458 (Simulation time: 0 hr 44 min 2 sec) 
Heartbeat CPU 2 instructions: 360000000 cycles: 147570286 heartbeat IPC: 2.43949 cumulative IPC: 1.08423 (Simulation time: 0 hr 44 min 13 sec) 
Heartbeat CPU 0 instructions: 200000000 cycles: 148310743 heartbeat IPC: 1.36124 cumulative IPC: 1.34852 (Simulation time: 0 hr 44 min 27 sec) 

Warmup complete CPU 0 instructions: 200000003 cycles: 148310745 (Simulation time: 0 hr 44 min 27 sec) 
Warmup complete CPU 1 instructions: 266378306 cycles: 148310744 (Simulation time: 0 hr 44 min 27 sec) 
Warmup complete CPU 2 instructions: 361806472 cycles: 148310744 (Simulation time: 0 hr 44 min 27 sec) 
Warmup complete CPU 3 instructions: 292540457 cycles: 148310744 (Simulation time: 0 hr 44 min 27 sec) 

Heartbeat CPU 2 instructions: 370000002 cycles: 154439498 heartbeat IPC: 1.45577 cumulative IPC: 1.3369 (Simulation time: 0 hr 45 min 14 sec) 
Heartbeat CPU 1 instructions: 270000003 cycles: 154478209 heartbeat IPC: 1.02818 cumulative IPC: 0.587226 (Simulation time: 0 hr 45 min 15 sec) 
Heartbeat CPU 2 instructions: 380000000 cycles: 161922291 heartbeat IPC: 1.3364 cumulative IPC: 1.33662 (Simulation time: 0 hr 46 min 11 sec) 
Heartbeat CPU 3 instructions: 300000000 cycles: 165851731 heartbeat IPC: 0.529019 cumulative IPC: 0.425264 (Simulation time: 0 hr 46 min 41 sec) 
Heartbeat CPU 2 instructions: 390000003 cycles: 169538683 heartbeat IPC: 1.31296 cumulative IPC: 1.32813 (Simulation time: 0 hr 47 min 9 sec) 
Heartbeat CPU 1 instructions: 280000000 cycles: 171316439 heartbeat IPC: 0.593886 cumulative IPC: 0.592101 (Simulation time: 0 hr 47 min 22 sec) 
Heartbeat CPU 2 instructions: 400000000 cycles: 177020905 heartbeat IPC: 1.3365 cumulative IPC: 1.33031 (Simulation time: 0 hr 48 min 6 sec) 
Heartbeat CPU 2 instructions: 410000000 cycles: 184502513 heartbeat IPC: 1.33661 cumulative IPC: 1.33162 (Simulation time: 0 hr 49 min 4 sec) 
Heartbeat CPU 3 instructions: 310000001 cycles: 187413683 heartbeat IPC: 0.46378 cumulative IPC: 0.446502 (Simulation time: 0 hr 49 min 29 sec) 
Heartbeat CPU 1 instructions: 290000000 cycles: 187877074 heartbeat IPC: 0.603842 cumulative IPC: 0.597015 (Simulation time: 0 hr 49 min 33 sec) 
Heartbeat CPU 2 instructions: 420000000 cycles: 191984586 heartbeat IPC: 1.33653 cumulative IPC: 1.33246 (Simulation time: 0 hr 50 min 7 sec) 
Heartbeat CPU 2 instructions: 430000000 cycles: 199467692 heartbeat IPC: 1.33634 cumulative IPC: 1.33303 (Simulation time: 0 hr 51 min 8 sec) 
Heartbeat CPU 1 instructions: 300000000 cycles: 204345544 heartbeat IPC: 0.607221 cumulative IPC: 0.600015 (Simulation time: 0 hr 51 min 47 sec) 
Heartbeat CPU 3 instructions: 320000000 cycles: 205547977 heartbeat IPC: 0.551441 cumulative IPC: 0.47975 (Simulation time: 0 hr 51 min 56 sec) 
Heartbeat CPU 2 instructions: 440000000 cycles: 206950250 heartbeat IPC: 1.33644 cumulative IPC: 1.33346 (Simulation time: 0 hr 52 min 8 sec) 
Heartbeat CPU 2 instructions: 450000002 cycles: 214432388 heartbeat IPC: 1.33652 cumulative IPC: 1.33381 (Simulation time: 0 hr 53 min 7 sec) 
Heartbeat CPU 1 instructions: 310000002 cycles: 220886698 heartbeat IPC: 0.604553 cumulative IPC: 0.601049 (Simulation time: 0 hr 53 min 57 sec) 
Heartbeat CPU 0 instructions: 210000000 cycles: 221820657 heartbeat IPC: 0.136036 cumulative IPC: 0.136036 (Simulation time: 0 hr 54 min 4 sec) 
Heartbeat CPU 2 instructions: 460000000 cycles: 221915523 heartbeat IPC: 1.33634 cumulative IPC: 1.33406 (Simulation time: 0 hr 54 min 5 sec) 
Heartbeat CPU 3 instructions: 330000002 cycles: 223666320 heartbeat IPC: 0.551927 cumulative IPC: 0.497104 (Simulation time: 0 hr 54 min 19 sec) 
Heartbeat CPU 2 instructions: 470000001 cycles: 229398268 heartbeat IPC: 1.33641 cumulative IPC: 1.33428 (Simulation time: 0 hr 55 min 5 sec) 
Heartbeat CPU 2 instructions: 480000000 cycles: 237137314 heartbeat IPC: 1.29215 cumulative IPC: 1.33061 (Simulation time: 0 hr 56 min 7 sec) 
Heartbeat CPU 1 instructions: 320000000 cycles: 237667469 heartbeat IPC: 0.59592 cumulative IPC: 0.600086 (Simulation time: 0 hr 56 min 12 sec) 
Heartbeat CPU 3 instructions: 340000000 cycles: 241848491 heartbeat IPC: 0.549989 cumulative IPC: 0.507384 (Simulation time: 0 hr 56 min 47 sec) 
Heartbeat CPU 2 instructions: 490000002 cycles: 244619726 heartbeat IPC: 1.33647 cumulative IPC: 1.33107 (Simulation time: 0 hr 57 min 11 sec) 
Heartbeat CPU 2 instructions: 500000000 cycles: 252102625 heartbeat IPC: 1.33638 cumulative IPC: 1.33145 (Simulation time: 0 hr 58 min 12 sec) 
Heartbeat CPU 1 instructions: 330000001 cycles: 254348730 heartbeat IPC: 0.599475 cumulative IPC: 0.59999 (Simulation time: 0 hr 58 min 31 sec) 
Heartbeat CPU 3 instructions: 350000001 cycles: 258831001 heartbeat IPC: 0.588841 cumulative IPC: 0.519901 (Simulation time: 0 hr 59 min 10 sec) 
Heartbeat CPU 2 instructions: 510000000 cycles: 259585360 heartbeat IPC: 1.33641 cumulative IPC: 1.33178 (Simulation time: 0 hr 59 min 16 sec) 
Heartbeat CPU 2 instructions: 520000000 cycles: 267066841 heartbeat IPC: 1.33663 cumulative IPC: 1.33209 (Simulation time: 1 hr 0 min 20 sec) 
Heartbeat CPU 1 instructions: 340000000 cycles: 271173364 heartbeat IPC: 0.594366 cumulative IPC: 0.59922 (Simulation time: 1 hr 0 min 55 sec) 
Heartbeat CPU 3 instructions: 360000000 cycles: 273200758 heartbeat IPC: 0.695906 cumulative IPC: 0.540152 (Simulation time: 1 hr 1 min 13 sec) 
Heartbeat CPU 2 instructions: 530000003 cycles: 274550246 heartbeat IPC: 1.33629 cumulative IPC: 1.33234 (Simulation time: 1 hr 1 min 25 sec) 
Heartbeat CPU 2 instructions: 540000000 cycles: 282031776 heartbeat IPC: 1.33662 cumulative IPC: 1.33258 (Simulation time: 1 hr 2 min 29 sec) 
Heartbeat CPU 3 instructions: 370000003 cycles: 287290212 heartbeat IPC: 0.709751 cumulative IPC: 0.557345 (Simulation time: 1 hr 3 min 15 sec) 
Heartbeat CPU 1 instructions: 350000001 cycles: 288038520 heartbeat IPC: 0.592939 cumulative IPC: 0.598462 (Simulation time: 1 hr 3 min 22 sec) 
Heartbeat CPU 2 instructions: 550000001 cycles: 289513198 heartbeat IPC: 1.33664 cumulative IPC: 1.33279 (Simulation time: 1 hr 3 min 34 sec) 
Heartbeat CPU 0 instructions: 220000000 cycles: 291688727 heartbeat IPC: 0.143127 cumulative IPC: 0.139491 (Simulation time: 1 hr 3 min 53 sec) 
Heartbeat CPU 2 instructions: 560000000 cycles: 297094092 heartbeat IPC: 1.31911 cumulative IPC: 1.33209 (Simulation time: 1 hr 4 min 40 sec) 
Heartbeat CPU 3 instructions: 380000000 cycles: 301054515 heartbeat IPC: 0.726517 cumulative IPC: 0.57259 (Simulation time: 1 hr 5 min 14 sec) 
Heartbeat CPU 2 instructions: 570000002 cycles: 304576502 heartbeat IPC: 1.33647 cumulative IPC: 1.3323 (Simulation time: 1 hr 5 min 44 sec) 
Heartbeat CPU 1 instructions: 360000000 cycles: 304877011 heartbeat IPC: 0.593877 cumulative IPC: 0.597968 (Simulation time: 1 hr 5 min 47 sec) 
Heartbeat CPU 2 instructions: 580000000 cycles: 312059135 heartbeat IPC: 1.33643 cumulative IPC: 1.33249 (Simulation time: 1 hr 6 min 50 sec) 
Heartbeat CPU 3 instructions: 390000003 cycles: 315147620 heartbeat IPC: 0.709567 cumulative IPC: 0.584161 (Simulation time: 1 hr 7 min 16 sec) 
Heartbeat CPU 2 instructions: 590000000 cycles: 319540688 heartbeat IPC: 1.33662 cumulative IPC: 1.33267 (Simulation time: 1 hr 7 min 54 sec) 
Heartbeat CPU 1 instructions: 370000000 cycles: 321807249 heartbeat IPC: 0.590659 cumulative IPC: 0.597255 (Simulation time: 1 hr 8 min 14 sec) 
Heartbeat CPU 2 instructions: 600000000 cycles: 327023010 heartbeat IPC: 1.33648 cumulative IPC: 1.33283 (Simulation time: 1 hr 8 min 59 sec) 
Heartbeat CPU 3 instructions: 400000000 cycles: 328682598 heartbeat IPC: 0.738826 cumulative IPC: 0.595767 (Simulation time: 1 hr 9 min 14 sec) 
Heartbeat CPU 2 instructions: 610000001 cycles: 334504218 heartbeat IPC: 1.33668 cumulative IPC: 1.33299 (Simulation time: 1 hr 10 min 5 sec) 
Heartbeat CPU 1 instructions: 380000000 cycles: 338237321 heartbeat IPC: 0.60864 cumulative IPC: 0.59824 (Simulation time: 1 hr 10 min 38 sec) 
Heartbeat CPU 3 instructions: 410000003 cycles: 341770857 heartbeat IPC: 0.764044 cumulative IPC: 0.607151 (Simulation time: 1 hr 11 min 8 sec) 
Heartbeat CPU 2 instructions: 620000000 cycles: 341987343 heartbeat IPC: 1.33634 cumulative IPC: 1.33312 (Simulation time: 1 hr 11 min 9 sec) 
Heartbeat CPU 2 instructions: 630000000 cycles: 349468829 heartbeat IPC: 1.33663 cumulative IPC: 1.33325 (Simulation time: 1 hr 12 min 22 sec) 
Heartbeat CPU 1 instructions: 390000000 cycles: 355106019 heartbeat IPC: 0.592814 cumulative IPC: 0.597797 (Simulation time: 1 hr 13 min 12 sec) 
Heartbeat CPU 3 instructions: 420000000 cycles: 355908943 heartbeat IPC: 0.707309 cumulative IPC: 0.613972 (Simulation time: 1 hr 13 min 19 sec) 
Heartbeat CPU 2 instructions: 640000000 cycles: 356951400 heartbeat IPC: 1.33644 cumulative IPC: 1.33336 (Simulation time: 1 hr 13 min 28 sec) 
Heartbeat CPU 0 instructions: 230000002 cycles: 363059801 heartbeat IPC: 0.140113 cumulative IPC: 0.139698 (Simulation time: 1 hr 14 min 21 sec) 
Heartbeat CPU 2 instructions: 650000002 cycles: 364662245 heartbeat IPC: 1.29688 cumulative IPC: 1.33206 (Simulation time: 1 hr 14 min 35 sec) 
Heartbeat CPU 3 instructions: 430000001 cycles: 369264093 heartbeat IPC: 0.748775 cumulative IPC: 0.62212 (Simulation time: 1 hr 15 min 14 sec) 
Heartbeat CPU 1 instructions: 400000000 cycles: 371953697 heartbeat IPC: 0.593554 cumulative IPC: 0.597478 (Simulation time: 1 hr 15 min 38 sec) 
Heartbeat CPU 2 instructions: 660000000 cycles: 372143411 heartbeat IPC: 1.33669 cumulative IPC: 1.33222 (Simulation time: 1 hr 15 min 40 sec) 
Heartbeat CPU 2 instructions: 670000002 cycles: 379625498 heartbeat IPC: 1.33653 cumulative IPC: 1.33236 (Simulation time: 1 hr 16 min 45 sec) 
Heartbeat CPU 3 instructions: 440000000 cycles: 382465904 heartbeat IPC: 0.757472 cumulative IPC: 0.629751 (Simulation time: 1 hr 17 min 9 sec) 
Heartbeat CPU 2 instructions: 680000000 cycles: 387107904 heartbeat IPC: 1.33647 cumulative IPC: 1.33248 (Simulation time: 1 hr 17 min 50 sec) 
Heartbeat CPU 1 instructions: 410000000 cycles: 388824308 heartbeat IPC: 0.592747 cumulative IPC: 0.597146 (Simulation time: 1 hr 18 min 5 sec) 
Heartbeat CPU 2 instructions: 690000000 cycles: 394589621 heartbeat IPC: 1.33659 cumulative IPC: 1.33261 (Simulation time: 1 hr 18 min 55 sec) 
Heartbeat CPU 3 instructions: 450000000 cycles: 396625517 heartbeat IPC: 0.706234 cumulative IPC: 0.634113 (Simulation time: 1 hr 19 min 19 sec) 
Heartbeat CPU 2 instructions: 700000000 cycles: 402071230 heartbeat IPC: 1.33661 cumulative IPC: 1.33273 (Simulation time: 1 hr 20 min 8 sec) 
Heartbeat CPU 1 instructions: 420000000 cycles: 406070955 heartbeat IPC: 0.579823 cumulative IPC: 0.595987 (Simulation time: 1 hr 20 min 42 sec) 
Heartbeat CPU 2 instructions: 710000001 cycles: 409551967 heartbeat IPC: 1.33677 cumulative IPC: 1.33284 (Simulation time: 1 hr 21 min 26 sec) 
Heartbeat CPU 3 instructions: 460000000 cycles: 410474450 heartbeat IPC: 0.722077 cumulative IPC: 0.638759 (Simulation time: 1 hr 21 min 43 sec) 
Heartbeat CPU 2 instructions: 720000000 cycles: 417034346 heartbeat IPC: 1.33647 cumulative IPC: 1.33294 (Simulation time: 1 hr 23 min 23 sec) 
Heartbeat CPU 1 instructions: 430000001 cycles: 422981665 heartbeat IPC: 0.591341 cumulative IPC: 0.595701 (Simulation time: 1 hr 24 min 14 sec) 
Heartbeat CPU 3 instructions: 470000000 cycles: 424537857 heartbeat IPC: 0.711065 cumulative IPC: 0.642441 (Simulation time: 1 hr 24 min 27 sec) 
Heartbeat CPU 2 instructions: 730000002 cycles: 424670464 heartbeat IPC: 1.30957 cumulative IPC: 1.3323 (Simulation time: 1 hr 24 min 28 sec) 
Heartbeat CPU 2 instructions: 740000000 cycles: 432151503 heartbeat IPC: 1.33671 cumulative IPC: 1.33241 (Simulation time: 1 hr 25 min 34 sec) 
Heartbeat CPU 0 instructions: 240000000 cycles: 434380034 heartbeat IPC: 0.140213 cumulative IPC: 0.139826 (Simulation time: 1 hr 25 min 53 sec) 
Heartbeat CPU 3 instructions: 480000000 cycles: 437806183 heartbeat IPC: 0.753675 cumulative IPC: 0.647539 (Simulation time: 1 hr 26 min 23 sec) 
Heartbeat CPU 2 instructions: 750000002 cycles: 439634732 heartbeat IPC: 1.33632 cumulative IPC: 1.33251 (Simulation time: 1 hr 26 min 39 sec) 
Heartbeat CPU 1 instructions: 440000000 cycles: 440112806 heartbeat IPC: 0.583732 cumulative IPC: 0.594998 (Simulation time: 1 hr 26 min 43 sec) 
Heartbeat CPU 2 instructions: 760000000 cycles: 447116232 heartbeat IPC: 1.33663 cumulative IPC: 1.33262 (Simulation time: 1 hr 27 min 44 sec) 
Heartbeat CPU 3 instructions: 490000001 cycles: 451661202 heartbeat IPC: 0.72176 cumulative IPC: 0.650929 (Simulation time: 1 hr 28 min 24 sec) 
Heartbeat CPU 2 instructions: 770000000 cycles: 454599449 heartbeat IPC: 1.33632 cumulative IPC: 1.33271 (Simulation time: 1 hr 28 min 49 sec) 
Heartbeat CPU 1 instructions: 450000000 cycles: 457075673 heartbeat IPC: 0.589523 cumulative IPC: 0.594697 (Simulation time: 1 hr 29 min 20 sec) 
Heartbeat CPU 2 instructions: 780000000 cycles: 462081544 heartbeat IPC: 1.33652 cumulative IPC: 1.3328 (Simulation time: 1 hr 30 min 9 sec) 
Heartbeat CPU 3 instructions: 500000000 cycles: 465681901 heartbeat IPC: 0.713231 cumulative IPC: 0.653681 (Simulation time: 1 hr 30 min 46 sec) 
Heartbeat CPU 2 instructions: 790000000 cycles: 469563527 heartbeat IPC: 1.33654 cumulative IPC: 1.33289 (Simulation time: 1 hr 31 min 21 sec) 
Heartbeat CPU 1 instructions: 460000000 cycles: 474053017 heartbeat IPC: 0.58902 cumulative IPC: 0.594401 (Simulation time: 1 hr 32 min 6 sec) 
Heartbeat CPU 2 instructions: 800000000 cycles: 477045565 heartbeat IPC: 1.33653 cumulative IPC: 1.33297 (Simulation time: 1 hr 32 min 32 sec) 
Heartbeat CPU 3 instructions: 510000002 cycles: 480384784 heartbeat IPC: 0.680139 cumulative IPC: 0.654853 (Simulation time: 1 hr 33 min 15 sec) 
Heartbeat CPU 2 instructions: 810000002 cycles: 484652785 heartbeat IPC: 1.31454 cumulative IPC: 1.33255 (Simulation time: 1 hr 34 min 30 sec) 
Heartbeat CPU 1 instructions: 470000002 cycles: 490798462 heartbeat IPC: 0.597177 cumulative IPC: 0.594537 (Simulation time: 1 hr 35 min 35 sec) 
Heartbeat CPU 2 instructions: 820000000 cycles: 492137139 heartbeat IPC: 1.33612 cumulative IPC: 1.33263 (Simulation time: 1 hr 35 min 47 sec) 
Heartbeat CPU 3 instructions: 520000000 cycles: 495159615 heartbeat IPC: 0.676827 cumulative IPC: 0.655789 (Simulation time: 1 hr 36 min 12 sec) 
Heartbeat CPU 2 instructions: 830000001 cycles: 499619687 heartbeat IPC: 1.33644 cumulative IPC: 1.33271 (Simulation time: 1 hr 36 min 50 sec) 
Heartbeat CPU 0 instructions: 250000001 cycles: 507009012 heartbeat IPC: 0.137686 cumulative IPC: 0.139393 (Simulation time: 1 hr 37 min 56 sec) 
Heartbeat CPU 2 instructions: 840000000 cycles: 507102228 heartbeat IPC: 1.33644 cumulative IPC: 1.33279 (Simulation time: 1 hr 37 min 57 sec) 
Heartbeat CPU 1 instructions: 480000000 cycles: 507389975 heartbeat IPC: 0.602718 cumulative IPC: 0.594915 (Simulation time: 1 hr 38 min 0 sec) 
Heartbeat CPU 3 instructions: 530000001 cycles: 509853594 heartbeat IPC: 0.680551 cumulative IPC: 0.656795 (Simulation time: 1 hr 38 min 23 sec) 
Heartbeat CPU 2 instructions: 850000000 cycles: 514583100 heartbeat IPC: 1.33674 cumulative IPC: 1.33287 (Simulation time: 1 hr 39 min 4 sec) 
Heartbeat CPU 2 instructions: 860000000 cycles: 522067063 heartbeat IPC: 1.33619 cumulative IPC: 1.33294 (Simulation time: 1 hr 40 min 7 sec) 
Heartbeat CPU 3 instructions: 540000000 cycles: 524491795 heartbeat IPC: 0.683144 cumulative IPC: 0.65782 (Simulation time: 1 hr 40 min 28 sec) 
Heartbeat CPU 1 instructions: 490000002 cycles: 524757326 heartbeat IPC: 0.575793 cumulative IPC: 0.594033 (Simulation time: 1 hr 40 min 30 sec) 
Heartbeat CPU 2 instructions: 870000001 cycles: 529548339 heartbeat IPC: 1.33667 cumulative IPC: 1.33301 (Simulation time: 1 hr 41 min 12 sec) 
Heartbeat CPU 2 instructions: 880000000 cycles: 537029842 heartbeat IPC: 1.33663 cumulative IPC: 1.33308 (Simulation time: 1 hr 42 min 15 sec) 
Heartbeat CPU 3 instructions: 550000000 cycles: 539190183 heartbeat IPC: 0.680347 cumulative IPC: 0.658667 (Simulation time: 1 hr 42 min 34 sec) 
Heartbeat CPU 1 instructions: 500000000 cycles: 541495534 heartbeat IPC: 0.597435 cumulative IPC: 0.594178 (Simulation time: 1 hr 42 min 53 sec) 
Heartbeat CPU 2 instructions: 890000000 cycles: 544511699 heartbeat IPC: 1.33657 cumulative IPC: 1.33315 (Simulation time: 1 hr 43 min 18 sec) 
Heartbeat CPU 2 instructions: 900000000 cycles: 552100434 heartbeat IPC: 1.31774 cumulative IPC: 1.33286 (Simulation time: 1 hr 44 min 17 sec) 
Heartbeat CPU 3 instructions: 560000000 cycles: 558320476 heartbeat IPC: 0.522731 cumulative IPC: 0.652325 (Simulation time: 1 hr 45 min 5 sec) 
Heartbeat CPU 1 instructions: 510000000 cycles: 558632007 heartbeat IPC: 0.583551 cumulative IPC: 0.593734 (Simulation time: 1 hr 45 min 7 sec) 
Heartbeat CPU 2 instructions: 910000001 cycles: 559584130 heartbeat IPC: 1.33624 cumulative IPC: 1.33292 (Simulation time: 1 hr 45 min 15 sec) 
Heartbeat CPU 2 instructions: 920000000 cycles: 567065183 heartbeat IPC: 1.33671 cumulative IPC: 1.33299 (Simulation time: 1 hr 46 min 12 sec) 
Heartbeat CPU 2 instructions: 930000000 cycles: 574547736 heartbeat IPC: 1.33644 cumulative IPC: 1.33305 (Simulation time: 1 hr 47 min 9 sec) 
Heartbeat CPU 1 instructions: 520000000 cycles: 575776960 heartbeat IPC: 0.583262 cumulative IPC: 0.593314 (Simulation time: 1 hr 47 min 18 sec) 
Heartbeat CPU 3 instructions: 570000003 cycles: 580945937 heartbeat IPC: 0.44198 cumulative IPC: 0.641325 (Simulation time: 1 hr 47 min 58 sec) 
Heartbeat CPU 0 instructions: 260000000 cycles: 581354319 heartbeat IPC: 0.134507 cumulative IPC: 0.138554 (Simulation time: 1 hr 48 min 1 sec) 
Heartbeat CPU 2 instructions: 940000000 cycles: 582028946 heartbeat IPC: 1.33668 cumulative IPC: 1.33311 (Simulation time: 1 hr 48 min 7 sec) 
Heartbeat CPU 2 instructions: 950000003 cycles: 589511382 heartbeat IPC: 1.33646 cumulative IPC: 1.33317 (Simulation time: 1 hr 49 min 4 sec) 
Heartbeat CPU 1 instructions: 530000000 cycles: 592694835 heartbeat IPC: 0.591091 cumulative IPC: 0.593229 (Simulation time: 1 hr 49 min 28 sec) 
Heartbeat CPU 2 instructions: 960000000 cycles: 596994375 heartbeat IPC: 1.33636 cumulative IPC: 1.33322 (Simulation time: 1 hr 50 min 2 sec) 
Heartbeat CPU 2 instructions: 970000003 cycles: 604476243 heartbeat IPC: 1.33657 cumulative IPC: 1.33327 (Simulation time: 1 hr 51 min 6 sec) 
Heartbeat CPU 3 instructions: 580000000 cycles: 604501954 heartbeat IPC: 0.42452 cumulative IPC: 0.63013 (Simulation time: 1 hr 51 min 6 sec) 
Heartbeat CPU 1 instructions: 540000000 cycles: 609690027 heartbeat IPC: 0.588402 cumulative IPC: 0.593052 (Simulation time: 1 hr 51 min 49 sec) 
Heartbeat CPU 2 instructions: 980000000 cycles: 612064221 heartbeat IPC: 1.31787 cumulative IPC: 1.33302 (Simulation time: 1 hr 52 min 17 sec) 
Heartbeat CPU 2 instructions: 990000001 cycles: 619547376 heartbeat IPC: 1.33633 cumulative IPC: 1.33307 (Simulation time: 1 hr 53 min 20 sec) 
Heartbeat CPU 3 instructions: 590000001 cycles: 622763921 heartbeat IPC: 0.547586 cumulative IPC: 0.626952 (Simulation time: 1 hr 53 min 47 sec) 
Heartbeat CPU 1 instructions: 550000000 cycles: 625751281 heartbeat IPC: 0.622616 cumulative IPC: 0.594046 (Simulation time: 1 hr 54 min 16 sec) 
Heartbeat CPU 2 instructions: 1000000000 cycles: 627029933 heartbeat IPC: 1.33644 cumulative IPC: 1.33313 (Simulation time: 1 hr 54 min 26 sec) 
Heartbeat CPU 2 instructions: 1010000001 cycles: 634511731 heartbeat IPC: 1.33658 cumulative IPC: 1.33318 (Simulation time: 1 hr 55 min 28 sec) 
Heartbeat CPU 3 instructions: 600000000 cycles: 640701578 heartbeat IPC: 0.557486 cumulative IPC: 0.624422 (Simulation time: 1 hr 56 min 19 sec) 
Heartbeat CPU 2 instructions: 1020000000 cycles: 641993266 heartbeat IPC: 1.33662 cumulative IPC: 1.33323 (Simulation time: 1 hr 56 min 29 sec) 
Heartbeat CPU 1 instructions: 560000000 cycles: 642508672 heartbeat IPC: 0.596752 cumulative IPC: 0.594138 (Simulation time: 1 hr 56 min 34 sec) 
Heartbeat CPU 2 instructions: 1030000000 cycles: 649474147 heartbeat IPC: 1.33674 cumulative IPC: 1.33328 (Simulation time: 1 hr 57 min 32 sec) 
Heartbeat CPU 0 instructions: 270000002 cycles: 656553237 heartbeat IPC: 0.132981 cumulative IPC: 0.13773 (Simulation time: 1 hr 58 min 30 sec) 
Heartbeat CPU 2 instructions: 1040000000 cycles: 656956321 heartbeat IPC: 1.33651 cumulative IPC: 1.33333 (Simulation time: 1 hr 58 min 34 sec) 
Heartbeat CPU 3 instructions: 610000000 cycles: 658843774 heartbeat IPC: 0.551201 cumulative IPC: 0.62182 (Simulation time: 1 hr 58 min 50 sec) 
Heartbeat CPU 1 instructions: 570000000 cycles: 659314961 heartbeat IPC: 0.595015 cumulative IPC: 0.594167 (Simulation time: 1 hr 58 min 53 sec) 
Heartbeat CPU 2 instructions: 1050000000 cycles: 664438985 heartbeat IPC: 1.33642 cumulative IPC: 1.33338 (Simulation time: 1 hr 59 min 36 sec) 
Heartbeat CPU 2 instructions: 1060000000 cycles: 671920752 heartbeat IPC: 1.33658 cumulative IPC: 1.33342 (Simulation time: 2 hr 0 min 39 sec) 
Heartbeat CPU 1 instructions: 580000000 cycles: 675481516 heartbeat IPC: 0.618561 cumulative IPC: 0.594915 (Simulation time: 2 hr 1 min 9 sec) 
Heartbeat CPU 3 instructions: 620000000 cycles: 676963370 heartbeat IPC: 0.551889 cumulative IPC: 0.619423 (Simulation time: 2 hr 1 min 21 sec) 
Heartbeat CPU 2 instructions: 1070000001 cycles: 679529309 heartbeat IPC: 1.31431 cumulative IPC: 1.33315 (Simulation time: 2 hr 1 min 43 sec) 
Heartbeat CPU 2 instructions: 1080000000 cycles: 687011661 heartbeat IPC: 1.33648 cumulative IPC: 1.3332 (Simulation time: 2 hr 2 min 45 sec) 
Heartbeat CPU 1 instructions: 590000001 cycles: 692313249 heartbeat IPC: 0.594116 cumulative IPC: 0.59489 (Simulation time: 2 hr 3 min 29 sec) 
Heartbeat CPU 3 instructions: 630000002 cycles: 693307512 heartbeat IPC: 0.61184 cumulative IPC: 0.619196 (Simulation time: 2 hr 3 min 37 sec) 
Heartbeat CPU 2 instructions: 1090000003 cycles: 694493612 heartbeat IPC: 1.33655 cumulative IPC: 1.33324 (Simulation time: 2 hr 3 min 47 sec) 
Heartbeat CPU 2 instructions: 1100000000 cycles: 701975448 heartbeat IPC: 1.33657 cumulative IPC: 1.33329 (Simulation time: 2 hr 4 min 48 sec) 
Heartbeat CPU 3 instructions: 640000000 cycles: 709058538 heartbeat IPC: 0.634879 cumulative IPC: 0.619636 (Simulation time: 2 hr 5 min 48 sec) 
Heartbeat CPU 1 instructions: 600000000 cycles: 709243489 heartbeat IPC: 0.590659 cumulative IPC: 0.594762 (Simulation time: 2 hr 5 min 49 sec) 
Heartbeat CPU 2 instructions: 1110000003 cycles: 709456460 heartbeat IPC: 1.33672 cumulative IPC: 1.33333 (Simulation time: 2 hr 5 min 51 sec) 
Heartbeat CPU 2 instructions: 1120000000 cycles: 716937633 heartbeat IPC: 1.33669 cumulative IPC: 1.33338 (Simulation time: 2 hr 6 min 55 sec) 
Heartbeat CPU 2 instructions: 1130000000 cycles: 724419786 heartbeat IPC: 1.33651 cumulative IPC: 1.33342 (Simulation time: 2 hr 7 min 59 sec) 
Heartbeat CPU 3 instructions: 650000001 cycles: 724887523 heartbeat IPC: 0.631752 cumulative IPC: 0.619969 (Simulation time: 2 hr 8 min 3 sec) 
Heartbeat CPU 1 instructions: 610000001 cycles: 725124927 heartbeat IPC: 0.629666 cumulative IPC: 0.595723 (Simulation time: 2 hr 8 min 5 sec) 
Heartbeat CPU 0 instructions: 280000000 cycles: 726583614 heartbeat IPC: 0.142795 cumulative IPC: 0.138343 (Simulation time: 2 hr 8 min 17 sec) 
Heartbeat CPU 2 instructions: 1140000000 cycles: 731902755 heartbeat IPC: 1.33637 cumulative IPC: 1.33345 (Simulation time: 2 hr 9 min 0 sec) 
Heartbeat CPU 2 instructions: 1150000000 cycles: 739491812 heartbeat IPC: 1.31769 cumulative IPC: 1.33325 (Simulation time: 2 hr 10 min 3 sec) 
Heartbeat CPU 3 instructions: 660000000 cycles: 740637443 heartbeat IPC: 0.634924 cumulative IPC: 0.620366 (Simulation time: 2 hr 10 min 12 sec) 
Heartbeat CPU 1 instructions: 620000000 cycles: 742563350 heartbeat IPC: 0.573446 cumulative IPC: 0.59507 (Simulation time: 2 hr 10 min 28 sec) 
Heartbeat CPU 2 instructions: 1160000000 cycles: 746973247 heartbeat IPC: 1.33664 cumulative IPC: 1.33329 (Simulation time: 2 hr 11 min 7 sec) 
Heartbeat CPU 2 instructions: 1170000000 cycles: 754454285 heartbeat IPC: 1.33671 cumulative IPC: 1.33334 (Simulation time: 2 hr 12 min 20 sec) 
Heartbeat CPU 3 instructions: 670000000 cycles: 756241425 heartbeat IPC: 0.640862 cumulative IPC: 0.620892 (Simulation time: 2 hr 12 min 35 sec) 
Heartbeat CPU 1 instructions: 630000001 cycles: 759899281 heartbeat IPC: 0.576837 cumulative IPC: 0.594553 (Simulation time: 2 hr 13 min 12 sec) 
Heartbeat CPU 2 instructions: 1180000000 cycles: 761936681 heartbeat IPC: 1.33647 cumulative IPC: 1.33338 (Simulation time: 2 hr 13 min 30 sec) 
Heartbeat CPU 2 instructions: 1190000000 cycles: 769417870 heartbeat IPC: 1.33669 cumulative IPC: 1.33341 (Simulation time: 2 hr 14 min 37 sec) 
Heartbeat CPU 3 instructions: 680000000 cycles: 771892501 heartbeat IPC: 0.638934 cumulative IPC: 0.621345 (Simulation time: 2 hr 15 min 1 sec) 
Heartbeat CPU 1 instructions: 640000000 cycles: 776211751 heartbeat IPC: 0.613028 cumulative IPC: 0.595033 (Simulation time: 2 hr 15 min 40 sec) 
Heartbeat CPU 2 instructions: 1200000000 cycles: 776900156 heartbeat IPC: 1.33649 cumulative IPC: 1.33345 (Simulation time: 2 hr 15 min 47 sec) 
Heartbeat CPU 2 instructions: 1210000000 cycles: 784382183 heartbeat IPC: 1.33654 cumulative IPC: 1.33349 (Simulation time: 2 hr 16 min 50 sec) 
Heartbeat CPU 3 instructions: 690000002 cycles: 787750695 heartbeat IPC: 0.630589 cumulative IPC: 0.621574 (Simulation time: 2 hr 17 min 20 sec) 
Heartbeat CPU 1 instructions: 650000000 cycles: 791863791 heartbeat IPC: 0.638894 cumulative IPC: 0.5961 (Simulation time: 2 hr 17 min 55 sec) 
Heartbeat CPU 2 instructions: 1220000000 cycles: 791863917 heartbeat IPC: 1.33659 cumulative IPC: 1.33352 (Simulation time: 2 hr 17 min 55 sec) 
Heartbeat CPU 2 instructions: 1230000000 cycles: 799451509 heartbeat IPC: 1.31794 cumulative IPC: 1.33334 (Simulation time: 2 hr 18 min 58 sec) 
Heartbeat CPU 0 instructions: 290000000 cycles: 799460866 heartbeat IPC: 0.137217 cumulative IPC: 0.138217 (Simulation time: 2 hr 18 min 59 sec) 
Heartbeat CPU 3 instructions: 700000000 cycles: 803847962 heartbeat IPC: 0.621223 cumulative IPC: 0.621566 (Simulation time: 2 hr 19 min 35 sec) 
Heartbeat CPU 2 instructions: 1240000000 cycles: 806933855 heartbeat IPC: 1.33648 cumulative IPC: 1.33338 (Simulation time: 2 hr 20 min 1 sec) 
Heartbeat CPU 1 instructions: 660000000 cycles: 807907755 heartbeat IPC: 0.623287 cumulative IPC: 0.596761 (Simulation time: 2 hr 20 min 9 sec) 
Heartbeat CPU 2 instructions: 1250000000 cycles: 814416144 heartbeat IPC: 1.33649 cumulative IPC: 1.33341 (Simulation time: 2 hr 21 min 3 sec) 
Heartbeat CPU 3 instructions: 710000001 cycles: 819663596 heartbeat IPC: 0.632286 cumulative IPC: 0.621818 (Simulation time: 2 hr 21 min 47 sec) 
Heartbeat CPU 2 instructions: 1260000000 cycles: 821898710 heartbeat IPC: 1.33644 cumulative IPC: 1.33345 (Simulation time: 2 hr 22 min 7 sec) 
Heartbeat CPU 1 instructions: 670000000 cycles: 824626144 heartbeat IPC: 0.598144 cumulative IPC: 0.596795 (Simulation time: 2 hr 22 min 29 sec) 
Heartbeat CPU 2 instructions: 1270000002 cycles: 829380610 heartbeat IPC: 1.33656 cumulative IPC: 1.33348 (Simulation time: 2 hr 23 min 9 sec) 
Heartbeat CPU 3 instructions: 720000000 cycles: 835705625 heartbeat IPC: 0.623362 cumulative IPC: 0.621854 (Simulation time: 2 hr 24 min 2 sec) 
Heartbeat CPU 2 instructions: 1280000000 cycles: 836863905 heartbeat IPC: 1.33631 cumulative IPC: 1.33351 (Simulation time: 2 hr 24 min 12 sec) 
Heartbeat CPU 1 instructions: 680000000 cycles: 840888526 heartbeat IPC: 0.614916 cumulative IPC: 0.597221 (Simulation time: 2 hr 24 min 45 sec) 
Heartbeat CPU 2 instructions: 1290000000 cycles: 844346002 heartbeat IPC: 1.33652 cumulative IPC: 1.33354 (Simulation time: 2 hr 25 min 14 sec) 
Heartbeat CPU 3 instructions: 730000001 cycles: 851650210 heartbeat IPC: 0.627172 cumulative IPC: 0.621975 (Simulation time: 2 hr 26 min 17 sec) 
Heartbeat CPU 2 instructions: 1300000000 cycles: 851827390 heartbeat IPC: 1.33665 cumulative IPC: 1.33358 (Simulation time: 2 hr 26 min 18 sec) 
Heartbeat CPU 1 instructions: 690000001 cycles: 857176429 heartbeat IPC: 0.613953 cumulative IPC: 0.597605 (Simulation time: 2 hr 27 min 5 sec) 
Heartbeat CPU 2 instructions: 1310000001 cycles: 859308995 heartbeat IPC: 1.33661 cumulative IPC: 1.33361 (Simulation time: 2 hr 27 min 24 sec) 
Heartbeat CPU 2 instructions: 1320000000 cycles: 866910678 heartbeat IPC: 1.3155 cumulative IPC: 1.33342 (Simulation time: 2 hr 28 min 29 sec) 
Heartbeat CPU 3 instructions: 740000000 cycles: 867383528 heartbeat IPC: 0.635594 cumulative IPC: 0.622273 (Simulation time: 2 hr 28 min 33 sec) 
Heartbeat CPU 0 instructions: 300000000 cycles: 870262060 heartbeat IPC: 0.141241 cumulative IPC: 0.138513 (Simulation time: 2 hr 28 min 57 sec) 
Heartbeat CPU 2 instructions: 1330000003 cycles: 874393149 heartbeat IPC: 1.33646 cumulative IPC: 1.33345 (Simulation time: 2 hr 29 min 30 sec) 
Heartbeat CPU 1 instructions: 700000000 cycles: 874606873 heartbeat IPC: 0.573709 cumulative IPC: 0.597032 (Simulation time: 2 hr 29 min 32 sec) 
Heartbeat CPU 2 instructions: 1340000000 cycles: 881873848 heartbeat IPC: 1.33677 cumulative IPC: 1.33348 (Simulation time: 2 hr 30 min 33 sec) 
Heartbeat CPU 3 instructions: 750000000 cycles: 883227285 heartbeat IPC: 0.631163 cumulative IPC: 0.622465 (Simulation time: 2 hr 30 min 43 sec) 
Heartbeat CPU 2 instructions: 1350000001 cycles: 889356887 heartbeat IPC: 1.33636 cumulative IPC: 1.33351 (Simulation time: 2 hr 31 min 33 sec) 
Heartbeat CPU 1 instructions: 710000000 cycles: 891718694 heartbeat IPC: 0.584391 cumulative IPC: 0.596741 (Simulation time: 2 hr 31 min 53 sec) 
Heartbeat CPU 2 instructions: 1360000000 cycles: 896838013 heartbeat IPC: 1.3367 cumulative IPC: 1.33354 (Simulation time: 2 hr 32 min 36 sec) 
Finished CPU 2 instructions: 1000000000 cycles: 749879310 cumulative IPC: 1.33355 (Simulation time: 2 hr 32 min 47 sec) 
Heartbeat CPU 3 instructions: 760000000 cycles: 899104242 heartbeat IPC: 0.629844 cumulative IPC: 0.622621 (Simulation time: 2 hr 32 min 55 sec) 
Heartbeat CPU 2 instructions: 1370000001 cycles: 904320143 heartbeat IPC: 1.33652 cumulative IPC: 1.33357 (Simulation time: 2 hr 33 min 38 sec) 
Heartbeat CPU 1 instructions: 720000000 cycles: 908096850 heartbeat IPC: 0.610569 cumulative IPC: 0.597039 (Simulation time: 2 hr 34 min 8 sec) 
Heartbeat CPU 2 instructions: 1380000000 cycles: 911802546 heartbeat IPC: 1.33647 cumulative IPC: 1.3336 (Simulation time: 2 hr 34 min 38 sec) 
Heartbeat CPU 3 instructions: 770000001 cycles: 915170735 heartbeat IPC: 0.622413 cumulative IPC: 0.622616 (Simulation time: 2 hr 35 min 5 sec) 
Heartbeat CPU 2 instructions: 1390000000 cycles: 919285312 heartbeat IPC: 1.3364 cumulative IPC: 1.33363 (Simulation time: 2 hr 35 min 39 sec) 
Heartbeat CPU 1 instructions: 730000001 cycles: 925021828 heartbeat IPC: 0.590843 cumulative IPC: 0.596904 (Simulation time: 2 hr 36 min 25 sec) 
Heartbeat CPU 2 instructions: 1400000000 cycles: 926879450 heartbeat IPC: 1.31681 cumulative IPC: 1.33346 (Simulation time: 2 hr 36 min 39 sec) 
Heartbeat CPU 3 instructions: 780000000 cycles: 931947031 heartbeat IPC: 0.596079 cumulative IPC: 0.622048 (Simulation time: 2 hr 37 min 25 sec) 
Heartbeat CPU 2 instructions: 1410000000 cycles: 934361641 heartbeat IPC: 1.33651 cumulative IPC: 1.33349 (Simulation time: 2 hr 37 min 50 sec) 
Heartbeat CPU 1 instructions: 740000000 cycles: 941489970 heartbeat IPC: 0.607233 cumulative IPC: 0.597118 (Simulation time: 2 hr 38 min 58 sec) 
Heartbeat CPU 2 instructions: 1420000000 cycles: 941845506 heartbeat IPC: 1.33621 cumulative IPC: 1.33352 (Simulation time: 2 hr 39 min 1 sec) 
Heartbeat CPU 0 instructions: 310000002 cycles: 942961818 heartbeat IPC: 0.137552 cumulative IPC: 0.138426 (Simulation time: 2 hr 39 min 10 sec) 
Heartbeat CPU 3 instructions: 790000001 cycles: 948612877 heartbeat IPC: 0.60003 cumulative IPC: 0.62159 (Simulation time: 2 hr 39 min 58 sec) 
Heartbeat CPU 2 instructions: 1430000000 cycles: 949326946 heartbeat IPC: 1.33664 cumulative IPC: 1.33355 (Simulation time: 2 hr 40 min 4 sec) 
Heartbeat CPU 2 instructions: 1440000000 cycles: 956808376 heartbeat IPC: 1.33664 cumulative IPC: 1.33358 (Simulation time: 2 hr 41 min 7 sec) 
Heartbeat CPU 1 instructions: 750000000 cycles: 957494779 heartbeat IPC: 0.624812 cumulative IPC: 0.597666 (Simulation time: 2 hr 41 min 13 sec) 
Heartbeat CPU 2 instructions: 1450000001 cycles: 964289317 heartbeat IPC: 1.33673 cumulative IPC: 1.33361 (Simulation time: 2 hr 42 min 6 sec) 
Heartbeat CPU 3 instructions: 800000000 cycles: 965383369 heartbeat IPC: 0.596285 cumulative IPC: 0.62107 (Simulation time: 2 hr 42 min 16 sec) 
Heartbeat CPU 2 instructions: 1460000000 cycles: 971772839 heartbeat IPC: 1.33627 cumulative IPC: 1.33363 (Simulation time: 2 hr 43 min 9 sec) 
Heartbeat CPU 1 instructions: 760000000 cycles: 974477676 heartbeat IPC: 0.588828 cumulative IPC: 0.597484 (Simulation time: 2 hr 43 min 32 sec) 
Heartbeat CPU 2 instructions: 1470000000 cycles: 979254522 heartbeat IPC: 1.3366 cumulative IPC: 1.33366 (Simulation time: 2 hr 44 min 10 sec) 
Heartbeat CPU 3 instructions: 810000000 cycles: 981982430 heartbeat IPC: 0.602444 cumulative IPC: 0.620699 (Simulation time: 2 hr 44 min 32 sec) 
Heartbeat CPU 2 instructions: 1480000000 cycles: 986737763 heartbeat IPC: 1.33632 cumulative IPC: 1.33368 (Simulation time: 2 hr 45 min 11 sec) 
Heartbeat CPU 1 instructions: 770000000 cycles: 991228852 heartbeat IPC: 0.596973 cumulative IPC: 0.597474 (Simulation time: 2 hr 45 min 48 sec) 
Heartbeat CPU 2 instructions: 1490000000 cycles: 994308505 heartbeat IPC: 1.32087 cumulative IPC: 1.33357 (Simulation time: 2 hr 46 min 14 sec) 
Heartbeat CPU 3 instructions: 820000000 cycles: 1000273723 heartbeat IPC: 0.546708 cumulative IPC: 0.619111 (Simulation time: 2 hr 47 min 0 sec) 
Heartbeat CPU 2 instructions: 1500000000 cycles: 1001789764 heartbeat IPC: 1.33667 cumulative IPC: 1.33359 (Simulation time: 2 hr 47 min 11 sec) 
Heartbeat CPU 1 instructions: 780000000 cycles: 1007205119 heartbeat IPC: 0.625928 cumulative IPC: 0.598003 (Simulation time: 2 hr 47 min 53 sec) 
Heartbeat CPU 2 instructions: 1510000003 cycles: 1009272097 heartbeat IPC: 1.33648 cumulative IPC: 1.33362 (Simulation time: 2 hr 48 min 9 sec) 
Heartbeat CPU 0 instructions: 320000000 cycles: 1016177524 heartbeat IPC: 0.136583 cumulative IPC: 0.13827 (Simulation time: 2 hr 49 min 1 sec) 
Heartbeat CPU 2 instructions: 1520000000 cycles: 1016753191 heartbeat IPC: 1.3367 cumulative IPC: 1.33364 (Simulation time: 2 hr 49 min 5 sec) 
Heartbeat CPU 3 instructions: 830000000 cycles: 1023268724 heartbeat IPC: 0.434877 cumulative IPC: 0.614269 (Simulation time: 2 hr 49 min 55 sec) 
Heartbeat CPU 2 instructions: 1530000000 cycles: 1024233873 heartbeat IPC: 1.33678 cumulative IPC: 1.33367 (Simulation time: 2 hr 50 min 3 sec) 
Heartbeat CPU 1 instructions: 790000000 cycles: 1024356382 heartbeat IPC: 0.583047 cumulative IPC: 0.597711 (Simulation time: 2 hr 50 min 4 sec) 
Heartbeat CPU 2 instructions: 1540000000 cycles: 1031714955 heartbeat IPC: 1.33671 cumulative IPC: 1.3337 (Simulation time: 2 hr 51 min 9 sec) 
Heartbeat CPU 2 instructions: 1550000001 cycles: 1039197202 heartbeat IPC: 1.3365 cumulative IPC: 1.33372 (Simulation time: 2 hr 52 min 7 sec) 
Heartbeat CPU 1 instructions: 800000000 cycles: 1040881191 heartbeat IPC: 0.605151 cumulative IPC: 0.597848 (Simulation time: 2 hr 52 min 20 sec) 
Heartbeat CPU 3 instructions: 840000000 cycles: 1044852369 heartbeat IPC: 0.463314 cumulative IPC: 0.610635 (Simulation time: 2 hr 52 min 54 sec) 
Heartbeat CPU 2 instructions: 1560000000 cycles: 1046679519 heartbeat IPC: 1.33648 cumulative IPC: 1.33374 (Simulation time: 2 hr 53 min 12 sec) 
Heartbeat CPU 2 instructions: 1570000003 cycles: 1054299271 heartbeat IPC: 1.31238 cumulative IPC: 1.33356 (Simulation time: 2 hr 54 min 20 sec) 
Heartbeat CPU 1 instructions: 810000002 cycles: 1057340647 heartbeat IPC: 0.607554 cumulative IPC: 0.598024 (Simulation time: 2 hr 54 min 45 sec) 
Heartbeat CPU 2 instructions: 1580000000 cycles: 1061780236 heartbeat IPC: 1.33673 cumulative IPC: 1.33359 (Simulation time: 2 hr 55 min 22 sec) 
Heartbeat CPU 3 instructions: 850000003 cycles: 1062786738 heartbeat IPC: 0.557589 cumulative IPC: 0.609595 (Simulation time: 2 hr 55 min 33 sec) 
Heartbeat CPU 2 instructions: 1590000001 cycles: 1069261868 heartbeat IPC: 1.33661 cumulative IPC: 1.33361 (Simulation time: 2 hr 56 min 34 sec) 
Heartbeat CPU 1 instructions: 820000000 cycles: 1073820502 heartbeat IPC: 0.606801 cumulative IPC: 0.59818 (Simulation time: 2 hr 57 min 17 sec) 
Heartbeat CPU 2 instructions: 1600000000 cycles: 1076744352 heartbeat IPC: 1.33645 cumulative IPC: 1.33364 (Simulation time: 2 hr 57 min 48 sec) 
Heartbeat CPU 3 instructions: 860000000 cycles: 1080948673 heartbeat IPC: 0.550602 cumulative IPC: 0.608446 (Simulation time: 2 hr 58 min 25 sec) 
Heartbeat CPU 2 instructions: 1610000000 cycles: 1084226156 heartbeat IPC: 1.33658 cumulative IPC: 1.33366 (Simulation time: 2 hr 58 min 56 sec) 
Heartbeat CPU 0 instructions: 330000000 cycles: 1089132775 heartbeat IPC: 0.13707 cumulative IPC: 0.138177 (Simulation time: 2 hr 59 min 38 sec) 
Heartbeat CPU 1 instructions: 830000001 cycles: 1090370271 heartbeat IPC: 0.604238 cumulative IPC: 0.598287 (Simulation time: 2 hr 59 min 50 sec) 
Heartbeat CPU 2 instructions: 1620000000 cycles: 1091709197 heartbeat IPC: 1.33636 cumulative IPC: 1.33368 (Simulation time: 3 hr 0 min 2 sec) 
Heartbeat CPU 3 instructions: 870000003 cycles: 1098594430 heartbeat IPC: 0.566709 cumulative IPC: 0.607671 (Simulation time: 3 hr 1 min 2 sec) 
Heartbeat CPU 2 instructions: 1630000003 cycles: 1099191955 heartbeat IPC: 1.33641 cumulative IPC: 1.3337 (Simulation time: 3 hr 1 min 8 sec) 
Heartbeat CPU 1 instructions: 840000000 cycles: 1106434647 heartbeat IPC: 0.622495 cumulative IPC: 0.598693 (Simulation time: 3 hr 2 min 18 sec) 
Heartbeat CPU 2 instructions: 1640000000 cycles: 1106674251 heartbeat IPC: 1.33649 cumulative IPC: 1.33373 (Simulation time: 3 hr 2 min 20 sec) 
Heartbeat CPU 3 instructions: 880000000 cycles: 1113655829 heartbeat IPC: 0.663949 cumulative IPC: 0.608549 (Simulation time: 3 hr 3 min 18 sec) 
Heartbeat CPU 2 instructions: 1650000003 cycles: 1114269171 heartbeat IPC: 1.31667 cumulative IPC: 1.33359 (Simulation time: 3 hr 3 min 23 sec) 
Heartbeat CPU 2 instructions: 1660000000 cycles: 1121751365 heartbeat IPC: 1.33651 cumulative IPC: 1.33361 (Simulation time: 3 hr 4 min 27 sec) 
Heartbeat CPU 1 instructions: 850000002 cycles: 1122922934 heartbeat IPC: 0.606491 cumulative IPC: 0.598825 (Simulation time: 3 hr 4 min 37 sec) 
Heartbeat CPU 3 instructions: 890000000 cycles: 1127993831 heartbeat IPC: 0.697447 cumulative IPC: 0.60985 (Simulation time: 3 hr 5 min 21 sec) 
Heartbeat CPU 2 instructions: 1670000000 cycles: 1129234183 heartbeat IPC: 1.33639 cumulative IPC: 1.33363 (Simulation time: 3 hr 5 min 31 sec) 
Heartbeat CPU 2 instructions: 1680000000 cycles: 1136715916 heartbeat IPC: 1.33659 cumulative IPC: 1.33366 (Simulation time: 3 hr 6 min 34 sec) 
Heartbeat CPU 1 instructions: 860000000 cycles: 1139462834 heartbeat IPC: 0.604598 cumulative IPC: 0.598921 (Simulation time: 3 hr 6 min 57 sec) 
Heartbeat CPU 3 instructions: 900000000 cycles: 1142220637 heartbeat IPC: 0.702898 cumulative IPC: 0.611182 (Simulation time: 3 hr 7 min 21 sec) 
Heartbeat CPU 2 instructions: 1690000003 cycles: 1144197413 heartbeat IPC: 1.33663 cumulative IPC: 1.33368 (Simulation time: 3 hr 7 min 37 sec) 
Heartbeat CPU 2 instructions: 1700000000 cycles: 1151678768 heartbeat IPC: 1.33666 cumulative IPC: 1.3337 (Simulation time: 3 hr 8 min 40 sec) 
Heartbeat CPU 1 instructions: 870000001 cycles: 1155951971 heartbeat IPC: 0.60646 cumulative IPC: 0.599044 (Simulation time: 3 hr 9 min 17 sec) 
Heartbeat CPU 3 instructions: 910000002 cycles: 1156490474 heartbeat IPC: 0.700779 cumulative IPC: 0.61245 (Simulation time: 3 hr 9 min 22 sec) 
Heartbeat CPU 2 instructions: 1710000003 cycles: 1159160894 heartbeat IPC: 1.33652 cumulative IPC: 1.33372 (Simulation time: 3 hr 9 min 45 sec) 
Heartbeat CPU 0 instructions: 340000000 cycles: 1161131509 heartbeat IPC: 0.138891 cumulative IPC: 0.138228 (Simulation time: 3 hr 10 min 1 sec) 
Heartbeat CPU 2 instructions: 1720000000 cycles: 1166642538 heartbeat IPC: 1.3366 cumulative IPC: 1.33374 (Simulation time: 3 hr 10 min 49 sec) 
Heartbeat CPU 3 instructions: 920000000 cycles: 1170651681 heartbeat IPC: 0.706154 cumulative IPC: 0.613748 (Simulation time: 3 hr 11 min 23 sec) 
Heartbeat CPU 1 instructions: 880000000 cycles: 1172377743 heartbeat IPC: 0.608799 cumulative IPC: 0.599201 (Simulation time: 3 hr 11 min 37 sec) 
Heartbeat CPU 2 instructions: 1730000003 cycles: 1174124437 heartbeat IPC: 1.33656 cumulative IPC: 1.33376 (Simulation time: 3 hr 11 min 52 sec) 
Heartbeat CPU 2 instructions: 1740000000 cycles: 1181709899 heartbeat IPC: 1.31831 cumulative IPC: 1.33365 (Simulation time: 3 hr 12 min 54 sec) 
Heartbeat CPU 3 instructions: 930000001 cycles: 1184993127 heartbeat IPC: 0.69728 cumulative IPC: 0.614903 (Simulation time: 3 hr 13 min 22 sec) 
Heartbeat CPU 2 instructions: 1750000000 cycles: 1189191235 heartbeat IPC: 1.33666 cumulative IPC: 1.33367 (Simulation time: 3 hr 13 min 57 sec) 
Heartbeat CPU 1 instructions: 890000000 cycles: 1189621139 heartbeat IPC: 0.579932 cumulative IPC: 0.598882 (Simulation time: 3 hr 14 min 1 sec) 
Heartbeat CPU 2 instructions: 1760000000 cycles: 1196672800 heartbeat IPC: 1.33662 cumulative IPC: 1.33369 (Simulation time: 3 hr 15 min 1 sec) 
Heartbeat CPU 3 instructions: 940000000 cycles: 1199029984 heartbeat IPC: 0.71241 cumulative IPC: 0.616206 (Simulation time: 3 hr 15 min 21 sec) 
Heartbeat CPU 2 instructions: 1770000001 cycles: 1204155433 heartbeat IPC: 1.33643 cumulative IPC: 1.33371 (Simulation time: 3 hr 16 min 4 sec) 
Heartbeat CPU 1 instructions: 900000000 cycles: 1206578231 heartbeat IPC: 0.589724 cumulative IPC: 0.598735 (Simulation time: 3 hr 16 min 24 sec) 
Heartbeat CPU 2 instructions: 1780000000 cycles: 1211638075 heartbeat IPC: 1.33643 cumulative IPC: 1.33373 (Simulation time: 3 hr 17 min 7 sec) 
Heartbeat CPU 3 instructions: 950000002 cycles: 1213215802 heartbeat IPC: 0.70493 cumulative IPC: 0.617388 (Simulation time: 3 hr 17 min 21 sec) 
Heartbeat CPU 2 instructions: 1790000003 cycles: 1219120888 heartbeat IPC: 1.3364 cumulative IPC: 1.33375 (Simulation time: 3 hr 18 min 11 sec) 
Heartbeat CPU 1 instructions: 910000002 cycles: 1223383600 heartbeat IPC: 0.595048 cumulative IPC: 0.598677 (Simulation time: 3 hr 18 min 47 sec) 
Heartbeat CPU 2 instructions: 1800000000 cycles: 1226603092 heartbeat IPC: 1.3365 cumulative IPC: 1.33377 (Simulation time: 3 hr 19 min 13 sec) 
Heartbeat CPU 3 instructions: 960000000 cycles: 1227402527 heartbeat IPC: 0.704884 cumulative IPC: 0.618538 (Simulation time: 3 hr 19 min 20 sec) 
Heartbeat CPU 0 instructions: 350000003 cycles: 1230765329 heartbeat IPC: 0.143608 cumulative IPC: 0.138574 (Simulation time: 3 hr 19 min 49 sec) 
Heartbeat CPU 2 instructions: 1810000000 cycles: 1234085244 heartbeat IPC: 1.33651 cumulative IPC: 1.33379 (Simulation time: 3 hr 20 min 17 sec) 
Heartbeat CPU 1 instructions: 920000000 cycles: 1240206078 heartbeat IPC: 0.594443 cumulative IPC: 0.598612 (Simulation time: 3 hr 21 min 9 sec) 
Heartbeat CPU 3 instructions: 970000000 cycles: 1241427358 heartbeat IPC: 0.713021 cumulative IPC: 0.61975 (Simulation time: 3 hr 21 min 19 sec) 
Heartbeat CPU 2 instructions: 1820000000 cycles: 1241691674 heartbeat IPC: 1.31468 cumulative IPC: 1.33366 (Simulation time: 3 hr 21 min 22 sec) 
Heartbeat CPU 2 instructions: 1830000003 cycles: 1249174770 heartbeat IPC: 1.33635 cumulative IPC: 1.33367 (Simulation time: 3 hr 22 min 24 sec) 
Heartbeat CPU 3 instructions: 980000000 cycles: 1255584261 heartbeat IPC: 0.706369 cumulative IPC: 0.620858 (Simulation time: 3 hr 23 min 18 sec) 
Heartbeat CPU 2 instructions: 1840000000 cycles: 1256656855 heartbeat IPC: 1.33653 cumulative IPC: 1.33369 (Simulation time: 3 hr 23 min 27 sec) 
Heartbeat CPU 1 instructions: 930000001 cycles: 1257219388 heartbeat IPC: 0.587775 cumulative IPC: 0.598446 (Simulation time: 3 hr 23 min 31 sec) 
Heartbeat CPU 2 instructions: 1850000000 cycles: 1264139263 heartbeat IPC: 1.33647 cumulative IPC: 1.33371 (Simulation time: 3 hr 24 min 30 sec) 
Heartbeat CPU 3 instructions: 990000002 cycles: 1269673328 heartbeat IPC: 0.70977 cumulative IPC: 0.621975 (Simulation time: 3 hr 25 min 17 sec) 
Heartbeat CPU 2 instructions: 1860000000 cycles: 1271621759 heartbeat IPC: 1.33645 cumulative IPC: 1.33373 (Simulation time: 3 hr 25 min 34 sec) 
Heartbeat CPU 1 instructions: 940000000 cycles: 1274064243 heartbeat IPC: 0.593653 cumulative IPC: 0.598374 (Simulation time: 3 hr 25 min 55 sec) 
Heartbeat CPU 2 instructions: 1870000001 cycles: 1279104462 heartbeat IPC: 1.33642 cumulative IPC: 1.33375 (Simulation time: 3 hr 26 min 36 sec) 
Heartbeat CPU 3 instructions: 1000000000 cycles: 1283977120 heartbeat IPC: 0.699115 cumulative IPC: 0.622947 (Simulation time: 3 hr 27 min 17 sec) 
Heartbeat CPU 2 instructions: 1880000000 cycles: 1286587775 heartbeat IPC: 1.33631 cumulative IPC: 1.33376 (Simulation time: 3 hr 27 min 40 sec) 
Heartbeat CPU 1 instructions: 950000002 cycles: 1291125290 heartbeat IPC: 0.586131 cumulative IPC: 0.598191 (Simulation time: 3 hr 28 min 17 sec) 
Heartbeat CPU 2 instructions: 1890000001 cycles: 1294069312 heartbeat IPC: 1.33662 cumulative IPC: 1.33378 (Simulation time: 3 hr 28 min 40 sec) 
Heartbeat CPU 3 instructions: 1010000000 cycles: 1298311117 heartbeat IPC: 0.697642 cumulative IPC: 0.623878 (Simulation time: 3 hr 29 min 13 sec) 
Heartbeat CPU 0 instructions: 360000000 cycles: 1299095254 heartbeat IPC: 0.146349 cumulative IPC: 0.139036 (Simulation time: 3 hr 29 min 19 sec) 
Heartbeat CPU 2 instructions: 1900000000 cycles: 1301551645 heartbeat IPC: 1.33648 cumulative IPC: 1.3338 (Simulation time: 3 hr 29 min 39 sec) 
Heartbeat CPU 1 instructions: 960000000 cycles: 1308199840 heartbeat IPC: 0.585667 cumulative IPC: 0.598007 (Simulation time: 3 hr 30 min 32 sec) 
Heartbeat CPU 2 instructions: 1910000002 cycles: 1309155927 heartbeat IPC: 1.31505 cumulative IPC: 1.33368 (Simulation time: 3 hr 30 min 40 sec) 
Heartbeat CPU 3 instructions: 1020000000 cycles: 1312307232 heartbeat IPC: 0.714484 cumulative IPC: 0.624967 (Simulation time: 3 hr 31 min 4 sec) 
Heartbeat CPU 2 instructions: 1920000000 cycles: 1316637368 heartbeat IPC: 1.33664 cumulative IPC: 1.3337 (Simulation time: 3 hr 31 min 39 sec) 
Heartbeat CPU 2 instructions: 1930000000 cycles: 1324121217 heartbeat IPC: 1.33621 cumulative IPC: 1.33371 (Simulation time: 3 hr 32 min 33 sec) 
Heartbeat CPU 1 instructions: 970000003 cycles: 1325014929 heartbeat IPC: 0.594704 cumulative IPC: 0.59796 (Simulation time: 3 hr 32 min 40 sec) 
Heartbeat CPU 2 instructions: 1940000000 cycles: 1331602454 heartbeat IPC: 1.33668 cumulative IPC: 1.33373 (Simulation time: 3 hr 33 min 25 sec) 
Heartbeat CPU 3 instructions: 1030000000 cycles: 1332596269 heartbeat IPC: 0.492877 cumulative IPC: 0.622704 (Simulation time: 3 hr 33 min 33 sec) 
Heartbeat CPU 2 instructions: 1950000001 cycles: 1339084172 heartbeat IPC: 1.33659 cumulative IPC: 1.33375 (Simulation time: 3 hr 34 min 18 sec) 
Heartbeat CPU 1 instructions: 980000000 cycles: 1341378578 heartbeat IPC: 0.61111 cumulative IPC: 0.59814 (Simulation time: 3 hr 34 min 35 sec) 
Heartbeat CPU 2 instructions: 1960000000 cycles: 1346566105 heartbeat IPC: 1.33655 cumulative IPC: 1.33377 (Simulation time: 3 hr 35 min 11 sec) 
Heartbeat CPU 2 instructions: 1970000000 cycles: 1354049838 heartbeat IPC: 1.33623 cumulative IPC: 1.33378 (Simulation time: 3 hr 36 min 3 sec) 
Heartbeat CPU 1 instructions: 990000000 cycles: 1357738962 heartbeat IPC: 0.611233 cumulative IPC: 0.598317 (Simulation time: 3 hr 36 min 29 sec) 
Heartbeat CPU 3 instructions: 1040000000 cycles: 1358356955 heartbeat IPC: 0.388188 cumulative IPC: 0.617712 (Simulation time: 3 hr 36 min 34 sec) 
Heartbeat CPU 2 instructions: 1980000000 cycles: 1361530899 heartbeat IPC: 1.33671 cumulative IPC: 1.3338 (Simulation time: 3 hr 36 min 55 sec) 
Heartbeat CPU 2 instructions: 1990000002 cycles: 1369120749 heartbeat IPC: 1.31755 cumulative IPC: 1.3337 (Simulation time: 3 hr 37 min 48 sec) 
Heartbeat CPU 0 instructions: 370000001 cycles: 1370408690 heartbeat IPC: 0.140226 cumulative IPC: 0.139105 (Simulation time: 3 hr 37 min 57 sec) 
Heartbeat CPU 1 instructions: 1000000000 cycles: 1374728828 heartbeat IPC: 0.588586 cumulative IPC: 0.598182 (Simulation time: 3 hr 38 min 27 sec) 
*** Reached end of trace for Core: 2 Repeating trace: /scratch/user/djimenez/champsim-traces/speccpu2006/xz//454.calculix-104B.champsimtrace.xz
Heartbeat CPU 2 instructions: 2000000000 cycles: 1376603187 heartbeat IPC: 1.33646 cumulative IPC: 1.33372 (Simulation time: 3 hr 38 min 40 sec) 
Heartbeat CPU 2 instructions: 2010000001 cycles: 1384085515 heartbeat IPC: 1.33648 cumulative IPC: 1.33373 (Simulation time: 3 hr 39 min 32 sec) 
Heartbeat CPU 3 instructions: 1050000003 cycles: 1384575124 heartbeat IPC: 0.381415 cumulative IPC: 0.6127 (Simulation time: 3 hr 39 min 35 sec) 
Heartbeat CPU 2 instructions: 2020000000 cycles: 1391568338 heartbeat IPC: 1.33639 cumulative IPC: 1.33375 (Simulation time: 3 hr 40 min 24 sec) 
Heartbeat CPU 1 instructions: 1010000001 cycles: 1391669883 heartbeat IPC: 0.590282 cumulative IPC: 0.598075 (Simulation time: 3 hr 40 min 25 sec) 
Heartbeat CPU 2 instructions: 2030000000 cycles: 1399050535 heartbeat IPC: 1.33651 cumulative IPC: 1.33377 (Simulation time: 3 hr 41 min 16 sec) 
Heartbeat CPU 2 instructions: 2040000000 cycles: 1406533444 heartbeat IPC: 1.33638 cumulative IPC: 1.33378 (Simulation time: 3 hr 42 min 8 sec) 
Heartbeat CPU 1 instructions: 1020000000 cycles: 1408297803 heartbeat IPC: 0.601398 cumulative IPC: 0.598119 (Simulation time: 3 hr 42 min 21 sec) 
Heartbeat CPU 3 instructions: 1060000000 cycles: 1410191948 heartbeat IPC: 0.390368 cumulative IPC: 0.608187 (Simulation time: 3 hr 42 min 34 sec) 
Heartbeat CPU 2 instructions: 2050000002 cycles: 1414015332 heartbeat IPC: 1.33656 cumulative IPC: 1.3338 (Simulation time: 3 hr 43 min 1 sec) 
Heartbeat CPU 2 instructions: 2060000000 cycles: 1421657822 heartbeat IPC: 1.30847 cumulative IPC: 1.33365 (Simulation time: 3 hr 43 min 54 sec) 
Heartbeat CPU 1 instructions: 1030000002 cycles: 1425388543 heartbeat IPC: 0.585112 cumulative IPC: 0.597945 (Simulation time: 3 hr 44 min 21 sec) 
Heartbeat CPU 2 instructions: 2070000000 cycles: 1429139278 heartbeat IPC: 1.33664 cumulative IPC: 1.33366 (Simulation time: 3 hr 44 min 47 sec) 
Heartbeat CPU 3 instructions: 1070000002 cycles: 1435597930 heartbeat IPC: 0.393608 cumulative IPC: 0.603952 (Simulation time: 3 hr 45 min 33 sec) 
Heartbeat CPU 2 instructions: 2080000000 cycles: 1436620652 heartbeat IPC: 1.33665 cumulative IPC: 1.33368 (Simulation time: 3 hr 45 min 41 sec) 
Heartbeat CPU 1 instructions: 1040000000 cycles: 1442494902 heartbeat IPC: 0.584578 cumulative IPC: 0.597768 (Simulation time: 3 hr 46 min 22 sec) 
Heartbeat CPU 2 instructions: 2090000001 cycles: 1444104128 heartbeat IPC: 1.33628 cumulative IPC: 1.3337 (Simulation time: 3 hr 46 min 35 sec) 
Heartbeat CPU 0 instructions: 380000000 cycles: 1446143747 heartbeat IPC: 0.132039 cumulative IPC: 0.138693 (Simulation time: 3 hr 46 min 52 sec) 
Heartbeat CPU 2 instructions: 2100000000 cycles: 1451584877 heartbeat IPC: 1.33676 cumulative IPC: 1.33371 (Simulation time: 3 hr 47 min 35 sec) 
Heartbeat CPU 3 instructions: 1080000000 cycles: 1452178231 heartbeat IPC: 0.603125 cumulative IPC: 0.603941 (Simulation time: 3 hr 47 min 40 sec) 
Heartbeat CPU 2 instructions: 2110000001 cycles: 1459066116 heartbeat IPC: 1.33668 cumulative IPC: 1.33373 (Simulation time: 3 hr 48 min 35 sec) 
Heartbeat CPU 1 instructions: 1050000001 cycles: 1459403189 heartbeat IPC: 0.591426 cumulative IPC: 0.597686 (Simulation time: 3 hr 48 min 37 sec) 
Heartbeat CPU 3 instructions: 1090000003 cycles: 1465394158 heartbeat IPC: 0.756663 cumulative IPC: 0.605474 (Simulation time: 3 hr 49 min 26 sec) 
Heartbeat CPU 2 instructions: 2120000000 cycles: 1466548747 heartbeat IPC: 1.33643 cumulative IPC: 1.33375 (Simulation time: 3 hr 49 min 35 sec) 
Heartbeat CPU 2 instructions: 2130000000 cycles: 1474032511 heartbeat IPC: 1.33623 cumulative IPC: 1.33376 (Simulation time: 3 hr 50 min 35 sec) 
Heartbeat CPU 1 instructions: 1060000000 cycles: 1476026628 heartbeat IPC: 0.60156 cumulative IPC: 0.597735 (Simulation time: 3 hr 50 min 51 sec) 
Heartbeat CPU 3 instructions: 1100000000 cycles: 1479129363 heartbeat IPC: 0.728056 cumulative IPC: 0.606739 (Simulation time: 3 hr 51 min 16 sec) 
Heartbeat CPU 2 instructions: 2140000000 cycles: 1481801087 heartbeat IPC: 1.28724 cumulative IPC: 1.33349 (Simulation time: 3 hr 51 min 37 sec) 
Heartbeat CPU 2 instructions: 2150000002 cycles: 1489283624 heartbeat IPC: 1.33645 cumulative IPC: 1.3335 (Simulation time: 3 hr 52 min 37 sec) 
Heartbeat CPU 1 instructions: 1070000001 cycles: 1492125113 heartbeat IPC: 0.621177 cumulative IPC: 0.598015 (Simulation time: 3 hr 53 min 1 sec) 
Heartbeat CPU 3 instructions: 1110000000 cycles: 1492945039 heartbeat IPC: 0.723815 cumulative IPC: 0.607942 (Simulation time: 3 hr 53 min 7 sec) 
Heartbeat CPU 2 instructions: 2160000000 cycles: 1496766094 heartbeat IPC: 1.33646 cumulative IPC: 1.33352 (Simulation time: 3 hr 53 min 39 sec) 
Heartbeat CPU 2 instructions: 2170000000 cycles: 1504247434 heartbeat IPC: 1.33666 cumulative IPC: 1.33354 (Simulation time: 3 hr 54 min 38 sec) 
Heartbeat CPU 3 instructions: 1120000000 cycles: 1506535112 heartbeat IPC: 0.735831 cumulative IPC: 0.609222 (Simulation time: 3 hr 54 min 57 sec) 
Heartbeat CPU 1 instructions: 1080000000 cycles: 1509160764 heartbeat IPC: 0.587004 cumulative IPC: 0.597878 (Simulation time: 3 hr 55 min 18 sec) 
Heartbeat CPU 2 instructions: 2180000000 cycles: 1511729130 heartbeat IPC: 1.3366 cumulative IPC: 1.33356 (Simulation time: 3 hr 55 min 38 sec) 
Heartbeat CPU 2 instructions: 2190000003 cycles: 1519213362 heartbeat IPC: 1.33614 cumulative IPC: 1.33357 (Simulation time: 3 hr 56 min 37 sec) 
Heartbeat CPU 0 instructions: 390000000 cycles: 1520192774 heartbeat IPC: 0.135046 cumulative IPC: 0.138496 (Simulation time: 3 hr 56 min 45 sec) 
Heartbeat CPU 3 instructions: 1130000002 cycles: 1520213612 heartbeat IPC: 0.731074 cumulative IPC: 0.610436 (Simulation time: 3 hr 56 min 45 sec) 
Heartbeat CPU 1 instructions: 1090000001 cycles: 1525858232 heartbeat IPC: 0.598893 cumulative IPC: 0.59789 (Simulation time: 3 hr 57 min 31 sec) 
Heartbeat CPU 2 instructions: 2200000000 cycles: 1526694588 heartbeat IPC: 1.33668 cumulative IPC: 1.33359 (Simulation time: 3 hr 57 min 38 sec) 
Heartbeat CPU 3 instructions: 1140000000 cycles: 1533640183 heartbeat IPC: 0.744792 cumulative IPC: 0.611739 (Simulation time: 3 hr 58 min 33 sec) 
Heartbeat CPU 2 instructions: 2210000000 cycles: 1534176794 heartbeat IPC: 1.3365 cumulative IPC: 1.3336 (Simulation time: 3 hr 58 min 37 sec) 
Heartbeat CPU 2 instructions: 2220000000 cycles: 1541659964 heartbeat IPC: 1.33633 cumulative IPC: 1.33362 (Simulation time: 3 hr 59 min 37 sec) 
Heartbeat CPU 1 instructions: 1100000000 cycles: 1542965871 heartbeat IPC: 0.584534 cumulative IPC: 0.597726 (Simulation time: 3 hr 59 min 47 sec) 
Heartbeat CPU 3 instructions: 1150000001 cycles: 1547059881 heartbeat IPC: 0.745173 cumulative IPC: 0.613019 (Simulation time: 4 hr 0 min 20 sec) 
Heartbeat CPU 2 instructions: 2230000000 cycles: 1549255333 heartbeat IPC: 1.31659 cumulative IPC: 1.33352 (Simulation time: 4 hr 0 min 37 sec) 
Heartbeat CPU 2 instructions: 2240000000 cycles: 1556737841 heartbeat IPC: 1.33645 cumulative IPC: 1.33354 (Simulation time: 4 hr 1 min 35 sec) 
Heartbeat CPU 1 instructions: 1110000000 cycles: 1560005775 heartbeat IPC: 0.586858 cumulative IPC: 0.597595 (Simulation time: 4 hr 1 min 58 sec) 
Heartbeat CPU 2 instructions: 2250000001 cycles: 1564220043 heartbeat IPC: 1.33651 cumulative IPC: 1.33356 (Simulation time: 4 hr 2 min 27 sec) 
Heartbeat CPU 3 instructions: 1160000000 cycles: 1564225312 heartbeat IPC: 0.582566 cumulative IPC: 0.61265 (Simulation time: 4 hr 2 min 27 sec) 
Heartbeat CPU 2 instructions: 2260000000 cycles: 1571702103 heartbeat IPC: 1.33653 cumulative IPC: 1.33357 (Simulation time: 4 hr 3 min 24 sec) 
Heartbeat CPU 1 instructions: 1120000000 cycles: 1576182553 heartbeat IPC: 0.61817 cumulative IPC: 0.597828 (Simulation time: 4 hr 3 min 57 sec) 
Heartbeat CPU 2 instructions: 2270000000 cycles: 1579183050 heartbeat IPC: 1.33673 cumulative IPC: 1.33359 (Simulation time: 4 hr 4 min 20 sec) 
Heartbeat CPU 2 instructions: 2280000000 cycles: 1586666400 heartbeat IPC: 1.3363 cumulative IPC: 1.3336 (Simulation time: 4 hr 5 min 15 sec) 
Heartbeat CPU 3 instructions: 1170000000 cycles: 1588073967 heartbeat IPC: 0.419311 cumulative IPC: 0.609447 (Simulation time: 4 hr 5 min 26 sec) 
Heartbeat CPU 1 instructions: 1130000000 cycles: 1593328990 heartbeat IPC: 0.583212 cumulative IPC: 0.597655 (Simulation time: 4 hr 6 min 10 sec) 
Heartbeat CPU 2 instructions: 2290000001 cycles: 1594147834 heartbeat IPC: 1.33664 cumulative IPC: 1.33362 (Simulation time: 4 hr 6 min 17 sec) 
Heartbeat CPU 0 instructions: 400000000 cycles: 1594449848 heartbeat IPC: 0.134667 cumulative IPC: 0.138299 (Simulation time: 4 hr 6 min 19 sec) 
Heartbeat CPU 2 instructions: 2300000000 cycles: 1601629171 heartbeat IPC: 1.33666 cumulative IPC: 1.33363 (Simulation time: 4 hr 7 min 18 sec) 
Heartbeat CPU 2 instructions: 2310000001 cycles: 1609355065 heartbeat IPC: 1.29435 cumulative IPC: 1.33343 (Simulation time: 4 hr 8 min 21 sec) 
Heartbeat CPU 1 instructions: 1140000000 cycles: 1610199983 heartbeat IPC: 0.592733 cumulative IPC: 0.597598 (Simulation time: 4 hr 8 min 28 sec) 
Heartbeat CPU 3 instructions: 1180000000 cycles: 1611687533 heartbeat IPC: 0.423485 cumulative IPC: 0.606446 (Simulation time: 4 hr 8 min 39 sec) 
Heartbeat CPU 2 instructions: 2320000000 cycles: 1616837404 heartbeat IPC: 1.33648 cumulative IPC: 1.33344 (Simulation time: 4 hr 9 min 19 sec) 
Heartbeat CPU 2 instructions: 2330000002 cycles: 1624320008 heartbeat IPC: 1.33643 cumulative IPC: 1.33346 (Simulation time: 4 hr 10 min 27 sec) 
Heartbeat CPU 1 instructions: 1150000000 cycles: 1627208132 heartbeat IPC: 0.587953 cumulative IPC: 0.597487 (Simulation time: 4 hr 10 min 53 sec) 
Heartbeat CPU 3 instructions: 1190000002 cycles: 1630506056 heartbeat IPC: 0.531391 cumulative IPC: 0.605493 (Simulation time: 4 hr 11 min 21 sec) 
Heartbeat CPU 2 instructions: 2340000000 cycles: 1631802030 heartbeat IPC: 1.33654 cumulative IPC: 1.33347 (Simulation time: 4 hr 11 min 34 sec) 
Heartbeat CPU 2 instructions: 2350000002 cycles: 1639283841 heartbeat IPC: 1.33658 cumulative IPC: 1.33349 (Simulation time: 4 hr 12 min 36 sec) 
Heartbeat CPU 1 instructions: 1160000000 cycles: 1644360122 heartbeat IPC: 0.583023 cumulative IPC: 0.597321 (Simulation time: 4 hr 13 min 17 sec) 
Heartbeat CPU 2 instructions: 2360000000 cycles: 1646764833 heartbeat IPC: 1.33672 cumulative IPC: 1.3335 (Simulation time: 4 hr 13 min 36 sec) 
Heartbeat CPU 3 instructions: 1200000000 cycles: 1648659811 heartbeat IPC: 0.55085 cumulative IPC: 0.604832 (Simulation time: 4 hr 13 min 52 sec) 
Heartbeat CPU 2 instructions: 2370000002 cycles: 1654246496 heartbeat IPC: 1.3366 cumulative IPC: 1.33352 (Simulation time: 4 hr 14 min 37 sec) 
Heartbeat CPU 1 instructions: 1170000000 cycles: 1661035164 heartbeat IPC: 0.599699 cumulative IPC: 0.597347 (Simulation time: 4 hr 15 min 34 sec) 
Heartbeat CPU 2 instructions: 2380000000 cycles: 1661729176 heartbeat IPC: 1.33642 cumulative IPC: 1.33353 (Simulation time: 4 hr 15 min 39 sec) 
Heartbeat CPU 0 instructions: 410000000 cycles: 1666520921 heartbeat IPC: 0.138752 cumulative IPC: 0.138321 (Simulation time: 4 hr 16 min 18 sec) 
Heartbeat CPU 3 instructions: 1210000000 cycles: 1666652051 heartbeat IPC: 0.555795 cumulative IPC: 0.604251 (Simulation time: 4 hr 16 min 19 sec) 
Heartbeat CPU 2 instructions: 2390000003 cycles: 1669347081 heartbeat IPC: 1.3127 cumulative IPC: 1.33343 (Simulation time: 4 hr 16 min 41 sec) 
Heartbeat CPU 2 instructions: 2400000000 cycles: 1676829421 heartbeat IPC: 1.33648 cumulative IPC: 1.33344 (Simulation time: 4 hr 17 min 42 sec) 
Heartbeat CPU 1 instructions: 1180000000 cycles: 1677664229 heartbeat IPC: 0.601357 cumulative IPC: 0.597391 (Simulation time: 4 hr 17 min 49 sec) 
Heartbeat CPU 2 instructions: 2410000000 cycles: 1684310839 heartbeat IPC: 1.33665 cumulative IPC: 1.33346 (Simulation time: 4 hr 18 min 43 sec) 
Heartbeat CPU 3 instructions: 1220000000 cycles: 1684629384 heartbeat IPC: 0.556256 cumulative IPC: 0.60369 (Simulation time: 4 hr 18 min 45 sec) 
Heartbeat CPU 2 instructions: 2420000000 cycles: 1691792759 heartbeat IPC: 1.33656 cumulative IPC: 1.33347 (Simulation time: 4 hr 19 min 45 sec) 
Heartbeat CPU 1 instructions: 1190000000 cycles: 1694652890 heartbeat IPC: 0.588628 cumulative IPC: 0.597295 (Simulation time: 4 hr 20 min 9 sec) 
Heartbeat CPU 2 instructions: 2430000000 cycles: 1699275750 heartbeat IPC: 1.33636 cumulative IPC: 1.33349 (Simulation time: 4 hr 20 min 54 sec) 
Heartbeat CPU 3 instructions: 1230000002 cycles: 1699357485 heartbeat IPC: 0.678974 cumulative IPC: 0.604404 (Simulation time: 4 hr 20 min 54 sec) 
Heartbeat CPU 2 instructions: 2440000000 cycles: 1706758173 heartbeat IPC: 1.33647 cumulative IPC: 1.3335 (Simulation time: 4 hr 22 min 3 sec) 
Heartbeat CPU 1 instructions: 1200000000 cycles: 1711322885 heartbeat IPC: 0.59988 cumulative IPC: 0.597322 (Simulation time: 4 hr 22 min 49 sec) 
Heartbeat CPU 3 instructions: 1240000000 cycles: 1713088677 heartbeat IPC: 0.728269 cumulative IPC: 0.605491 (Simulation time: 4 hr 23 min 6 sec) 
Heartbeat CPU 2 instructions: 2450000002 cycles: 1714240263 heartbeat IPC: 1.33653 cumulative IPC: 1.33352 (Simulation time: 4 hr 23 min 19 sec) 
Heartbeat CPU 2 instructions: 2460000000 cycles: 1721722292 heartbeat IPC: 1.33654 cumulative IPC: 1.33353 (Simulation time: 4 hr 24 min 34 sec) 
Heartbeat CPU 3 instructions: 1250000002 cycles: 1727156604 heartbeat IPC: 0.710837 cumulative IPC: 0.60643 (Simulation time: 4 hr 25 min 25 sec) 
Heartbeat CPU 1 instructions: 1210000002 cycles: 1727249227 heartbeat IPC: 0.627891 cumulative IPC: 0.59763 (Simulation time: 4 hr 25 min 25 sec) 
Heartbeat CPU 2 instructions: 2470000001 cycles: 1729204908 heartbeat IPC: 1.33643 cumulative IPC: 1.33354 (Simulation time: 4 hr 25 min 44 sec) 
Heartbeat CPU 2 instructions: 2480000000 cycles: 1736936858 heartbeat IPC: 1.29333 cumulative IPC: 1.33335 (Simulation time: 4 hr 26 min 52 sec) 
Heartbeat CPU 0 instructions: 420000000 cycles: 1740154399 heartbeat IPC: 0.135808 cumulative IPC: 0.138205 (Simulation time: 4 hr 27 min 21 sec) 
Heartbeat CPU 3 instructions: 1260000000 cycles: 1741174279 heartbeat IPC: 0.713385 cumulative IPC: 0.607371 (Simulation time: 4 hr 27 min 30 sec) 
Heartbeat CPU 1 instructions: 1220000000 cycles: 1743587726 heartbeat IPC: 0.612051 cumulative IPC: 0.597778 (Simulation time: 4 hr 27 min 52 sec) 
Heartbeat CPU 2 instructions: 2490000002 cycles: 1744419738 heartbeat IPC: 1.33638 cumulative IPC: 1.33336 (Simulation time: 4 hr 28 min 0 sec) 
Heartbeat CPU 2 instructions: 2500000000 cycles: 1751902255 heartbeat IPC: 1.33645 cumulative IPC: 1.33338 (Simulation time: 4 hr 29 min 7 sec) 
Heartbeat CPU 3 instructions: 1270000001 cycles: 1755100428 heartbeat IPC: 0.718074 cumulative IPC: 0.608331 (Simulation time: 4 hr 29 min 35 sec) 
Heartbeat CPU 2 instructions: 2510000000 cycles: 1759383850 heartbeat IPC: 1.33661 cumulative IPC: 1.33339 (Simulation time: 4 hr 30 min 12 sec) 
Heartbeat CPU 1 instructions: 1230000000 cycles: 1759480291 heartbeat IPC: 0.629225 cumulative IPC: 0.598088 (Simulation time: 4 hr 30 min 13 sec) 
[...]
Heartbeat CPU 3 instructions: 4630000002 cycles: 7247790975 heartbeat IPC: 0.626539 cumulative IPC: 0.610955 (Simulation time: 15 hr 50 min 22 sec) 
Heartbeat CPU 2 instructions: 9830000003 cycles: 7248364443 heartbeat IPC: 1.33636 cumulative IPC: 1.33354 (Simulation time: 15 hr 50 min 26 sec) 
Heartbeat CPU 1 instructions: 4510000000 cycles: 7248431979 heartbeat IPC: 0.584741 cumulative IPC: 0.597683 (Simulation time: 15 hr 50 min 27 sec) 
Heartbeat CPU 2 instructions: 9840000000 cycles: 7255847194 heartbeat IPC: 1.33641 cumulative IPC: 1.33354 (Simulation time: 15 hr 51 min 21 sec) 
Heartbeat CPU 2 instructions: 9850000000 cycles: 7263329608 heartbeat IPC: 1.33647 cumulative IPC: 1.33354 (Simulation time: 15 hr 52 min 16 sec) 
Heartbeat CPU 3 instructions: 4640000000 cycles: 7263376191 heartbeat IPC: 0.641634 cumulative IPC: 0.611022 (Simulation time: 15 hr 52 min 16 sec) 
Heartbeat CPU 1 instructions: 4520000000 cycles: 7265564588 heartbeat IPC: 0.583682 cumulative IPC: 0.597649 (Simulation time: 15 hr 52 min 33 sec) 
Heartbeat CPU 2 instructions: 9860000000 cycles: 7270812001 heartbeat IPC: 1.33647 cumulative IPC: 1.33355 (Simulation time: 15 hr 53 min 11 sec) 
Heartbeat CPU 2 instructions: 9870000001 cycles: 7278294563 heartbeat IPC: 1.33644 cumulative IPC: 1.33355 (Simulation time: 15 hr 54 min 6 sec) 
Heartbeat CPU 3 instructions: 4650000001 cycles: 7279032553 heartbeat IPC: 0.638718 cumulative IPC: 0.611083 (Simulation time: 15 hr 54 min 12 sec) 
Heartbeat CPU 1 instructions: 4530000000 cycles: 7282470561 heartbeat IPC: 0.591507 cumulative IPC: 0.597635 (Simulation time: 15 hr 54 min 37 sec) 
Heartbeat CPU 2 instructions: 9880000000 cycles: 7285778176 heartbeat IPC: 1.33625 cumulative IPC: 1.33355 (Simulation time: 15 hr 55 min 2 sec) 
Heartbeat CPU 2 instructions: 9890000001 cycles: 7293259712 heartbeat IPC: 1.33662 cumulative IPC: 1.33356 (Simulation time: 15 hr 55 min 57 sec) 
Heartbeat CPU 3 instructions: 4660000000 cycles: 7294330469 heartbeat IPC: 0.653684 cumulative IPC: 0.611174 (Simulation time: 15 hr 56 min 5 sec) 
Heartbeat CPU 1 instructions: 4540000000 cycles: 7299446970 heartbeat IPC: 0.589053 cumulative IPC: 0.597614 (Simulation time: 15 hr 56 min 42 sec) 
Heartbeat CPU 2 instructions: 9900000000 cycles: 7300741940 heartbeat IPC: 1.3365 cumulative IPC: 1.33356 (Simulation time: 15 hr 56 min 52 sec) 
Heartbeat CPU 2 instructions: 9910000002 cycles: 7308352811 heartbeat IPC: 1.31391 cumulative IPC: 1.33354 (Simulation time: 15 hr 57 min 49 sec) 
Heartbeat CPU 3 instructions: 4670000000 cycles: 7310654238 heartbeat IPC: 0.612604 cumulative IPC: 0.611177 (Simulation time: 15 hr 58 min 6 sec) 
Heartbeat CPU 0 instructions: 1190000001 cycles: 7315012057 heartbeat IPC: 0.138201 cumulative IPC: 0.138139 (Simulation time: 15 hr 58 min 39 sec) 
Heartbeat CPU 1 instructions: 4550000000 cycles: 7315525281 heartbeat IPC: 0.621956 cumulative IPC: 0.597669 (Simulation time: 15 hr 58 min 43 sec) 
Heartbeat CPU 2 instructions: 9920000000 cycles: 7315834034 heartbeat IPC: 1.33668 cumulative IPC: 1.33354 (Simulation time: 15 hr 58 min 45 sec) 
Heartbeat CPU 2 instructions: 9930000000 cycles: 7323317827 heartbeat IPC: 1.33622 cumulative IPC: 1.33354 (Simulation time: 15 hr 59 min 40 sec) 
Heartbeat CPU 3 instructions: 4680000000 cycles: 7326563913 heartbeat IPC: 0.628548 cumulative IPC: 0.611215 (Simulation time: 16 hr 0 min 5 sec) 
Heartbeat CPU 2 instructions: 9940000000 cycles: 7330799049 heartbeat IPC: 1.33668 cumulative IPC: 1.33355 (Simulation time: 16 hr 0 min 35 sec) 
Heartbeat CPU 1 instructions: 4560000000 cycles: 7332268583 heartbeat IPC: 0.597254 cumulative IPC: 0.597668 (Simulation time: 16 hr 0 min 46 sec) 
Heartbeat CPU 2 instructions: 9950000001 cycles: 7338280787 heartbeat IPC: 1.33659 cumulative IPC: 1.33355 (Simulation time: 16 hr 1 min 31 sec) 
Heartbeat CPU 3 instructions: 4690000002 cycles: 7342405118 heartbeat IPC: 0.631265 cumulative IPC: 0.61126 (Simulation time: 16 hr 2 min 2 sec) 
Heartbeat CPU 2 instructions: 9960000000 cycles: 7345762720 heartbeat IPC: 1.33655 cumulative IPC: 1.33355 (Simulation time: 16 hr 2 min 26 sec) 
Heartbeat CPU 1 instructions: 4570000000 cycles: 7349040925 heartbeat IPC: 0.59622 cumulative IPC: 0.597665 (Simulation time: 16 hr 2 min 50 sec) 
Heartbeat CPU 2 instructions: 9970000000 cycles: 7353246113 heartbeat IPC: 1.33629 cumulative IPC: 1.33356 (Simulation time: 16 hr 3 min 21 sec) 
Heartbeat CPU 3 instructions: 4700000000 cycles: 7358624262 heartbeat IPC: 0.616555 cumulative IPC: 0.611272 (Simulation time: 16 hr 4 min 1 sec) 
Heartbeat CPU 2 instructions: 9980000000 cycles: 7360727085 heartbeat IPC: 1.33672 cumulative IPC: 1.33356 (Simulation time: 16 hr 4 min 17 sec) 
Heartbeat CPU 1 instructions: 4580000000 cycles: 7365202069 heartbeat IPC: 0.618768 cumulative IPC: 0.597712 (Simulation time: 16 hr 4 min 50 sec) 
Heartbeat CPU 2 instructions: 9990000002 cycles: 7368313525 heartbeat IPC: 1.31814 cumulative IPC: 1.33354 (Simulation time: 16 hr 5 min 13 sec) 
Heartbeat CPU 3 instructions: 4710000001 cycles: 7374314473 heartbeat IPC: 0.63734 cumulative IPC: 0.611328 (Simulation time: 16 hr 5 min 58 sec) 
*** Reached end of trace for Core: 2 Repeating trace: /scratch/user/djimenez/champsim-traces/speccpu2006/xz//454.calculix-104B.champsimtrace.xz
Heartbeat CPU 2 instructions: 10000000000 cycles: 7375796020 heartbeat IPC: 1.33645 cumulative IPC: 1.33355 (Simulation time: 16 hr 6 min 9 sec) 
Heartbeat CPU 1 instructions: 4590000001 cycles: 7382009223 heartbeat IPC: 0.594985 cumulative IPC: 0.597706 (Simulation time: 16 hr 6 min 54 sec) 
Heartbeat CPU 2 instructions: 10010000001 cycles: 7383278239 heartbeat IPC: 1.3365 cumulative IPC: 1.33355 (Simulation time: 16 hr 7 min 4 sec) 
Heartbeat CPU 0 instructions: 1200000000 cycles: 7386559983 heartbeat IPC: 0.139766 cumulative IPC: 0.138155 (Simulation time: 16 hr 7 min 28 sec) 
Finished CPU 0 instructions: 1000000000 cycles: 7238249280 cumulative IPC: 0.138155 (Simulation time: 16 hr 7 min 28 sec) 

CPU 0 Branch Prediction Accuracy: 88.2177% MPKI: 14.0176

CPU 1 Branch Prediction Accuracy: 92.3716% MPKI: 15.507

CPU 2 Branch Prediction Accuracy: 96.9747% MPKI: 2.67966

CPU 3 Branch Prediction Accuracy: 99.1442% MPKI: 0.215625

ChampSim completed all CPUs

Total Simulation Statistics (not including warmup)

CPU 0 cumulative IPC: 0.138155 instructions: 1000000000 cycles: 7238249280
L1D TOTAL     ACCESS:  396516409  HIT:  342330280  MISS:   54186129
L1D LOAD      ACCESS:  269532370  HIT:  235035600  MISS:   34496770
L1D RFO       ACCESS:  126984039  HIT:  107294680  MISS:   19689359
L1D PREFETCH  ACCESS:          0  HIT:          0  MISS:          0
L1D WRITEBACK ACCESS:          0  HIT:          0  MISS:          0
L1I TOTAL     ACCESS:  245423705  HIT:  245423703  MISS:          2
L1I LOAD      ACCESS:  245423705  HIT:  245423703  MISS:          2
L1I RFO       ACCESS:          0  HIT:          0  MISS:          0
L1I PREFETCH  ACCESS:          0  HIT:          0  MISS:          0
L1I WRITEBACK ACCESS:          0  HIT:          0  MISS:          0
L2C TOTAL     ACCESS:   81639541  HIT:   42276165  MISS:   39363376
L2C LOAD      ACCESS:   34496759  HIT:   13913755  MISS:   20583004
L2C RFO       ACCESS:   19689358  HIT:     910319  MISS:   18779039
L2C PREFETCH  ACCESS:          0  HIT:          0  MISS:          0
L2C WRITEBACK ACCESS:   27453424  HIT:   27452091  MISS:       1333
LLC TOTAL     ACCESS:   65889725  HIT:   37753429  MISS:   28136296
LLC LOAD      ACCESS:   20583001  HIT:    4886709  MISS:   15696292
LLC RFO       ACCESS:   18779036  HIT:    6348602  MISS:   12430434
LLC PREFETCH  ACCESS:          0  HIT:          0  MISS:          0
LLC WRITEBACK ACCESS:   26527688  HIT:   26518118  MISS:       9570

CPU 1 cumulative IPC: 0.597677 instructions: 4326132327 cycles: 7238249281
L1D TOTAL     ACCESS: 1159793469  HIT: 1154429903  MISS:    5363566
L1D LOAD      ACCESS:  782886078  HIT:  779433583  MISS:    3452495
L1D RFO       ACCESS:  376907391  HIT:  374996320  MISS:    1911071
L1D PREFETCH  ACCESS:          0  HIT:          0  MISS:          0
L1D WRITEBACK ACCESS:          0  HIT:          0  MISS:          0
L1I TOTAL     ACCESS:  989940454  HIT:  989738862  MISS:     201592
L1I LOAD      ACCESS:  989940454  HIT:  989738862  MISS:     201592
L1I RFO       ACCESS:          0  HIT:          0  MISS:          0
L1I PREFETCH  ACCESS:          0  HIT:          0  MISS:          0
L1I WRITEBACK ACCESS:          0  HIT:          0  MISS:          0
L2C TOTAL     ACCESS:    8808986  HIT:    7218263  MISS:    1590723
L2C LOAD      ACCESS:    3654041  HIT:    2204851  MISS:    1449190
L2C RFO       ACCESS:    1910424  HIT:    1775044  MISS:     135380
L2C PREFETCH  ACCESS:          0  HIT:          0  MISS:          0
L2C WRITEBACK ACCESS:    3244521  HIT:    3238368  MISS:       6153
LLC TOTAL     ACCESS:    2815636  HIT:     612869  MISS:    2202767
LLC LOAD      ACCESS:    1449190  HIT:      21955  MISS:    1427235
LLC RFO       ACCESS:     135380  HIT:      23957  MISS:     111423
LLC PREFETCH  ACCESS:          0  HIT:          0  MISS:          0
LLC WRITEBACK ACCESS:    1231066  HIT:     566957  MISS:     664109

CPU 2 cumulative IPC: 1.33355 instructions: 9652580597 cycles: 7238249281
L1D TOTAL     ACCESS: 2266134087  HIT: 2265692741  MISS:     441346
L1D LOAD      ACCESS: 2081705517  HIT: 2081338063  MISS:     367454
L1D RFO       ACCESS:  184428570  HIT:  184354678  MISS:      73892
L1D PREFETCH  ACCESS:          0  HIT:          0  MISS:          0
L1D WRITEBACK ACCESS:          0  HIT:          0  MISS:          0
L1I TOTAL     ACCESS: 2310621946  HIT: 2310621946  MISS:          0
L1I LOAD      ACCESS: 2310621946  HIT: 2310621946  MISS:          0
L1I RFO       ACCESS:          0  HIT:          0  MISS:          0
L1I PREFETCH  ACCESS:          0  HIT:          0  MISS:          0
L1I WRITEBACK ACCESS:          0  HIT:          0  MISS:          0
L2C TOTAL     ACCESS:     733857  HIT:     680075  MISS:      53782
L2C LOAD      ACCESS:     367454  HIT:     313705  MISS:      53749
L2C RFO       ACCESS:      73280  HIT:      73261  MISS:         19
L2C PREFETCH  ACCESS:          0  HIT:          0  MISS:          0
L2C WRITEBACK ACCESS:     293123  HIT:     293109  MISS:         14
LLC TOTAL     ACCESS:      79088  HIT:        479  MISS:      78609
LLC LOAD      ACCESS:      53749  HIT:        464  MISS:      53285
LLC RFO       ACCESS:         19  HIT:         15  MISS:          4
LLC PREFETCH  ACCESS:          0  HIT:          0  MISS:          0
LLC WRITEBACK ACCESS:      25320  HIT:          0  MISS:      25320

CPU 3 cumulative IPC: 0.611425 instructions: 4425643773 cycles: 7238249281
L1D TOTAL     ACCESS: 1334256744  HIT: 1284662218  MISS:   49594526
L1D LOAD      ACCESS: 1207396411  HIT: 1169982914  MISS:   37413497
L1D RFO       ACCESS:  126860333  HIT:  114679304  MISS:   12181029
L1D PREFETCH  ACCESS:          0  HIT:          0  MISS:          0
L1D WRITEBACK ACCESS:          0  HIT:          0  MISS:          0
L1I TOTAL     ACCESS: 1040676704  HIT: 1040671922  MISS:       4782
L1I LOAD      ACCESS: 1040676704  HIT: 1040671922  MISS:       4782
L1I RFO       ACCESS:          0  HIT:          0  MISS:          0
L1I PREFETCH  ACCESS:          0  HIT:          0  MISS:          0
L1I WRITEBACK ACCESS:          0  HIT:          0  MISS:          0
L2C TOTAL     ACCESS:   65834890  HIT:   30609680  MISS:   35225210
L2C LOAD      ACCESS:   37418081  HIT:   10157442  MISS:   27260639
L2C RFO       ACCESS:   12177499  HIT:    4227442  MISS:    7950057
L2C PREFETCH  ACCESS:          0  HIT:          0  MISS:          0
L2C WRITEBACK ACCESS:   16239310  HIT:   16224796  MISS:      14514
LLC TOTAL     ACCESS:   45716162  HIT:   17171491  MISS:   28544671
LLC LOAD      ACCESS:   27260638  HIT:    5514976  MISS:   21745662
LLC RFO       ACCESS:    7950057  HIT:    1164707  MISS:    6785350
LLC PREFETCH  ACCESS:          0  HIT:          0  MISS:          0
LLC WRITEBACK ACCESS:   10505467  HIT:   10491808  MISS:      13659

Region of Interest Statistics

CPU 0 cumulative IPC: 0.138155 instructions: 1000000000 cycles: 7238249280
L1D TOTAL     ACCESS:  396516409  HIT:  342330280  MISS:   54186129
L1D LOAD      ACCESS:  269532370  HIT:  235035600  MISS:   34496770
L1D RFO       ACCESS:  126984039  HIT:  107294680  MISS:   19689359
L1D PREFETCH  ACCESS:          0  HIT:          0  MISS:          0
L1D WRITEBACK ACCESS:          0  HIT:          0  MISS:          0
L1D PREFETCH  REQUESTED:          0  ISSUED:          0  USEFUL:          0  USELESS:          0
L1I TOTAL     ACCESS:  245423705  HIT:  245423703  MISS:          2
L1I LOAD      ACCESS:  245423705  HIT:  245423703  MISS:          2
L1I RFO       ACCESS:          0  HIT:          0  MISS:          0
L1I PREFETCH  ACCESS:          0  HIT:          0  MISS:          0
L1I WRITEBACK ACCESS:          0  HIT:          0  MISS:          0
L1I PREFETCH  REQUESTED:          0  ISSUED:          0  USEFUL:          0  USELESS:          0
L2C TOTAL     ACCESS:   81639541  HIT:   42276165  MISS:   39363376
L2C LOAD      ACCESS:   34496759  HIT:   13913755  MISS:   20583004
L2C RFO       ACCESS:   19689358  HIT:     910319  MISS:   18779039
L2C PREFETCH  ACCESS:          0  HIT:          0  MISS:          0
L2C WRITEBACK ACCESS:   27453424  HIT:   27452091  MISS:       1333
L2C PREFETCH  REQUESTED:          0  ISSUED:          0  USEFUL:          0  USELESS:          0
LLC TOTAL     ACCESS:   65889725  HIT:   37753429  MISS:   28136296
LLC LOAD      ACCESS:   20583001  HIT:    4886709  MISS:   15696292
LLC RFO       ACCESS:   18779036  HIT:    6348602  MISS:   12430434
LLC PREFETCH  ACCESS:          0  HIT:          0  MISS:          0
LLC WRITEBACK ACCESS:   26527688  HIT:   26518118  MISS:       9570
LLC PREFETCH  REQUESTED:          0  ISSUED:          0  USEFUL:          0  USELESS:          0
Major fault: 0 Minor fault: 29973

CPU 1 cumulative IPC: 0.599145 instructions: 1000000000 cycles: 1669046175
L1D TOTAL     ACCESS:  267862694  HIT:  266638736  MISS:    1223958
L1D LOAD      ACCESS:  180535388  HIT:  179754221  MISS:     781167
L1D RFO       ACCESS:   87327306  HIT:   86884515  MISS:     442791
L1D PREFETCH  ACCESS:          0  HIT:          0  MISS:          0
L1D WRITEBACK ACCESS:          0  HIT:          0  MISS:          0
L1D PREFETCH  REQUESTED:          0  ISSUED:          0  USEFUL:          0  USELESS:          0
L1I TOTAL     ACCESS:  229226240  HIT:  229180454  MISS:      45786
L1I LOAD      ACCESS:  229226240  HIT:  229180454  MISS:      45786
L1I RFO       ACCESS:          0  HIT:          0  MISS:          0
L1I PREFETCH  ACCESS:          0  HIT:          0  MISS:          0
L1I WRITEBACK ACCESS:          0  HIT:          0  MISS:          0
L1I PREFETCH  REQUESTED:          0  ISSUED:          0  USEFUL:          0  USELESS:          0
L2C TOTAL     ACCESS:    2009319  HIT:    1652773  MISS:     356546
L2C LOAD      ACCESS:     826943  HIT:     502280  MISS:     324663
L2C RFO       ACCESS:     442657  HIT:     412213  MISS:      30444
L2C PREFETCH  ACCESS:          0  HIT:          0  MISS:          0
L2C WRITEBACK ACCESS:     739719  HIT:     738280  MISS:       1439
L2C PREFETCH  REQUESTED:          0  ISSUED:          0  USEFUL:          0  USELESS:          0
LLC TOTAL     ACCESS:     629226  HIT:     129092  MISS:     500134
LLC LOAD      ACCESS:     324663  HIT:       4689  MISS:     319974
LLC RFO       ACCESS:      30444  HIT:       5517  MISS:      24927
LLC PREFETCH  ACCESS:          0  HIT:          0  MISS:          0
LLC WRITEBACK ACCESS:     274119  HIT:     118886  MISS:     155233
LLC PREFETCH  REQUESTED:          0  ISSUED:          0  USEFUL:          0  USELESS:          0
Major fault: 0 Minor fault: 43970

CPU 2 cumulative IPC: 1.33355 instructions: 1000000000 cycles: 749879310
L1D TOTAL     ACCESS:  234761770  HIT:  234716066  MISS:      45704
L1D LOAD      ACCESS:  215653038  HIT:  215615073  MISS:      37965
L1D RFO       ACCESS:   19108732  HIT:   19100993  MISS:       7739
L1D PREFETCH  ACCESS:          0  HIT:          0  MISS:          0
L1D WRITEBACK ACCESS:          0  HIT:          0  MISS:          0
L1D PREFETCH  REQUESTED:          0  ISSUED:          0  USEFUL:          0  USELESS:          0
L1I TOTAL     ACCESS:  239380553  HIT:  239380553  MISS:          0
L1I LOAD      ACCESS:  239380553  HIT:  239380553  MISS:          0
L1I RFO       ACCESS:          0  HIT:          0  MISS:          0
L1I PREFETCH  ACCESS:          0  HIT:          0  MISS:          0
L1I WRITEBACK ACCESS:          0  HIT:          0  MISS:          0
L1I PREFETCH  REQUESTED:          0  ISSUED:          0  USEFUL:          0  USELESS:          0
L2C TOTAL     ACCESS:      75595  HIT:      70009  MISS:       5586
L2C LOAD      ACCESS:      37965  HIT:      32383  MISS:       5582
L2C RFO       ACCESS:       7618  HIT:       7615  MISS:          3
L2C PREFETCH  ACCESS:          0  HIT:          0  MISS:          0
L2C WRITEBACK ACCESS:      30012  HIT:      30011  MISS:          1
L2C PREFETCH  REQUESTED:          0  ISSUED:          0  USEFUL:          0  USELESS:          0
LLC TOTAL     ACCESS:       7592  HIT:         49  MISS:       7543
LLC LOAD      ACCESS:       5582  HIT:         46  MISS:       5536
LLC RFO       ACCESS:          3  HIT:          3  MISS:          0
LLC PREFETCH  ACCESS:          0  HIT:          0  MISS:          0
LLC WRITEBACK ACCESS:       2007  HIT:          0  MISS:       2007
LLC PREFETCH  REQUESTED:          0  ISSUED:          0  USEFUL:          0  USELESS:          0
Major fault: 0 Minor fault: 264

CPU 3 cumulative IPC: 0.610688 instructions: 1000000002 cycles: 1637497194
L1D TOTAL     ACCESS:  304918435  HIT:  293887438  MISS:   11030997
L1D LOAD      ACCESS:  277634287  HIT:  269322281  MISS:    8312006
L1D RFO       ACCESS:   27284148  HIT:   24565157  MISS:    2718991
L1D PREFETCH  ACCESS:          0  HIT:          0  MISS:          0
L1D WRITEBACK ACCESS:          0  HIT:          0  MISS:          0
L1D PREFETCH  REQUESTED:          0  ISSUED:          0  USEFUL:          0  USELESS:          0
L1I TOTAL     ACCESS:  235096685  HIT:  235095998  MISS:        687
L1I LOAD      ACCESS:  235096685  HIT:  235095998  MISS:        687
L1I RFO       ACCESS:          0  HIT:          0  MISS:          0
L1I PREFETCH  ACCESS:          0  HIT:          0  MISS:          0
L1I WRITEBACK ACCESS:          0  HIT:          0  MISS:          0
L1I PREFETCH  REQUESTED:          0  ISSUED:          0  USEFUL:          0  USELESS:          0
L2C TOTAL     ACCESS:   14582202  HIT:    6693436  MISS:    7888766
L2C LOAD      ACCESS:    8312656  HIT:    2218252  MISS:    6094404
L2C RFO       ACCESS:    2718450  HIT:     926674  MISS:    1791776
L2C PREFETCH  ACCESS:          0  HIT:          0  MISS:          0
L2C WRITEBACK ACCESS:    3551096  HIT:    3548510  MISS:       2586
L2C PREFETCH  REQUESTED:          0  ISSUED:          0  USEFUL:          0  USELESS:          0
LLC TOTAL     ACCESS:   10137206  HIT:    3598634  MISS:    6538572
LLC LOAD      ACCESS:    6094404  HIT:    1134610  MISS:    4959794
LLC RFO       ACCESS:    1791776  HIT:     216000  MISS:    1575776
LLC PREFETCH  ACCESS:          0  HIT:          0  MISS:          0
LLC WRITEBACK ACCESS:    2251026  HIT:    2248024  MISS:       3002
LLC PREFETCH  REQUESTED:          0  ISSUED:          0  USEFUL:          0  USELESS:          0
Major fault: 0 Minor fault: 19885

DRAM Statistics
 CHANNEL 0
 RQ ROW_BUFFER_HIT:    5269588  ROW_BUFFER_MISS:   23823498
 DBUS_CONGESTED:   34352230
 WQ ROW_BUFFER_HIT:    1400183  ROW_BUFFER_MISS:   12097021  FULL:          0

 CHANNEL 1
 RQ ROW_BUFFER_HIT:    5281670  ROW_BUFFER_MISS:   23857167
 DBUS_CONGESTED:   34352230
 WQ ROW_BUFFER_HIT:    1405587  ROW_BUFFER_MISS:   12139664  FULL:          0

 AVG_CONGESTED_CYCLE: 14
