
*** ChampSim Multicore Out-of-Order Simulator ***

Warmup Instructions: 200000000
Simulation Instructions: 1000000000
Number of CPUs: 4
LLC sets: 8192
LLC ways: 16
Off-chip DRAM Size: 8192 MB Channels: 2 Width: 64-bit Data Rate: 1600 MT/s

CPU 0 runs /scratch/user/djimenez/champsim-traces/speccpu2006/xz//444.namd-33B.champsimtrace.xz
CPU 1 runs /scratch/user/djimenez/champsim-traces/speccpu2006/xz//481.wrf-816B.champsimtrace.xz
CPU 2 runs /scratch/user/djimenez/champsim-traces/speccpu2006/xz//462.libquantum-1343B.champsimtrace.xz
CPU 3 runs /scratch/user/djimenez/champsim-traces/speccpu2006/xz//410.bwaves-945B.champsimtrace.xz
Heartbeat CPU 3 instructions: 10000002 cycles: 3637354 heartbeat IPC: 2.74925 cumulative IPC: 2.74925 (Simulation time: 0 hr 1 min 13 sec) 
Heartbeat CPU 0 instructions: 10000001 cycles: 4119663 heartbeat IPC: 2.42738 cumulative IPC: 2.42738 (Simulation time: 0 hr 1 min 23 sec) 
Heartbeat CPU 2 instructions: 10000000 cycles: 4514149 heartbeat IPC: 2.21526 cumulative IPC: 2.21526 (Simulation time: 0 hr 1 min 32 sec) 
Heartbeat CPU 1 instructions: 10000002 cycles: 4851546 heartbeat IPC: 2.0612 cumulative IPC: 2.0612 (Simulation time: 0 hr 1 min 39 sec) 
Heartbeat CPU 3 instructions: 20000000 cycles: 7269126 heartbeat IPC: 2.75348 cumulative IPC: 2.75136 (Simulation time: 0 hr 2 min 29 sec) 
Heartbeat CPU 0 instructions: 20000000 cycles: 8218332 heartbeat IPC: 2.43982 cumulative IPC: 2.43358 (Simulation time: 0 hr 2 min 49 sec) 
Heartbeat CPU 1 instructions: 20000000 cycles: 8794146 heartbeat IPC: 2.5364 cumulative IPC: 2.27424 (Simulation time: 0 hr 3 min 0 sec) 
Heartbeat CPU 2 instructions: 20000000 cycles: 8985364 heartbeat IPC: 2.23653 cumulative IPC: 2.22584 (Simulation time: 0 hr 3 min 4 sec) 
Heartbeat CPU 3 instructions: 30000000 cycles: 10894731 heartbeat IPC: 2.75816 cumulative IPC: 2.75362 (Simulation time: 0 hr 3 min 44 sec) 
Heartbeat CPU 0 instructions: 30000001 cycles: 12450331 heartbeat IPC: 2.36295 cumulative IPC: 2.40957 (Simulation time: 0 hr 4 min 16 sec) 
Heartbeat CPU 1 instructions: 30000001 cycles: 12456018 heartbeat IPC: 2.73084 cumulative IPC: 2.40847 (Simulation time: 0 hr 4 min 17 sec) 
Heartbeat CPU 2 instructions: 30000000 cycles: 13989900 heartbeat IPC: 1.99819 cumulative IPC: 2.1444 (Simulation time: 0 hr 4 min 48 sec) 
Heartbeat CPU 3 instructions: 40000000 cycles: 14523779 heartbeat IPC: 2.75554 cumulative IPC: 2.7541 (Simulation time: 0 hr 5 min 0 sec) 
Heartbeat CPU 1 instructions: 40000000 cycles: 16042565 heartbeat IPC: 2.7882 cumulative IPC: 2.49337 (Simulation time: 0 hr 5 min 31 sec) 
Heartbeat CPU 0 instructions: 40000000 cycles: 16555780 heartbeat IPC: 2.43579 cumulative IPC: 2.41607 (Simulation time: 0 hr 5 min 42 sec) 
Heartbeat CPU 3 instructions: 50000000 cycles: 18148556 heartbeat IPC: 2.75879 cumulative IPC: 2.75504 (Simulation time: 0 hr 6 min 14 sec) 
Heartbeat CPU 2 instructions: 40000000 cycles: 19469543 heartbeat IPC: 1.82494 cumulative IPC: 2.05449 (Simulation time: 0 hr 6 min 41 sec) 
Heartbeat CPU 1 instructions: 50000002 cycles: 19707999 heartbeat IPC: 2.72819 cumulative IPC: 2.53704 (Simulation time: 0 hr 6 min 46 sec) 
Heartbeat CPU 0 instructions: 50000002 cycles: 20801202 heartbeat IPC: 2.35548 cumulative IPC: 2.40371 (Simulation time: 0 hr 7 min 7 sec) 
Heartbeat CPU 3 instructions: 60000000 cycles: 21776204 heartbeat IPC: 2.75661 cumulative IPC: 2.7553 (Simulation time: 0 hr 7 min 27 sec) 
Heartbeat CPU 1 instructions: 60000000 cycles: 23675343 heartbeat IPC: 2.52058 cumulative IPC: 2.53428 (Simulation time: 0 hr 8 min 9 sec) 
Heartbeat CPU 2 instructions: 50000001 cycles: 24647847 heartbeat IPC: 1.93113 cumulative IPC: 2.02857 (Simulation time: 0 hr 8 min 31 sec) 
Heartbeat CPU 0 instructions: 60000000 cycles: 25075465 heartbeat IPC: 2.33958 cumulative IPC: 2.39278 (Simulation time: 0 hr 8 min 41 sec) 
Heartbeat CPU 3 instructions: 70000002 cycles: 25403878 heartbeat IPC: 2.75659 cumulative IPC: 2.75548 (Simulation time: 0 hr 8 min 48 sec) 
Heartbeat CPU 1 instructions: 70000001 cycles: 28094739 heartbeat IPC: 2.26275 cumulative IPC: 2.49157 (Simulation time: 0 hr 9 min 49 sec) 
Heartbeat CPU 3 instructions: 80000000 cycles: 29034310 heartbeat IPC: 2.75449 cumulative IPC: 2.75536 (Simulation time: 0 hr 10 min 10 sec) 
Heartbeat CPU 0 instructions: 70000001 cycles: 29056714 heartbeat IPC: 2.51177 cumulative IPC: 2.40908 (Simulation time: 0 hr 10 min 11 sec) 
Heartbeat CPU 2 instructions: 60000000 cycles: 29565390 heartbeat IPC: 2.03354 cumulative IPC: 2.0294 (Simulation time: 0 hr 10 min 21 sec) 
Heartbeat CPU 3 instructions: 90000000 cycles: 32662476 heartbeat IPC: 2.75621 cumulative IPC: 2.75546 (Simulation time: 0 hr 11 min 21 sec) 
Heartbeat CPU 0 instructions: 80000000 cycles: 33349571 heartbeat IPC: 2.32945 cumulative IPC: 2.39883 (Simulation time: 0 hr 11 min 33 sec) 
Heartbeat CPU 1 instructions: 80000000 cycles: 33411903 heartbeat IPC: 1.8807 cumulative IPC: 2.39436 (Simulation time: 0 hr 11 min 35 sec) 
Heartbeat CPU 2 instructions: 70000000 cycles: 34359595 heartbeat IPC: 2.08585 cumulative IPC: 2.03728 (Simulation time: 0 hr 11 min 51 sec) 
Heartbeat CPU 3 instructions: 100000000 cycles: 36303521 heartbeat IPC: 2.74646 cumulative IPC: 2.75455 (Simulation time: 0 hr 12 min 26 sec) 
Heartbeat CPU 0 instructions: 90000001 cycles: 37372862 heartbeat IPC: 2.48553 cumulative IPC: 2.40816 (Simulation time: 0 hr 12 min 45 sec) 
Heartbeat CPU 2 instructions: 80000000 cycles: 39158663 heartbeat IPC: 2.08374 cumulative IPC: 2.04297 (Simulation time: 0 hr 13 min 16 sec) 
Heartbeat CPU 1 instructions: 90000001 cycles: 39173684 heartbeat IPC: 1.73557 cumulative IPC: 2.29746 (Simulation time: 0 hr 13 min 17 sec) 
Heartbeat CPU 3 instructions: 110000000 cycles: 39930516 heartbeat IPC: 2.7571 cumulative IPC: 2.75479 (Simulation time: 0 hr 13 min 30 sec) 
Heartbeat CPU 0 instructions: 100000000 cycles: 41642338 heartbeat IPC: 2.34221 cumulative IPC: 2.4014 (Simulation time: 0 hr 14 min 1 sec) 
Heartbeat CPU 3 instructions: 120000000 cycles: 43563782 heartbeat IPC: 2.75234 cumulative IPC: 2.75458 (Simulation time: 0 hr 14 min 41 sec) 
Heartbeat CPU 1 instructions: 100000000 cycles: 43606989 heartbeat IPC: 2.25565 cumulative IPC: 2.29321 (Simulation time: 0 hr 14 min 42 sec) 
Heartbeat CPU 2 instructions: 90000001 cycles: 43679156 heartbeat IPC: 2.21215 cumulative IPC: 2.06048 (Simulation time: 0 hr 14 min 43 sec) 
Heartbeat CPU 0 instructions: 110000003 cycles: 45690014 heartbeat IPC: 2.47055 cumulative IPC: 2.40753 (Simulation time: 0 hr 15 min 24 sec) 
Heartbeat CPU 3 instructions: 130000000 cycles: 47190183 heartbeat IPC: 2.75756 cumulative IPC: 2.75481 (Simulation time: 0 hr 15 min 52 sec) 
Heartbeat CPU 1 instructions: 110000003 cycles: 47918283 heartbeat IPC: 2.31949 cumulative IPC: 2.29557 (Simulation time: 0 hr 16 min 6 sec) 
Heartbeat CPU 2 instructions: 100000000 cycles: 48129169 heartbeat IPC: 2.24718 cumulative IPC: 2.07774 (Simulation time: 0 hr 16 min 10 sec) 
Heartbeat CPU 0 instructions: 120000000 cycles: 49945300 heartbeat IPC: 2.35002 cumulative IPC: 2.40263 (Simulation time: 0 hr 16 min 44 sec) 
Heartbeat CPU 3 instructions: 140000000 cycles: 50835791 heartbeat IPC: 2.74303 cumulative IPC: 2.75397 (Simulation time: 0 hr 17 min 1 sec) 
Heartbeat CPU 1 instructions: 120000000 cycles: 52167680 heartbeat IPC: 2.35327 cumulative IPC: 2.30027 (Simulation time: 0 hr 17 min 28 sec) 
Heartbeat CPU 2 instructions: 110000002 cycles: 52701508 heartbeat IPC: 2.18706 cumulative IPC: 2.08723 (Simulation time: 0 hr 17 min 39 sec) 
Heartbeat CPU 0 instructions: 130000000 cycles: 53990209 heartbeat IPC: 2.47224 cumulative IPC: 2.40784 (Simulation time: 0 hr 18 min 5 sec) 
Heartbeat CPU 3 instructions: 150000000 cycles: 54474621 heartbeat IPC: 2.74814 cumulative IPC: 2.75358 (Simulation time: 0 hr 18 min 14 sec) 
Heartbeat CPU 1 instructions: 130000003 cycles: 57195810 heartbeat IPC: 1.98881 cumulative IPC: 2.27289 (Simulation time: 0 hr 19 min 8 sec) 
Heartbeat CPU 2 instructions: 120000000 cycles: 57433806 heartbeat IPC: 2.11314 cumulative IPC: 2.08936 (Simulation time: 0 hr 19 min 13 sec) 
Heartbeat CPU 3 instructions: 160000000 cycles: 58137381 heartbeat IPC: 2.73018 cumulative IPC: 2.7521 (Simulation time: 0 hr 19 min 27 sec) 
Heartbeat CPU 0 instructions: 140000000 cycles: 58370648 heartbeat IPC: 2.28288 cumulative IPC: 2.39847 (Simulation time: 0 hr 19 min 31 sec) 
Heartbeat CPU 1 instructions: 140000000 cycles: 61656923 heartbeat IPC: 2.24159 cumulative IPC: 2.27063 (Simulation time: 0 hr 20 min 34 sec) 
Heartbeat CPU 3 instructions: 170000000 cycles: 61831989 heartbeat IPC: 2.70665 cumulative IPC: 2.74939 (Simulation time: 0 hr 20 min 37 sec) 
Heartbeat CPU 2 instructions: 130000001 cycles: 62124083 heartbeat IPC: 2.13207 cumulative IPC: 2.09259 (Simulation time: 0 hr 20 min 43 sec) 
Heartbeat CPU 0 instructions: 150000002 cycles: 62625850 heartbeat IPC: 2.35007 cumulative IPC: 2.39518 (Simulation time: 0 hr 20 min 54 sec) 
Heartbeat CPU 1 instructions: 150000003 cycles: 65302188 heartbeat IPC: 2.74329 cumulative IPC: 2.29701 (Simulation time: 0 hr 21 min 50 sec) 
Heartbeat CPU 3 instructions: 180000000 cycles: 65490173 heartbeat IPC: 2.7336 cumulative IPC: 2.7485 (Simulation time: 0 hr 21 min 54 sec) 
Heartbeat CPU 2 instructions: 140000000 cycles: 66497470 heartbeat IPC: 2.28656 cumulative IPC: 2.10534 (Simulation time: 0 hr 22 min 15 sec) 
Heartbeat CPU 0 instructions: 160000000 cycles: 66940662 heartbeat IPC: 2.3176 cumulative IPC: 2.39018 (Simulation time: 0 hr 22 min 23 sec) 
Heartbeat CPU 1 instructions: 160000000 cycles: 69102433 heartbeat IPC: 2.63141 cumulative IPC: 2.3154 (Simulation time: 0 hr 23 min 6 sec) 
Heartbeat CPU 3 instructions: 190000001 cycles: 69118871 heartbeat IPC: 2.75581 cumulative IPC: 2.74889 (Simulation time: 0 hr 23 min 6 sec) 
Heartbeat CPU 2 instructions: 150000001 cycles: 70874091 heartbeat IPC: 2.28487 cumulative IPC: 2.11643 (Simulation time: 0 hr 23 min 43 sec) 
Heartbeat CPU 0 instructions: 170000001 cycles: 71034807 heartbeat IPC: 2.44251 cumulative IPC: 2.39319 (Simulation time: 0 hr 23 min 46 sec) 
Heartbeat CPU 1 instructions: 170000002 cycles: 72601549 heartbeat IPC: 2.85787 cumulative IPC: 2.34155 (Simulation time: 0 hr 24 min 18 sec) 
Heartbeat CPU 3 instructions: 200000000 cycles: 72762686 heartbeat IPC: 2.74438 cumulative IPC: 2.74866 (Simulation time: 0 hr 24 min 22 sec) 
Heartbeat CPU 0 instructions: 180000000 cycles: 75244728 heartbeat IPC: 2.37534 cumulative IPC: 2.39219 (Simulation time: 0 hr 25 min 13 sec) 
Heartbeat CPU 2 instructions: 160000000 cycles: 75577502 heartbeat IPC: 2.12612 cumulative IPC: 2.11703 (Simulation time: 0 hr 25 min 19 sec) 
Heartbeat CPU 3 instructions: 210000000 cycles: 76390759 heartbeat IPC: 2.75628 cumulative IPC: 0.130906 (Simulation time: 0 hr 25 min 35 sec) 
Heartbeat CPU 1 instructions: 180000000 cycles: 76512379 heartbeat IPC: 2.557 cumulative IPC: 2.35256 (Simulation time: 0 hr 25 min 37 sec) 
Heartbeat CPU 0 instructions: 190000000 cycles: 79490349 heartbeat IPC: 2.35537 cumulative IPC: 2.39023 (Simulation time: 0 hr 26 min 35 sec) 
Heartbeat CPU 3 instructions: 220000000 cycles: 80021204 heartbeat IPC: 2.75448 cumulative IPC: 0.249934 (Simulation time: 0 hr 26 min 44 sec) 
Heartbeat CPU 2 instructions: 170000000 cycles: 80378590 heartbeat IPC: 2.08286 cumulative IPC: 2.11499 (Simulation time: 0 hr 26 min 51 sec) 
Heartbeat CPU 1 instructions: 190000002 cycles: 82122910 heartbeat IPC: 1.78236 cumulative IPC: 2.31361 (Simulation time: 0 hr 27 min 22 sec) 
Heartbeat CPU 3 instructions: 230000002 cycles: 83661058 heartbeat IPC: 2.74736 cumulative IPC: 0.35859 (Simulation time: 0 hr 27 min 49 sec) 
Heartbeat CPU 0 instructions: 200000000 cycles: 83740278 heartbeat IPC: 2.35298 cumulative IPC: 2.38834 (Simulation time: 0 hr 27 min 50 sec) 
Heartbeat CPU 2 instructions: 180000000 cycles: 85081721 heartbeat IPC: 2.12624 cumulative IPC: 2.11561 (Simulation time: 0 hr 28 min 14 sec) 
Heartbeat CPU 3 instructions: 240000000 cycles: 87468976 heartbeat IPC: 2.62611 cumulative IPC: 0.457305 (Simulation time: 0 hr 28 min 58 sec) 
Heartbeat CPU 1 instructions: 200000000 cycles: 87707363 heartbeat IPC: 1.79069 cumulative IPC: 2.28031 (Simulation time: 0 hr 29 min 2 sec) 
Heartbeat CPU 0 instructions: 210000003 cycles: 87895580 heartbeat IPC: 2.40656 cumulative IPC: 0.113771 (Simulation time: 0 hr 29 min 6 sec) 
Heartbeat CPU 2 instructions: 190000003 cycles: 89648337 heartbeat IPC: 2.18981 cumulative IPC: 2.11939 (Simulation time: 0 hr 29 min 38 sec) 
Heartbeat CPU 3 instructions: 250000000 cycles: 91137083 heartbeat IPC: 2.7262 cumulative IPC: 0.548624 (Simulation time: 0 hr 30 min 5 sec) 
Heartbeat CPU 0 instructions: 220000000 cycles: 91941685 heartbeat IPC: 2.47151 cumulative IPC: 0.217529 (Simulation time: 0 hr 30 min 19 sec) 
Heartbeat CPU 1 instructions: 210000000 cycles: 93265084 heartbeat IPC: 1.7993 cumulative IPC: 0.107221 (Simulation time: 0 hr 30 min 43 sec) 
Heartbeat CPU 2 instructions: 200000000 cycles: 94309381 heartbeat IPC: 2.14544 cumulative IPC: 2.12068 (Simulation time: 0 hr 31 min 2 sec) 

Warmup complete CPU 0 instructions: 225493111 cycles: 94309382 (Simulation time: 0 hr 31 min 2 sec) 
Warmup complete CPU 1 instructions: 211824880 cycles: 94309382 (Simulation time: 0 hr 31 min 2 sec) 
Warmup complete CPU 2 instructions: 200000001 cycles: 94309382 (Simulation time: 0 hr 31 min 2 sec) 
Warmup complete CPU 3 instructions: 258603726 cycles: 94309381 (Simulation time: 0 hr 31 min 2 sec) 

Heartbeat CPU 3 instructions: 260000000 cycles: 95877716 heartbeat IPC: 2.10942 cumulative IPC: 0.890291 (Simulation time: 0 hr 31 min 17 sec) 
Heartbeat CPU 0 instructions: 230000002 cycles: 97568568 heartbeat IPC: 1.77718 cumulative IPC: 1.38283 (Simulation time: 0 hr 31 min 34 sec) 
Heartbeat CPU 0 instructions: 240000000 cycles: 104606834 heartbeat IPC: 1.4208 cumulative IPC: 1.40878 (Simulation time: 0 hr 32 min 42 sec) 
Heartbeat CPU 1 instructions: 220000000 cycles: 105119227 heartbeat IPC: 0.843587 cumulative IPC: 0.756266 (Simulation time: 0 hr 32 min 47 sec) 
Heartbeat CPU 3 instructions: 270000003 cycles: 107093231 heartbeat IPC: 0.891622 cumulative IPC: 0.891459 (Simulation time: 0 hr 33 min 6 sec) 
Heartbeat CPU 0 instructions: 250000000 cycles: 112561870 heartbeat IPC: 1.25707 cumulative IPC: 1.34266 (Simulation time: 0 hr 33 min 59 sec) 
Heartbeat CPU 3 instructions: 280000000 cycles: 118414022 heartbeat IPC: 0.88333 cumulative IPC: 0.887641 (Simulation time: 0 hr 34 min 57 sec) 
Heartbeat CPU 1 instructions: 230000000 cycles: 118864533 heartbeat IPC: 0.727521 cumulative IPC: 0.740175 (Simulation time: 0 hr 35 min 1 sec) 
Heartbeat CPU 0 instructions: 260000000 cycles: 120483793 heartbeat IPC: 1.26232 cumulative IPC: 1.31834 (Simulation time: 0 hr 35 min 17 sec) 
Heartbeat CPU 0 instructions: 270000001 cycles: 127334714 heartbeat IPC: 1.45966 cumulative IPC: 1.34766 (Simulation time: 0 hr 36 min 29 sec) 
Heartbeat CPU 3 instructions: 290000001 cycles: 129723042 heartbeat IPC: 0.88425 cumulative IPC: 0.886558 (Simulation time: 0 hr 36 min 57 sec) 
Heartbeat CPU 2 instructions: 210000000 cycles: 132266678 heartbeat IPC: 0.263454 cumulative IPC: 0.263454 (Simulation time: 0 hr 37 min 21 sec) 
Heartbeat CPU 1 instructions: 240000000 cycles: 132772207 heartbeat IPC: 0.719028 cumulative IPC: 0.732529 (Simulation time: 0 hr 37 min 26 sec) 
Heartbeat CPU 0 instructions: 280000000 cycles: 135188046 heartbeat IPC: 1.27334 cumulative IPC: 1.33338 (Simulation time: 0 hr 37 min 49 sec) 
Heartbeat CPU 3 instructions: 300000000 cycles: 141342177 heartbeat IPC: 0.860649 cumulative IPC: 0.880158 (Simulation time: 0 hr 38 min 49 sec) 
Heartbeat CPU 0 instructions: 290000001 cycles: 142244477 heartbeat IPC: 1.41715 cumulative IPC: 1.34571 (Simulation time: 0 hr 38 min 58 sec) 
Heartbeat CPU 1 instructions: 250000000 cycles: 146866182 heartbeat IPC: 0.709523 cumulative IPC: 0.726359 (Simulation time: 0 hr 39 min 42 sec) 
Heartbeat CPU 0 instructions: 300000000 cycles: 150191914 heartbeat IPC: 1.25827 cumulative IPC: 1.33328 (Simulation time: 0 hr 40 min 14 sec) 
Heartbeat CPU 3 instructions: 310000002 cycles: 152544089 heartbeat IPC: 0.892705 cumulative IPC: 0.882571 (Simulation time: 0 hr 40 min 37 sec) 
Heartbeat CPU 0 instructions: 310000000 cycles: 158133199 heartbeat IPC: 1.25924 cumulative IPC: 1.32407 (Simulation time: 0 hr 41 min 31 sec) 
Heartbeat CPU 1 instructions: 260000000 cycles: 160955782 heartbeat IPC: 0.709743 cumulative IPC: 0.722847 (Simulation time: 0 hr 41 min 58 sec) 
Heartbeat CPU 3 instructions: 320000000 cycles: 163802038 heartbeat IPC: 0.888261 cumulative IPC: 0.883493 (Simulation time: 0 hr 42 min 27 sec) 
Heartbeat CPU 0 instructions: 320000000 cycles: 165020361 heartbeat IPC: 1.45198 cumulative IPC: 1.33652 (Simulation time: 0 hr 42 min 39 sec) 
Heartbeat CPU 2 instructions: 220000000 cycles: 168848305 heartbeat IPC: 0.273361 cumulative IPC: 0.268316 (Simulation time: 0 hr 43 min 19 sec) 
Heartbeat CPU 0 instructions: 330000001 cycles: 172865248 heartbeat IPC: 1.27472 cumulative IPC: 1.33035 (Simulation time: 0 hr 44 min 9 sec) 
Heartbeat CPU 3 instructions: 330000001 cycles: 175012563 heartbeat IPC: 0.892019 cumulative IPC: 0.884677 (Simulation time: 0 hr 44 min 32 sec) 
Heartbeat CPU 1 instructions: 270000002 cycles: 176238144 heartbeat IPC: 0.654349 cumulative IPC: 0.71007 (Simulation time: 0 hr 44 min 45 sec) 
Heartbeat CPU 0 instructions: 340000000 cycles: 180138533 heartbeat IPC: 1.37489 cumulative IPC: 1.33413 (Simulation time: 0 hr 45 min 24 sec) 
Heartbeat CPU 3 instructions: 340000000 cycles: 186185383 heartbeat IPC: 0.895029 cumulative IPC: 0.885936 (Simulation time: 0 hr 46 min 24 sec) 
Heartbeat CPU 0 instructions: 350000001 cycles: 188256707 heartbeat IPC: 1.2318 cumulative IPC: 1.32528 (Simulation time: 0 hr 46 min 45 sec) 
Heartbeat CPU 1 instructions: 280000000 cycles: 193891160 heartbeat IPC: 0.566475 cumulative IPC: 0.684614 (Simulation time: 0 hr 47 min 40 sec) 
Heartbeat CPU 0 instructions: 360000000 cycles: 196177949 heartbeat IPC: 1.26243 cumulative IPC: 1.3204 (Simulation time: 0 hr 48 min 14 sec) 
Heartbeat CPU 3 instructions: 350000002 cycles: 197371873 heartbeat IPC: 0.893936 cumulative IPC: 0.886804 (Simulation time: 0 hr 48 min 38 sec) 
Heartbeat CPU 2 instructions: 230000000 cycles: 199020354 heartbeat IPC: 0.331433 cumulative IPC: 0.286503 (Simulation time: 0 hr 49 min 12 sec) 
Heartbeat CPU 0 instructions: 370000003 cycles: 203263186 heartbeat IPC: 1.41139 cumulative IPC: 1.32631 (Simulation time: 0 hr 50 min 32 sec) 
Heartbeat CPU 3 instructions: 360000000 cycles: 208633280 heartbeat IPC: 0.887988 cumulative IPC: 0.886921 (Simulation time: 0 hr 52 min 25 sec) 
Heartbeat CPU 0 instructions: 380000000 cycles: 210746759 heartbeat IPC: 1.33626 cumulative IPC: 1.32695 (Simulation time: 0 hr 53 min 9 sec) 
Heartbeat CPU 1 instructions: 290000000 cycles: 213521340 heartbeat IPC: 0.50942 cumulative IPC: 0.655766 (Simulation time: 0 hr 54 min 5 sec) 
Heartbeat CPU 0 instructions: 390000002 cycles: 218111874 heartbeat IPC: 1.35775 cumulative IPC: 1.32878 (Simulation time: 0 hr 55 min 41 sec) 
Heartbeat CPU 3 instructions: 370000000 cycles: 219821709 heartbeat IPC: 0.893781 cumulative IPC: 0.887533 (Simulation time: 0 hr 56 min 17 sec) 
Heartbeat CPU 0 instructions: 400000000 cycles: 225481152 heartbeat IPC: 1.35698 cumulative IPC: 1.33037 (Simulation time: 0 hr 58 min 7 sec) 
Heartbeat CPU 2 instructions: 240000000 cycles: 228018619 heartbeat IPC: 0.344848 cumulative IPC: 0.299157 (Simulation time: 0 hr 58 min 33 sec) 
Heartbeat CPU 1 instructions: 300000000 cycles: 230890892 heartbeat IPC: 0.57572 cumulative IPC: 0.645586 (Simulation time: 0 hr 59 min 2 sec) 
Heartbeat CPU 3 instructions: 380000000 cycles: 230970090 heartbeat IPC: 0.896991 cumulative IPC: 0.888304 (Simulation time: 0 hr 59 min 3 sec) 
Heartbeat CPU 0 instructions: 410000002 cycles: 233062788 heartbeat IPC: 1.31898 cumulative IPC: 1.32975 (Simulation time: 0 hr 59 min 25 sec) 
Heartbeat CPU 0 instructions: 420000000 cycles: 240482276 heartbeat IPC: 1.3478 cumulative IPC: 1.33066 (Simulation time: 1 hr 0 min 41 sec) 
Heartbeat CPU 3 instructions: 390000003 cycles: 242189280 heartbeat IPC: 0.89133 cumulative IPC: 0.888534 (Simulation time: 1 hr 0 min 58 sec) 
Heartbeat CPU 1 instructions: 310000000 cycles: 247575689 heartbeat IPC: 0.599348 cumulative IPC: 0.640553 (Simulation time: 1 hr 1 min 54 sec) 
Heartbeat CPU 0 instructions: 430000002 cycles: 247919501 heartbeat IPC: 1.34459 cumulative IPC: 1.33134 (Simulation time: 1 hr 1 min 57 sec) 
Heartbeat CPU 2 instructions: 250000003 cycles: 251941066 heartbeat IPC: 0.418018 cumulative IPC: 0.317195 (Simulation time: 1 hr 2 min 38 sec) 
Heartbeat CPU 3 instructions: 400000000 cycles: 253581878 heartbeat IPC: 0.877763 cumulative IPC: 0.887763 (Simulation time: 1 hr 2 min 54 sec) 
Heartbeat CPU 0 instructions: 440000000 cycles: 255937405 heartbeat IPC: 1.24721 cumulative IPC: 1.32716 (Simulation time: 1 hr 3 min 18 sec) 
Heartbeat CPU 0 instructions: 450000000 cycles: 264128686 heartbeat IPC: 1.22081 cumulative IPC: 1.32203 (Simulation time: 1 hr 4 min 39 sec) 
Heartbeat CPU 1 instructions: 320000000 cycles: 264258331 heartbeat IPC: 0.599425 cumulative IPC: 0.636515 (Simulation time: 1 hr 4 min 41 sec) 
Heartbeat CPU 3 instructions: 410000001 cycles: 264784263 heartbeat IPC: 0.892667 cumulative IPC: 0.888086 (Simulation time: 1 hr 4 min 46 sec) 
Heartbeat CPU 0 instructions: 460000000 cycles: 271166728 heartbeat IPC: 1.42085 cumulative IPC: 1.32597 (Simulation time: 1 hr 5 min 47 sec) 
Heartbeat CPU 3 instructions: 420000000 cycles: 276020006 heartbeat IPC: 0.890017 cumulative IPC: 0.888205 (Simulation time: 1 hr 6 min 31 sec) 
Heartbeat CPU 0 instructions: 470000000 cycles: 278952019 heartbeat IPC: 1.28447 cumulative IPC: 1.32422 (Simulation time: 1 hr 6 min 59 sec) 
Heartbeat CPU 1 instructions: 330000000 cycles: 280552445 heartbeat IPC: 0.613719 cumulative IPC: 0.634521 (Simulation time: 1 hr 7 min 14 sec) 
Heartbeat CPU 2 instructions: 260000000 cycles: 282001049 heartbeat IPC: 0.332668 cumulative IPC: 0.319673 (Simulation time: 1 hr 7 min 28 sec) 
Heartbeat CPU 0 instructions: 480000000 cycles: 286686572 heartbeat IPC: 1.2929 cumulative IPC: 1.32296 (Simulation time: 1 hr 8 min 11 sec) 
Heartbeat CPU 3 instructions: 430000001 cycles: 287207320 heartbeat IPC: 0.89387 cumulative IPC: 0.888533 (Simulation time: 1 hr 8 min 16 sec) 
Heartbeat CPU 0 instructions: 490000003 cycles: 293827049 heartbeat IPC: 1.40047 cumulative IPC: 1.32573 (Simulation time: 1 hr 9 min 19 sec) 
Heartbeat CPU 1 instructions: 340000000 cycles: 296119331 heartbeat IPC: 0.642389 cumulative IPC: 0.635128 (Simulation time: 1 hr 9 min 41 sec) 
Heartbeat CPU 3 instructions: 440000000 cycles: 298370925 heartbeat IPC: 0.895768 cumulative IPC: 0.888929 (Simulation time: 1 hr 10 min 2 sec) 
Heartbeat CPU 0 instructions: 500000000 cycles: 301705975 heartbeat IPC: 1.26921 cumulative IPC: 1.32358 (Simulation time: 1 hr 10 min 33 sec) 
Heartbeat CPU 0 instructions: 510000002 cycles: 309247245 heartbeat IPC: 1.32604 cumulative IPC: 1.32367 (Simulation time: 1 hr 11 min 45 sec) 
Heartbeat CPU 3 instructions: 450000001 cycles: 309561994 heartbeat IPC: 0.89357 cumulative IPC: 0.889171 (Simulation time: 1 hr 11 min 47 sec) 
Heartbeat CPU 1 instructions: 350000001 cycles: 311253522 heartbeat IPC: 0.660756 cumulative IPC: 0.636916 (Simulation time: 1 hr 12 min 3 sec) 
Heartbeat CPU 0 instructions: 520000000 cycles: 316775522 heartbeat IPC: 1.32832 cumulative IPC: 1.32383 (Simulation time: 1 hr 12 min 59 sec) 
Heartbeat CPU 2 instructions: 270000000 cycles: 320429745 heartbeat IPC: 0.260222 cumulative IPC: 0.30957 (Simulation time: 1 hr 13 min 31 sec) 
Heartbeat CPU 3 instructions: 460000000 cycles: 320812813 heartbeat IPC: 0.888824 cumulative IPC: 0.889153 (Simulation time: 1 hr 13 min 34 sec) 
Heartbeat CPU 0 instructions: 530000000 cycles: 324313682 heartbeat IPC: 1.32658 cumulative IPC: 1.32392 (Simulation time: 1 hr 14 min 3 sec) 
Heartbeat CPU 1 instructions: 360000000 cycles: 331142440 heartbeat IPC: 0.502793 cumulative IPC: 0.625652 (Simulation time: 1 hr 15 min 0 sec) 
Heartbeat CPU 0 instructions: 540000000 cycles: 331307034 heartbeat IPC: 1.42993 cumulative IPC: 1.32705 (Simulation time: 1 hr 15 min 2 sec) 
Heartbeat CPU 3 instructions: 470000001 cycles: 331981950 heartbeat IPC: 0.895324 cumulative IPC: 0.889443 (Simulation time: 1 hr 15 min 7 sec) 
Heartbeat CPU 0 instructions: 550000001 cycles: 339132634 heartbeat IPC: 1.27786 cumulative IPC: 1.32547 (Simulation time: 1 hr 16 min 6 sec) 
Heartbeat CPU 3 instructions: 480000000 cycles: 343167901 heartbeat IPC: 0.893978 cumulative IPC: 0.889647 (Simulation time: 1 hr 16 min 40 sec) 
Heartbeat CPU 0 instructions: 560000000 cycles: 346385543 heartbeat IPC: 1.37876 cumulative IPC: 1.32701 (Simulation time: 1 hr 17 min 9 sec) 
Heartbeat CPU 0 instructions: 570000003 cycles: 353652102 heartbeat IPC: 1.37617 cumulative IPC: 1.32838 (Simulation time: 1 hr 18 min 19 sec) 
Heartbeat CPU 3 instructions: 490000001 cycles: 354361703 heartbeat IPC: 0.893352 cumulative IPC: 0.889807 (Simulation time: 1 hr 18 min 27 sec) 
Heartbeat CPU 2 instructions: 280000000 cycles: 356291664 heartbeat IPC: 0.278847 cumulative IPC: 0.305364 (Simulation time: 1 hr 18 min 45 sec) 
Heartbeat CPU 1 instructions: 370000003 cycles: 357980748 heartbeat IPC: 0.372602 cumulative IPC: 0.599895 (Simulation time: 1 hr 19 min 2 sec) 
Heartbeat CPU 0 instructions: 580000000 cycles: 361818275 heartbeat IPC: 1.22456 cumulative IPC: 1.32522 (Simulation time: 1 hr 19 min 39 sec) 
Heartbeat CPU 3 instructions: 500000000 cycles: 365603929 heartbeat IPC: 0.889503 cumulative IPC: 0.889794 (Simulation time: 1 hr 20 min 18 sec) 
Heartbeat CPU 0 instructions: 590000002 cycles: 369069887 heartbeat IPC: 1.379 cumulative IPC: 1.32664 (Simulation time: 1 hr 20 min 52 sec) 
Heartbeat CPU 1 instructions: 380000000 cycles: 376527785 heartbeat IPC: 0.539169 cumulative IPC: 0.595904 (Simulation time: 1 hr 22 min 7 sec) 
Heartbeat CPU 0 instructions: 600000000 cycles: 376582394 heartbeat IPC: 1.33111 cumulative IPC: 1.32675 (Simulation time: 1 hr 22 min 8 sec) 
Heartbeat CPU 3 instructions: 510000003 cycles: 376826793 heartbeat IPC: 0.891038 cumulative IPC: 0.889843 (Simulation time: 1 hr 22 min 10 sec) 
Heartbeat CPU 0 instructions: 610000002 cycles: 383445073 heartbeat IPC: 1.45716 cumulative IPC: 1.32985 (Simulation time: 1 hr 23 min 18 sec) 
Heartbeat CPU 2 instructions: 290000000 cycles: 387553662 heartbeat IPC: 0.319877 cumulative IPC: 0.306911 (Simulation time: 1 hr 23 min 58 sec) 
Heartbeat CPU 3 instructions: 520000000 cycles: 388050621 heartbeat IPC: 0.890961 cumulative IPC: 0.889886 (Simulation time: 1 hr 24 min 3 sec) 
Heartbeat CPU 0 instructions: 620000000 cycles: 391495444 heartbeat IPC: 1.24218 cumulative IPC: 1.32747 (Simulation time: 1 hr 24 min 36 sec) 
Heartbeat CPU 1 instructions: 390000003 cycles: 394671341 heartbeat IPC: 0.55116 cumulative IPC: 0.593201 (Simulation time: 1 hr 25 min 7 sec) 
Heartbeat CPU 0 instructions: 630000000 cycles: 398762627 heartbeat IPC: 1.37605 cumulative IPC: 1.32863 (Simulation time: 1 hr 25 min 45 sec) 
Heartbeat CPU 3 instructions: 530000002 cycles: 399239183 heartbeat IPC: 0.89377 cumulative IPC: 0.890029 (Simulation time: 1 hr 25 min 49 sec) 
Heartbeat CPU 0 instructions: 640000000 cycles: 406760591 heartbeat IPC: 1.25032 cumulative IPC: 1.32663 (Simulation time: 1 hr 27 min 1 sec) 
Heartbeat CPU 3 instructions: 540000000 cycles: 410432279 heartbeat IPC: 0.893408 cumulative IPC: 0.890148 (Simulation time: 1 hr 27 min 36 sec) 
Heartbeat CPU 1 instructions: 400000000 cycles: 410836504 heartbeat IPC: 0.618614 cumulative IPC: 0.594499 (Simulation time: 1 hr 27 min 40 sec) 
Heartbeat CPU 0 instructions: 650000003 cycles: 414964289 heartbeat IPC: 1.21896 cumulative IPC: 1.32387 (Simulation time: 1 hr 28 min 19 sec) 
Heartbeat CPU 3 instructions: 550000002 cycles: 421644317 heartbeat IPC: 0.891899 cumulative IPC: 0.890208 (Simulation time: 1 hr 29 min 24 sec) 
Heartbeat CPU 0 instructions: 660000000 cycles: 422938823 heartbeat IPC: 1.25399 cumulative IPC: 1.32218 (Simulation time: 1 hr 29 min 36 sec) 
Heartbeat CPU 2 instructions: 300000000 cycles: 425802246 heartbeat IPC: 0.261448 cumulative IPC: 0.301666 (Simulation time: 1 hr 30 min 3 sec) 
Heartbeat CPU 1 instructions: 410000001 cycles: 425966212 heartbeat IPC: 0.660951 cumulative IPC: 0.597531 (Simulation time: 1 hr 30 min 5 sec) 
Heartbeat CPU 0 instructions: 670000002 cycles: 430855688 heartbeat IPC: 1.26313 cumulative IPC: 1.32079 (Simulation time: 1 hr 30 min 53 sec) 
Heartbeat CPU 3 instructions: 560000000 cycles: 432857889 heartbeat IPC: 0.891776 cumulative IPC: 0.89026 (Simulation time: 1 hr 31 min 12 sec) 
Heartbeat CPU 0 instructions: 680000000 cycles: 438888855 heartbeat IPC: 1.24484 cumulative IPC: 1.31902 (Simulation time: 1 hr 32 min 10 sec) 
Heartbeat CPU 1 instructions: 420000000 cycles: 441209383 heartbeat IPC: 0.656031 cumulative IPC: 0.600101 (Simulation time: 1 hr 32 min 32 sec) 
Heartbeat CPU 3 instructions: 570000002 cycles: 444064477 heartbeat IPC: 0.892332 cumulative IPC: 0.890327 (Simulation time: 1 hr 33 min 0 sec) 
Heartbeat CPU 0 instructions: 690000002 cycles: 446791842 heartbeat IPC: 1.26534 cumulative IPC: 1.31782 (Simulation time: 1 hr 33 min 26 sec) 
Heartbeat CPU 0 instructions: 700000000 cycles: 454666980 heartbeat IPC: 1.26982 cumulative IPC: 1.31677 (Simulation time: 1 hr 34 min 42 sec) 
Heartbeat CPU 3 instructions: 580000000 cycles: 455232039 heartbeat IPC: 0.89545 cumulative IPC: 0.890485 (Simulation time: 1 hr 34 min 48 sec) 
Heartbeat CPU 1 instructions: 430000001 cycles: 456384780 heartbeat IPC: 0.658961 cumulative IPC: 0.602568 (Simulation time: 1 hr 34 min 59 sec) 
Heartbeat CPU 2 instructions: 310000003 cycles: 461661537 heartbeat IPC: 0.278868 cumulative IPC: 0.29944 (Simulation time: 1 hr 35 min 50 sec) 
Heartbeat CPU 0 instructions: 710000000 cycles: 462416059 heartbeat IPC: 1.29048 cumulative IPC: 1.31621 (Simulation time: 1 hr 35 min 58 sec) 
Heartbeat CPU 3 instructions: 590000003 cycles: 466413327 heartbeat IPC: 0.894352 cumulative IPC: 0.890601 (Simulation time: 1 hr 36 min 40 sec) 
Heartbeat CPU 0 instructions: 720000000 cycles: 470405671 heartbeat IPC: 1.25163 cumulative IPC: 1.31484 (Simulation time: 1 hr 37 min 20 sec) 
Heartbeat CPU 1 instructions: 440000000 cycles: 472788008 heartbeat IPC: 0.609636 cumulative IPC: 0.602875 (Simulation time: 1 hr 37 min 44 sec) 
Heartbeat CPU 3 instructions: 600000000 cycles: 477571624 heartbeat IPC: 0.896194 cumulative IPC: 0.890764 (Simulation time: 1 hr 38 min 35 sec) 
Heartbeat CPU 0 instructions: 730000001 cycles: 478413433 heartbeat IPC: 1.24879 cumulative IPC: 1.31346 (Simulation time: 1 hr 38 min 43 sec) 
Heartbeat CPU 0 instructions: 740000000 cycles: 486398975 heartbeat IPC: 1.25226 cumulative IPC: 1.31222 (Simulation time: 1 hr 40 min 6 sec) 
Heartbeat CPU 3 instructions: 610000003 cycles: 488757419 heartbeat IPC: 0.893991 cumulative IPC: 0.890856 (Simulation time: 1 hr 40 min 30 sec) 
Heartbeat CPU 2 instructions: 320000000 cycles: 491335490 heartbeat IPC: 0.336996 cumulative IPC: 0.302247 (Simulation time: 1 hr 41 min 2 sec) 
Heartbeat CPU 1 instructions: 450000003 cycles: 491472977 heartbeat IPC: 0.53519 cumulative IPC: 0.59969 (Simulation time: 1 hr 41 min 3 sec) 
Heartbeat CPU 0 instructions: 750000001 cycles: 494318933 heartbeat IPC: 1.26263 cumulative IPC: 1.31124 (Simulation time: 1 hr 41 min 35 sec) 
Heartbeat CPU 3 instructions: 620000000 cycles: 499928158 heartbeat IPC: 0.895196 cumulative IPC: 0.890975 (Simulation time: 1 hr 42 min 31 sec) 
Heartbeat CPU 0 instructions: 760000000 cycles: 502266735 heartbeat IPC: 1.25821 cumulative IPC: 1.3102 (Simulation time: 1 hr 42 min 52 sec) 
Heartbeat CPU 0 instructions: 770000002 cycles: 510289506 heartbeat IPC: 1.24645 cumulative IPC: 1.30897 (Simulation time: 1 hr 44 min 12 sec) 
Heartbeat CPU 3 instructions: 630000000 cycles: 511087601 heartbeat IPC: 0.896102 cumulative IPC: 0.891113 (Simulation time: 1 hr 44 min 21 sec) 
Heartbeat CPU 1 instructions: 460000000 cycles: 511408371 heartbeat IPC: 0.50162 cumulative IPC: 0.595003 (Simulation time: 1 hr 44 min 24 sec) 
Heartbeat CPU 0 instructions: 780000000 cycles: 518110525 heartbeat IPC: 1.27861 cumulative IPC: 1.30841 (Simulation time: 1 hr 45 min 31 sec) 
Heartbeat CPU 3 instructions: 640000000 cycles: 522537685 heartbeat IPC: 0.873356 cumulative IPC: 0.890638 (Simulation time: 1 hr 46 min 17 sec) 
Heartbeat CPU 0 instructions: 790000001 cycles: 526258872 heartbeat IPC: 1.22724 cumulative IPC: 1.30688 (Simulation time: 1 hr 46 min 55 sec) 
Heartbeat CPU 2 instructions: 330000001 cycles: 527019732 heartbeat IPC: 0.280236 cumulative IPC: 0.300432 (Simulation time: 1 hr 47 min 3 sec) 
Heartbeat CPU 1 instructions: 470000001 cycles: 527996418 heartbeat IPC: 0.602844 cumulative IPC: 0.595303 (Simulation time: 1 hr 47 min 12 sec) 
Heartbeat CPU 3 instructions: 650000003 cycles: 533719470 heartbeat IPC: 0.894312 cumulative IPC: 0.890731 (Simulation time: 1 hr 48 min 5 sec) 
Heartbeat CPU 0 instructions: 800000000 cycles: 534303962 heartbeat IPC: 1.24299 cumulative IPC: 1.30571 (Simulation time: 1 hr 48 min 11 sec) 
Heartbeat CPU 0 instructions: 810000000 cycles: 542218418 heartbeat IPC: 1.26351 cumulative IPC: 1.30497 (Simulation time: 1 hr 49 min 29 sec) 
Heartbeat CPU 3 instructions: 660000000 cycles: 544896539 heartbeat IPC: 0.894689 cumulative IPC: 0.890829 (Simulation time: 1 hr 49 min 56 sec) 
Heartbeat CPU 1 instructions: 480000000 cycles: 549791285 heartbeat IPC: 0.458824 cumulative IPC: 0.588772 (Simulation time: 1 hr 50 min 46 sec) 
Heartbeat CPU 0 instructions: 820000000 cycles: 550059513 heartbeat IPC: 1.27533 cumulative IPC: 1.30446 (Simulation time: 1 hr 50 min 49 sec) 
Heartbeat CPU 3 instructions: 670000001 cycles: 556072908 heartbeat IPC: 0.894745 cumulative IPC: 0.890924 (Simulation time: 1 hr 51 min 53 sec) 
Heartbeat CPU 0 instructions: 830000000 cycles: 558007966 heartbeat IPC: 1.25811 cumulative IPC: 1.30366 (Simulation time: 1 hr 52 min 13 sec) 
Heartbeat CPU 2 instructions: 340000000 cycles: 560485339 heartbeat IPC: 0.298814 cumulative IPC: 0.300316 (Simulation time: 1 hr 52 min 40 sec) 
Heartbeat CPU 1 instructions: 490000000 cycles: 563992995 heartbeat IPC: 0.704141 cumulative IPC: 0.592261 (Simulation time: 1 hr 53 min 25 sec) 
Heartbeat CPU 0 instructions: 840000000 cycles: 565999059 heartbeat IPC: 1.25139 cumulative IPC: 1.30278 (Simulation time: 1 hr 53 min 47 sec) 
Heartbeat CPU 3 instructions: 680000000 cycles: 567256732 heartbeat IPC: 0.894148 cumulative IPC: 0.891 (Simulation time: 1 hr 54 min 2 sec) 
Heartbeat CPU 0 instructions: 850000001 cycles: 574094754 heartbeat IPC: 1.23522 cumulative IPC: 1.30164 (Simulation time: 1 hr 55 min 26 sec) 
Heartbeat CPU 1 instructions: 500000000 cycles: 577677390 heartbeat IPC: 0.730759 cumulative IPC: 0.596182 (Simulation time: 1 hr 56 min 7 sec) 
Heartbeat CPU 3 instructions: 690000002 cycles: 578434109 heartbeat IPC: 0.894664 cumulative IPC: 0.891085 (Simulation time: 1 hr 56 min 15 sec) 
Heartbeat CPU 0 instructions: 860000000 cycles: 582259072 heartbeat IPC: 1.22484 cumulative IPC: 1.30035 (Simulation time: 1 hr 56 min 55 sec) 
Heartbeat CPU 2 instructions: 350000002 cycles: 587444796 heartbeat IPC: 0.370927 cumulative IPC: 0.304176 (Simulation time: 1 hr 57 min 52 sec) 
Heartbeat CPU 3 instructions: 700000000 cycles: 589613521 heartbeat IPC: 0.894501 cumulative IPC: 0.891162 (Simulation time: 1 hr 58 min 18 sec) 
Heartbeat CPU 0 instructions: 870000003 cycles: 590138774 heartbeat IPC: 1.26908 cumulative IPC: 1.29986 (Simulation time: 1 hr 58 min 24 sec) 
Heartbeat CPU 1 instructions: 510000001 cycles: 591179139 heartbeat IPC: 0.740645 cumulative IPC: 0.600107 (Simulation time: 1 hr 58 min 36 sec) 
Heartbeat CPU 0 instructions: 880000000 cycles: 598110149 heartbeat IPC: 1.25449 cumulative IPC: 1.29914 (Simulation time: 1 hr 59 min 49 sec) 
Heartbeat CPU 3 instructions: 710000000 cycles: 600788626 heartbeat IPC: 0.894846 cumulative IPC: 0.891243 (Simulation time: 2 hr 0 min 18 sec) 
Heartbeat CPU 1 instructions: 520000000 cycles: 604669626 heartbeat IPC: 0.741263 cumulative IPC: 0.603838 (Simulation time: 2 hr 0 min 59 sec) 
Heartbeat CPU 0 instructions: 890000000 cycles: 606127715 heartbeat IPC: 1.24726 cumulative IPC: 1.29833 (Simulation time: 2 hr 1 min 13 sec) 
Heartbeat CPU 2 instructions: 360000000 cycles: 611696482 heartbeat IPC: 0.412342 cumulative IPC: 0.309246 (Simulation time: 2 hr 2 min 9 sec) 
Heartbeat CPU 3 instructions: 720000000 cycles: 611964375 heartbeat IPC: 0.894795 cumulative IPC: 0.89132 (Simulation time: 2 hr 2 min 12 sec) 
Heartbeat CPU 0 instructions: 900000000 cycles: 613965191 heartbeat IPC: 1.27592 cumulative IPC: 1.29799 (Simulation time: 2 hr 2 min 31 sec) 
Heartbeat CPU 1 instructions: 530000001 cycles: 618202293 heartbeat IPC: 0.738953 cumulative IPC: 0.607329 (Simulation time: 2 hr 3 min 14 sec) 
Heartbeat CPU 0 instructions: 910000002 cycles: 621894110 heartbeat IPC: 1.26121 cumulative IPC: 1.29744 (Simulation time: 2 hr 3 min 51 sec) 
Heartbeat CPU 3 instructions: 730000003 cycles: 623156601 heartbeat IPC: 0.893478 cumulative IPC: 0.891366 (Simulation time: 2 hr 4 min 3 sec) 
Heartbeat CPU 0 instructions: 920000000 cycles: 629755520 heartbeat IPC: 1.27204 cumulative IPC: 1.29706 (Simulation time: 2 hr 5 min 9 sec) 
Heartbeat CPU 1 instructions: 540000000 cycles: 632044448 heartbeat IPC: 0.722431 cumulative IPC: 0.610291 (Simulation time: 2 hr 5 min 32 sec) 
Heartbeat CPU 3 instructions: 740000000 cycles: 634347714 heartbeat IPC: 0.893566 cumulative IPC: 0.891411 (Simulation time: 2 hr 5 min 55 sec) 
Heartbeat CPU 2 instructions: 370000002 cycles: 635537975 heartbeat IPC: 0.419437 cumulative IPC: 0.3141 (Simulation time: 2 hr 6 min 7 sec) 
Heartbeat CPU 0 instructions: 930000002 cycles: 637832342 heartbeat IPC: 1.23811 cumulative IPC: 1.29619 (Simulation time: 2 hr 6 min 29 sec) 
Heartbeat CPU 3 instructions: 750000001 cycles: 645548102 heartbeat IPC: 0.892826 cumulative IPC: 0.89144 (Simulation time: 2 hr 7 min 42 sec) 
Heartbeat CPU 0 instructions: 940000000 cycles: 645596957 heartbeat IPC: 1.28789 cumulative IPC: 1.29607 (Simulation time: 2 hr 7 min 43 sec) 
Heartbeat CPU 1 instructions: 550000001 cycles: 648929596 heartbeat IPC: 0.592237 cumulative IPC: 0.609742 (Simulation time: 2 hr 8 min 15 sec) 
Heartbeat CPU 0 instructions: 950000000 cycles: 653557857 heartbeat IPC: 1.25614 cumulative IPC: 1.2955 (Simulation time: 2 hr 8 min 58 sec) 
Heartbeat CPU 3 instructions: 760000000 cycles: 656741040 heartbeat IPC: 0.89342 cumulative IPC: 0.891479 (Simulation time: 2 hr 9 min 28 sec) 
Heartbeat CPU 0 instructions: 960000000 cycles: 661620165 heartbeat IPC: 1.24034 cumulative IPC: 1.29472 (Simulation time: 2 hr 10 min 14 sec) 
Heartbeat CPU 2 instructions: 380000000 cycles: 666355008 heartbeat IPC: 0.324496 cumulative IPC: 0.31466 (Simulation time: 2 hr 10 min 59 sec) 
Heartbeat CPU 1 instructions: 560000000 cycles: 666666123 heartbeat IPC: 0.563808 cumulative IPC: 0.608318 (Simulation time: 2 hr 11 min 2 sec) 
Heartbeat CPU 3 instructions: 770000003 cycles: 667943616 heartbeat IPC: 0.892652 cumulative IPC: 0.891502 (Simulation time: 2 hr 11 min 15 sec) 
Heartbeat CPU 0 instructions: 970000000 cycles: 669276762 heartbeat IPC: 1.30606 cumulative IPC: 1.29487 (Simulation time: 2 hr 11 min 28 sec) 
Heartbeat CPU 0 instructions: 980000000 cycles: 677276738 heartbeat IPC: 1.25 cumulative IPC: 1.29425 (Simulation time: 2 hr 12 min 40 sec) 
Heartbeat CPU 3 instructions: 780000000 cycles: 679165318 heartbeat IPC: 0.89113 cumulative IPC: 0.891495 (Simulation time: 2 hr 12 min 56 sec) 
Heartbeat CPU 1 instructions: 570000001 cycles: 683376731 heartbeat IPC: 0.598422 cumulative IPC: 0.608038 (Simulation time: 2 hr 13 min 33 sec) 
Heartbeat CPU 0 instructions: 990000002 cycles: 685451381 heartbeat IPC: 1.2233 cumulative IPC: 1.29327 (Simulation time: 2 hr 13 min 52 sec) 
Heartbeat CPU 3 instructions: 790000003 cycles: 690361774 heartbeat IPC: 0.89314 cumulative IPC: 0.891526 (Simulation time: 2 hr 14 min 37 sec) 
Heartbeat CPU 0 instructions: 1000000000 cycles: 693456569 heartbeat IPC: 1.24919 cumulative IPC: 1.29268 (Simulation time: 2 hr 15 min 5 sec) 
Heartbeat CPU 1 instructions: 580000000 cycles: 697778973 heartbeat IPC: 0.694336 cumulative IPC: 0.610097 (Simulation time: 2 hr 15 min 45 sec) 
Heartbeat CPU 0 instructions: 1010000001 cycles: 701346456 heartbeat IPC: 1.26745 cumulative IPC: 1.29235 (Simulation time: 2 hr 16 min 18 sec) 
Heartbeat CPU 3 instructions: 800000000 cycles: 701576544 heartbeat IPC: 0.891681 cumulative IPC: 0.891529 (Simulation time: 2 hr 16 min 20 sec) 
Heartbeat CPU 2 instructions: 390000003 cycles: 704883169 heartbeat IPC: 0.25955 cumulative IPC: 0.311183 (Simulation time: 2 hr 16 min 48 sec) 
Heartbeat CPU 0 instructions: 1020000000 cycles: 709505559 heartbeat IPC: 1.22562 cumulative IPC: 1.29147 (Simulation time: 2 hr 17 min 31 sec) 
Heartbeat CPU 3 instructions: 810000000 cycles: 712791773 heartbeat IPC: 0.891645 cumulative IPC: 0.891531 (Simulation time: 2 hr 18 min 1 sec) 
Heartbeat CPU 1 instructions: 590000003 cycles: 714440827 heartbeat IPC: 0.600173 cumulative IPC: 0.609831 (Simulation time: 2 hr 18 min 16 sec) 
Heartbeat CPU 0 instructions: 1030000000 cycles: 717372011 heartbeat IPC: 1.27122 cumulative IPC: 1.29121 (Simulation time: 2 hr 18 min 43 sec) 
Heartbeat CPU 3 instructions: 820000000 cycles: 724039024 heartbeat IPC: 0.889106 cumulative IPC: 0.891488 (Simulation time: 2 hr 19 min 44 sec) 
Heartbeat CPU 0 instructions: 1040000000 cycles: 725184757 heartbeat IPC: 1.27996 cumulative IPC: 1.29107 (Simulation time: 2 hr 19 min 55 sec) 
Heartbeat CPU 1 instructions: 600000000 cycles: 731425625 heartbeat IPC: 0.588762 cumulative IPC: 0.609269 (Simulation time: 2 hr 20 min 52 sec) 
Heartbeat CPU 0 instructions: 1050000000 cycles: 732932534 heartbeat IPC: 1.29069 cumulative IPC: 1.29107 (Simulation time: 2 hr 21 min 6 sec) 
Heartbeat CPU 3 instructions: 830000001 cycles: 735331313 heartbeat IPC: 0.88556 cumulative IPC: 0.891383 (Simulation time: 2 hr 21 min 28 sec) 
Heartbeat CPU 0 instructions: 1060000000 cycles: 740559623 heartbeat IPC: 1.31112 cumulative IPC: 1.29131 (Simulation time: 2 hr 22 min 20 sec) 
Heartbeat CPU 2 instructions: 400000000 cycles: 741969777 heartbeat IPC: 0.269639 cumulative IPC: 0.308804 (Simulation time: 2 hr 22 min 36 sec) 
Heartbeat CPU 3 instructions: 840000000 cycles: 746609805 heartbeat IPC: 0.886643 cumulative IPC: 0.891301 (Simulation time: 2 hr 23 min 25 sec) 
Heartbeat CPU 1 instructions: 610000001 cycles: 748386773 heartbeat IPC: 0.589583 cumulative IPC: 0.608758 (Simulation time: 2 hr 23 min 46 sec) 
Heartbeat CPU 0 instructions: 1070000000 cycles: 748750983 heartbeat IPC: 1.2208 cumulative IPC: 1.29042 (Simulation time: 2 hr 23 min 50 sec) 
Heartbeat CPU 0 instructions: 1080000000 cycles: 756374845 heartbeat IPC: 1.31167 cumulative IPC: 1.29067 (Simulation time: 2 hr 25 min 19 sec) 
Heartbeat CPU 3 instructions: 850000000 cycles: 758172675 heartbeat IPC: 0.864837 cumulative IPC: 0.89084 (Simulation time: 2 hr 25 min 37 sec) 
Heartbeat CPU 0 instructions: 1090000000 cycles: 764221675 heartbeat IPC: 1.2744 cumulative IPC: 1.29048 (Simulation time: 2 hr 26 min 38 sec) 
Heartbeat CPU 1 instructions: 620000000 cycles: 765169524 heartbeat IPC: 0.59585 cumulative IPC: 0.608436 (Simulation time: 2 hr 26 min 47 sec) 
Heartbeat CPU 2 instructions: 410000000 cycles: 766396183 heartbeat IPC: 0.409393 cumulative IPC: 0.31246 (Simulation time: 2 hr 26 min 58 sec) 
Heartbeat CPU 3 instructions: 860000000 cycles: 769383647 heartbeat IPC: 0.891983 cumulative IPC: 0.890859 (Simulation time: 2 hr 27 min 27 sec) 
Heartbeat CPU 0 instructions: 1100000000 cycles: 772132915 heartbeat IPC: 1.26402 cumulative IPC: 1.29017 (Simulation time: 2 hr 27 min 53 sec) 
Heartbeat CPU 0 instructions: 1110000002 cycles: 779922358 heartbeat IPC: 1.28379 cumulative IPC: 1.2901 (Simulation time: 2 hr 29 min 6 sec) 
Heartbeat CPU 3 instructions: 870000002 cycles: 780747013 heartbeat IPC: 0.880021 cumulative IPC: 0.89068 (Simulation time: 2 hr 29 min 14 sec) 
Heartbeat CPU 1 instructions: 630000003 cycles: 781525250 heartbeat IPC: 0.611407 cumulative IPC: 0.608506 (Simulation time: 2 hr 29 min 22 sec) 
Heartbeat CPU 0 instructions: 1120000000 cycles: 787875361 heartbeat IPC: 1.25739 cumulative IPC: 1.28972 (Simulation time: 2 hr 30 min 23 sec) 
Heartbeat CPU 2 instructions: 420000000 cycles: 789504911 heartbeat IPC: 0.432737 cumulative IPC: 0.316458 (Simulation time: 2 hr 30 min 39 sec) 
Heartbeat CPU 3 instructions: 880000000 cycles: 791953287 heartbeat IPC: 0.892357 cumulative IPC: 0.890707 (Simulation time: 2 hr 31 min 3 sec) 
Heartbeat CPU 0 instructions: 1130000000 cycles: 795940830 heartbeat IPC: 1.23985 cumulative IPC: 1.28915 (Simulation time: 2 hr 31 min 41 sec) 
Heartbeat CPU 1 instructions: 640000000 cycles: 796599180 heartbeat IPC: 0.663397 cumulative IPC: 0.609684 (Simulation time: 2 hr 31 min 48 sec) 
Heartbeat CPU 3 instructions: 890000003 cycles: 803138233 heartbeat IPC: 0.894059 cumulative IPC: 0.89076 (Simulation time: 2 hr 32 min 51 sec) 
Heartbeat CPU 0 instructions: 1140000000 cycles: 804166856 heartbeat IPC: 1.21565 cumulative IPC: 1.2883 (Simulation time: 2 hr 33 min 0 sec) 
Heartbeat CPU 1 instructions: 650000002 cycles: 811282453 heartbeat IPC: 0.681047 cumulative IPC: 0.611146 (Simulation time: 2 hr 34 min 8 sec) 
Heartbeat CPU 2 instructions: 430000000 cycles: 812068507 heartbeat IPC: 0.443192 cumulative IPC: 0.320442 (Simulation time: 2 hr 34 min 15 sec) 
Heartbeat CPU 0 instructions: 1150000002 cycles: 812150687 heartbeat IPC: 1.25253 cumulative IPC: 1.2879 (Simulation time: 2 hr 34 min 16 sec) 
Heartbeat CPU 3 instructions: 900000000 cycles: 814465890 heartbeat IPC: 0.882795 cumulative IPC: 0.890635 (Simulation time: 2 hr 34 min 35 sec) 
Heartbeat CPU 0 instructions: 1160000000 cycles: 820072331 heartbeat IPC: 1.26236 cumulative IPC: 1.28762 (Simulation time: 2 hr 35 min 22 sec) 
Heartbeat CPU 3 instructions: 910000002 cycles: 825643868 heartbeat IPC: 0.894616 cumulative IPC: 0.890695 (Simulation time: 2 hr 36 min 8 sec) 
Heartbeat CPU 0 instructions: 1170000002 cycles: 827859769 heartbeat IPC: 1.28412 cumulative IPC: 1.28758 (Simulation time: 2 hr 36 min 26 sec) 
Heartbeat CPU 0 instructions: 1180000000 cycles: 835648283 heartbeat IPC: 1.28394 cumulative IPC: 1.28754 (Simulation time: 2 hr 37 min 31 sec) 
Heartbeat CPU 3 instructions: 920000000 cycles: 836826283 heartbeat IPC: 0.894261 cumulative IPC: 0.890749 (Simulation time: 2 hr 37 min 40 sec) 
Heartbeat CPU 2 instructions: 440000000 cycles: 837871445 heartbeat IPC: 0.387553 cumulative IPC: 0.322771 (Simulation time: 2 hr 37 min 49 sec) 
Heartbeat CPU 1 instructions: 660000000 cycles: 843439004 heartbeat IPC: 0.310979 cumulative IPC: 0.598261 (Simulation time: 2 hr 38 min 36 sec) 
Heartbeat CPU 0 instructions: 1190000001 cycles: 843686677 heartbeat IPC: 1.24403 cumulative IPC: 1.28708 (Simulation time: 2 hr 38 min 38 sec) 
Heartbeat CPU 3 instructions: 930000001 cycles: 848096938 heartbeat IPC: 0.88726 cumulative IPC: 0.890697 (Simulation time: 2 hr 39 min 16 sec) 
Heartbeat CPU 0 instructions: 1200000000 cycles: 851434889 heartbeat IPC: 1.29062 cumulative IPC: 1.28711 (Simulation time: 2 hr 39 min 48 sec) 
Heartbeat CPU 0 instructions: 1210000003 cycles: 859265835 heartbeat IPC: 1.27699 cumulative IPC: 1.28701 (Simulation time: 2 hr 41 min 4 sec) 
Heartbeat CPU 3 instructions: 940000000 cycles: 859287062 heartbeat IPC: 0.893645 cumulative IPC: 0.89074 (Simulation time: 2 hr 41 min 4 sec) 
Heartbeat CPU 1 instructions: 670000000 cycles: 860645092 heartbeat IPC: 0.58119 cumulative IPC: 0.597878 (Simulation time: 2 hr 41 min 18 sec) 
Heartbeat CPU 2 instructions: 450000000 cycles: 863104751 heartbeat IPC: 0.396302 cumulative IPC: 0.325184 (Simulation time: 2 hr 41 min 43 sec) 
Heartbeat CPU 0 instructions: 1220000000 cycles: 867091751 heartbeat IPC: 1.27781 cumulative IPC: 1.28692 (Simulation time: 2 hr 42 min 23 sec) 
Heartbeat CPU 3 instructions: 950000000 cycles: 870469348 heartbeat IPC: 0.894272 cumulative IPC: 0.890791 (Simulation time: 2 hr 42 min 57 sec) 
Finished CPU 0 instructions: 1000000001 cycles: 777151684 cumulative IPC: 1.28675 (Simulation time: 2 hr 43 min 7 sec) 
Heartbeat CPU 0 instructions: 1230000002 cycles: 875133791 heartbeat IPC: 1.24347 cumulative IPC: 1.28647 (Simulation time: 2 hr 43 min 44 sec) 
Heartbeat CPU 1 instructions: 680000000 cycles: 875380655 heartbeat IPC: 0.67863 cumulative IPC: 0.599401 (Simulation time: 2 hr 43 min 46 sec) 
Heartbeat CPU 3 instructions: 960000000 cycles: 881770443 heartbeat IPC: 0.88487 cumulative IPC: 0.890706 (Simulation time: 2 hr 44 min 51 sec) 
Heartbeat CPU 0 instructions: 1240000000 cycles: 882976722 heartbeat IPC: 1.27503 cumulative IPC: 1.28636 (Simulation time: 2 hr 45 min 3 sec) 
Heartbeat CPU 2 instructions: 460000000 cycles: 883622289 heartbeat IPC: 0.487388 cumulative IPC: 0.3294 (Simulation time: 2 hr 45 min 10 sec) 
Heartbeat CPU 1 instructions: 690000001 cycles: 890202819 heartbeat IPC: 0.674665 cumulative IPC: 0.600803 (Simulation time: 2 hr 46 min 21 sec) 
Heartbeat CPU 0 instructions: 1250000000 cycles: 890817495 heartbeat IPC: 1.27538 cumulative IPC: 1.28625 (Simulation time: 2 hr 46 min 28 sec) 
Heartbeat CPU 3 instructions: 970000003 cycles: 892954711 heartbeat IPC: 0.894113 cumulative IPC: 0.890754 (Simulation time: 2 hr 46 min 50 sec) 
Heartbeat CPU 0 instructions: 1260000000 cycles: 898460351 heartbeat IPC: 1.30841 cumulative IPC: 1.28646 (Simulation time: 2 hr 47 min 50 sec) 
Heartbeat CPU 2 instructions: 470000001 cycles: 903836762 heartbeat IPC: 0.494695 cumulative IPC: 0.333528 (Simulation time: 2 hr 48 min 47 sec) 
Heartbeat CPU 3 instructions: 980000000 cycles: 904224638 heartbeat IPC: 0.887317 cumulative IPC: 0.890706 (Simulation time: 2 hr 48 min 51 sec) 
Heartbeat CPU 1 instructions: 700000000 cycles: 904932817 heartbeat IPC: 0.678887 cumulative IPC: 0.602222 (Simulation time: 2 hr 48 min 58 sec) 
Heartbeat CPU 0 instructions: 1270000002 cycles: 906383635 heartbeat IPC: 1.2621 cumulative IPC: 1.28622 (Simulation time: 2 hr 49 min 14 sec) 
Heartbeat CPU 0 instructions: 1280000000 cycles: 914742354 heartbeat IPC: 1.19636 cumulative IPC: 1.28531 (Simulation time: 2 hr 50 min 40 sec) 
Heartbeat CPU 3 instructions: 990000001 cycles: 915416688 heartbeat IPC: 0.893491 cumulative IPC: 0.890744 (Simulation time: 2 hr 50 min 47 sec) 
Heartbeat CPU 1 instructions: 710000000 cycles: 919658857 heartbeat IPC: 0.679069 cumulative IPC: 0.603593 (Simulation time: 2 hr 51 min 31 sec) 
Heartbeat CPU 0 instructions: 1290000001 cycles: 922615557 heartbeat IPC: 1.27013 cumulative IPC: 1.28516 (Simulation time: 2 hr 52 min 1 sec) 
Heartbeat CPU 3 instructions: 1000000000 cycles: 926675570 heartbeat IPC: 0.888188 cumulative IPC: 0.890709 (Simulation time: 2 hr 52 min 42 sec) 
Heartbeat CPU 2 instructions: 480000000 cycles: 927244629 heartbeat IPC: 0.427207 cumulative IPC: 0.336161 (Simulation time: 2 hr 52 min 48 sec) 
Heartbeat CPU 0 instructions: 1300000000 cycles: 930753040 heartbeat IPC: 1.22888 cumulative IPC: 1.28461 (Simulation time: 2 hr 53 min 24 sec) 
Heartbeat CPU 1 instructions: 720000000 cycles: 934700428 heartbeat IPC: 0.664824 cumulative IPC: 0.604689 (Simulation time: 2 hr 54 min 4 sec) 
Heartbeat CPU 3 instructions: 1010000001 cycles: 937856653 heartbeat IPC: 0.894368 cumulative IPC: 0.890758 (Simulation time: 2 hr 54 min 37 sec) 
Heartbeat CPU 0 instructions: 1310000000 cycles: 938786390 heartbeat IPC: 1.24481 cumulative IPC: 1.28424 (Simulation time: 2 hr 54 min 46 sec) 
Heartbeat CPU 0 instructions: 1320000000 cycles: 946695141 heartbeat IPC: 1.26442 cumulative IPC: 1.28405 (Simulation time: 2 hr 56 min 8 sec) 
Heartbeat CPU 3 instructions: 1020000000 cycles: 949153066 heartbeat IPC: 0.885237 cumulative IPC: 0.890685 (Simulation time: 2 hr 56 min 33 sec) 
Heartbeat CPU 1 instructions: 730000000 cycles: 949638895 heartbeat IPC: 0.669413 cumulative IPC: 0.605819 (Simulation time: 2 hr 56 min 38 sec) 
Heartbeat CPU 2 instructions: 490000002 cycles: 951470619 heartbeat IPC: 0.41278 cumulative IPC: 0.338326 (Simulation time: 2 hr 56 min 57 sec) 
Heartbeat CPU 0 instructions: 1330000003 cycles: 954638460 heartbeat IPC: 1.25892 cumulative IPC: 1.28382 (Simulation time: 2 hr 57 min 30 sec) 
Heartbeat CPU 3 instructions: 1030000003 cycles: 960328681 heartbeat IPC: 0.894806 cumulative IPC: 0.890738 (Simulation time: 2 hr 58 min 29 sec) 
Heartbeat CPU 0 instructions: 1340000000 cycles: 962418008 heartbeat IPC: 1.28542 cumulative IPC: 1.28383 (Simulation time: 2 hr 58 min 50 sec) 
Heartbeat CPU 1 instructions: 740000000 cycles: 964535388 heartbeat IPC: 0.671299 cumulative IPC: 0.60694 (Simulation time: 2 hr 59 min 12 sec) 
Heartbeat CPU 0 instructions: 1350000003 cycles: 970379481 heartbeat IPC: 1.25605 cumulative IPC: 1.28358 (Simulation time: 3 hr 0 min 12 sec) 
Heartbeat CPU 3 instructions: 1040000000 cycles: 971635821 heartbeat IPC: 0.884397 cumulative IPC: 0.890656 (Simulation time: 3 hr 0 min 25 sec) 
Heartbeat CPU 2 instructions: 500000000 cycles: 975133915 heartbeat IPC: 0.422595 cumulative IPC: 0.34059 (Simulation time: 3 hr 1 min 1 sec) 
Heartbeat CPU 0 instructions: 1360000000 cycles: 978256532 heartbeat IPC: 1.26951 cumulative IPC: 1.28346 (Simulation time: 3 hr 1 min 34 sec) 
Heartbeat CPU 1 instructions: 750000003 cycles: 979495211 heartbeat IPC: 0.668457 cumulative IPC: 0.60798 (Simulation time: 3 hr 1 min 47 sec) 
Heartbeat CPU 3 instructions: 1050000002 cycles: 982871305 heartbeat IPC: 0.890037 cumulative IPC: 0.890648 (Simulation time: 3 hr 2 min 19 sec) 
Heartbeat CPU 0 instructions: 1370000000 cycles: 986118775 heartbeat IPC: 1.2719 cumulative IPC: 1.28335 (Simulation time: 3 hr 2 min 51 sec) 
Heartbeat CPU 3 instructions: 1060000000 cycles: 994057065 heartbeat IPC: 0.893994 cumulative IPC: 0.89069 (Simulation time: 3 hr 4 min 10 sec) 
Heartbeat CPU 0 instructions: 1380000000 cycles: 994134914 heartbeat IPC: 1.24748 cumulative IPC: 1.28303 (Simulation time: 3 hr 4 min 11 sec) 
Heartbeat CPU 1 instructions: 760000000 cycles: 995880637 heartbeat IPC: 0.610298 cumulative IPC: 0.608022 (Simulation time: 3 hr 4 min 28 sec) 
Heartbeat CPU 2 instructions: 510000001 cycles: 1000351903 heartbeat IPC: 0.396542 cumulative IPC: 0.342147 (Simulation time: 3 hr 5 min 12 sec) 
Heartbeat CPU 0 instructions: 1390000003 cycles: 1002000115 heartbeat IPC: 1.27142 cumulative IPC: 1.28293 (Simulation time: 3 hr 5 min 29 sec) 
Heartbeat CPU 3 instructions: 1070000001 cycles: 1005343529 heartbeat IPC: 0.886017 cumulative IPC: 0.890632 (Simulation time: 3 hr 6 min 2 sec) 
Heartbeat CPU 0 instructions: 1400000000 cycles: 1009997849 heartbeat IPC: 1.25035 cumulative IPC: 1.28265 (Simulation time: 3 hr 6 min 47 sec) 
Heartbeat CPU 1 instructions: 770000001 cycles: 1013736804 heartbeat IPC: 0.560031 cumulative IPC: 0.60709 (Simulation time: 3 hr 7 min 21 sec) 
Heartbeat CPU 3 instructions: 1080000000 cycles: 1016534327 heartbeat IPC: 0.893591 cumulative IPC: 0.890668 (Simulation time: 3 hr 7 min 46 sec) 
Heartbeat CPU 0 instructions: 1410000000 cycles: 1018072855 heartbeat IPC: 1.23839 cumulative IPC: 1.28226 (Simulation time: 3 hr 7 min 59 sec) 
Heartbeat CPU 2 instructions: 520000000 cycles: 1025637339 heartbeat IPC: 0.395485 cumulative IPC: 0.343595 (Simulation time: 3 hr 9 min 6 sec) 
Heartbeat CPU 0 instructions: 1420000000 cycles: 1026289175 heartbeat IPC: 1.21709 cumulative IPC: 1.28169 (Simulation time: 3 hr 9 min 13 sec) 
Heartbeat CPU 3 instructions: 1090000002 cycles: 1027715659 heartbeat IPC: 0.894348 cumulative IPC: 0.890712 (Simulation time: 3 hr 9 min 26 sec) 
Heartbeat CPU 1 instructions: 780000000 cycles: 1032145844 heartbeat IPC: 0.543211 cumulative IPC: 0.605836 (Simulation time: 3 hr 10 min 9 sec) 
Heartbeat CPU 0 instructions: 1430000001 cycles: 1034528196 heartbeat IPC: 1.21374 cumulative IPC: 1.28109 (Simulation time: 3 hr 10 min 32 sec) 
Heartbeat CPU 3 instructions: 1100000000 cycles: 1038994619 heartbeat IPC: 0.886606 cumulative IPC: 0.890663 (Simulation time: 3 hr 11 min 16 sec) 
Heartbeat CPU 0 instructions: 1440000000 cycles: 1042616542 heartbeat IPC: 1.23635 cumulative IPC: 1.28071 (Simulation time: 3 hr 11 min 54 sec) 
Heartbeat CPU 1 instructions: 790000002 cycles: 1045752052 heartbeat IPC: 0.734959 cumulative IPC: 0.607683 (Simulation time: 3 hr 12 min 27 sec) 
Heartbeat CPU 3 instructions: 1110000000 cycles: 1050179223 heartbeat IPC: 0.894086 cumulative IPC: 0.890703 (Simulation time: 3 hr 13 min 13 sec) 
Heartbeat CPU 2 instructions: 530000000 cycles: 1050512618 heartbeat IPC: 0.402006 cumulative IPC: 0.345115 (Simulation time: 3 hr 13 min 17 sec) 
Heartbeat CPU 0 instructions: 1450000001 cycles: 1050879644 heartbeat IPC: 1.2102 cumulative IPC: 1.2801 (Simulation time: 3 hr 13 min 21 sec) 
Heartbeat CPU 1 instructions: 800000000 cycles: 1059737502 heartbeat IPC: 0.715029 cumulative IPC: 0.609238 (Simulation time: 3 hr 14 min 42 sec) 
Heartbeat CPU 3 instructions: 1120000000 cycles: 1061403614 heartbeat IPC: 0.890917 cumulative IPC: 0.890706 (Simulation time: 3 hr 14 min 55 sec) 
Heartbeat CPU 0 instructions: 1460000000 cycles: 1067944113 heartbeat IPC: 0.586013 cumulative IPC: 1.26794 (Simulation time: 3 hr 15 min 52 sec) 
Heartbeat CPU 3 instructions: 1130000003 cycles: 1072590675 heartbeat IPC: 0.89389 cumulative IPC: 0.890742 (Simulation time: 3 hr 16 min 39 sec) 
Heartbeat CPU 1 instructions: 810000001 cycles: 1074455621 heartbeat IPC: 0.679435 cumulative IPC: 0.610292 (Simulation time: 3 hr 16 min 58 sec) 
Heartbeat CPU 2 instructions: 540000000 cycles: 1077900303 heartbeat IPC: 0.365128 cumulative IPC: 0.345672 (Simulation time: 3 hr 17 min 38 sec) 
Heartbeat CPU 0 instructions: 1470000000 cycles: 1081239221 heartbeat IPC: 0.752156 cumulative IPC: 1.26099 (Simulation time: 3 hr 18 min 16 sec) 
Heartbeat CPU 3 instructions: 1140000000 cycles: 1083777131 heartbeat IPC: 0.893938 cumulative IPC: 0.890778 (Simulation time: 3 hr 18 min 44 sec) 
Heartbeat CPU 1 instructions: 820000000 cycles: 1089520926 heartbeat IPC: 0.663777 cumulative IPC: 0.611101 (Simulation time: 3 hr 19 min 50 sec) 
Heartbeat CPU 0 instructions: 1480000000 cycles: 1090780082 heartbeat IPC: 1.04812 cumulative IPC: 1.25895 (Simulation time: 3 hr 20 min 4 sec) 
Heartbeat CPU 3 instructions: 1150000001 cycles: 1094992507 heartbeat IPC: 0.891633 cumulative IPC: 0.890788 (Simulation time: 3 hr 20 min 50 sec) 
Heartbeat CPU 0 instructions: 1490000003 cycles: 1100459375 heartbeat IPC: 1.03313 cumulative IPC: 1.25678 (Simulation time: 3 hr 21 min 52 sec) 
Heartbeat CPU 1 instructions: 830000001 cycles: 1106047069 heartbeat IPC: 0.605102 cumulative IPC: 0.611003 (Simulation time: 3 hr 22 min 50 sec) 
Heartbeat CPU 3 instructions: 1160000000 cycles: 1106291587 heartbeat IPC: 0.885028 cumulative IPC: 0.890723 (Simulation time: 3 hr 22 min 52 sec) 
Heartbeat CPU 2 instructions: 550000000 cycles: 1107057154 heartbeat IPC: 0.342973 cumulative IPC: 0.345594 (Simulation time: 3 hr 23 min 0 sec) 
Heartbeat CPU 0 instructions: 1500000000 cycles: 1109946903 heartbeat IPC: 1.05402 cumulative IPC: 1.25488 (Simulation time: 3 hr 23 min 34 sec) 
Heartbeat CPU 3 instructions: 1170000000 cycles: 1117470341 heartbeat IPC: 0.894554 cumulative IPC: 0.890765 (Simulation time: 3 hr 24 min 55 sec) 
Heartbeat CPU 0 instructions: 1510000001 cycles: 1119597169 heartbeat IPC: 1.03624 cumulative IPC: 1.25283 (Simulation time: 3 hr 25 min 17 sec) 
Heartbeat CPU 1 instructions: 840000000 cycles: 1123606363 heartbeat IPC: 0.569499 cumulative IPC: 0.610295 (Simulation time: 3 hr 26 min 2 sec) 
Heartbeat CPU 3 instructions: 1180000000 cycles: 1128857061 heartbeat IPC: 0.878216 cumulative IPC: 0.890627 (Simulation time: 3 hr 26 min 52 sec) 
Heartbeat CPU 0 instructions: 1520000000 cycles: 1129206505 heartbeat IPC: 1.04065 cumulative IPC: 1.25086 (Simulation time: 3 hr 26 min 56 sec) 
Heartbeat CPU 0 instructions: 1530000003 cycles: 1138705905 heartbeat IPC: 1.0527 cumulative IPC: 1.24905 (Simulation time: 3 hr 28 min 23 sec) 
Heartbeat CPU 1 instructions: 850000002 cycles: 1139782923 heartbeat IPC: 0.618179 cumulative IPC: 0.610417 (Simulation time: 3 hr 28 min 36 sec) 
Heartbeat CPU 3 instructions: 1190000000 cycles: 1140058464 heartbeat IPC: 0.892745 cumulative IPC: 0.89065 (Simulation time: 3 hr 28 min 39 sec) 
Heartbeat CPU 2 instructions: 560000000 cycles: 1145343142 heartbeat IPC: 0.261192 cumulative IPC: 0.34252 (Simulation time: 3 hr 29 min 36 sec) 
Heartbeat CPU 0 instructions: 1540000000 cycles: 1148356147 heartbeat IPC: 1.03624 cumulative IPC: 1.2471 (Simulation time: 3 hr 30 min 7 sec) 
Heartbeat CPU 3 instructions: 1200000000 cycles: 1151306307 heartbeat IPC: 0.889059 cumulative IPC: 0.890633 (Simulation time: 3 hr 30 min 39 sec) 
Heartbeat CPU 1 instructions: 860000000 cycles: 1153946110 heartbeat IPC: 0.706056 cumulative IPC: 0.611696 (Simulation time: 3 hr 31 min 5 sec) 
Heartbeat CPU 0 instructions: 1550000000 cycles: 1157906259 heartbeat IPC: 1.04711 cumulative IPC: 1.24531 (Simulation time: 3 hr 31 min 48 sec) 
Heartbeat CPU 3 instructions: 1210000001 cycles: 1162596422 heartbeat IPC: 0.885731 cumulative IPC: 0.890581 (Simulation time: 3 hr 32 min 34 sec) 
Heartbeat CPU 0 instructions: 1560000000 cycles: 1167537144 heartbeat IPC: 1.03833 cumulative IPC: 1.24345 (Simulation time: 3 hr 33 min 26 sec) 
Heartbeat CPU 1 instructions: 870000002 cycles: 1168073281 heartbeat IPC: 0.707856 cumulative IPC: 0.612961 (Simulation time: 3 hr 33 min 34 sec) 
Heartbeat CPU 3 instructions: 1220000000 cycles: 1173910741 heartbeat IPC: 0.883836 cumulative IPC: 0.89051 (Simulation time: 3 hr 34 min 33 sec) 
Heartbeat CPU 0 instructions: 1570000001 cycles: 1177105602 heartbeat IPC: 1.0451 cumulative IPC: 1.2417 (Simulation time: 3 hr 35 min 8 sec) 
Heartbeat CPU 1 instructions: 880000000 cycles: 1183533874 heartbeat IPC: 0.646806 cumulative IPC: 0.613441 (Simulation time: 3 hr 36 min 18 sec) 
Heartbeat CPU 3 instructions: 1230000002 cycles: 1185168654 heartbeat IPC: 0.888264 cumulative IPC: 0.890487 (Simulation time: 3 hr 36 min 35 sec) 
Heartbeat CPU 0 instructions: 1580000000 cycles: 1186678071 heartbeat IPC: 1.04466 cumulative IPC: 1.23997 (Simulation time: 3 hr 36 min 52 sec) 
Heartbeat CPU 2 instructions: 570000002 cycles: 1187932289 heartbeat IPC: 0.234802 cumulative IPC: 0.338325 (Simulation time: 3 hr 37 min 6 sec) 
Heartbeat CPU 0 instructions: 1590000001 cycles: 1196258428 heartbeat IPC: 1.0438 cumulative IPC: 1.23827 (Simulation time: 3 hr 38 min 33 sec) 
Heartbeat CPU 3 instructions: 1240000000 cycles: 1196371523 heartbeat IPC: 0.892628 cumulative IPC: 0.890509 (Simulation time: 3 hr 38 min 34 sec) 
Heartbeat CPU 1 instructions: 890000000 cycles: 1200255357 heartbeat IPC: 0.598033 cumulative IPC: 0.613208 (Simulation time: 3 hr 39 min 17 sec) 
Heartbeat CPU 0 instructions: 1600000000 cycles: 1205806764 heartbeat IPC: 1.0473 cumulative IPC: 1.23663 (Simulation time: 3 hr 40 min 14 sec) 
Heartbeat CPU 3 instructions: 1250000003 cycles: 1207622061 heartbeat IPC: 0.888847 cumulative IPC: 0.890492 (Simulation time: 3 hr 40 min 33 sec) 
Heartbeat CPU 0 instructions: 1610000000 cycles: 1215310291 heartbeat IPC: 1.05224 cumulative IPC: 1.23506 (Simulation time: 3 hr 41 min 50 sec) 
Heartbeat CPU 1 instructions: 900000000 cycles: 1217246869 heartbeat IPC: 0.588529 cumulative IPC: 0.612835 (Simulation time: 3 hr 42 min 14 sec) 
Finished CPU 3 instructions: 1000000000 cycles: 1123012774 cumulative IPC: 0.890462 (Simulation time: 3 hr 42 min 15 sec) 
Heartbeat CPU 3 instructions: 1260000000 cycles: 1218879255 heartbeat IPC: 0.888321 cumulative IPC: 0.890471 (Simulation time: 3 hr 42 min 32 sec) 
Heartbeat CPU 2 instructions: 580000000 cycles: 1221843524 heartbeat IPC: 0.294887 cumulative IPC: 0.337019 (Simulation time: 3 hr 43 min 2 sec) 
Heartbeat CPU 0 instructions: 1620000000 cycles: 1224798746 heartbeat IPC: 1.05391 cumulative IPC: 1.23354 (Simulation time: 3 hr 43 min 33 sec) 
Heartbeat CPU 3 instructions: 1270000001 cycles: 1230129177 heartbeat IPC: 0.888895 cumulative IPC: 0.890455 (Simulation time: 3 hr 44 min 30 sec) 
Heartbeat CPU 1 instructions: 910000000 cycles: 1233875255 heartbeat IPC: 0.601381 cumulative IPC: 0.612668 (Simulation time: 3 hr 45 min 12 sec) 
Heartbeat CPU 0 instructions: 1630000002 cycles: 1234359996 heartbeat IPC: 1.04589 cumulative IPC: 1.23197 (Simulation time: 3 hr 45 min 18 sec) 
Heartbeat CPU 3 instructions: 1280000000 cycles: 1241332380 heartbeat IPC: 0.892602 cumulative IPC: 0.890476 (Simulation time: 3 hr 46 min 42 sec) 
Heartbeat CPU 2 instructions: 590000001 cycles: 1242745073 heartbeat IPC: 0.478433 cumulative IPC: 0.339592 (Simulation time: 3 hr 46 min 56 sec) 
Heartbeat CPU 0 instructions: 1640000000 cycles: 1243910943 heartbeat IPC: 1.04702 cumulative IPC: 1.23043 (Simulation time: 3 hr 47 min 8 sec) 
Heartbeat CPU 1 instructions: 920000000 cycles: 1250351727 heartbeat IPC: 0.606926 cumulative IPC: 0.612586 (Simulation time: 3 hr 48 min 13 sec) 
Heartbeat CPU 3 instructions: 1290000003 cycles: 1252537458 heartbeat IPC: 0.892453 cumulative IPC: 0.890495 (Simulation time: 3 hr 48 min 35 sec) 
Heartbeat CPU 0 instructions: 1650000003 cycles: 1253470034 heartbeat IPC: 1.04612 cumulative IPC: 1.22891 (Simulation time: 3 hr 48 min 44 sec) 
Heartbeat CPU 0 instructions: 1660000000 cycles: 1263045635 heartbeat IPC: 1.04432 cumulative IPC: 1.2274 (Simulation time: 3 hr 50 min 31 sec) 
Heartbeat CPU 3 instructions: 1300000000 cycles: 1263752672 heartbeat IPC: 0.891646 cumulative IPC: 0.890506 (Simulation time: 3 hr 50 min 39 sec) 
Heartbeat CPU 1 instructions: 930000001 cycles: 1265647437 heartbeat IPC: 0.653778 cumulative IPC: 0.613124 (Simulation time: 3 hr 50 min 58 sec) 
Heartbeat CPU 2 instructions: 600000000 cycles: 1265807717 heartbeat IPC: 0.433602 cumulative IPC: 0.341443 (Simulation time: 3 hr 51 min 0 sec) 
Heartbeat CPU 0 instructions: 1670000002 cycles: 1272591472 heartbeat IPC: 1.04758 cumulative IPC: 1.22594 (Simulation time: 3 hr 52 min 10 sec) 
Heartbeat CPU 3 instructions: 1310000002 cycles: 1274949090 heartbeat IPC: 0.893143 cumulative IPC: 0.890531 (Simulation time: 3 hr 52 min 33 sec) 
Heartbeat CPU 1 instructions: 940000000 cycles: 1280452463 heartbeat IPC: 0.675446 cumulative IPC: 0.613902 (Simulation time: 3 hr 53 min 26 sec) 
Heartbeat CPU 0 instructions: 1680000000 cycles: 1282188963 heartbeat IPC: 1.04194 cumulative IPC: 1.22446 (Simulation time: 3 hr 53 min 43 sec) 
Heartbeat CPU 3 instructions: 1320000000 cycles: 1286158412 heartbeat IPC: 0.892114 cumulative IPC: 0.890546 (Simulation time: 3 hr 54 min 21 sec) 
Heartbeat CPU 2 instructions: 610000003 cycles: 1290546641 heartbeat IPC: 0.404221 cumulative IPC: 0.342741 (Simulation time: 3 hr 55 min 1 sec) 
Heartbeat CPU 0 instructions: 1690000001 cycles: 1291685635 heartbeat IPC: 1.053 cumulative IPC: 1.2231 (Simulation time: 3 hr 55 min 11 sec) 
Heartbeat CPU 3 instructions: 1330000003 cycles: 1297358904 heartbeat IPC: 0.892818 cumulative IPC: 0.890567 (Simulation time: 3 hr 55 min 56 sec) 
Heartbeat CPU 0 instructions: 1700000000 cycles: 1301199818 heartbeat IPC: 1.05106 cumulative IPC: 1.22174 (Simulation time: 3 hr 56 min 27 sec) 
Heartbeat CPU 1 instructions: 950000000 cycles: 1303138396 heartbeat IPC: 0.440802 cumulative IPC: 0.610653 (Simulation time: 3 hr 56 min 42 sec) 
Heartbeat CPU 3 instructions: 1340000000 cycles: 1308555485 heartbeat IPC: 0.89313 cumulative IPC: 0.890591 (Simulation time: 3 hr 57 min 25 sec) 
Heartbeat CPU 0 instructions: 1710000002 cycles: 1310719348 heartbeat IPC: 1.05047 cumulative IPC: 1.2204 (Simulation time: 3 hr 57 min 42 sec) 
Heartbeat CPU 2 instructions: 620000000 cycles: 1316825650 heartbeat IPC: 0.380532 cumulative IPC: 0.343554 (Simulation time: 3 hr 58 min 31 sec) 
Heartbeat CPU 3 instructions: 1350000000 cycles: 1319756187 heartbeat IPC: 0.892801 cumulative IPC: 0.890611 (Simulation time: 3 hr 58 min 55 sec) 
Heartbeat CPU 0 instructions: 1720000000 cycles: 1320087701 heartbeat IPC: 1.06742 cumulative IPC: 1.21923 (Simulation time: 3 hr 58 min 58 sec) 
Heartbeat CPU 1 instructions: 960000000 cycles: 1329152825 heartbeat IPC: 0.384402 cumulative IPC: 0.605887 (Simulation time: 4 hr 0 min 19 sec) 
Heartbeat CPU 0 instructions: 1730000002 cycles: 1329540831 heartbeat IPC: 1.05785 cumulative IPC: 1.218 (Simulation time: 4 hr 0 min 23 sec) 
Heartbeat CPU 3 instructions: 1360000000 cycles: 1330937955 heartbeat IPC: 0.894313 cumulative IPC: 0.890644 (Simulation time: 4 hr 0 min 36 sec) 
Heartbeat CPU 0 instructions: 1740000000 cycles: 1338967276 heartbeat IPC: 1.06085 cumulative IPC: 1.21681 (Simulation time: 4 hr 1 min 53 sec) 
Heartbeat CPU 2 instructions: 630000002 cycles: 1341103619 heartbeat IPC: 0.411896 cumulative IPC: 0.344884 (Simulation time: 4 hr 2 min 14 sec) 
Heartbeat CPU 3 instructions: 1370000000 cycles: 1342116838 heartbeat IPC: 0.894544 cumulative IPC: 0.890679 (Simulation time: 4 hr 2 min 24 sec) 
Heartbeat CPU 1 instructions: 970000000 cycles: 1344174388 heartbeat IPC: 0.66571 cumulative IPC: 0.606606 (Simulation time: 4 hr 2 min 44 sec) 
Heartbeat CPU 0 instructions: 1750000002 cycles: 1348490468 heartbeat IPC: 1.05007 cumulative IPC: 1.21554 (Simulation time: 4 hr 3 min 26 sec) 
Heartbeat CPU 3 instructions: 1380000000 cycles: 1353291138 heartbeat IPC: 0.894911 cumulative IPC: 0.890717 (Simulation time: 4 hr 4 min 12 sec) 
Heartbeat CPU 0 instructions: 1760000000 cycles: 1357944553 heartbeat IPC: 1.05774 cumulative IPC: 1.21436 (Simulation time: 4 hr 4 min 57 sec) 
Heartbeat CPU 1 instructions: 980000000 cycles: 1358963625 heartbeat IPC: 0.676167 cumulative IPC: 0.607419 (Simulation time: 4 hr 5 min 7 sec) 
Heartbeat CPU 2 instructions: 640000000 cycles: 1363268668 heartbeat IPC: 0.451161 cumulative IPC: 0.346741 (Simulation time: 4 hr 5 min 48 sec) 
Heartbeat CPU 3 instructions: 1390000003 cycles: 1364458390 heartbeat IPC: 0.895476 cumulative IPC: 0.890759 (Simulation time: 4 hr 6 min 0 sec) 
Heartbeat CPU 0 instructions: 1770000002 cycles: 1367545049 heartbeat IPC: 1.04161 cumulative IPC: 1.21306 (Simulation time: 4 hr 6 min 29 sec) 
Heartbeat CPU 1 instructions: 990000001 cycles: 1373855794 heartbeat IPC: 0.671494 cumulative IPC: 0.608165 (Simulation time: 4 hr 7 min 30 sec) 
Heartbeat CPU 3 instructions: 1400000000 cycles: 1375633999 heartbeat IPC: 0.894806 cumulative IPC: 0.890794 (Simulation time: 4 hr 7 min 48 sec) 
Heartbeat CPU 0 instructions: 1780000000 cycles: 1377034141 heartbeat IPC: 1.05384 cumulative IPC: 1.21188 (Simulation time: 4 hr 8 min 1 sec) 
Heartbeat CPU 2 instructions: 650000001 cycles: 1386546765 heartbeat IPC: 0.429588 cumulative IPC: 0.348233 (Simulation time: 4 hr 9 min 30 sec) 
Heartbeat CPU 0 instructions: 1790000002 cycles: 1386668704 heartbeat IPC: 1.03793 cumulative IPC: 1.21058 (Simulation time: 4 hr 9 min 31 sec) 
Heartbeat CPU 3 instructions: 1410000002 cycles: 1386808222 heartbeat IPC: 0.894917 cumulative IPC: 0.89083 (Simulation time: 4 hr 9 min 33 sec) 
Heartbeat CPU 1 instructions: 1000000000 cycles: 1388729964 heartbeat IPC: 0.672306 cumulative IPC: 0.608902 (Simulation time: 4 hr 9 min 51 sec) 
Heartbeat CPU 0 instructions: 1800000000 cycles: 1396219792 heartbeat IPC: 1.047 cumulative IPC: 1.20938 (Simulation time: 4 hr 11 min 2 sec) 
Heartbeat CPU 3 instructions: 1420000000 cycles: 1397990304 heartbeat IPC: 0.894288 cumulative IPC: 0.890859 (Simulation time: 4 hr 11 min 18 sec) 
Heartbeat CPU 1 instructions: 1010000003 cycles: 1403799520 heartbeat IPC: 0.66359 cumulative IPC: 0.609531 (Simulation time: 4 hr 12 min 13 sec) 
Heartbeat CPU 0 instructions: 1810000001 cycles: 1405692407 heartbeat IPC: 1.05567 cumulative IPC: 1.20827 (Simulation time: 4 hr 12 min 31 sec) 
Heartbeat CPU 3 instructions: 1430000002 cycles: 1409174034 heartbeat IPC: 0.894156 cumulative IPC: 0.890887 (Simulation time: 4 hr 13 min 4 sec) 
Heartbeat CPU 2 instructions: 660000000 cycles: 1411358887 heartbeat IPC: 0.403029 cumulative IPC: 0.349266 (Simulation time: 4 hr 13 min 25 sec) 
Heartbeat CPU 0 instructions: 1820000000 cycles: 1415166184 heartbeat IPC: 1.05555 cumulative IPC: 1.20718 (Simulation time: 4 hr 14 min 1 sec) 
Heartbeat CPU 1 instructions: 1020000000 cycles: 1418710430 heartbeat IPC: 0.67065 cumulative IPC: 0.610219 (Simulation time: 4 hr 14 min 34 sec) 
Heartbeat CPU 3 instructions: 1440000000 cycles: 1420346843 heartbeat IPC: 0.89503 cumulative IPC: 0.890922 (Simulation time: 4 hr 14 min 50 sec) 
Heartbeat CPU 0 instructions: 1830000000 cycles: 1424616400 heartbeat IPC: 1.05818 cumulative IPC: 1.20612 (Simulation time: 4 hr 15 min 30 sec) 
Heartbeat CPU 3 instructions: 1450000000 cycles: 1431526660 heartbeat IPC: 0.894469 cumulative IPC: 0.890952 (Simulation time: 4 hr 16 min 36 sec) 
Heartbeat CPU 1 instructions: 1030000001 cycles: 1433626260 heartbeat IPC: 0.670429 cumulative IPC: 0.61089 (Simulation time: 4 hr 16 min 56 sec) 
Heartbeat CPU 0 instructions: 1840000000 cycles: 1434072312 heartbeat IPC: 1.05754 cumulative IPC: 1.20507 (Simulation time: 4 hr 17 min 0 sec) 
Heartbeat CPU 2 instructions: 670000003 cycles: 1435977268 heartbeat IPC: 0.406201 cumulative IPC: 0.35031 (Simulation time: 4 hr 17 min 19 sec) 
Heartbeat CPU 3 instructions: 1460000000 cycles: 1443016243 heartbeat IPC: 0.870354 cumulative IPC: 0.890776 (Simulation time: 4 hr 18 min 26 sec) 
Heartbeat CPU 0 instructions: 1850000000 cycles: 1443500320 heartbeat IPC: 1.06067 cumulative IPC: 1.20406 (Simulation time: 4 hr 18 min 31 sec) 
Heartbeat CPU 1 instructions: 1040000000 cycles: 1448733728 heartbeat IPC: 0.661924 cumulative IPC: 0.611459 (Simulation time: 4 hr 19 min 21 sec) 
Heartbeat CPU 0 instructions: 1860000000 cycles: 1453031896 heartbeat IPC: 1.04914 cumulative IPC: 1.20297 (Simulation time: 4 hr 20 min 2 sec) 
Heartbeat CPU 3 instructions: 1470000003 cycles: 1454190211 heartbeat IPC: 0.894938 cumulative IPC: 0.890811 (Simulation time: 4 hr 20 min 13 sec) 
Heartbeat CPU 2 instructions: 680000000 cycles: 1460302093 heartbeat IPC: 0.411103 cumulative IPC: 0.351393 (Simulation time: 4 hr 21 min 8 sec) 
Heartbeat CPU 0 instructions: 1870000001 cycles: 1462579827 heartbeat IPC: 1.04735 cumulative IPC: 1.20189 (Simulation time: 4 hr 21 min 29 sec) 
Heartbeat CPU 1 instructions: 1050000001 cycles: 1464655867 heartbeat IPC: 0.628056 cumulative IPC: 0.611652 (Simulation time: 4 hr 21 min 48 sec) 
Heartbeat CPU 3 instructions: 1480000000 cycles: 1465367687 heartbeat IPC: 0.894656 cumulative IPC: 0.890842 (Simulation time: 4 hr 21 min 54 sec) 
Heartbeat CPU 0 instructions: 1880000000 cycles: 1472175258 heartbeat IPC: 1.04216 cumulative IPC: 1.20078 (Simulation time: 4 hr 22 min 56 sec) 
Heartbeat CPU 3 instructions: 1490000001 cycles: 1476561963 heartbeat IPC: 0.893314 cumulative IPC: 0.890862 (Simulation time: 4 hr 23 min 37 sec) 
Heartbeat CPU 1 instructions: 1060000000 cycles: 1480176303 heartbeat IPC: 0.644312 cumulative IPC: 0.612018 (Simulation time: 4 hr 24 min 9 sec) 
Heartbeat CPU 0 instructions: 1890000002 cycles: 1481762845 heartbeat IPC: 1.04302 cumulative IPC: 1.19968 (Simulation time: 4 hr 24 min 24 sec) 
Heartbeat CPU 2 instructions: 690000001 cycles: 1486395033 heartbeat IPC: 0.383245 cumulative IPC: 0.35199 (Simulation time: 4 hr 25 min 5 sec) 
Heartbeat CPU 3 instructions: 1500000000 cycles: 1487739461 heartbeat IPC: 0.894655 cumulative IPC: 0.890892 (Simulation time: 4 hr 25 min 16 sec) 
Heartbeat CPU 0 instructions: 1900000000 cycles: 1491317359 heartbeat IPC: 1.04663 cumulative IPC: 1.19864 (Simulation time: 4 hr 25 min 47 sec) 
Heartbeat CPU 3 instructions: 1510000000 cycles: 1498907080 heartbeat IPC: 0.895446 cumulative IPC: 0.890929 (Simulation time: 4 hr 26 min 49 sec) 
Heartbeat CPU 0 instructions: 1910000002 cycles: 1500937873 heartbeat IPC: 1.03945 cumulative IPC: 1.19755 (Simulation time: 4 hr 27 min 9 sec) 
Heartbeat CPU 1 instructions: 1070000002 cycles: 1501318481 heartbeat IPC: 0.472988 cumulative IPC: 0.609929 (Simulation time: 4 hr 27 min 12 sec) 
Heartbeat CPU 3 instructions: 1520000000 cycles: 1510093292 heartbeat IPC: 0.893958 cumulative IPC: 0.890953 (Simulation time: 4 hr 28 min 40 sec) 
Heartbeat CPU 0 instructions: 1920000000 cycles: 1510466731 heartbeat IPC: 1.04944 cumulative IPC: 1.19655 (Simulation time: 4 hr 28 min 44 sec) 
Heartbeat CPU 2 instructions: 700000000 cycles: 1512969856 heartbeat IPC: 0.376296 cumulative IPC: 0.352445 (Simulation time: 4 hr 29 min 9 sec) 
Heartbeat CPU 1 instructions: 1080000000 cycles: 1515494708 heartbeat IPC: 0.705406 cumulative IPC: 0.610881 (Simulation time: 4 hr 29 min 35 sec) 
Heartbeat CPU 0 instructions: 1930000001 cycles: 1519990759 heartbeat IPC: 1.04998 cumulative IPC: 1.19557 (Simulation time: 4 hr 30 min 21 sec) 
Heartbeat CPU 3 instructions: 1530000003 cycles: 1521276918 heartbeat IPC: 0.894165 cumulative IPC: 0.890978 (Simulation time: 4 hr 30 min 34 sec) 
Heartbeat CPU 1 instructions: 1090000002 cycles: 1528806849 heartbeat IPC: 0.751194 cumulative IPC: 0.612183 (Simulation time: 4 hr 31 min 52 sec) 
Heartbeat CPU 0 instructions: 1940000000 cycles: 1529502947 heartbeat IPC: 1.05128 cumulative IPC: 1.19462 (Simulation time: 4 hr 32 min 0 sec) 
Heartbeat CPU 3 instructions: 1540000000 cycles: 1532475536 heartbeat IPC: 0.892967 cumulative IPC: 0.890993 (Simulation time: 4 hr 32 min 31 sec) 
Heartbeat CPU 2 instructions: 710000001 cycles: 1537323959 heartbeat IPC: 0.410608 cumulative IPC: 0.353427 (Simulation time: 4 hr 33 min 30 sec) 
Heartbeat CPU 0 instructions: 1950000000 cycles: 1538990215 heartbeat IPC: 1.05404 cumulative IPC: 1.19369 (Simulation time: 4 hr 33 min 48 sec) 
Heartbeat CPU 1 instructions: 1100000000 cycles: 1542245043 heartbeat IPC: 0.744147 cumulative IPC: 0.613408 (Simulation time: 4 hr 34 min 25 sec) 
Heartbeat CPU 3 instructions: 1550000001 cycles: 1543657746 heartbeat IPC: 0.894278 cumulative IPC: 0.891019 (Simulation time: 4 hr 34 min 47 sec) 
Heartbeat CPU 0 instructions: 1960000000 cycles: 1548545986 heartbeat IPC: 1.04649 cumulative IPC: 1.19273 (Simulation time: 4 hr 35 min 45 sec) 
Heartbeat CPU 3 instructions: 1560000000 cycles: 1554847286 heartbeat IPC: 0.893692 cumulative IPC: 0.891039 (Simulation time: 4 hr 36 min 55 sec) 
Heartbeat CPU 1 instructions: 1110000003 cycles: 1555880862 heartbeat IPC: 0.733363 cumulative IPC: 0.614527 (Simulation time: 4 hr 37 min 6 sec) 
Heartbeat CPU 0 instructions: 1970000002 cycles: 1558104187 heartbeat IPC: 1.04622 cumulative IPC: 1.19177 (Simulation time: 4 hr 37 min 29 sec) 
Heartbeat CPU 2 instructions: 720000000 cycles: 1562295709 heartbeat IPC: 0.400452 cumulative IPC: 0.354227 (Simulation time: 4 hr 38 min 12 sec) 
Heartbeat CPU 3 instructions: 1570000003 cycles: 1566033405 heartbeat IPC: 0.893965 cumulative IPC: 0.891061 (Simulation time: 4 hr 38 min 49 sec) 
Heartbeat CPU 0 instructions: 1980000000 cycles: 1567776415 heartbeat IPC: 1.03389 cumulative IPC: 1.19073 (Simulation time: 4 hr 39 min 6 sec) 
Heartbeat CPU 1 instructions: 1120000000 cycles: 1572283558 heartbeat IPC: 0.609656 cumulative IPC: 0.614473 (Simulation time: 4 hr 39 min 52 sec) 
Heartbeat CPU 3 instructions: 1580000000 cycles: 1577223640 heartbeat IPC: 0.893636 cumulative IPC: 0.891081 (Simulation time: 4 hr 40 min 41 sec) 
Heartbeat CPU 0 instructions: 1990000002 cycles: 1577285094 heartbeat IPC: 1.05167 cumulative IPC: 1.18984 (Simulation time: 4 hr 40 min 42 sec) 
*** Reached end of trace for Core: 0 Repeating trace: /scratch/user/djimenez/champsim-traces/speccpu2006/xz//444.namd-33B.champsimtrace.xz
Heartbeat CPU 0 instructions: 2000000000 cycles: 1586988080 heartbeat IPC: 1.03061 cumulative IPC: 1.18881 (Simulation time: 4 hr 42 min 18 sec) 
[...]
Heartbeat CPU 3 instructions: 2580000000 cycles: 2700545668 heartbeat IPC: 0.895408 cumulative IPC: 0.890708 (Simulation time: 7 hr 37 min 20 sec) 
Heartbeat CPU 0 instructions: 3440000000 cycles: 2704337023 heartbeat IPC: 1.23493 cumulative IPC: 1.2316 (Simulation time: 7 hr 37 min 52 sec) 
Heartbeat CPU 1 instructions: 1960000000 cycles: 2711396058 heartbeat IPC: 0.512946 cumulative IPC: 0.667985 (Simulation time: 7 hr 38 min 51 sec) 
Heartbeat CPU 3 instructions: 2590000003 cycles: 2711728737 heartbeat IPC: 0.894209 cumulative IPC: 0.890723 (Simulation time: 7 hr 38 min 53 sec) 
Heartbeat CPU 0 instructions: 3450000001 cycles: 2712596551 heartbeat IPC: 1.21072 cumulative IPC: 1.23153 (Simulation time: 7 hr 39 min 1 sec) 
Heartbeat CPU 2 instructions: 1150000000 cycles: 2717692338 heartbeat IPC: 0.241669 cumulative IPC: 0.362128 (Simulation time: 7 hr 39 min 41 sec) 
Heartbeat CPU 3 instructions: 2600000000 cycles: 2722884636 heartbeat IPC: 0.896387 cumulative IPC: 0.890747 (Simulation time: 7 hr 40 min 15 sec) 
Heartbeat CPU 0 instructions: 3460000000 cycles: 2729864371 heartbeat IPC: 0.579112 cumulative IPC: 1.22726 (Simulation time: 7 hr 41 min 5 sec) 
Heartbeat CPU 1 instructions: 1970000003 cycles: 2731544583 heartbeat IPC: 0.496314 cumulative IPC: 0.666674 (Simulation time: 7 hr 41 min 18 sec) 
Heartbeat CPU 3 instructions: 2610000003 cycles: 2734067840 heartbeat IPC: 0.894198 cumulative IPC: 0.890762 (Simulation time: 7 hr 41 min 36 sec) 
Heartbeat CPU 0 instructions: 3470000000 cycles: 2742974304 heartbeat IPC: 0.76278 cumulative IPC: 1.22496 (Simulation time: 7 hr 42 min 50 sec) 
Heartbeat CPU 3 instructions: 2620000000 cycles: 2745242988 heartbeat IPC: 0.894842 cumulative IPC: 0.890779 (Simulation time: 7 hr 43 min 10 sec) 
Heartbeat CPU 2 instructions: 1160000000 cycles: 2751537833 heartbeat IPC: 0.29546 cumulative IPC: 0.361279 (Simulation time: 7 hr 44 min 7 sec) 
Heartbeat CPU 1 instructions: 1980000000 cycles: 2751638823 heartbeat IPC: 0.497655 cumulative IPC: 0.665395 (Simulation time: 7 hr 44 min 8 sec) 
Heartbeat CPU 0 instructions: 3480000000 cycles: 2752514764 heartbeat IPC: 1.04817 cumulative IPC: 1.22432 (Simulation time: 7 hr 44 min 16 sec) 
Heartbeat CPU 3 instructions: 2630000000 cycles: 2756391714 heartbeat IPC: 0.896963 cumulative IPC: 0.890805 (Simulation time: 7 hr 44 min 52 sec) 
Heartbeat CPU 0 instructions: 3490000001 cycles: 2762159137 heartbeat IPC: 1.03687 cumulative IPC: 1.22365 (Simulation time: 7 hr 45 min 45 sec) 
Heartbeat CPU 3 instructions: 2640000000 cycles: 2767752457 heartbeat IPC: 0.880224 cumulative IPC: 0.89076 (Simulation time: 7 hr 46 min 38 sec) 
Heartbeat CPU 2 instructions: 1170000002 cycles: 2770202709 heartbeat IPC: 0.535766 cumulative IPC: 0.362496 (Simulation time: 7 hr 47 min 1 sec) 
Heartbeat CPU 1 instructions: 1990000003 cycles: 2771581020 heartbeat IPC: 0.501449 cumulative IPC: 0.664174 (Simulation time: 7 hr 47 min 14 sec) 
Heartbeat CPU 0 instructions: 3500000000 cycles: 2771637391 heartbeat IPC: 1.05505 cumulative IPC: 1.22305 (Simulation time: 7 hr 47 min 14 sec) 
Heartbeat CPU 3 instructions: 2650000003 cycles: 2778932564 heartbeat IPC: 0.894446 cumulative IPC: 0.890775 (Simulation time: 7 hr 48 min 22 sec) 
Heartbeat CPU 0 instructions: 3510000001 cycles: 2781255191 heartbeat IPC: 1.03974 cumulative IPC: 1.22239 (Simulation time: 7 hr 48 min 43 sec) 
Heartbeat CPU 2 instructions: 1180000000 cycles: 2789557746 heartbeat IPC: 0.516661 cumulative IPC: 0.363603 (Simulation time: 7 hr 49 min 58 sec) 
Heartbeat CPU 3 instructions: 2660000000 cycles: 2790106150 heartbeat IPC: 0.894968 cumulative IPC: 0.890793 (Simulation time: 7 hr 50 min 3 sec) 
Heartbeat CPU 0 instructions: 3520000000 cycles: 2790822896 heartbeat IPC: 1.04518 cumulative IPC: 1.22177 (Simulation time: 7 hr 50 min 10 sec) 
*** Reached end of trace for Core: 1 Repeating trace: /scratch/user/djimenez/champsim-traces/speccpu2006/xz//481.wrf-816B.champsimtrace.xz
Heartbeat CPU 1 instructions: 2000000000 cycles: 2791488651 heartbeat IPC: 0.50232 cumulative IPC: 0.66298 (Simulation time: 7 hr 50 min 15 sec) 
Heartbeat CPU 0 instructions: 3530000003 cycles: 2800320697 heartbeat IPC: 1.05288 cumulative IPC: 1.22117 (Simulation time: 7 hr 51 min 33 sec) 
Heartbeat CPU 3 instructions: 2670000001 cycles: 2801281666 heartbeat IPC: 0.894813 cumulative IPC: 0.890809 (Simulation time: 7 hr 51 min 42 sec) 
Heartbeat CPU 1 instructions: 2010000000 cycles: 2808678654 heartbeat IPC: 0.581733 cumulative IPC: 0.662465 (Simulation time: 7 hr 52 min 45 sec) 
Heartbeat CPU 0 instructions: 3540000000 cycles: 2809962872 heartbeat IPC: 1.03711 cumulative IPC: 1.22052 (Simulation time: 7 hr 52 min 56 sec) 
Heartbeat CPU 3 instructions: 2680000000 cycles: 2812467135 heartbeat IPC: 0.894017 cumulative IPC: 0.890823 (Simulation time: 7 hr 53 min 17 sec) 
Heartbeat CPU 2 instructions: 1190000000 cycles: 2813928900 heartbeat IPC: 0.410321 cumulative IPC: 0.364022 (Simulation time: 7 hr 53 min 30 sec) 
Heartbeat CPU 0 instructions: 3550000000 cycles: 2819517407 heartbeat IPC: 1.04662 cumulative IPC: 1.21991 (Simulation time: 7 hr 54 min 17 sec) 
Heartbeat CPU 3 instructions: 2690000002 cycles: 2823645283 heartbeat IPC: 0.894603 cumulative IPC: 0.890838 (Simulation time: 7 hr 54 min 52 sec) 
Heartbeat CPU 1 instructions: 2020000000 cycles: 2826337814 heartbeat IPC: 0.566278 cumulative IPC: 0.661843 (Simulation time: 7 hr 55 min 15 sec) 
Heartbeat CPU 0 instructions: 3560000000 cycles: 2829147724 heartbeat IPC: 1.03839 cumulative IPC: 1.21927 (Simulation time: 7 hr 55 min 39 sec) 
Heartbeat CPU 3 instructions: 2700000000 cycles: 2834825780 heartbeat IPC: 0.894414 cumulative IPC: 0.890853 (Simulation time: 7 hr 56 min 28 sec) 
Heartbeat CPU 2 instructions: 1200000000 cycles: 2838217902 heartbeat IPC: 0.411709 cumulative IPC: 0.364444 (Simulation time: 7 hr 56 min 58 sec) 
Finished CPU 2 instructions: 1000000000 cycles: 2743908528 cumulative IPC: 0.364444 (Simulation time: 7 hr 56 min 58 sec) 

CPU 0 Branch Prediction Accuracy: 95.9936% MPKI: 1.9553

CPU 1 Branch Prediction Accuracy: 99.2405% MPKI: 0.365148

CPU 2 Branch Prediction Accuracy: 96.4297% MPKI: 6.57086

CPU 3 Branch Prediction Accuracy: 94.3417% MPKI: 6.0193

ChampSim completed all CPUs

Total Simulation Statistics (not including warmup)

CPU 0 cumulative IPC: 1.2187 instructions: 3343994559 cycles: 2743908528
L1D TOTAL     ACCESS:  708824596  HIT:  684726574  MISS:   24098022
L1D LOAD      ACCESS:  534974006  HIT:  512114877  MISS:   22859129
L1D RFO       ACCESS:  173850590  HIT:  172611697  MISS:    1238893
L1D PREFETCH  ACCESS:          0  HIT:          0  MISS:          0
L1D WRITEBACK ACCESS:          0  HIT:          0  MISS:          0
L1I TOTAL     ACCESS:  813692703  HIT:  813692348  MISS:        355
L1I LOAD      ACCESS:  813692703  HIT:  813692348  MISS:        355
L1I RFO       ACCESS:          0  HIT:          0  MISS:          0
L1I PREFETCH  ACCESS:          0  HIT:          0  MISS:          0
L1I WRITEBACK ACCESS:          0  HIT:          0  MISS:          0
L2C TOTAL     ACCESS:   28927109  HIT:   27857852  MISS:    1069257
L2C LOAD      ACCESS:   22857659  HIT:   22107037  MISS:     750622
L2C RFO       ACCESS:    1238594  HIT:     920148  MISS:     318446
L2C PREFETCH  ACCESS:          0  HIT:          0  MISS:          0
L2C WRITEBACK ACCESS:    4830856  HIT:    4830667  MISS:        189
LLC TOTAL     ACCESS:    1473544  HIT:     421713  MISS:    1051831
LLC LOAD      ACCESS:     750622  HIT:      53673  MISS:     696949
LLC RFO       ACCESS:     318442  HIT:      38685  MISS:     279757
LLC PREFETCH  ACCESS:          0  HIT:          0  MISS:          0
LLC WRITEBACK ACCESS:     404480  HIT:     329355  MISS:      75125

CPU 1 cumulative IPC: 0.661754 instructions: 1815792912 cycles: 2743908528
L1D TOTAL     ACCESS:  475267546  HIT:  456575708  MISS:   18691838
L1D LOAD      ACCESS:  372576264  HIT:  356553849  MISS:   16022415
L1D RFO       ACCESS:  102691282  HIT:  100021859  MISS:    2669423
L1D PREFETCH  ACCESS:          0  HIT:          0  MISS:          0
L1D WRITEBACK ACCESS:          0  HIT:          0  MISS:          0
L1I TOTAL     ACCESS:  434597113  HIT:  434592850  MISS:       4263
L1I LOAD      ACCESS:  434597113  HIT:  434592850  MISS:       4263
L1I RFO       ACCESS:          0  HIT:          0  MISS:          0
L1I PREFETCH  ACCESS:          0  HIT:          0  MISS:          0
L1I WRITEBACK ACCESS:          0  HIT:          0  MISS:          0
L2C TOTAL     ACCESS:   24629520  HIT:   12218219  MISS:   12411301
L2C LOAD      ACCESS:   16026664  HIT:    5042814  MISS:   10983850
L2C RFO       ACCESS:    2669423  HIT:    1245452  MISS:    1423971
L2C PREFETCH  ACCESS:          0  HIT:          0  MISS:          0
L2C WRITEBACK ACCESS:    5933433  HIT:    5929953  MISS:       3480
LLC TOTAL     ACCESS:   16442523  HIT:    5140551  MISS:   11301972
LLC LOAD      ACCESS:   10983849  HIT:     825457  MISS:   10158392
LLC RFO       ACCESS:    1423967  HIT:     301455  MISS:    1122512
LLC PREFETCH  ACCESS:          0  HIT:          0  MISS:          0
LLC WRITEBACK ACCESS:    4034707  HIT:    4013639  MISS:      21068

CPU 2 cumulative IPC: 0.364444 instructions: 1000000000 cycles: 2743908528
L1D TOTAL     ACCESS:  130578276  HIT:  106000107  MISS:   24578169
L1D LOAD      ACCESS:  110619953  HIT:   86041959  MISS:   24577994
L1D RFO       ACCESS:   19958323  HIT:   19958148  MISS:        175
L1D PREFETCH  ACCESS:          0  HIT:          0  MISS:          0
L1D WRITEBACK ACCESS:          0  HIT:          0  MISS:          0
L1I TOTAL     ACCESS:  289771977  HIT:  289771952  MISS:         25
L1I LOAD      ACCESS:  289771977  HIT:  289771952  MISS:         25
L1I RFO       ACCESS:          0  HIT:          0  MISS:          0
L1I PREFETCH  ACCESS:          0  HIT:          0  MISS:          0
L1I WRITEBACK ACCESS:          0  HIT:          0  MISS:          0
L2C TOTAL     ACCESS:   32845524  HIT:    8267330  MISS:   24578194
L2C LOAD      ACCESS:   24578019  HIT:          0  MISS:   24578019
L2C RFO       ACCESS:        175  HIT:          0  MISS:        175
L2C PREFETCH  ACCESS:          0  HIT:          0  MISS:          0
L2C WRITEBACK ACCESS:    8267330  HIT:    8267330  MISS:          0
LLC TOTAL     ACCESS:   32845957  HIT:    8267763  MISS:   24578194
LLC LOAD      ACCESS:   24578019  HIT:          0  MISS:   24578019
LLC RFO       ACCESS:        175  HIT:          0  MISS:        175
LLC PREFETCH  ACCESS:          0  HIT:          0  MISS:          0
LLC WRITEBACK ACCESS:    8267763  HIT:    8267763  MISS:          0

CPU 3 cumulative IPC: 0.890858 instructions: 2444431845 cycles: 2743908529
L1D TOTAL     ACCESS:  557561824  HIT:  557462442  MISS:      99382
L1D LOAD      ACCESS:  308090003  HIT:  308074454  MISS:      15549
L1D RFO       ACCESS:  249471821  HIT:  249387988  MISS:      83833
L1D PREFETCH  ACCESS:          0  HIT:          0  MISS:          0
L1D WRITEBACK ACCESS:          0  HIT:          0  MISS:          0
L1I TOTAL     ACCESS:  609002530  HIT:  609002508  MISS:         22
L1I LOAD      ACCESS:  609002530  HIT:  609002508  MISS:         22
L1I RFO       ACCESS:          0  HIT:          0  MISS:          0
L1I PREFETCH  ACCESS:          0  HIT:          0  MISS:          0
L1I WRITEBACK ACCESS:          0  HIT:          0  MISS:          0
L2C TOTAL     ACCESS:     184369  HIT:      93125  MISS:      91244
L2C LOAD      ACCESS:      15571  HIT:       7025  MISS:       8546
L2C RFO       ACCESS:      83833  HIT:       1508  MISS:      82325
L2C PREFETCH  ACCESS:          0  HIT:          0  MISS:          0
L2C WRITEBACK ACCESS:      84965  HIT:      84592  MISS:        373
LLC TOTAL     ACCESS:     173515  HIT:      24241  MISS:     149274
LLC LOAD      ACCESS:       8546  HIT:          4  MISS:       8542
LLC RFO       ACCESS:      82325  HIT:        342  MISS:      81983
LLC PREFETCH  ACCESS:          0  HIT:          0  MISS:          0
LLC WRITEBACK ACCESS:      82644  HIT:      23895  MISS:      58749

Region of Interest Statistics

CPU 0 cumulative IPC: 1.28675 instructions: 1000000001 cycles: 777151684
L1D TOTAL     ACCESS:  207048871  HIT:  200837695  MISS:    6211176
L1D LOAD      ACCESS:  159017118  HIT:  153048616  MISS:    5968502
L1D RFO       ACCESS:   48031753  HIT:   47789079  MISS:     242674
L1D PREFETCH  ACCESS:          0  HIT:          0  MISS:          0
L1D WRITEBACK ACCESS:          0  HIT:          0  MISS:          0
L1D PREFETCH  REQUESTED:          0  ISSUED:          0  USEFUL:          0  USELESS:          0
L1I TOTAL     ACCESS:  237931653  HIT:  237931653  MISS:          0
L1I LOAD      ACCESS:  237931653  HIT:  237931653  MISS:          0
L1I RFO       ACCESS:          0  HIT:          0  MISS:          0
L1I PREFETCH  ACCESS:          0  HIT:          0  MISS:          0
L1I WRITEBACK ACCESS:          0  HIT:          0  MISS:          0
L1I PREFETCH  REQUESTED:          0  ISSUED:          0  USEFUL:          0  USELESS:          0
L2C TOTAL     ACCESS:    7353996  HIT:    7222102  MISS:     131894
L2C LOAD      ACCESS:    5967887  HIT:    5837320  MISS:     130567
L2C RFO       ACCESS:     242599  HIT:     241343  MISS:       1256
L2C PREFETCH  ACCESS:          0  HIT:          0  MISS:          0
L2C WRITEBACK ACCESS:    1143510  HIT:    1143439  MISS:         71
L2C PREFETCH  REQUESTED:          0  ISSUED:          0  USEFUL:          0  USELESS:          0
LLC TOTAL     ACCESS:     161950  HIT:      18000  MISS:     143950
LLC LOAD      ACCESS:     130567  HIT:       9450  MISS:     121117
LLC RFO       ACCESS:       1254  HIT:        862  MISS:        392
LLC PREFETCH  ACCESS:          0  HIT:          0  MISS:          0
LLC WRITEBACK ACCESS:      30129  HIT:       7688  MISS:      22441
LLC PREFETCH  REQUESTED:          0  ISSUED:          0  USEFUL:          0  USELESS:          0
Major fault: 0 Minor fault: 3883

CPU 1 cumulative IPC: 0.615622 instructions: 1000000000 cycles: 1624373509
L1D TOTAL     ACCESS:  297953706  HIT:  287008683  MISS:   10945023
L1D LOAD      ACCESS:  236609857  HIT:  227027000  MISS:    9582857
L1D RFO       ACCESS:   61343849  HIT:   59981683  MISS:    1362166
L1D PREFETCH  ACCESS:          0  HIT:          0  MISS:          0
L1D WRITEBACK ACCESS:          0  HIT:          0  MISS:          0
L1D PREFETCH  REQUESTED:          0  ISSUED:          0  USEFUL:          0  USELESS:          0
L1I TOTAL     ACCESS:  245415481  HIT:  245412601  MISS:       2880
L1I LOAD      ACCESS:  245415481  HIT:  245412601  MISS:       2880
L1I RFO       ACCESS:          0  HIT:          0  MISS:          0
L1I PREFETCH  ACCESS:          0  HIT:          0  MISS:          0
L1I WRITEBACK ACCESS:          0  HIT:          0  MISS:          0
L1I PREFETCH  REQUESTED:          0  ISSUED:          0  USEFUL:          0  USELESS:          0
L2C TOTAL     ACCESS:   14133397  HIT:    6930065  MISS:    7203332
L2C LOAD      ACCESS:    9585725  HIT:    3003859  MISS:    6581866
L2C RFO       ACCESS:    1362166  HIT:     743751  MISS:     618415
L2C PREFETCH  ACCESS:          0  HIT:          0  MISS:          0
L2C WRITEBACK ACCESS:    3185506  HIT:    3182455  MISS:       3051
L2C PREFETCH  REQUESTED:          0  ISSUED:          0  USEFUL:          0  USELESS:          0
LLC TOTAL     ACCESS:    9123294  HIT:    2637157  MISS:    6486137
LLC LOAD      ACCESS:    6581865  HIT:     597726  MISS:    5984139
LLC RFO       ACCESS:     618411  HIT:     127804  MISS:     490607
LLC PREFETCH  ACCESS:          0  HIT:          0  MISS:          0
LLC WRITEBACK ACCESS:    1923018  HIT:    1911627  MISS:      11391
LLC PREFETCH  REQUESTED:          0  ISSUED:          0  USEFUL:          0  USELESS:          0
Major fault: 0 Minor fault: 33410

CPU 2 cumulative IPC: 0.364444 instructions: 1000000000 cycles: 2743908528
L1D TOTAL     ACCESS:  130578276  HIT:  106000107  MISS:   24578169
L1D LOAD      ACCESS:  110619953  HIT:   86041959  MISS:   24577994
L1D RFO       ACCESS:   19958323  HIT:   19958148  MISS:        175
L1D PREFETCH  ACCESS:          0  HIT:          0  MISS:          0
L1D WRITEBACK ACCESS:          0  HIT:          0  MISS:          0
L1D PREFETCH  REQUESTED:          0  ISSUED:          0  USEFUL:          0  USELESS:          0
L1I TOTAL     ACCESS:  289771977  HIT:  289771952  MISS:         25
L1I LOAD      ACCESS:  289771977  HIT:  289771952  MISS:         25
L1I RFO       ACCESS:          0  HIT:          0  MISS:          0
L1I PREFETCH  ACCESS:          0  HIT:          0  MISS:          0
L1I WRITEBACK ACCESS:          0  HIT:          0  MISS:          0
L1I PREFETCH  REQUESTED:          0  ISSUED:          0  USEFUL:          0  USELESS:          0
L2C TOTAL     ACCESS:   32845524  HIT:    8267330  MISS:   24578194
L2C LOAD      ACCESS:   24578019  HIT:          0  MISS:   24578019
L2C RFO       ACCESS:        175  HIT:          0  MISS:        175
L2C PREFETCH  ACCESS:          0  HIT:          0  MISS:          0
L2C WRITEBACK ACCESS:    8267330  HIT:    8267330  MISS:          0
L2C PREFETCH  REQUESTED:          0  ISSUED:          0  USEFUL:          0  USELESS:          0
LLC TOTAL     ACCESS:   32845957  HIT:    8267763  MISS:   24578194
LLC LOAD      ACCESS:   24578019  HIT:          0  MISS:   24578019
LLC RFO       ACCESS:        175  HIT:          0  MISS:        175
LLC PREFETCH  ACCESS:          0  HIT:          0  MISS:          0
LLC WRITEBACK ACCESS:    8267763  HIT:    8267763  MISS:          0
LLC PREFETCH  REQUESTED:          0  ISSUED:          0  USEFUL:          0  USELESS:          0
Major fault: 0 Minor fault: 8200

CPU 3 cumulative IPC: 0.890462 instructions: 1000000000 cycles: 1123012774
L1D TOTAL     ACCESS:  227988385  HIT:  227950018  MISS:      38367
L1D LOAD      ACCESS:  125928679  HIT:  125922509  MISS:       6170
L1D RFO       ACCESS:  102059706  HIT:  102027509  MISS:      32197
L1D PREFETCH  ACCESS:          0  HIT:          0  MISS:          0
L1D WRITEBACK ACCESS:          0  HIT:          0  MISS:          0
L1D PREFETCH  REQUESTED:          0  ISSUED:          0  USEFUL:          0  USELESS:          0
L1I TOTAL     ACCESS:  249065439  HIT:  249065417  MISS:         22
L1I LOAD      ACCESS:  249065439  HIT:  249065417  MISS:         22
L1I RFO       ACCESS:          0  HIT:          0  MISS:          0
L1I PREFETCH  ACCESS:          0  HIT:          0  MISS:          0
L1I WRITEBACK ACCESS:          0  HIT:          0  MISS:          0
L1I PREFETCH  REQUESTED:          0  ISSUED:          0  USEFUL:          0  USELESS:          0
L2C TOTAL     ACCESS:      71027  HIT:      35952  MISS:      35075
L2C LOAD      ACCESS:       6192  HIT:       2915  MISS:       3277
L2C RFO       ACCESS:      32197  HIT:        538  MISS:      31659
L2C PREFETCH  ACCESS:          0  HIT:          0  MISS:          0
L2C WRITEBACK ACCESS:      32638  HIT:      32499  MISS:        139
L2C PREFETCH  REQUESTED:          0  ISSUED:          0  USEFUL:          0  USELESS:          0
LLC TOTAL     ACCESS:      66842  HIT:       7548  MISS:      59294
LLC LOAD      ACCESS:       3277  HIT:          1  MISS:       3276
LLC RFO       ACCESS:      31659  HIT:        111  MISS:      31548
LLC PREFETCH  ACCESS:          0  HIT:          0  MISS:          0
LLC WRITEBACK ACCESS:      31906  HIT:       7436  MISS:      24470
LLC PREFETCH  REQUESTED:          0  ISSUED:          0  USEFUL:          0  USELESS:          0
Major fault: 0 Minor fault: 1097

DRAM Statistics
 CHANNEL 0
 RQ ROW_BUFFER_HIT:   12332280  ROW_BUFFER_MISS:    6130378
 DBUS_CONGESTED:   15047565
 WQ ROW_BUFFER_HIT:    1635647  ROW_BUFFER_MISS:    4447936  FULL:          0

 CHANNEL 1
 RQ ROW_BUFFER_HIT:   12338436  ROW_BUFFER_MISS:    6124704
 DBUS_CONGESTED:   15047565
 WQ ROW_BUFFER_HIT:    1635641  ROW_BUFFER_MISS:    4442387  FULL:          0

 AVG_CONGESTED_CYCLE: 13
