
*** ChampSim Multicore Out-of-Order Simulator ***

Warmup Instructions: 200000000
Simulation Instructions: 1000000000
Number of CPUs: 4
LLC sets: 8192
LLC ways: 16
Off-chip DRAM Size: 8192 MB Channels: 2 Width: 64-bit Data Rate: 1600 MT/s

CPU 0 runs /scratch/user/djimenez/champsim-traces/speccpu2006/xz//400.perlbench-50B.champsimtrace.xz
CPU 1 runs /scratch/user/djimenez/champsim-traces/speccpu2006/xz//481.wrf-816B.champsimtrace.xz
CPU 2 runs /scratch/user/djimenez/champsim-traces/speccpu2006/xz//400.perlbench-41B.champsimtrace.xz
CPU 3 runs /scratch/user/djimenez/champsim-traces/speccpu2006/xz//465.tonto-44B.champsimtrace.xz
Heartbeat CPU 1 instructions: 10000002 cycles: 4851603 heartbeat IPC: 2.06117 cumulative IPC: 2.06117 (Simulation time: 0 hr 1 min 47 sec) 
Heartbeat CPU 3 instructions: 10000000 cycles: 5237595 heartbeat IPC: 1.90927 cumulative IPC: 1.90927 (Simulation time: 0 hr 1 min 57 sec) 
Heartbeat CPU 0 instructions: 10000001 cycles: 6388363 heartbeat IPC: 1.56535 cumulative IPC: 1.56535 (Simulation time: 0 hr 2 min 27 sec) 
Heartbeat CPU 2 instructions: 10000002 cycles: 6703200 heartbeat IPC: 1.49183 cumulative IPC: 1.49183 (Simulation time: 0 hr 2 min 38 sec) 
Heartbeat CPU 1 instructions: 20000000 cycles: 8794216 heartbeat IPC: 2.53639 cumulative IPC: 2.27422 (Simulation time: 0 hr 3 min 25 sec) 
Heartbeat CPU 3 instructions: 20000000 cycles: 10356086 heartbeat IPC: 1.9537 cumulative IPC: 1.93123 (Simulation time: 0 hr 4 min 6 sec) 
Heartbeat CPU 0 instructions: 20000000 cycles: 11997623 heartbeat IPC: 1.78277 cumulative IPC: 1.667 (Simulation time: 0 hr 4 min 43 sec) 
Heartbeat CPU 1 instructions: 30000001 cycles: 12456090 heartbeat IPC: 2.73084 cumulative IPC: 2.40846 (Simulation time: 0 hr 4 min 53 sec) 
Heartbeat CPU 2 instructions: 20000000 cycles: 13329011 heartbeat IPC: 1.50925 cumulative IPC: 1.50049 (Simulation time: 0 hr 5 min 15 sec) 
Heartbeat CPU 3 instructions: 30000000 cycles: 15795612 heartbeat IPC: 1.8384 cumulative IPC: 1.89926 (Simulation time: 0 hr 6 min 19 sec) 
Heartbeat CPU 1 instructions: 40000000 cycles: 16042634 heartbeat IPC: 2.7882 cumulative IPC: 2.49336 (Simulation time: 0 hr 6 min 24 sec) 
Heartbeat CPU 0 instructions: 30000002 cycles: 17376201 heartbeat IPC: 1.85923 cumulative IPC: 1.7265 (Simulation time: 0 hr 6 min 56 sec) 
Heartbeat CPU 2 instructions: 30000000 cycles: 19043333 heartbeat IPC: 1.74999 cumulative IPC: 1.57535 (Simulation time: 0 hr 7 min 35 sec) 
Heartbeat CPU 1 instructions: 50000002 cycles: 19708024 heartbeat IPC: 2.72822 cumulative IPC: 2.53704 (Simulation time: 0 hr 7 min 49 sec) 
Heartbeat CPU 3 instructions: 40000000 cycles: 20907012 heartbeat IPC: 1.95641 cumulative IPC: 1.91323 (Simulation time: 0 hr 8 min 16 sec) 
Heartbeat CPU 0 instructions: 40000000 cycles: 22698820 heartbeat IPC: 1.87877 cumulative IPC: 1.76221 (Simulation time: 0 hr 8 min 55 sec) 
Heartbeat CPU 1 instructions: 60000000 cycles: 23675258 heartbeat IPC: 2.52065 cumulative IPC: 2.53429 (Simulation time: 0 hr 9 min 14 sec) 
Heartbeat CPU 2 instructions: 40000000 cycles: 25242502 heartbeat IPC: 1.61312 cumulative IPC: 1.58463 (Simulation time: 0 hr 9 min 46 sec) 
Heartbeat CPU 3 instructions: 50000001 cycles: 26194701 heartbeat IPC: 1.89119 cumulative IPC: 1.90878 (Simulation time: 0 hr 10 min 7 sec) 
Heartbeat CPU 1 instructions: 70000001 cycles: 28094498 heartbeat IPC: 2.26283 cumulative IPC: 2.49159 (Simulation time: 0 hr 10 min 49 sec) 
Heartbeat CPU 0 instructions: 50000003 cycles: 28385555 heartbeat IPC: 1.75848 cumulative IPC: 1.76146 (Simulation time: 0 hr 10 min 55 sec) 
Heartbeat CPU 3 instructions: 60000000 cycles: 30998413 heartbeat IPC: 2.08172 cumulative IPC: 1.93558 (Simulation time: 0 hr 12 min 0 sec) 
Heartbeat CPU 2 instructions: 50000002 cycles: 31299129 heartbeat IPC: 1.65108 cumulative IPC: 1.59749 (Simulation time: 0 hr 12 min 7 sec) 
Heartbeat CPU 1 instructions: 80000000 cycles: 33411669 heartbeat IPC: 1.8807 cumulative IPC: 2.39437 (Simulation time: 0 hr 12 min 58 sec) 
Heartbeat CPU 0 instructions: 60000000 cycles: 34480404 heartbeat IPC: 1.64073 cumulative IPC: 1.74012 (Simulation time: 0 hr 13 min 19 sec) 
Heartbeat CPU 3 instructions: 70000002 cycles: 35925980 heartbeat IPC: 2.0294 cumulative IPC: 1.94845 (Simulation time: 0 hr 13 min 49 sec) 
Heartbeat CPU 2 instructions: 60000000 cycles: 36675734 heartbeat IPC: 1.85991 cumulative IPC: 1.63596 (Simulation time: 0 hr 14 min 3 sec) 
Heartbeat CPU 1 instructions: 90000001 cycles: 39173457 heartbeat IPC: 1.73557 cumulative IPC: 2.29747 (Simulation time: 0 hr 14 min 52 sec) 
Heartbeat CPU 0 instructions: 70000000 cycles: 39947962 heartbeat IPC: 1.82897 cumulative IPC: 1.75228 (Simulation time: 0 hr 15 min 7 sec) 
Heartbeat CPU 3 instructions: 80000000 cycles: 40772748 heartbeat IPC: 2.06323 cumulative IPC: 1.96209 (Simulation time: 0 hr 15 min 23 sec) 
Heartbeat CPU 2 instructions: 70000002 cycles: 42589708 heartbeat IPC: 1.69091 cumulative IPC: 1.64359 (Simulation time: 0 hr 16 min 0 sec) 
Heartbeat CPU 1 instructions: 100000000 cycles: 43606606 heartbeat IPC: 2.25573 cumulative IPC: 2.29323 (Simulation time: 0 hr 16 min 21 sec) 
Heartbeat CPU 3 instructions: 90000003 cycles: 45575353 heartbeat IPC: 2.0822 cumulative IPC: 1.97475 (Simulation time: 0 hr 17 min 1 sec) 
Heartbeat CPU 0 instructions: 80000000 cycles: 45723716 heartbeat IPC: 1.73138 cumulative IPC: 1.74964 (Simulation time: 0 hr 17 min 4 sec) 
Heartbeat CPU 1 instructions: 110000003 cycles: 47917896 heartbeat IPC: 2.31949 cumulative IPC: 2.29559 (Simulation time: 0 hr 17 min 47 sec) 
Heartbeat CPU 2 instructions: 80000000 cycles: 48350583 heartbeat IPC: 1.73585 cumulative IPC: 1.65458 (Simulation time: 0 hr 17 min 56 sec) 
Heartbeat CPU 3 instructions: 100000000 cycles: 50820599 heartbeat IPC: 1.90649 cumulative IPC: 1.96771 (Simulation time: 0 hr 18 min 46 sec) 
Heartbeat CPU 0 instructions: 90000000 cycles: 51714862 heartbeat IPC: 1.66913 cumulative IPC: 1.74031 (Simulation time: 0 hr 19 min 5 sec) 
Heartbeat CPU 1 instructions: 120000000 cycles: 52167289 heartbeat IPC: 2.35328 cumulative IPC: 2.30029 (Simulation time: 0 hr 19 min 14 sec) 
Heartbeat CPU 2 instructions: 90000001 cycles: 54126598 heartbeat IPC: 1.7313 cumulative IPC: 1.66277 (Simulation time: 0 hr 19 min 55 sec) 
Heartbeat CPU 3 instructions: 110000000 cycles: 56077713 heartbeat IPC: 1.90218 cumulative IPC: 1.96156 (Simulation time: 0 hr 20 min 34 sec) 
Heartbeat CPU 1 instructions: 130000003 cycles: 57195490 heartbeat IPC: 1.98878 cumulative IPC: 2.27291 (Simulation time: 0 hr 20 min 57 sec) 
Heartbeat CPU 0 instructions: 100000000 cycles: 57548005 heartbeat IPC: 1.71434 cumulative IPC: 1.73768 (Simulation time: 0 hr 21 min 4 sec) 
Heartbeat CPU 2 instructions: 100000000 cycles: 59916267 heartbeat IPC: 1.72721 cumulative IPC: 1.669 (Simulation time: 0 hr 21 min 50 sec) 
Heartbeat CPU 3 instructions: 120000000 cycles: 61355778 heartbeat IPC: 1.89463 cumulative IPC: 1.95581 (Simulation time: 0 hr 22 min 17 sec) 
Heartbeat CPU 1 instructions: 140000000 cycles: 61656631 heartbeat IPC: 2.24158 cumulative IPC: 2.27064 (Simulation time: 0 hr 22 min 23 sec) 
Heartbeat CPU 0 instructions: 110000000 cycles: 63089304 heartbeat IPC: 1.80463 cumulative IPC: 1.74356 (Simulation time: 0 hr 22 min 51 sec) 
Heartbeat CPU 1 instructions: 150000003 cycles: 65301904 heartbeat IPC: 2.74328 cumulative IPC: 2.29702 (Simulation time: 0 hr 23 min 34 sec) 
Heartbeat CPU 2 instructions: 110000000 cycles: 65522037 heartbeat IPC: 1.78388 cumulative IPC: 1.67882 (Simulation time: 0 hr 23 min 38 sec) 
Heartbeat CPU 3 instructions: 130000002 cycles: 66626825 heartbeat IPC: 1.89716 cumulative IPC: 1.95117 (Simulation time: 0 hr 24 min 0 sec) 
Heartbeat CPU 0 instructions: 120000000 cycles: 68955351 heartbeat IPC: 1.70473 cumulative IPC: 1.74026 (Simulation time: 0 hr 24 min 43 sec) 
Heartbeat CPU 1 instructions: 160000000 cycles: 69102174 heartbeat IPC: 2.63139 cumulative IPC: 2.31541 (Simulation time: 0 hr 24 min 46 sec) 
Heartbeat CPU 2 instructions: 120000000 cycles: 71438002 heartbeat IPC: 1.69034 cumulative IPC: 1.67978 (Simulation time: 0 hr 25 min 32 sec) 
Heartbeat CPU 3 instructions: 140000000 cycles: 72000430 heartbeat IPC: 1.86095 cumulative IPC: 1.94443 (Simulation time: 0 hr 25 min 43 sec) 
Heartbeat CPU 1 instructions: 170000002 cycles: 72601283 heartbeat IPC: 2.85787 cumulative IPC: 2.34156 (Simulation time: 0 hr 25 min 54 sec) 
Heartbeat CPU 0 instructions: 130000001 cycles: 74632473 heartbeat IPC: 1.76146 cumulative IPC: 1.74187 (Simulation time: 0 hr 26 min 33 sec) 
Heartbeat CPU 1 instructions: 180000000 cycles: 76512060 heartbeat IPC: 2.55704 cumulative IPC: 2.35257 (Simulation time: 0 hr 27 min 9 sec) 
Heartbeat CPU 3 instructions: 150000001 cycles: 77298296 heartbeat IPC: 1.88755 cumulative IPC: 1.94053 (Simulation time: 0 hr 27 min 24 sec) 
Heartbeat CPU 2 instructions: 130000001 cycles: 77727484 heartbeat IPC: 1.58996 cumulative IPC: 1.67251 (Simulation time: 0 hr 27 min 32 sec) 
Heartbeat CPU 0 instructions: 140000000 cycles: 80324469 heartbeat IPC: 1.75685 cumulative IPC: 1.74293 (Simulation time: 0 hr 28 min 21 sec) 
Heartbeat CPU 1 instructions: 190000002 cycles: 82122498 heartbeat IPC: 1.78239 cumulative IPC: 2.31362 (Simulation time: 0 hr 28 min 54 sec) 
Heartbeat CPU 3 instructions: 160000000 cycles: 82592933 heartbeat IPC: 1.8887 cumulative IPC: 1.93721 (Simulation time: 0 hr 29 min 3 sec) 
Heartbeat CPU 2 instructions: 140000000 cycles: 83454045 heartbeat IPC: 1.74625 cumulative IPC: 1.67757 (Simulation time: 0 hr 29 min 19 sec) 
Heartbeat CPU 0 instructions: 150000002 cycles: 85869392 heartbeat IPC: 1.80345 cumulative IPC: 1.74684 (Simulation time: 0 hr 30 min 5 sec) 
Heartbeat CPU 1 instructions: 200000000 cycles: 87706852 heartbeat IPC: 1.79072 cumulative IPC: 2.28032 (Simulation time: 0 hr 30 min 40 sec) 
Heartbeat CPU 3 instructions: 170000000 cycles: 87878137 heartbeat IPC: 1.89207 cumulative IPC: 1.9345 (Simulation time: 0 hr 30 min 43 sec) 
Heartbeat CPU 2 instructions: 150000000 cycles: 89215361 heartbeat IPC: 1.73571 cumulative IPC: 1.68132 (Simulation time: 0 hr 31 min 8 sec) 
Heartbeat CPU 0 instructions: 160000000 cycles: 91495998 heartbeat IPC: 1.77727 cumulative IPC: 1.74871 (Simulation time: 0 hr 31 min 50 sec) 
Heartbeat CPU 1 instructions: 210000000 cycles: 93264577 heartbeat IPC: 1.7993 cumulative IPC: 0.107222 (Simulation time: 0 hr 32 min 22 sec) 
Heartbeat CPU 3 instructions: 180000000 cycles: 93793376 heartbeat IPC: 1.69055 cumulative IPC: 1.91911 (Simulation time: 0 hr 32 min 32 sec) 
Heartbeat CPU 2 instructions: 160000000 cycles: 94929884 heartbeat IPC: 1.74993 cumulative IPC: 1.68545 (Simulation time: 0 hr 32 min 53 sec) 
Heartbeat CPU 0 instructions: 170000001 cycles: 97494854 heartbeat IPC: 1.66698 cumulative IPC: 1.74368 (Simulation time: 0 hr 33 min 40 sec) 
Heartbeat CPU 1 instructions: 220000000 cycles: 98874685 heartbeat IPC: 1.7825 cumulative IPC: 0.202276 (Simulation time: 0 hr 34 min 7 sec) 
Heartbeat CPU 3 instructions: 190000003 cycles: 99174201 heartbeat IPC: 1.85845 cumulative IPC: 1.91582 (Simulation time: 0 hr 34 min 13 sec) 
Heartbeat CPU 2 instructions: 170000001 cycles: 101256355 heartbeat IPC: 1.58066 cumulative IPC: 1.67891 (Simulation time: 0 hr 34 min 56 sec) 
Heartbeat CPU 0 instructions: 180000000 cycles: 103959933 heartbeat IPC: 1.54677 cumulative IPC: 1.73144 (Simulation time: 0 hr 35 min 53 sec) 
Heartbeat CPU 1 instructions: 230000002 cycles: 104466334 heartbeat IPC: 1.78838 cumulative IPC: 0.287174 (Simulation time: 0 hr 36 min 3 sec) 
Heartbeat CPU 3 instructions: 200000000 cycles: 104697141 heartbeat IPC: 1.81063 cumulative IPC: 1.91027 (Simulation time: 0 hr 36 min 8 sec) 
Heartbeat CPU 2 instructions: 180000000 cycles: 107963719 heartbeat IPC: 1.4909 cumulative IPC: 1.66723 (Simulation time: 0 hr 37 min 21 sec) 
Heartbeat CPU 1 instructions: 240000000 cycles: 109730820 heartbeat IPC: 1.89952 cumulative IPC: 0.364528 (Simulation time: 0 hr 37 min 59 sec) 
Heartbeat CPU 0 instructions: 190000002 cycles: 110183490 heartbeat IPC: 1.6068 cumulative IPC: 1.7244 (Simulation time: 0 hr 38 min 8 sec) 
Heartbeat CPU 3 instructions: 210000001 cycles: 110719317 heartbeat IPC: 1.66053 cumulative IPC: 0.0903185 (Simulation time: 0 hr 38 min 21 sec) 
Heartbeat CPU 1 instructions: 250000001 cycles: 113797095 heartbeat IPC: 2.45925 cumulative IPC: 0.439379 (Simulation time: 0 hr 39 min 31 sec) 
Heartbeat CPU 2 instructions: 190000001 cycles: 114519093 heartbeat IPC: 1.52547 cumulative IPC: 1.65911 (Simulation time: 0 hr 39 min 45 sec) 
Heartbeat CPU 0 instructions: 200000000 cycles: 115962882 heartbeat IPC: 1.73029 cumulative IPC: 1.72469 (Simulation time: 0 hr 40 min 15 sec) 
Heartbeat CPU 3 instructions: 220000000 cycles: 116587780 heartbeat IPC: 1.70402 cumulative IPC: 0.171545 (Simulation time: 0 hr 40 min 28 sec) 
Heartbeat CPU 1 instructions: 260000000 cycles: 117863984 heartbeat IPC: 2.45888 cumulative IPC: 0.509061 (Simulation time: 0 hr 40 min 54 sec) 
Heartbeat CPU 2 instructions: 200000000 cycles: 120324880 heartbeat IPC: 1.72242 cumulative IPC: 1.66217 (Simulation time: 0 hr 41 min 48 sec) 

Warmup complete CPU 0 instructions: 207532343 cycles: 120324882 (Simulation time: 0 hr 41 min 48 sec) 
Warmup complete CPU 1 instructions: 266038089 cycles: 120324882 (Simulation time: 0 hr 41 min 48 sec) 
Warmup complete CPU 2 instructions: 200000003 cycles: 120324882 (Simulation time: 0 hr 41 min 48 sec) 
Warmup complete CPU 3 instructions: 226605194 cycles: 120324881 (Simulation time: 0 hr 41 min 48 sec) 

Heartbeat CPU 1 instructions: 270000002 cycles: 125300457 heartbeat IPC: 1.34472 cumulative IPC: 0.796272 (Simulation time: 0 hr 42 min 41 sec) 
Heartbeat CPU 0 instructions: 210000003 cycles: 125411698 heartbeat IPC: 1.05833 cumulative IPC: 0.485109 (Simulation time: 0 hr 42 min 42 sec) 
Heartbeat CPU 3 instructions: 230000003 cycles: 125676197 heartbeat IPC: 1.1003 cumulative IPC: 0.634388 (Simulation time: 0 hr 42 min 46 sec) 
Heartbeat CPU 1 instructions: 280000000 cycles: 137725603 heartbeat IPC: 0.804819 cumulative IPC: 0.802375 (Simulation time: 0 hr 44 min 43 sec) 
Heartbeat CPU 2 instructions: 210000001 cycles: 140326402 heartbeat IPC: 0.499962 cumulative IPC: 0.499962 (Simulation time: 0 hr 45 min 8 sec) 
Heartbeat CPU 3 instructions: 240000000 cycles: 141439267 heartbeat IPC: 0.634394 cumulative IPC: 0.634392 (Simulation time: 0 hr 45 min 19 sec) 
Heartbeat CPU 0 instructions: 220000000 cycles: 143480261 heartbeat IPC: 0.553447 cumulative IPC: 0.538435 (Simulation time: 0 hr 45 min 36 sec) 
Heartbeat CPU 1 instructions: 290000000 cycles: 152918535 heartbeat IPC: 0.658201 cumulative IPC: 0.735171 (Simulation time: 0 hr 47 min 2 sec) 
Heartbeat CPU 3 instructions: 250000000 cycles: 157481034 heartbeat IPC: 0.623373 cumulative IPC: 0.629635 (Simulation time: 0 hr 47 min 44 sec) 
Heartbeat CPU 2 instructions: 220000000 cycles: 159835722 heartbeat IPC: 0.512575 cumulative IPC: 0.50619 (Simulation time: 0 hr 48 min 6 sec) 
Heartbeat CPU 0 instructions: 230000002 cycles: 162307425 heartbeat IPC: 0.531148 cumulative IPC: 0.535167 (Simulation time: 0 hr 48 min 29 sec) 
Heartbeat CPU 1 instructions: 300000000 cycles: 168260809 heartbeat IPC: 0.651794 cumulative IPC: 0.708486 (Simulation time: 0 hr 49 min 23 sec) 
Heartbeat CPU 3 instructions: 260000000 cycles: 172917396 heartbeat IPC: 0.647821 cumulative IPC: 0.634973 (Simulation time: 0 hr 50 min 5 sec) 
Heartbeat CPU 2 instructions: 230000001 cycles: 176801032 heartbeat IPC: 0.589438 cumulative IPC: 0.531198 (Simulation time: 0 hr 50 min 39 sec) 
Heartbeat CPU 0 instructions: 240000000 cycles: 180849280 heartbeat IPC: 0.53932 cumulative IPC: 0.536439 (Simulation time: 0 hr 51 min 15 sec) 
Heartbeat CPU 1 instructions: 310000000 cycles: 183883316 heartbeat IPC: 0.640102 cumulative IPC: 0.691677 (Simulation time: 0 hr 51 min 43 sec) 
Heartbeat CPU 3 instructions: 270000000 cycles: 188601623 heartbeat IPC: 0.637583 cumulative IPC: 0.635572 (Simulation time: 0 hr 52 min 26 sec) 
Heartbeat CPU 2 instructions: 240000000 cycles: 196160550 heartbeat IPC: 0.516542 cumulative IPC: 0.527456 (Simulation time: 0 hr 53 min 33 sec) 
Heartbeat CPU 0 instructions: 250000003 cycles: 196656621 heartbeat IPC: 0.632618 cumulative IPC: 0.556356 (Simulation time: 0 hr 53 min 38 sec) 
Heartbeat CPU 1 instructions: 320000000 cycles: 199558279 heartbeat IPC: 0.63796 cumulative IPC: 0.68105 (Simulation time: 0 hr 54 min 4 sec) 
Heartbeat CPU 3 instructions: 280000000 cycles: 206475520 heartbeat IPC: 0.559475 cumulative IPC: 0.619784 (Simulation time: 0 hr 55 min 8 sec) 
Heartbeat CPU 1 instructions: 330000000 cycles: 213595695 heartbeat IPC: 0.712382 cumulative IPC: 0.685766 (Simulation time: 0 hr 56 min 14 sec) 
Heartbeat CPU 2 instructions: 250000001 cycles: 215037612 heartbeat IPC: 0.529743 cumulative IPC: 0.527912 (Simulation time: 0 hr 56 min 27 sec) 
Heartbeat CPU 0 instructions: 260000000 cycles: 215915781 heartbeat IPC: 0.519233 cumulative IPC: 0.548877 (Simulation time: 0 hr 56 min 35 sec) 
Heartbeat CPU 3 instructions: 290000000 cycles: 224105964 heartbeat IPC: 0.567201 cumulative IPC: 0.610851 (Simulation time: 0 hr 57 min 46 sec) 
Heartbeat CPU 1 instructions: 340000000 cycles: 227144672 heartbeat IPC: 0.738063 cumulative IPC: 0.692399 (Simulation time: 0 hr 58 min 10 sec) 
Heartbeat CPU 2 instructions: 260000000 cycles: 233611231 heartbeat IPC: 0.538398 cumulative IPC: 0.529631 (Simulation time: 0 hr 59 min 5 sec) 
Heartbeat CPU 0 instructions: 270000001 cycles: 236655844 heartbeat IPC: 0.482159 cumulative IPC: 0.536982 (Simulation time: 0 hr 59 min 31 sec) 
Heartbeat CPU 1 instructions: 350000001 cycles: 241104023 heartbeat IPC: 0.716366 cumulative IPC: 0.695169 (Simulation time: 1 hr 0 min 8 sec) 
Heartbeat CPU 3 instructions: 300000000 cycles: 241385829 heartbeat IPC: 0.578708 cumulative IPC: 0.606263 (Simulation time: 1 hr 0 min 11 sec) 
Heartbeat CPU 2 instructions: 270000001 cycles: 252594689 heartbeat IPC: 0.526774 cumulative IPC: 0.529221 (Simulation time: 1 hr 1 min 42 sec) 
Heartbeat CPU 1 instructions: 360000000 cycles: 257405008 heartbeat IPC: 0.61346 cumulative IPC: 0.685452 (Simulation time: 1 hr 2 min 15 sec) 
Heartbeat CPU 3 instructions: 310000002 cycles: 257747274 heartbeat IPC: 0.611193 cumulative IPC: 0.60685 (Simulation time: 1 hr 2 min 17 sec) 
Heartbeat CPU 0 instructions: 280000000 cycles: 264336741 heartbeat IPC: 0.36126 cumulative IPC: 0.503206 (Simulation time: 1 hr 3 min 5 sec) 
Heartbeat CPU 2 instructions: 280000000 cycles: 270718634 heartbeat IPC: 0.551756 cumulative IPC: 0.531937 (Simulation time: 1 hr 3 min 54 sec) 
Heartbeat CPU 3 instructions: 320000000 cycles: 273778651 heartbeat IPC: 0.623777 cumulative IPC: 0.608618 (Simulation time: 1 hr 4 min 17 sec) 
Heartbeat CPU 1 instructions: 370000003 cycles: 280297428 heartbeat IPC: 0.436826 cumulative IPC: 0.649873 (Simulation time: 1 hr 5 min 10 sec) 
Heartbeat CPU 3 instructions: 330000000 cycles: 289583824 heartbeat IPC: 0.632704 cumulative IPC: 0.610868 (Simulation time: 1 hr 6 min 28 sec) 
Heartbeat CPU 2 instructions: 290000000 cycles: 291221174 heartbeat IPC: 0.487744 cumulative IPC: 0.526635 (Simulation time: 1 hr 6 min 41 sec) 
Heartbeat CPU 0 instructions: 290000000 cycles: 292137045 heartbeat IPC: 0.359708 cumulative IPC: 0.479987 (Simulation time: 1 hr 6 min 49 sec) 
Heartbeat CPU 1 instructions: 380000000 cycles: 295040658 heartbeat IPC: 0.678277 cumulative IPC: 0.65227 (Simulation time: 1 hr 7 min 14 sec) 
Heartbeat CPU 3 instructions: 340000000 cycles: 305043654 heartbeat IPC: 0.646838 cumulative IPC: 0.613878 (Simulation time: 1 hr 8 min 43 sec) 
Heartbeat CPU 1 instructions: 390000003 cycles: 309350159 heartbeat IPC: 0.698837 cumulative IPC: 0.655795 (Simulation time: 1 hr 9 min 22 sec) 
Heartbeat CPU 2 instructions: 300000000 cycles: 311408677 heartbeat IPC: 0.495356 cumulative IPC: 0.523331 (Simulation time: 1 hr 9 min 40 sec) 
Heartbeat CPU 0 instructions: 300000000 cycles: 318390660 heartbeat IPC: 0.3809 cumulative IPC: 0.466853 (Simulation time: 1 hr 10 min 40 sec) 
Heartbeat CPU 3 instructions: 350000000 cycles: 321255802 heartbeat IPC: 0.616821 cumulative IPC: 0.614116 (Simulation time: 1 hr 11 min 3 sec) 
Heartbeat CPU 1 instructions: 400000000 cycles: 323471443 heartbeat IPC: 0.708151 cumulative IPC: 0.659435 (Simulation time: 1 hr 11 min 22 sec) 
Heartbeat CPU 2 instructions: 310000002 cycles: 330000652 heartbeat IPC: 0.537867 cumulative IPC: 0.52462 (Simulation time: 1 hr 12 min 18 sec) 
Heartbeat CPU 3 instructions: 360000000 cycles: 336361206 heartbeat IPC: 0.662015 cumulative IPC: 0.617465 (Simulation time: 1 hr 13 min 13 sec) 
Heartbeat CPU 1 instructions: 410000001 cycles: 337708630 heartbeat IPC: 0.702386 cumulative IPC: 0.662248 (Simulation time: 1 hr 13 min 24 sec) 
Heartbeat CPU 0 instructions: 310000000 cycles: 347939872 heartbeat IPC: 0.338419 cumulative IPC: 0.45018 (Simulation time: 1 hr 14 min 54 sec) 
Heartbeat CPU 2 instructions: 320000000 cycles: 349140654 heartbeat IPC: 0.522466 cumulative IPC: 0.524439 (Simulation time: 1 hr 15 min 5 sec) 
Heartbeat CPU 3 instructions: 370000001 cycles: 351525518 heartbeat IPC: 0.659443 cumulative IPC: 0.620218 (Simulation time: 1 hr 15 min 27 sec) 
Heartbeat CPU 1 instructions: 420000000 cycles: 351537130 heartbeat IPC: 0.723144 cumulative IPC: 0.66589 (Simulation time: 1 hr 15 min 27 sec) 
Heartbeat CPU 1 instructions: 430000001 cycles: 365476169 heartbeat IPC: 0.71741 cumulative IPC: 0.668819 (Simulation time: 1 hr 17 min 30 sec) 
Heartbeat CPU 2 instructions: 330000000 cycles: 367051988 heartbeat IPC: 0.558306 cumulative IPC: 0.526898 (Simulation time: 1 hr 17 min 43 sec) 
Heartbeat CPU 3 instructions: 380000000 cycles: 367734075 heartbeat IPC: 0.616958 cumulative IPC: 0.620004 (Simulation time: 1 hr 17 min 49 sec) 
Heartbeat CPU 0 instructions: 320000000 cycles: 369750744 heartbeat IPC: 0.458487 cumulative IPC: 0.450906 (Simulation time: 1 hr 18 min 5 sec) 
Heartbeat CPU 1 instructions: 440000000 cycles: 379602032 heartbeat IPC: 0.707921 cumulative IPC: 0.67095 (Simulation time: 1 hr 19 min 28 sec) 
Heartbeat CPU 3 instructions: 390000001 cycles: 384296296 heartbeat IPC: 0.603784 cumulative IPC: 0.618987 (Simulation time: 1 hr 20 min 5 sec) 
Heartbeat CPU 0 instructions: 330000000 cycles: 390055413 heartbeat IPC: 0.492498 cumulative IPC: 0.454037 (Simulation time: 1 hr 20 min 51 sec) 
Heartbeat CPU 2 instructions: 340000000 cycles: 393103862 heartbeat IPC: 0.38385 cumulative IPC: 0.513236 (Simulation time: 1 hr 21 min 15 sec) 
Heartbeat CPU 1 instructions: 450000000 cycles: 393636691 heartbeat IPC: 0.712522 cumulative IPC: 0.673084 (Simulation time: 1 hr 21 min 20 sec) 
Heartbeat CPU 3 instructions: 400000000 cycles: 401845239 heartbeat IPC: 0.569835 cumulative IPC: 0.615923 (Simulation time: 1 hr 22 min 24 sec) 
Heartbeat CPU 0 instructions: 340000000 cycles: 408567367 heartbeat IPC: 0.540191 cumulative IPC: 0.45957 (Simulation time: 1 hr 23 min 18 sec) 
Heartbeat CPU 1 instructions: 460000000 cycles: 408606004 heartbeat IPC: 0.668033 cumulative IPC: 0.672822 (Simulation time: 1 hr 23 min 19 sec) 
Heartbeat CPU 3 instructions: 410000003 cycles: 419628848 heartbeat IPC: 0.562316 cumulative IPC: 0.612738 (Simulation time: 1 hr 24 min 44 sec) 
Heartbeat CPU 2 instructions: 350000000 cycles: 421106095 heartbeat IPC: 0.357114 cumulative IPC: 0.498701 (Simulation time: 1 hr 24 min 55 sec) 
Heartbeat CPU 1 instructions: 470000001 cycles: 423162161 heartbeat IPC: 0.686995 cumulative IPC: 0.673503 (Simulation time: 1 hr 25 min 10 sec) 
Heartbeat CPU 0 instructions: 350000001 cycles: 428408600 heartbeat IPC: 0.504001 cumulative IPC: 0.462432 (Simulation time: 1 hr 25 min 50 sec) 
Heartbeat CPU 3 instructions: 420000000 cycles: 437825194 heartbeat IPC: 0.549561 cumulative IPC: 0.609117 (Simulation time: 1 hr 26 min 56 sec) 
Heartbeat CPU 1 instructions: 480000000 cycles: 440956863 heartbeat IPC: 0.561965 cumulative IPC: 0.667313 (Simulation time: 1 hr 27 min 22 sec) 
Heartbeat CPU 2 instructions: 360000000 cycles: 447676707 heartbeat IPC: 0.376356 cumulative IPC: 0.488771 (Simulation time: 1 hr 28 min 20 sec) 
Heartbeat CPU 0 instructions: 360000000 cycles: 447826378 heartbeat IPC: 0.514992 cumulative IPC: 0.465548 (Simulation time: 1 hr 28 min 22 sec) 
Heartbeat CPU 1 instructions: 490000000 cycles: 453850297 heartbeat IPC: 0.775589 cumulative IPC: 0.671499 (Simulation time: 1 hr 29 min 16 sec) 
Heartbeat CPU 3 instructions: 430000000 cycles: 454755702 heartbeat IPC: 0.59065 cumulative IPC: 0.608182 (Simulation time: 1 hr 29 min 24 sec) 
Heartbeat CPU 2 instructions: 370000000 cycles: 466540147 heartbeat IPC: 0.530126 cumulative IPC: 0.491024 (Simulation time: 1 hr 31 min 14 sec) 
Heartbeat CPU 0 instructions: 370000001 cycles: 466922661 heartbeat IPC: 0.523662 cumulative IPC: 0.46875 (Simulation time: 1 hr 31 min 17 sec) 
Heartbeat CPU 1 instructions: 500000000 cycles: 467270451 heartbeat IPC: 0.745148 cumulative IPC: 0.674348 (Simulation time: 1 hr 31 min 20 sec) 
Heartbeat CPU 3 instructions: 440000000 cycles: 470759566 heartbeat IPC: 0.624849 cumulative IPC: 0.608943 (Simulation time: 1 hr 31 min 53 sec) 
Heartbeat CPU 1 instructions: 510000001 cycles: 480274100 heartbeat IPC: 0.769015 cumulative IPC: 0.677768 (Simulation time: 1 hr 33 min 22 sec) 
Heartbeat CPU 2 instructions: 380000000 cycles: 486275691 heartbeat IPC: 0.5067 cumulative IPC: 0.491869 (Simulation time: 1 hr 34 min 18 sec) 
Heartbeat CPU 3 instructions: 450000000 cycles: 487403337 heartbeat IPC: 0.600825 cumulative IPC: 0.608575 (Simulation time: 1 hr 34 min 29 sec) 
Heartbeat CPU 0 instructions: 380000000 cycles: 487756562 heartbeat IPC: 0.479987 cumulative IPC: 0.469387 (Simulation time: 1 hr 34 min 33 sec) 
Heartbeat CPU 1 instructions: 520000000 cycles: 492813826 heartbeat IPC: 0.797466 cumulative IPC: 0.681797 (Simulation time: 1 hr 35 min 21 sec) 
Heartbeat CPU 3 instructions: 460000000 cycles: 503407751 heartbeat IPC: 0.624828 cumulative IPC: 0.609254 (Simulation time: 1 hr 37 min 1 sec) 
Heartbeat CPU 1 instructions: 530000001 cycles: 505239580 heartbeat IPC: 0.80478 cumulative IPC: 0.685767 (Simulation time: 1 hr 37 min 18 sec) 
Heartbeat CPU 2 instructions: 390000002 cycles: 505833394 heartbeat IPC: 0.511308 cumulative IPC: 0.492856 (Simulation time: 1 hr 37 min 24 sec) 
Heartbeat CPU 0 instructions: 390000002 cycles: 507565025 heartbeat IPC: 0.504835 cumulative IPC: 0.4712 (Simulation time: 1 hr 37 min 41 sec) 
Heartbeat CPU 1 instructions: 540000000 cycles: 517694384 heartbeat IPC: 0.802903 cumulative IPC: 0.689439 (Simulation time: 1 hr 39 min 15 sec) 
Heartbeat CPU 3 instructions: 470000000 cycles: 518826133 heartbeat IPC: 0.648576 cumulative IPC: 0.610776 (Simulation time: 1 hr 39 min 26 sec) 
Heartbeat CPU 2 instructions: 400000000 cycles: 525488151 heartbeat IPC: 0.508783 cumulative IPC: 0.493628 (Simulation time: 1 hr 40 min 26 sec) 
Heartbeat CPU 0 instructions: 400000000 cycles: 527514637 heartbeat IPC: 0.501263 cumulative IPC: 0.472673 (Simulation time: 1 hr 40 min 45 sec) 
Heartbeat CPU 1 instructions: 550000000 cycles: 530247385 heartbeat IPC: 0.796622 cumulative IPC: 0.692721 (Simulation time: 1 hr 41 min 11 sec) 
Heartbeat CPU 3 instructions: 480000000 cycles: 534589294 heartbeat IPC: 0.634391 cumulative IPC: 0.611674 (Simulation time: 1 hr 41 min 51 sec) 
Heartbeat CPU 1 instructions: 560000000 cycles: 542937005 heartbeat IPC: 0.788046 cumulative IPC: 0.695583 (Simulation time: 1 hr 43 min 3 sec) 
Heartbeat CPU 2 instructions: 410000000 cycles: 543005549 heartbeat IPC: 0.570861 cumulative IPC: 0.496829 (Simulation time: 1 hr 43 min 4 sec) 
Heartbeat CPU 3 instructions: 490000000 cycles: 550047473 heartbeat IPC: 0.646907 cumulative IPC: 0.612942 (Simulation time: 1 hr 44 min 7 sec) 
Heartbeat CPU 0 instructions: 410000000 cycles: 550951595 heartbeat IPC: 0.426677 cumulative IPC: 0.47017 (Simulation time: 1 hr 44 min 15 sec) 
Heartbeat CPU 1 instructions: 570000001 cycles: 555558483 heartbeat IPC: 0.7923 cumulative IPC: 0.698388 (Simulation time: 1 hr 44 min 56 sec) 
Heartbeat CPU 2 instructions: 420000000 cycles: 560269146 heartbeat IPC: 0.579254 cumulative IPC: 0.500063 (Simulation time: 1 hr 45 min 38 sec) 
Heartbeat CPU 3 instructions: 500000000 cycles: 566181393 heartbeat IPC: 0.619812 cumulative IPC: 0.61319 (Simulation time: 1 hr 46 min 27 sec) 
Heartbeat CPU 1 instructions: 580000000 cycles: 568114926 heartbeat IPC: 0.796404 cumulative IPC: 0.701136 (Simulation time: 1 hr 46 min 44 sec) 
Heartbeat CPU 0 instructions: 420000000 cycles: 579143957 heartbeat IPC: 0.354706 cumulative IPC: 0.463075 (Simulation time: 1 hr 48 min 16 sec) 
Heartbeat CPU 2 instructions: 430000002 cycles: 580136253 heartbeat IPC: 0.503345 cumulative IPC: 0.500205 (Simulation time: 1 hr 48 min 24 sec) 
Heartbeat CPU 3 instructions: 510000002 cycles: 581381306 heartbeat IPC: 0.657899 cumulative IPC: 0.614664 (Simulation time: 1 hr 48 min 35 sec) 
Heartbeat CPU 1 instructions: 590000003 cycles: 583686551 heartbeat IPC: 0.642194 cumulative IPC: 0.699156 (Simulation time: 1 hr 48 min 55 sec) 
Heartbeat CPU 3 instructions: 520000000 cycles: 596803652 heartbeat IPC: 0.64841 cumulative IPC: 0.615756 (Simulation time: 1 hr 51 min 2 sec) 
Heartbeat CPU 2 instructions: 440000000 cycles: 598477119 heartbeat IPC: 0.54523 cumulative IPC: 0.501932 (Simulation time: 1 hr 51 min 16 sec) 
Heartbeat CPU 1 instructions: 600000000 cycles: 599207217 heartbeat IPC: 0.644302 cumulative IPC: 0.697378 (Simulation time: 1 hr 51 min 23 sec) 
Heartbeat CPU 0 instructions: 430000000 cycles: 605433742 heartbeat IPC: 0.380376 cumulative IPC: 0.458593 (Simulation time: 1 hr 52 min 14 sec) 
Heartbeat CPU 3 instructions: 530000000 cycles: 612706059 heartbeat IPC: 0.628836 cumulative IPC: 0.616179 (Simulation time: 1 hr 53 min 14 sec) 
Heartbeat CPU 1 instructions: 610000001 cycles: 614962067 heartbeat IPC: 0.634725 cumulative IPC: 0.695382 (Simulation time: 1 hr 53 min 33 sec) 
Heartbeat CPU 2 instructions: 450000000 cycles: 617275588 heartbeat IPC: 0.531958 cumulative IPC: 0.503068 (Simulation time: 1 hr 53 min 51 sec) 
Heartbeat CPU 3 instructions: 540000000 cycles: 628291940 heartbeat IPC: 0.641606 cumulative IPC: 0.616959 (Simulation time: 1 hr 55 min 22 sec) 
Heartbeat CPU 1 instructions: 620000000 cycles: 630679566 heartbeat IPC: 0.636233 cumulative IPC: 0.693561 (Simulation time: 1 hr 55 min 42 sec) 
Heartbeat CPU 0 instructions: 440000000 cycles: 631033514 heartbeat IPC: 0.390628 cumulative IPC: 0.455186 (Simulation time: 1 hr 55 min 45 sec) 
Heartbeat CPU 2 instructions: 460000000 cycles: 635724603 heartbeat IPC: 0.542034 cumulative IPC: 0.504463 (Simulation time: 1 hr 56 min 25 sec) 
Heartbeat CPU 3 instructions: 550000001 cycles: 644421179 heartbeat IPC: 0.619992 cumulative IPC: 0.617052 (Simulation time: 1 hr 57 min 39 sec) 
Heartbeat CPU 1 instructions: 630000003 cycles: 644700306 heartbeat IPC: 0.713229 cumulative IPC: 0.694086 (Simulation time: 1 hr 57 min 41 sec) 
Heartbeat CPU 2 instructions: 470000003 cycles: 655249365 heartbeat IPC: 0.51217 cumulative IPC: 0.504744 (Simulation time: 1 hr 59 min 8 sec) 
Heartbeat CPU 0 instructions: 450000000 cycles: 656519896 heartbeat IPC: 0.392366 cumulative IPC: 0.452201 (Simulation time: 1 hr 59 min 18 sec) 
Heartbeat CPU 1 instructions: 640000000 cycles: 658452443 heartbeat IPC: 0.72716 cumulative IPC: 0.694932 (Simulation time: 1 hr 59 min 34 sec) 
Heartbeat CPU 3 instructions: 560000000 cycles: 662547408 heartbeat IPC: 0.551687 cumulative IPC: 0.614867 (Simulation time: 2 hr 0 min 7 sec) 
Heartbeat CPU 1 instructions: 650000002 cycles: 672608790 heartbeat IPC: 0.706397 cumulative IPC: 0.695226 (Simulation time: 2 hr 1 min 28 sec) 
Heartbeat CPU 2 instructions: 480000000 cycles: 672903550 heartbeat IPC: 0.566438 cumulative IPC: 0.506715 (Simulation time: 2 hr 1 min 30 sec) 
Heartbeat CPU 3 instructions: 570000002 cycles: 681581249 heartbeat IPC: 0.52538 cumulative IPC: 0.611832 (Simulation time: 2 hr 2 min 33 sec) 
Heartbeat CPU 0 instructions: 460000000 cycles: 685380193 heartbeat IPC: 0.346497 cumulative IPC: 0.446802 (Simulation time: 2 hr 3 min 0 sec) 
Heartbeat CPU 2 instructions: 490000003 cycles: 691344985 heartbeat IPC: 0.542257 cumulative IPC: 0.507863 (Simulation time: 2 hr 3 min 39 sec) 
Heartbeat CPU 3 instructions: 580000000 cycles: 699740846 heartbeat IPC: 0.550673 cumulative IPC: 0.609916 (Simulation time: 2 hr 4 min 38 sec) 
Heartbeat CPU 1 instructions: 660000000 cycles: 700016569 heartbeat IPC: 0.36486 cumulative IPC: 0.679606 (Simulation time: 2 hr 4 min 40 sec) 
Heartbeat CPU 2 instructions: 500000000 cycles: 710531475 heartbeat IPC: 0.5212 cumulative IPC: 0.508297 (Simulation time: 2 hr 6 min 7 sec) 
Heartbeat CPU 0 instructions: 470000001 cycles: 712676289 heartbeat IPC: 0.366353 cumulative IPC: 0.443095 (Simulation time: 2 hr 6 min 25 sec) 
Heartbeat CPU 1 instructions: 670000000 cycles: 716241224 heartbeat IPC: 0.616346 cumulative IPC: 0.677884 (Simulation time: 2 hr 6 min 56 sec) 
Heartbeat CPU 3 instructions: 590000002 cycles: 718618578 heartbeat IPC: 0.529725 cumulative IPC: 0.607385 (Simulation time: 2 hr 7 min 17 sec) 
Heartbeat CPU 1 instructions: 680000000 cycles: 730793967 heartbeat IPC: 0.687156 cumulative IPC: 0.678105 (Simulation time: 2 hr 9 min 3 sec) 
Heartbeat CPU 2 instructions: 510000000 cycles: 732426223 heartbeat IPC: 0.456731 cumulative IPC: 0.506452 (Simulation time: 2 hr 9 min 18 sec) 
Heartbeat CPU 0 instructions: 480000000 cycles: 732813413 heartbeat IPC: 0.496595 cumulative IPC: 0.444853 (Simulation time: 2 hr 9 min 21 sec) 
Heartbeat CPU 3 instructions: 600000000 cycles: 737026721 heartbeat IPC: 0.543238 cumulative IPC: 0.605471 (Simulation time: 2 hr 9 min 59 sec) 
Heartbeat CPU 1 instructions: 690000001 cycles: 745024720 heartbeat IPC: 0.702704 cumulative IPC: 0.678665 (Simulation time: 2 hr 11 min 13 sec) 
Heartbeat CPU 2 instructions: 520000000 cycles: 751826671 heartbeat IPC: 0.515452 cumulative IPC: 0.506729 (Simulation time: 2 hr 12 min 16 sec) 
Heartbeat CPU 0 instructions: 490000003 cycles: 752310140 heartbeat IPC: 0.512907 cumulative IPC: 0.446953 (Simulation time: 2 hr 12 min 21 sec) 
Heartbeat CPU 3 instructions: 610000003 cycles: 754143172 heartbeat IPC: 0.584233 cumulative IPC: 0.604897 (Simulation time: 2 hr 12 min 37 sec) 
Heartbeat CPU 1 instructions: 700000000 cycles: 759033154 heartbeat IPC: 0.713856 cumulative IPC: 0.679437 (Simulation time: 2 hr 13 min 22 sec) 
Heartbeat CPU 3 instructions: 620000000 cycles: 770205970 heartbeat IPC: 0.622556 cumulative IPC: 0.605334 (Simulation time: 2 hr 15 min 2 sec) 
Heartbeat CPU 2 instructions: 530000001 cycles: 771090342 heartbeat IPC: 0.519112 cumulative IPC: 0.507095 (Simulation time: 2 hr 15 min 10 sec) 
Heartbeat CPU 0 instructions: 500000000 cycles: 771878961 heartbeat IPC: 0.511017 cumulative IPC: 0.448877 (Simulation time: 2 hr 15 min 18 sec) 
Heartbeat CPU 1 instructions: 710000000 cycles: 772949049 heartbeat IPC: 0.718603 cumulative IPC: 0.680272 (Simulation time: 2 hr 15 min 28 sec) 
Heartbeat CPU 3 instructions: 630000003 cycles: 786313512 heartbeat IPC: 0.620827 cumulative IPC: 0.605708 (Simulation time: 2 hr 17 min 57 sec) 
Heartbeat CPU 1 instructions: 720000000 cycles: 786859298 heartbeat IPC: 0.718894 cumulative IPC: 0.681078 (Simulation time: 2 hr 18 min 2 sec) 
Heartbeat CPU 2 instructions: 540000000 cycles: 789857340 heartbeat IPC: 0.53285 cumulative IPC: 0.507817 (Simulation time: 2 hr 18 min 30 sec) 
Heartbeat CPU 0 instructions: 510000000 cycles: 792419312 heartbeat IPC: 0.486847 cumulative IPC: 0.450037 (Simulation time: 2 hr 18 min 54 sec) 
Heartbeat CPU 1 instructions: 730000000 cycles: 800815481 heartbeat IPC: 0.716528 cumulative IPC: 0.681805 (Simulation time: 2 hr 20 min 11 sec) 
Heartbeat CPU 3 instructions: 640000000 cycles: 804565664 heartbeat IPC: 0.54788 cumulative IPC: 0.604166 (Simulation time: 2 hr 20 min 44 sec) 
Heartbeat CPU 2 instructions: 550000002 cycles: 809911515 heartbeat IPC: 0.498649 cumulative IPC: 0.50755 (Simulation time: 2 hr 21 min 33 sec) 
Heartbeat CPU 0 instructions: 520000000 cycles: 812048132 heartbeat IPC: 0.509455 cumulative IPC: 0.451724 (Simulation time: 2 hr 21 min 53 sec) 
Heartbeat CPU 1 instructions: 740000000 cycles: 814930195 heartbeat IPC: 0.708481 cumulative IPC: 0.682347 (Simulation time: 2 hr 22 min 18 sec) 
Heartbeat CPU 3 instructions: 650000000 cycles: 820988793 heartbeat IPC: 0.608897 cumulative IPC: 0.604277 (Simulation time: 2 hr 23 min 10 sec) 
Heartbeat CPU 2 instructions: 560000000 cycles: 828132219 heartbeat IPC: 0.548826 cumulative IPC: 0.508613 (Simulation time: 2 hr 24 min 14 sec) 
Heartbeat CPU 1 instructions: 750000003 cycles: 828945631 heartbeat IPC: 0.713499 cumulative IPC: 0.682963 (Simulation time: 2 hr 24 min 21 sec) 
Heartbeat CPU 3 instructions: 660000000 cycles: 836882020 heartbeat IPC: 0.629199 cumulative IPC: 0.604829 (Simulation time: 2 hr 25 min 26 sec) 
Heartbeat CPU 0 instructions: 530000000 cycles: 840352736 heartbeat IPC: 0.353299 cumulative IPC: 0.447854 (Simulation time: 2 hr 25 min 53 sec) 
Heartbeat CPU 1 instructions: 760000000 cycles: 844018609 heartbeat IPC: 0.663439 cumulative IPC: 0.682557 (Simulation time: 2 hr 26 min 22 sec) 
Heartbeat CPU 2 instructions: 570000002 cycles: 849596531 heartbeat IPC: 0.46589 cumulative IPC: 0.507356 (Simulation time: 2 hr 27 min 5 sec) 
Heartbeat CPU 3 instructions: 670000002 cycles: 852592170 heartbeat IPC: 0.636531 cumulative IPC: 0.60551 (Simulation time: 2 hr 27 min 29 sec) 
Heartbeat CPU 1 instructions: 770000001 cycles: 860883261 heartbeat IPC: 0.592956 cumulative IPC: 0.680516 (Simulation time: 2 hr 28 min 53 sec) 
Heartbeat CPU 3 instructions: 680000000 cycles: 868173101 heartbeat IPC: 0.64181 cumulative IPC: 0.606266 (Simulation time: 2 hr 29 min 59 sec) 
Heartbeat CPU 0 instructions: 540000000 cycles: 869134411 heartbeat IPC: 0.347443 cumulative IPC: 0.443995 (Simulation time: 2 hr 30 min 7 sec) 
Heartbeat CPU 1 instructions: 780000000 cycles: 876087640 heartbeat IPC: 0.657705 cumulative IPC: 0.680057 (Simulation time: 2 hr 31 min 1 sec) 
Heartbeat CPU 2 instructions: 580000000 cycles: 878746363 heartbeat IPC: 0.343055 cumulative IPC: 0.501041 (Simulation time: 2 hr 31 min 22 sec) 
Heartbeat CPU 3 instructions: 690000000 cycles: 883992912 heartbeat IPC: 0.632119 cumulative IPC: 0.606801 (Simulation time: 2 hr 32 min 7 sec) 
Heartbeat CPU 1 instructions: 790000002 cycles: 889920750 heartbeat IPC: 0.722903 cumulative IPC: 0.680827 (Simulation time: 2 hr 32 min 56 sec) 
Heartbeat CPU 0 instructions: 550000002 cycles: 898546687 heartbeat IPC: 0.339994 cumulative IPC: 0.440064 (Simulation time: 2 hr 34 min 4 sec) 
Heartbeat CPU 3 instructions: 700000000 cycles: 900022347 heartbeat IPC: 0.623852 cumulative IPC: 0.607152 (Simulation time: 2 hr 34 min 16 sec) 
Heartbeat CPU 1 instructions: 800000000 cycles: 903320352 heartbeat IPC: 0.746291 cumulative IPC: 0.681948 (Simulation time: 2 hr 34 min 45 sec) 
Heartbeat CPU 2 instructions: 590000002 cycles: 907952460 heartbeat IPC: 0.342394 cumulative IPC: 0.495158 (Simulation time: 2 hr 35 min 26 sec) 
Heartbeat CPU 1 instructions: 810000001 cycles: 916027470 heartbeat IPC: 0.786961 cumulative IPC: 0.683625 (Simulation time: 2 hr 36 min 43 sec) 
Heartbeat CPU 0 instructions: 560000000 cycles: 916063392 heartbeat IPC: 0.570884 cumulative IPC: 0.442944 (Simulation time: 2 hr 36 min 43 sec) 
Heartbeat CPU 3 instructions: 710000003 cycles: 917926515 heartbeat IPC: 0.558529 cumulative IPC: 0.60606 (Simulation time: 2 hr 37 min 1 sec) 
Heartbeat CPU 2 instructions: 600000000 cycles: 926417620 heartbeat IPC: 0.54156 cumulative IPC: 0.496221 (Simulation time: 2 hr 38 min 24 sec) 
Heartbeat CPU 1 instructions: 820000000 cycles: 928448653 heartbeat IPC: 0.805076 cumulative IPC: 0.685491 (Simulation time: 2 hr 38 min 44 sec) 
Heartbeat CPU 0 instructions: 570000001 cycles: 935877973 heartbeat IPC: 0.504679 cumulative IPC: 0.444444 (Simulation time: 2 hr 39 min 55 sec) 
Heartbeat CPU 3 instructions: 720000000 cycles: 936151130 heartbeat IPC: 0.548708 cumulative IPC: 0.604779 (Simulation time: 2 hr 39 min 58 sec) 
Heartbeat CPU 1 instructions: 830000001 cycles: 940773806 heartbeat IPC: 0.811349 cumulative IPC: 0.687382 (Simulation time: 2 hr 40 min 42 sec) 
Heartbeat CPU 2 instructions: 610000002 cycles: 944276056 heartbeat IPC: 0.55996 cumulative IPC: 0.497602 (Simulation time: 2 hr 41 min 16 sec) 
Heartbeat CPU 3 instructions: 730000001 cycles: 952662194 heartbeat IPC: 0.605655 cumulative IPC: 0.604797 (Simulation time: 2 hr 42 min 36 sec) 
Heartbeat CPU 1 instructions: 840000000 cycles: 953395025 heartbeat IPC: 0.792316 cumulative IPC: 0.688972 (Simulation time: 2 hr 42 min 43 sec) 
Heartbeat CPU 0 instructions: 580000000 cycles: 953421573 heartbeat IPC: 0.570008 cumulative IPC: 0.447088 (Simulation time: 2 hr 42 min 43 sec) 
Heartbeat CPU 2 instructions: 620000000 cycles: 964450100 heartbeat IPC: 0.495686 cumulative IPC: 0.497557 (Simulation time: 2 hr 44 min 27 sec) 
Heartbeat CPU 1 instructions: 850000000 cycles: 965988769 heartbeat IPC: 0.794045 cumulative IPC: 0.690537 (Simulation time: 2 hr 44 min 41 sec) 
Heartbeat CPU 3 instructions: 740000000 cycles: 969062766 heartbeat IPC: 0.609735 cumulative IPC: 0.604892 (Simulation time: 2 hr 45 min 10 sec) 
Heartbeat CPU 0 instructions: 590000000 cycles: 971591407 heartbeat IPC: 0.550363 cumulative IPC: 0.449292 (Simulation time: 2 hr 45 min 34 sec) 
Heartbeat CPU 1 instructions: 860000000 cycles: 978559283 heartbeat IPC: 0.795512 cumulative IPC: 0.692074 (Simulation time: 2 hr 46 min 40 sec) 
Heartbeat CPU 2 instructions: 630000001 cycles: 983420894 heartbeat IPC: 0.527126 cumulative IPC: 0.498206 (Simulation time: 2 hr 47 min 27 sec) 
Heartbeat CPU 3 instructions: 750000003 cycles: 984933349 heartbeat IPC: 0.630097 cumulative IPC: 0.605355 (Simulation time: 2 hr 47 min 42 sec) 
Heartbeat CPU 1 instructions: 870000002 cycles: 990955534 heartbeat IPC: 0.806696 cumulative IPC: 0.693706 (Simulation time: 2 hr 48 min 40 sec) 
Heartbeat CPU 0 instructions: 600000000 cycles: 992233108 heartbeat IPC: 0.484456 cumulative IPC: 0.450125 (Simulation time: 2 hr 48 min 52 sec) 
Heartbeat CPU 3 instructions: 760000000 cycles: 1000450553 heartbeat IPC: 0.644446 cumulative IPC: 0.606044 (Simulation time: 2 hr 50 min 9 sec) 
Heartbeat CPU 2 instructions: 640000000 cycles: 1004016604 heartbeat IPC: 0.485538 cumulative IPC: 0.497911 (Simulation time: 2 hr 50 min 41 sec) 
Heartbeat CPU 1 instructions: 880000000 cycles: 1004649340 heartbeat IPC: 0.730257 cumulative IPC: 0.694272 (Simulation time: 2 hr 50 min 47 sec) 
Heartbeat CPU 0 instructions: 610000000 cycles: 1011365602 heartbeat IPC: 0.522671 cumulative IPC: 0.451683 (Simulation time: 2 hr 51 min 49 sec) 
Heartbeat CPU 3 instructions: 770000001 cycles: 1015965345 heartbeat IPC: 0.644546 cumulative IPC: 0.606711 (Simulation time: 2 hr 52 min 32 sec) 
Heartbeat CPU 1 instructions: 890000000 cycles: 1019950891 heartbeat IPC: 0.653529 cumulative IPC: 0.693579 (Simulation time: 2 hr 53 min 9 sec) 
Heartbeat CPU 2 instructions: 650000000 cycles: 1023034156 heartbeat IPC: 0.52583 cumulative IPC: 0.498499 (Simulation time: 2 hr 53 min 37 sec) 
Heartbeat CPU 0 instructions: 620000000 cycles: 1031083794 heartbeat IPC: 0.507146 cumulative IPC: 0.452883 (Simulation time: 2 hr 54 min 52 sec) 
Heartbeat CPU 3 instructions: 780000000 cycles: 1032037975 heartbeat IPC: 0.622176 cumulative IPC: 0.606983 (Simulation time: 2 hr 55 min 1 sec) 
Heartbeat CPU 1 instructions: 900000000 cycles: 1035432725 heartbeat IPC: 0.645918 cumulative IPC: 0.692773 (Simulation time: 2 hr 55 min 33 sec) 
Heartbeat CPU 2 instructions: 660000000 cycles: 1039866704 heartbeat IPC: 0.594087 cumulative IPC: 0.500249 (Simulation time: 2 hr 56 min 17 sec) 
Heartbeat CPU 3 instructions: 790000002 cycles: 1047652989 heartbeat IPC: 0.640409 cumulative IPC: 0.607546 (Simulation time: 2 hr 57 min 33 sec) 
Heartbeat CPU 0 instructions: 630000002 cycles: 1050844702 heartbeat IPC: 0.50605 cumulative IPC: 0.454013 (Simulation time: 2 hr 58 min 7 sec) 
Heartbeat CPU 1 instructions: 910000000 cycles: 1051082494 heartbeat IPC: 0.638987 cumulative IPC: 0.691869 (Simulation time: 2 hr 58 min 10 sec) 
Heartbeat CPU 2 instructions: 670000002 cycles: 1056386862 heartbeat IPC: 0.605321 cumulative IPC: 0.502104 (Simulation time: 2 hr 59 min 0 sec) 
Heartbeat CPU 3 instructions: 800000000 cycles: 1062851006 heartbeat IPC: 0.65798 cumulative IPC: 0.60836 (Simulation time: 2 hr 59 min 57 sec) 
Heartbeat CPU 1 instructions: 920000000 cycles: 1066335168 heartbeat IPC: 0.655623 cumulative IPC: 0.691284 (Simulation time: 3 hr 0 min 28 sec) 
Heartbeat CPU 0 instructions: 640000000 cycles: 1071190849 heartbeat IPC: 0.491493 cumulative IPC: 0.454815 (Simulation time: 3 hr 1 min 10 sec) 
Heartbeat CPU 2 instructions: 680000000 cycles: 1075431815 heartbeat IPC: 0.525073 cumulative IPC: 0.502562 (Simulation time: 3 hr 1 min 50 sec) 
Heartbeat CPU 3 instructions: 810000002 cycles: 1078208522 heartbeat IPC: 0.651147 cumulative IPC: 0.609046 (Simulation time: 3 hr 2 min 14 sec) 
Heartbeat CPU 1 instructions: 930000001 cycles: 1079427817 heartbeat IPC: 0.763787 cumulative IPC: 0.692274 (Simulation time: 3 hr 2 min 25 sec) 
Heartbeat CPU 0 instructions: 650000002 cycles: 1091035161 heartbeat IPC: 0.503923 cumulative IPC: 0.455818 (Simulation time: 3 hr 4 min 7 sec) 
Heartbeat CPU 1 instructions: 940000000 cycles: 1092941405 heartbeat IPC: 0.739996 cumulative IPC: 0.692937 (Simulation time: 3 hr 4 min 24 sec) 
Heartbeat CPU 2 instructions: 690000001 cycles: 1094378854 heartbeat IPC: 0.527787 cumulative IPC: 0.503052 (Simulation time: 3 hr 4 min 37 sec) 
Heartbeat CPU 3 instructions: 820000000 cycles: 1095742963 heartbeat IPC: 0.570306 cumulative IPC: 0.608349 (Simulation time: 3 hr 4 min 49 sec) 
Heartbeat CPU 0 instructions: 660000000 cycles: 1108929818 heartbeat IPC: 0.558826 cumulative IPC: 0.457683 (Simulation time: 3 hr 6 min 37 sec) 
Heartbeat CPU 1 instructions: 950000000 cycles: 1111001002 heartbeat IPC: 0.553722 cumulative IPC: 0.690399 (Simulation time: 3 hr 6 min 53 sec) 
Heartbeat CPU 2 instructions: 700000000 cycles: 1113006624 heartbeat IPC: 0.536833 cumulative IPC: 0.503686 (Simulation time: 3 hr 7 min 9 sec) 
Heartbeat CPU 3 instructions: 830000001 cycles: 1113657143 heartbeat IPC: 0.558217 cumulative IPC: 0.607445 (Simulation time: 3 hr 7 min 14 sec) 
Heartbeat CPU 0 instructions: 670000001 cycles: 1126461065 heartbeat IPC: 0.57041 cumulative IPC: 0.459647 (Simulation time: 3 hr 8 min 52 sec) 
Heartbeat CPU 3 instructions: 840000000 cycles: 1131383249 heartbeat IPC: 0.56414 cumulative IPC: 0.606686 (Simulation time: 3 hr 9 min 33 sec) 
Heartbeat CPU 2 instructions: 710000000 cycles: 1131674611 heartbeat IPC: 0.535676 cumulative IPC: 0.504277 (Simulation time: 3 hr 9 min 36 sec) 
Heartbeat CPU 1 instructions: 960000000 cycles: 1134017212 heartbeat IPC: 0.434476 cumulative IPC: 0.684588 (Simulation time: 3 hr 9 min 56 sec) 
Heartbeat CPU 0 instructions: 680000000 cycles: 1142676962 heartbeat IPC: 0.616679 cumulative IPC: 0.462138 (Simulation time: 3 hr 11 min 16 sec) 
Heartbeat CPU 1 instructions: 970000000 cycles: 1148756191 heartbeat IPC: 0.678473 cumulative IPC: 0.684501 (Simulation time: 3 hr 12 min 10 sec) 
Heartbeat CPU 3 instructions: 850000003 cycles: 1149604231 heartbeat IPC: 0.548818 cumulative IPC: 0.605661 (Simulation time: 3 hr 12 min 18 sec) 
Heartbeat CPU 2 instructions: 720000000 cycles: 1150233229 heartbeat IPC: 0.538833 cumulative IPC: 0.504899 (Simulation time: 3 hr 12 min 23 sec) 
Heartbeat CPU 0 instructions: 690000001 cycles: 1159469184 heartbeat IPC: 0.595514 cumulative IPC: 0.464293 (Simulation time: 3 hr 13 min 46 sec) 
Heartbeat CPU 1 instructions: 980000000 cycles: 1163273843 heartbeat IPC: 0.688817 cumulative IPC: 0.684561 (Simulation time: 3 hr 14 min 21 sec) 
Heartbeat CPU 3 instructions: 860000000 cycles: 1165770552 heartbeat IPC: 0.61857 cumulative IPC: 0.605861 (Simulation time: 3 hr 14 min 44 sec) 
Heartbeat CPU 2 instructions: 730000000 cycles: 1168259002 heartbeat IPC: 0.554761 cumulative IPC: 0.505757 (Simulation time: 3 hr 15 min 7 sec) 
Heartbeat CPU 0 instructions: 700000000 cycles: 1176161083 heartbeat IPC: 0.599093 cumulative IPC: 0.466424 (Simulation time: 3 hr 16 min 18 sec) 
Heartbeat CPU 1 instructions: 990000002 cycles: 1177222453 heartbeat IPC: 0.716917 cumulative IPC: 0.684988 (Simulation time: 3 hr 16 min 27 sec) 
Heartbeat CPU 3 instructions: 870000002 cycles: 1182141157 heartbeat IPC: 0.610851 cumulative IPC: 0.605938 (Simulation time: 3 hr 17 min 13 sec) 
Heartbeat CPU 2 instructions: 740000000 cycles: 1188193815 heartbeat IPC: 0.501635 cumulative IPC: 0.50568 (Simulation time: 3 hr 18 min 9 sec) 
Heartbeat CPU 1 instructions: 1000000000 cycles: 1191060356 heartbeat IPC: 0.722653 cumulative IPC: 0.685475 (Simulation time: 3 hr 18 min 35 sec) 
Heartbeat CPU 0 instructions: 710000000 cycles: 1196318256 heartbeat IPC: 0.496101 cumulative IPC: 0.46698 (Simulation time: 3 hr 19 min 24 sec) 
Heartbeat CPU 3 instructions: 880000000 cycles: 1198514099 heartbeat IPC: 0.610764 cumulative IPC: 0.606011 (Simulation time: 3 hr 19 min 44 sec) 
Heartbeat CPU 2 instructions: 750000000 cycles: 1204749163 heartbeat IPC: 0.604034 cumulative IPC: 0.507182 (Simulation time: 3 hr 20 min 40 sec) 
Heartbeat CPU 1 instructions: 1010000003 cycles: 1205026482 heartbeat IPC: 0.716018 cumulative IPC: 0.685868 (Simulation time: 3 hr 20 min 43 sec) 
Heartbeat CPU 3 instructions: 890000000 cycles: 1214363315 heartbeat IPC: 0.630946 cumulative IPC: 0.606372 (Simulation time: 3 hr 22 min 3 sec) 
Heartbeat CPU 0 instructions: 720000000 cycles: 1215876987 heartbeat IPC: 0.511281 cumulative IPC: 0.467771 (Simulation time: 3 hr 22 min 17 sec) 
Heartbeat CPU 1 instructions: 1020000000 cycles: 1218846989 heartbeat IPC: 0.723562 cumulative IPC: 0.686342 (Simulation time: 3 hr 22 min 43 sec) 
Heartbeat CPU 2 instructions: 760000000 cycles: 1223383304 heartbeat IPC: 0.536649 cumulative IPC: 0.507679 (Simulation time: 3 hr 23 min 22 sec) 
Heartbeat CPU 3 instructions: 900000000 cycles: 1229860589 heartbeat IPC: 0.645275 cumulative IPC: 0.606916 (Simulation time: 3 hr 24 min 19 sec) 
Heartbeat CPU 1 instructions: 1030000001 cycles: 1232772585 heartbeat IPC: 0.718102 cumulative IPC: 0.68674 (Simulation time: 3 hr 24 min 45 sec) 
Heartbeat CPU 0 instructions: 730000000 cycles: 1233300619 heartbeat IPC: 0.573933 cumulative IPC: 0.469433 (Simulation time: 3 hr 24 min 49 sec) 
Heartbeat CPU 2 instructions: 770000000 cycles: 1241896067 heartbeat IPC: 0.540168 cumulative IPC: 0.508216 (Simulation time: 3 hr 26 min 5 sec) 
Heartbeat CPU 3 instructions: 910000001 cycles: 1245441334 heartbeat IPC: 0.641818 cumulative IPC: 0.607399 (Simulation time: 3 hr 26 min 36 sec) 
Heartbeat CPU 1 instructions: 1040000000 cycles: 1246651677 heartbeat IPC: 0.720508 cumulative IPC: 0.687156 (Simulation time: 3 hr 26 min 47 sec) 
Heartbeat CPU 0 instructions: 740000000 cycles: 1252267046 heartbeat IPC: 0.527247 cumulative IPC: 0.470402 (Simulation time: 3 hr 27 min 36 sec) 
Heartbeat CPU 3 instructions: 920000000 cycles: 1260998928 heartbeat IPC: 0.642773 cumulative IPC: 0.607882 (Simulation time: 3 hr 28 min 49 sec) 
Heartbeat CPU 1 instructions: 1050000001 cycles: 1261207646 heartbeat IPC: 0.687003 cumulative IPC: 0.687154 (Simulation time: 3 hr 28 min 51 sec) 
Heartbeat CPU 2 instructions: 780000000 cycles: 1261877713 heartbeat IPC: 0.500459 cumulative IPC: 0.50808 (Simulation time: 3 hr 28 min 56 sec) 
Heartbeat CPU 0 instructions: 750000001 cycles: 1270045616 heartbeat IPC: 0.562475 cumulative IPC: 0.471826 (Simulation time: 3 hr 30 min 4 sec) 
Heartbeat CPU 1 instructions: 1060000000 cycles: 1275344466 heartbeat IPC: 0.707373 cumulative IPC: 0.687401 (Simulation time: 3 hr 30 min 48 sec) 
Heartbeat CPU 3 instructions: 930000000 cycles: 1276990390 heartbeat IPC: 0.625334 cumulative IPC: 0.608123 (Simulation time: 3 hr 31 min 1 sec) 
Heartbeat CPU 2 instructions: 790000001 cycles: 1283622644 heartbeat IPC: 0.459877 cumulative IPC: 0.507179 (Simulation time: 3 hr 31 min 54 sec) 
Heartbeat CPU 0 instructions: 760000000 cycles: 1289171639 heartbeat IPC: 0.522848 cumulative IPC: 0.47266 (Simulation time: 3 hr 32 min 38 sec) 
Heartbeat CPU 1 instructions: 1070000002 cycles: 1292202002 heartbeat IPC: 0.593207 cumulative IPC: 0.686046 (Simulation time: 3 hr 33 min 4 sec) 
Heartbeat CPU 3 instructions: 940000000 cycles: 1292721278 heartbeat IPC: 0.635692 cumulative IPC: 0.608493 (Simulation time: 3 hr 33 min 9 sec) 
Heartbeat CPU 2 instructions: 800000000 cycles: 1303698463 heartbeat IPC: 0.498112 cumulative IPC: 0.507025 (Simulation time: 3 hr 34 min 48 sec) 
Heartbeat CPU 1 instructions: 1080000000 cycles: 1304609468 heartbeat IPC: 0.805966 cumulative IPC: 0.687303 (Simulation time: 3 hr 34 min 57 sec) 
Heartbeat CPU 0 instructions: 770000002 cycles: 1307779200 heartbeat IPC: 0.537416 cumulative IPC: 0.473675 (Simulation time: 3 hr 35 min 25 sec) 
Heartbeat CPU 3 instructions: 950000002 cycles: 1307814660 heartbeat IPC: 0.662542 cumulative IPC: 0.60918 (Simulation time: 3 hr 35 min 25 sec) 
Heartbeat CPU 1 instructions: 1090000002 cycles: 1317672169 heartbeat IPC: 0.765539 cumulative IPC: 0.688156 (Simulation time: 3 hr 36 min 54 sec) 
Heartbeat CPU 2 instructions: 810000001 cycles: 1321605700 heartbeat IPC: 0.558433 cumulative IPC: 0.507791 (Simulation time: 3 hr 37 min 29 sec) 
Heartbeat CPU 3 instructions: 960000000 cycles: 1323313098 heartbeat IPC: 0.645226 cumulative IPC: 0.609644 (Simulation time: 3 hr 37 min 45 sec) 
Heartbeat CPU 0 instructions: 780000000 cycles: 1326536566 heartbeat IPC: 0.533124 cumulative IPC: 0.4746 (Simulation time: 3 hr 38 min 14 sec) 
Heartbeat CPU 1 instructions: 1100000000 cycles: 1331029911 heartbeat IPC: 0.748629 cumulative IPC: 0.688823 (Simulation time: 3 hr 38 min 53 sec) 
Heartbeat CPU 3 instructions: 970000001 cycles: 1339278090 heartbeat IPC: 0.626371 cumulative IPC: 0.609863 (Simulation time: 3 hr 40 min 5 sec) 
Heartbeat CPU 2 instructions: 820000000 cycles: 1339969041 heartbeat IPC: 0.544563 cumulative IPC: 0.508345 (Simulation time: 3 hr 40 min 12 sec) 
Heartbeat CPU 1 instructions: 1110000003 cycles: 1343669182 heartbeat IPC: 0.791185 cumulative IPC: 0.689881 (Simulation time: 3 hr 40 min 46 sec) 
Heartbeat CPU 0 instructions: 790000000 cycles: 1344621934 heartbeat IPC: 0.552933 cumulative IPC: 0.475757 (Simulation time: 3 hr 40 min 54 sec) 
Heartbeat CPU 3 instructions: 980000000 cycles: 1355951432 heartbeat IPC: 0.59976 cumulative IPC: 0.609727 (Simulation time: 3 hr 42 min 35 sec) 
Heartbeat CPU 1 instructions: 1120000000 cycles: 1356073402 heartbeat IPC: 0.806177 cumulative IPC: 0.691048 (Simulation time: 3 hr 42 min 36 sec) 
Heartbeat CPU 2 instructions: 830000000 cycles: 1359284132 heartbeat IPC: 0.51773 cumulative IPC: 0.508491 (Simulation time: 3 hr 43 min 4 sec) 
Heartbeat CPU 0 instructions: 800000000 cycles: 1362517895 heartbeat IPC: 0.558785 cumulative IPC: 0.476953 (Simulation time: 3 hr 43 min 32 sec) 
Heartbeat CPU 1 instructions: 1130000002 cycles: 1368506003 heartbeat IPC: 0.804337 cumulative IPC: 0.692177 (Simulation time: 3 hr 44 min 25 sec) 
Heartbeat CPU 3 instructions: 990000000 cycles: 1374800680 heartbeat IPC: 0.530525 cumulative IPC: 0.608537 (Simulation time: 3 hr 45 min 16 sec) 
Heartbeat CPU 2 instructions: 840000000 cycles: 1377687819 heartbeat IPC: 0.543369 cumulative IPC: 0.509002 (Simulation time: 3 hr 45 min 40 sec) 
Heartbeat CPU 1 instructions: 1140000000 cycles: 1381128156 heartbeat IPC: 0.792258 cumulative IPC: 0.693179 (Simulation time: 3 hr 46 min 9 sec) 
Heartbeat CPU 0 instructions: 810000001 cycles: 1382053728 heartbeat IPC: 0.51188 cumulative IPC: 0.477494 (Simulation time: 3 hr 46 min 17 sec) 
Heartbeat CPU 3 instructions: 1000000000 cycles: 1392924531 heartbeat IPC: 0.551759 cumulative IPC: 0.607728 (Simulation time: 3 hr 47 min 53 sec) 
Heartbeat CPU 1 instructions: 1150000001 cycles: 1393683728 heartbeat IPC: 0.796459 cumulative IPC: 0.694197 (Simulation time: 3 hr 48 min 0 sec) 
Heartbeat CPU 2 instructions: 850000000 cycles: 1394736941 heartbeat IPC: 0.58654 cumulative IPC: 0.510039 (Simulation time: 3 hr 48 min 9 sec) 
Heartbeat CPU 0 instructions: 820000000 cycles: 1401994181 heartbeat IPC: 0.501493 cumulative IPC: 0.477867 (Simulation time: 3 hr 49 min 13 sec) 
Heartbeat CPU 1 instructions: 1160000000 cycles: 1406169659 heartbeat IPC: 0.800901 cumulative IPC: 0.695233 (Simulation time: 3 hr 49 min 51 sec) 
Heartbeat CPU 3 instructions: 1010000000 cycles: 1412016465 heartbeat IPC: 0.523781 cumulative IPC: 0.606488 (Simulation time: 3 hr 50 min 40 sec) 
Heartbeat CPU 2 instructions: 860000000 cycles: 1414334707 heartbeat IPC: 0.510262 cumulative IPC: 0.510042 (Simulation time: 3 hr 51 min 0 sec) 
Heartbeat CPU 1 instructions: 1170000002 cycles: 1418771085 heartbeat IPC: 0.793561 cumulative IPC: 0.696187 (Simulation time: 3 hr 51 min 40 sec) 
Heartbeat CPU 0 instructions: 830000000 cycles: 1419311709 heartbeat IPC: 0.57745 cumulative IPC: 0.479195 (Simulation time: 3 hr 51 min 45 sec) 
Heartbeat CPU 3 instructions: 1020000000 cycles: 1430182302 heartbeat IPC: 0.550484 cumulative IPC: 0.605711 (Simulation time: 3 hr 53 min 23 sec) 
Heartbeat CPU 1 instructions: 1180000000 cycles: 1433934175 heartbeat IPC: 0.659496 cumulative IPC: 0.695764 (Simulation time: 3 hr 53 min 52 sec) 
Heartbeat CPU 0 instructions: 840000000 cycles: 1435898075 heartbeat IPC: 0.602905 cumulative IPC: 0.480754 (Simulation time: 3 hr 54 min 7 sec) 
Heartbeat CPU 2 instructions: 870000002 cycles: 1438539230 heartbeat IPC: 0.413146 cumulative IPC: 0.508263 (Simulation time: 3 hr 54 min 28 sec) 
Heartbeat CPU 3 instructions: 1030000000 cycles: 1448712269 heartbeat IPC: 0.539666 cumulative IPC: 0.60479 (Simulation time: 3 hr 55 min 49 sec) 
Heartbeat CPU 1 instructions: 1190000001 cycles: 1449634305 heartbeat IPC: 0.636937 cumulative IPC: 0.695069 (Simulation time: 3 hr 55 min 57 sec) 
Heartbeat CPU 0 instructions: 850000002 cycles: 1455433820 heartbeat IPC: 0.511882 cumulative IPC: 0.48121 (Simulation time: 3 hr 56 min 45 sec) 
Heartbeat CPU 2 instructions: 880000000 cycles: 1465195189 heartbeat IPC: 0.375151 cumulative IPC: 0.505625 (Simulation time: 3 hr 58 min 2 sec) 
Heartbeat CPU 1 instructions: 1200000000 cycles: 1465609388 heartbeat IPC: 0.625975 cumulative IPC: 0.694249 (Simulation time: 3 hr 58 min 5 sec) 
Heartbeat CPU 3 instructions: 1040000000 cycles: 1466167470 heartbeat IPC: 0.572895 cumulative IPC: 0.604376 (Simulation time: 3 hr 58 min 10 sec) 
Heartbeat CPU 0 instructions: 860000000 cycles: 1472752810 heartbeat IPC: 0.577401 cumulative IPC: 0.482442 (Simulation time: 3 hr 59 min 1 sec) 
Heartbeat CPU 1 instructions: 1210000000 cycles: 1481526525 heartbeat IPC: 0.628254 cumulative IPC: 0.693477 (Simulation time: 4 hr 0 min 10 sec) 
Heartbeat CPU 3 instructions: 1050000002 cycles: 1483545292 heartbeat IPC: 0.575446 cumulative IPC: 0.604007 (Simulation time: 4 hr 0 min 25 sec) 
Heartbeat CPU 0 instructions: 870000001 cycles: 1491142977 heartbeat IPC: 0.543769 cumulative IPC: 0.483264 (Simulation time: 4 hr 1 min 22 sec) 
Heartbeat CPU 1 instructions: 1220000000 cycles: 1496170684 heartbeat IPC: 0.682866 cumulative IPC: 0.693364 (Simulation time: 4 hr 2 min 1 sec) 
Heartbeat CPU 2 instructions: 890000001 cycles: 1497120783 heartbeat IPC: 0.313228 cumulative IPC: 0.501164 (Simulation time: 4 hr 2 min 9 sec) 
Heartbeat CPU 3 instructions: 1060000000 cycles: 1501613307 heartbeat IPC: 0.553464 cumulative IPC: 0.603346 (Simulation time: 4 hr 2 min 45 sec) 
Heartbeat CPU 0 instructions: 880000000 cycles: 1509045420 heartbeat IPC: 0.558583 cumulative IPC: 0.484235 (Simulation time: 4 hr 3 min 45 sec) 
Heartbeat CPU 1 instructions: 1230000001 cycles: 1510293880 heartbeat IPC: 0.708055 cumulative IPC: 0.693513 (Simulation time: 4 hr 3 min 55 sec) 
Heartbeat CPU 3 instructions: 1070000002 cycles: 1518956637 heartbeat IPC: 0.576591 cumulative IPC: 0.603014 (Simulation time: 4 hr 5 min 6 sec) 
Heartbeat CPU 2 instructions: 900000000 cycles: 1519693690 heartbeat IPC: 0.443009 cumulative IPC: 0.500226 (Simulation time: 4 hr 5 min 12 sec) 
Heartbeat CPU 1 instructions: 1240000000 cycles: 1524324772 heartbeat IPC: 0.712713 cumulative IPC: 0.693705 (Simulation time: 4 hr 5 min 50 sec) 
Heartbeat CPU 0 instructions: 890000000 cycles: 1529256362 heartbeat IPC: 0.494781 cumulative IPC: 0.484387 (Simulation time: 4 hr 6 min 26 sec) 
Heartbeat CPU 3 instructions: 1080000000 cycles: 1536494728 heartbeat IPC: 0.570187 cumulative IPC: 0.602608 (Simulation time: 4 hr 7 min 17 sec) 
Heartbeat CPU 2 instructions: 910000000 cycles: 1542260984 heartbeat IPC: 0.443119 cumulative IPC: 0.499319 (Simulation time: 4 hr 7 min 55 sec) 
Heartbeat CPU 1 instructions: 1250000002 cycles: 1550483626 heartbeat IPC: 0.38228 cumulative IPC: 0.688009 (Simulation time: 4 hr 8 min 47 sec) 
Heartbeat CPU 0 instructions: 900000000 cycles: 1553817201 heartbeat IPC: 0.407152 cumulative IPC: 0.483063 (Simulation time: 4 hr 9 min 8 sec) 
Heartbeat CPU 3 instructions: 1090000001 cycles: 1554446533 heartbeat IPC: 0.557047 cumulative IPC: 0.602037 (Simulation time: 4 hr 9 min 12 sec) 
Heartbeat CPU 1 instructions: 1260000000 cycles: 1569620655 heartbeat IPC: 0.522547 cumulative IPC: 0.685824 (Simulation time: 4 hr 11 min 1 sec) 
Heartbeat CPU 3 instructions: 1100000000 cycles: 1570499958 heartbeat IPC: 0.62292 cumulative IPC: 0.602269 (Simulation time: 4 hr 11 min 8 sec) 
Heartbeat CPU 2 instructions: 920000000 cycles: 1572293077 heartbeat IPC: 0.332977 cumulative IPC: 0.495879 (Simulation time: 4 hr 11 min 22 sec) 
Heartbeat CPU 0 instructions: 910000001 cycles: 1573625182 heartbeat IPC: 0.504847 cumulative IPC: 0.48336 (Simulation time: 4 hr 11 min 32 sec) 
Finished CPU 1 instructions: 1000000001 cycles: 1460085579 cumulative IPC: 0.684891 (Simulation time: 4 hr 12 min 21 sec) 
Heartbeat CPU 3 instructions: 1110000002 cycles: 1585383577 heartbeat IPC: 0.67188 cumulative IPC: 0.602976 (Simulation time: 4 hr 12 min 57 sec) 
Heartbeat CPU 1 instructions: 1270000002 cycles: 1588372953 heartbeat IPC: 0.533268 cumulative IPC: 0.683875 (Simulation time: 4 hr 13 min 21 sec) 
Heartbeat CPU 0 instructions: 920000000 cycles: 1595179807 heartbeat IPC: 0.463938 cumulative IPC: 0.483076 (Simulation time: 4 hr 14 min 19 sec) 
Heartbeat CPU 3 instructions: 1120000000 cycles: 1600090669 heartbeat IPC: 0.679944 cumulative IPC: 0.603741 (Simulation time: 4 hr 15 min 0 sec) 
Heartbeat CPU 2 instructions: 930000001 cycles: 1601203464 heartbeat IPC: 0.345896 cumulative IPC: 0.492951 (Simulation time: 4 hr 15 min 9 sec) 
Heartbeat CPU 1 instructions: 1280000000 cycles: 1603085105 heartbeat IPC: 0.67971 cumulative IPC: 0.683834 (Simulation time: 4 hr 15 min 24 sec) 
Heartbeat CPU 0 instructions: 930000000 cycles: 1614082201 heartbeat IPC: 0.529034 cumulative IPC: 0.483658 (Simulation time: 4 hr 16 min 58 sec) 
Heartbeat CPU 3 instructions: 1130000002 cycles: 1614412298 heartbeat IPC: 0.698245 cumulative IPC: 0.604647 (Simulation time: 4 hr 17 min 1 sec) 
Heartbeat CPU 1 instructions: 1290000001 cycles: 1617689152 heartbeat IPC: 0.684742 cumulative IPC: 0.683843 (Simulation time: 4 hr 17 min 29 sec) 
Heartbeat CPU 3 instructions: 1140000000 cycles: 1628280449 heartbeat IPC: 0.721076 cumulative IPC: 0.605717 (Simulation time: 4 hr 18 min 58 sec) 
Heartbeat CPU 2 instructions: 940000000 cycles: 1630084860 heartbeat IPC: 0.346244 cumulative IPC: 0.490144 (Simulation time: 4 hr 19 min 14 sec) 
Heartbeat CPU 0 instructions: 940000000 cycles: 1630823702 heartbeat IPC: 0.597318 cumulative IPC: 0.484918 (Simulation time: 4 hr 19 min 20 sec) 
Heartbeat CPU 1 instructions: 1300000000 cycles: 1631860643 heartbeat IPC: 0.705642 cumulative IPC: 0.684047 (Simulation time: 4 hr 19 min 29 sec) 
Heartbeat CPU 3 instructions: 1150000000 cycles: 1642608178 heartbeat IPC: 0.697947 cumulative IPC: 0.606585 (Simulation time: 4 hr 20 min 59 sec) 
Heartbeat CPU 1 instructions: 1310000001 cycles: 1646093454 heartbeat IPC: 0.702602 cumulative IPC: 0.68422 (Simulation time: 4 hr 21 min 30 sec) 
Heartbeat CPU 0 instructions: 950000000 cycles: 1650568599 heartbeat IPC: 0.50646 cumulative IPC: 0.485196 (Simulation time: 4 hr 22 min 9 sec) 
Heartbeat CPU 2 instructions: 950000002 cycles: 1654041098 heartbeat IPC: 0.417428 cumulative IPC: 0.489008 (Simulation time: 4 hr 22 min 40 sec) 
Heartbeat CPU 3 instructions: 1160000000 cycles: 1655845637 heartbeat IPC: 0.755432 cumulative IPC: 0.607869 (Simulation time: 4 hr 22 min 56 sec) 
Heartbeat CPU 1 instructions: 1320000000 cycles: 1660138902 heartbeat IPC: 0.711974 cumulative IPC: 0.684474 (Simulation time: 4 hr 23 min 34 sec) 
Heartbeat CPU 3 instructions: 1170000002 cycles: 1668770661 heartbeat IPC: 0.773693 cumulative IPC: 0.609253 (Simulation time: 4 hr 24 min 50 sec) 
Heartbeat CPU 0 instructions: 960000000 cycles: 1669662015 heartbeat IPC: 0.523741 cumulative IPC: 0.485671 (Simulation time: 4 hr 24 min 58 sec) 
Heartbeat CPU 1 instructions: 1330000001 cycles: 1674132811 heartbeat IPC: 0.714597 cumulative IPC: 0.684745 (Simulation time: 4 hr 25 min 39 sec) 
Heartbeat CPU 2 instructions: 960000000 cycles: 1675597633 heartbeat IPC: 0.463896 cumulative IPC: 0.48866 (Simulation time: 4 hr 25 min 53 sec) 
Heartbeat CPU 3 instructions: 1180000000 cycles: 1684262008 heartbeat IPC: 0.645522 cumulative IPC: 0.609612 (Simulation time: 4 hr 27 min 13 sec) 
Heartbeat CPU 0 instructions: 970000001 cycles: 1688112479 heartbeat IPC: 0.541992 cumulative IPC: 0.486334 (Simulation time: 4 hr 27 min 48 sec) 
Heartbeat CPU 1 instructions: 1340000000 cycles: 1688212211 heartbeat IPC: 0.710257 cumulative IPC: 0.684974 (Simulation time: 4 hr 27 min 49 sec) 
Heartbeat CPU 2 instructions: 970000000 cycles: 1700442803 heartbeat IPC: 0.402493 cumulative IPC: 0.487305 (Simulation time: 4 hr 29 min 30 sec) 
Heartbeat CPU 3 instructions: 1190000003 cycles: 1701747976 heartbeat IPC: 0.571887 cumulative IPC: 0.609195 (Simulation time: 4 hr 29 min 42 sec) 
Heartbeat CPU 1 instructions: 1350000002 cycles: 1702427918 heartbeat IPC: 0.703447 cumulative IPC: 0.68514 (Simulation time: 4 hr 29 min 47 sec) 
Heartbeat CPU 0 instructions: 980000000 cycles: 1707360310 heartbeat IPC: 0.519539 cumulative IPC: 0.486736 (Simulation time: 4 hr 30 min 28 sec) 
Heartbeat CPU 1 instructions: 1360000000 cycles: 1717206711 heartbeat IPC: 0.676645 cumulative IPC: 0.685061 (Simulation time: 4 hr 31 min 49 sec) 
Heartbeat CPU 3 instructions: 1200000000 cycles: 1719306226 heartbeat IPC: 0.569533 cumulative IPC: 0.608759 (Simulation time: 4 hr 32 min 6 sec) 
Heartbeat CPU 0 instructions: 990000000 cycles: 1724456930 heartbeat IPC: 0.584911 cumulative IPC: 0.487783 (Simulation time: 4 hr 32 min 47 sec) 
Heartbeat CPU 2 instructions: 980000000 cycles: 1729263234 heartbeat IPC: 0.346976 cumulative IPC: 0.484792 (Simulation time: 4 hr 33 min 22 sec) 
Heartbeat CPU 1 instructions: 1370000000 cycles: 1731600018 heartbeat IPC: 0.694767 cumulative IPC: 0.685148 (Simulation time: 4 hr 33 min 40 sec) 
Heartbeat CPU 3 instructions: 1210000001 cycles: 1736895560 heartbeat IPC: 0.568526 cumulative IPC: 0.608322 (Simulation time: 4 hr 34 min 22 sec) 
Heartbeat CPU 0 instructions: 1000000000 cycles: 1744320450 heartbeat IPC: 0.503435 cumulative IPC: 0.487974 (Simulation time: 4 hr 35 min 16 sec) 
Heartbeat CPU 1 instructions: 1380000000 cycles: 1749389868 heartbeat IPC: 0.562118 cumulative IPC: 0.683804 (Simulation time: 4 hr 35 min 53 sec) 
Heartbeat CPU 3 instructions: 1220000000 cycles: 1754692451 heartbeat IPC: 0.561896 cumulative IPC: 0.607816 (Simulation time: 4 hr 36 min 34 sec) 
Heartbeat CPU 2 instructions: 990000001 cycles: 1759158871 heartbeat IPC: 0.334497 cumulative IPC: 0.48205 (Simulation time: 4 hr 37 min 9 sec) 
Heartbeat CPU 0 instructions: 1010000000 cycles: 1760710268 heartbeat IPC: 0.610135 cumulative IPC: 0.489195 (Simulation time: 4 hr 37 min 21 sec) 
Heartbeat CPU 1 instructions: 1390000003 cycles: 1765809146 heartbeat IPC: 0.60904 cumulative IPC: 0.683058 (Simulation time: 4 hr 38 min 1 sec) 
Finished CPU 3 instructions: 1000000003 cycles: 1645924631 cumulative IPC: 0.607561 (Simulation time: 4 hr 38 min 4 sec) 
Heartbeat CPU 3 instructions: 1230000000 cycles: 1772109058 heartbeat IPC: 0.574165 cumulative IPC: 0.607461 (Simulation time: 4 hr 38 min 51 sec) 
Heartbeat CPU 0 instructions: 1020000000 cycles: 1778404637 heartbeat IPC: 0.565152 cumulative IPC: 0.490005 (Simulation time: 4 hr 39 min 44 sec) 
Heartbeat CPU 2 instructions: 1000000000 cycles: 1783524529 heartbeat IPC: 0.410414 cumulative IPC: 0.481001 (Simulation time: 4 hr 40 min 26 sec) 
Heartbeat CPU 1 instructions: 1400000000 cycles: 1786475455 heartbeat IPC: 0.483879 cumulative IPC: 0.680588 (Simulation time: 4 hr 40 min 50 sec) 
Heartbeat CPU 3 instructions: 1240000000 cycles: 1790427183 heartbeat IPC: 0.545907 cumulative IPC: 0.606786 (Simulation time: 4 hr 41 min 23 sec) 
Heartbeat CPU 0 instructions: 1030000001 cycles: 1797725726 heartbeat IPC: 0.517569 cumulative IPC: 0.490323 (Simulation time: 4 hr 42 min 21 sec) 
Heartbeat CPU 2 instructions: 1010000003 cycles: 1803549750 heartbeat IPC: 0.49937 cumulative IPC: 0.481219 (Simulation time: 4 hr 43 min 8 sec) 
Heartbeat CPU 3 instructions: 1250000000 cycles: 1807860779 heartbeat IPC: 0.573605 cumulative IPC: 0.606443 (Simulation time: 4 hr 43 min 42 sec) 
Heartbeat CPU 1 instructions: 1410000001 cycles: 1809633285 heartbeat IPC: 0.431819 cumulative IPC: 0.677178 (Simulation time: 4 hr 43 min 57 sec) 
Heartbeat CPU 0 instructions: 1040000000 cycles: 1817544945 heartbeat IPC: 0.504561 cumulative IPC: 0.490489 (Simulation time: 4 hr 45 min 5 sec) 
Heartbeat CPU 1 instructions: 1420000000 cycles: 1819703513 heartbeat IPC: 0.993026 cumulative IPC: 0.679049 (Simulation time: 4 hr 45 min 27 sec) 
Heartbeat CPU 3 instructions: 1260000000 cycles: 1822441546 heartbeat IPC: 0.685835 cumulative IPC: 0.607123 (Simulation time: 4 hr 45 min 51 sec) 
Heartbeat CPU 2 instructions: 1020000000 cycles: 1823631930 heartbeat IPC: 0.497954 cumulative IPC: 0.481416 (Simulation time: 4 hr 46 min 3 sec) 
Heartbeat CPU 1 instructions: 1430000002 cycles: 1828825683 heartbeat IPC: 1.09623 cumulative IPC: 0.681277 (Simulation time: 4 hr 46 min 55 sec) 
Heartbeat CPU 3 instructions: 1270000003 cycles: 1837367054 heartbeat IPC: 0.669994 cumulative IPC: 0.60767 (Simulation time: 4 hr 48 min 17 sec) 
Heartbeat CPU 1 instructions: 1440000000 cycles: 1837758563 heartbeat IPC: 1.11946 cumulative IPC: 0.683556 (Simulation time: 4 hr 48 min 21 sec) 
Heartbeat CPU 0 instructions: 1050000000 cycles: 1837764544 heartbeat IPC: 0.49457 cumulative IPC: 0.490537 (Simulation time: 4 hr 48 min 21 sec) 
Heartbeat CPU 2 instructions: 1030000002 cycles: 1843747091 heartbeat IPC: 0.497138 cumulative IPC: 0.4816 (Simulation time: 4 hr 49 min 21 sec) 
Heartbeat CPU 1 instructions: 1450000001 cycles: 1845208092 heartbeat IPC: 1.34237 cumulative IPC: 0.686401 (Simulation time: 4 hr 49 min 36 sec) 
Heartbeat CPU 3 instructions: 1280000000 cycles: 1851810376 heartbeat IPC: 0.692361 cumulative IPC: 0.608376 (Simulation time: 4 hr 50 min 40 sec) 
Heartbeat CPU 1 instructions: 1460000000 cycles: 1852874530 heartbeat IPC: 1.30439 cumulative IPC: 0.689136 (Simulation time: 4 hr 50 min 50 sec) 
Heartbeat CPU 1 instructions: 1470000000 cycles: 1860962918 heartbeat IPC: 1.23634 cumulative IPC: 0.691679 (Simulation time: 4 hr 52 min 7 sec) 
Heartbeat CPU 2 instructions: 1040000000 cycles: 1864206134 heartbeat IPC: 0.488781 cumulative IPC: 0.481684 (Simulation time: 4 hr 52 min 37 sec) 
Heartbeat CPU 0 instructions: 1060000000 cycles: 1865505404 heartbeat IPC: 0.360479 cumulative IPC: 0.48847 (Simulation time: 4 hr 52 min 48 sec) 
Heartbeat CPU 3 instructions: 1290000001 cycles: 1865891321 heartbeat IPC: 0.71018 cumulative IPC: 0.609198 (Simulation time: 4 hr 52 min 52 sec) 
Heartbeat CPU 1 instructions: 1480000000 cycles: 1869500340 heartbeat IPC: 1.17131 cumulative IPC: 0.694019 (Simulation time: 4 hr 53 min 26 sec) 
Heartbeat CPU 1 instructions: 1490000002 cycles: 1877739537 heartbeat IPC: 1.21371 cumulative IPC: 0.696456 (Simulation time: 4 hr 54 min 46 sec) 
Heartbeat CPU 3 instructions: 1300000000 cycles: 1879901772 heartbeat IPC: 0.713753 cumulative IPC: 0.61003 (Simulation time: 4 hr 55 min 4 sec) 
Heartbeat CPU 0 instructions: 1070000001 cycles: 1887760925 heartbeat IPC: 0.449327 cumulative IPC: 0.487977 (Simulation time: 4 hr 56 min 5 sec) 
Heartbeat CPU 2 instructions: 1050000001 cycles: 1888480109 heartbeat IPC: 0.411964 cumulative IPC: 0.480727 (Simulation time: 4 hr 56 min 11 sec) 
Heartbeat CPU 1 instructions: 1500000000 cycles: 1892612693 heartbeat IPC: 0.672352 cumulative IPC: 0.696254 (Simulation time: 4 hr 56 min 43 sec) 
Heartbeat CPU 3 instructions: 1310000001 cycles: 1894207877 heartbeat IPC: 0.699002 cumulative IPC: 0.610748 (Simulation time: 4 hr 56 min 56 sec) 
Heartbeat CPU 1 instructions: 1510000001 cycles: 1901608392 heartbeat IPC: 1.11164 cumulative IPC: 0.698351 (Simulation time: 4 hr 58 min 0 sec) 
Heartbeat CPU 3 instructions: 1320000000 cycles: 1907619148 heartbeat IPC: 0.745641 cumulative IPC: 0.61176 (Simulation time: 4 hr 58 min 56 sec) 
Heartbeat CPU 1 instructions: 1520000000 cycles: 1909678292 heartbeat IPC: 1.23917 cumulative IPC: 0.700791 (Simulation time: 4 hr 59 min 15 sec) 
Heartbeat CPU 0 instructions: 1080000000 cycles: 1913067533 heartbeat IPC: 0.395154 cumulative IPC: 0.486666 (Simulation time: 4 hr 59 min 43 sec) 
Heartbeat CPU 1 instructions: 1530000000 cycles: 1918286521 heartbeat IPC: 1.16168 cumulative IPC: 0.702997 (Simulation time: 5 hr 0 min 27 sec) 
Heartbeat CPU 2 instructions: 1060000000 cycles: 1918951673 heartbeat IPC: 0.328175 cumulative IPC: 0.478143 (Simulation time: 5 hr 0 min 33 sec) 
Heartbeat CPU 3 instructions: 1330000002 cycles: 1922151295 heartbeat IPC: 0.68813 cumulative IPC: 0.612376 (Simulation time: 5 hr 1 min 1 sec) 
Heartbeat CPU 1 instructions: 1540000000 cycles: 1927380276 heartbeat IPC: 1.09966 cumulative IPC: 0.704993 (Simulation time: 5 hr 1 min 47 sec) 
Heartbeat CPU 1 instructions: 1550000002 cycles: 1936572490 heartbeat IPC: 1.08788 cumulative IPC: 0.706931 (Simulation time: 5 hr 3 min 3 sec) 
Heartbeat CPU 3 instructions: 1340000000 cycles: 1938433607 heartbeat IPC: 0.614163 cumulative IPC: 0.612392 (Simulation time: 5 hr 3 min 18 sec) 
Heartbeat CPU 0 instructions: 1090000002 cycles: 1943330320 heartbeat IPC: 0.330439 cumulative IPC: 0.484073 (Simulation time: 5 hr 3 min 58 sec) 
Heartbeat CPU 1 instructions: 1560000000 cycles: 1946275772 heartbeat IPC: 1.03058 cumulative IPC: 0.708651 (Simulation time: 5 hr 4 min 20 sec) 
Heartbeat CPU 2 instructions: 1070000001 cycles: 1946984221 heartbeat IPC: 0.356728 cumulative IPC: 0.476279 (Simulation time: 5 hr 4 min 26 sec) 
Heartbeat CPU 3 instructions: 1350000001 cycles: 1956116784 heartbeat IPC: 0.565509 cumulative IPC: 0.61194 (Simulation time: 5 hr 5 min 41 sec) 
Heartbeat CPU 1 instructions: 1570000003 cycles: 1956295737 heartbeat IPC: 0.998008 cumulative IPC: 0.71023 (Simulation time: 5 hr 5 min 43 sec) 
Heartbeat CPU 1 instructions: 1580000000 cycles: 1965291733 heartbeat IPC: 1.11161 cumulative IPC: 0.712187 (Simulation time: 5 hr 7 min 1 sec) 
Heartbeat CPU 0 instructions: 1100000000 cycles: 1967586195 heartbeat IPC: 0.412271 cumulative IPC: 0.48313 (Simulation time: 5 hr 7 min 20 sec) 
Heartbeat CPU 2 instructions: 1080000000 cycles: 1970596188 heartbeat IPC: 0.423514 cumulative IPC: 0.475606 (Simulation time: 5 hr 7 min 44 sec) 
Heartbeat CPU 3 instructions: 1360000000 cycles: 1973763672 heartbeat IPC: 0.566672 cumulative IPC: 0.611509 (Simulation time: 5 hr 8 min 9 sec) 
Heartbeat CPU 1 instructions: 1590000002 cycles: 1979279071 heartbeat IPC: 0.714932 cumulative IPC: 0.712208 (Simulation time: 5 hr 8 min 53 sec) 
Heartbeat CPU 0 instructions: 1110000001 cycles: 1988310064 heartbeat IPC: 0.482535 cumulative IPC: 0.483124 (Simulation time: 5 hr 10 min 12 sec) 
Heartbeat CPU 1 instructions: 1600000000 cycles: 1988832991 heartbeat IPC: 1.04669 cumulative IPC: 0.713918 (Simulation time: 5 hr 10 min 17 sec) 
Heartbeat CPU 2 instructions: 1090000000 cycles: 1990658533 heartbeat IPC: 0.498446 cumulative IPC: 0.475851 (Simulation time: 5 hr 10 min 34 sec) 
Heartbeat CPU 3 instructions: 1370000000 cycles: 1991774067 heartbeat IPC: 0.555235 cumulative IPC: 0.610968 (Simulation time: 5 hr 10 min 45 sec) 
Heartbeat CPU 1 instructions: 1610000002 cycles: 1997978765 heartbeat IPC: 1.0934 cumulative IPC: 0.715767 (Simulation time: 5 hr 11 min 42 sec) 
Heartbeat CPU 1 instructions: 1620000000 cycles: 2007350320 heartbeat IPC: 1.06706 cumulative IPC: 0.717511 (Simulation time: 5 hr 13 min 7 sec) 
Heartbeat CPU 0 instructions: 1120000000 cycles: 2009043625 heartbeat IPC: 0.48231 cumulative IPC: 0.483115 (Simulation time: 5 hr 13 min 23 sec) 
Heartbeat CPU 3 instructions: 1380000000 cycles: 2009344655 heartbeat IPC: 0.569133 cumulative IPC: 0.610578 (Simulation time: 5 hr 13 min 25 sec) 
Heartbeat CPU 2 instructions: 1100000000 cycles: 2011054063 heartbeat IPC: 0.490304 cumulative IPC: 0.476007 (Simulation time: 5 hr 13 min 41 sec) 
Heartbeat CPU 1 instructions: 1630000000 cycles: 2015045825 heartbeat IPC: 1.29946 cumulative IPC: 0.719875 (Simulation time: 5 hr 14 min 20 sec) 
Heartbeat CPU 1 instructions: 1640000000 cycles: 2022543190 heartbeat IPC: 1.3338 cumulative IPC: 0.722295 (Simulation time: 5 hr 15 min 32 sec) 
Heartbeat CPU 3 instructions: 1390000003 cycles: 2026946351 heartbeat IPC: 0.568127 cumulative IPC: 0.610187 (Simulation time: 5 hr 16 min 14 sec) 
Heartbeat CPU 0 instructions: 1130000000 cycles: 2029914686 heartbeat IPC: 0.479132 cumulative IPC: 0.483071 (Simulation time: 5 hr 16 min 41 sec) 
Heartbeat CPU 1 instructions: 1650000001 cycles: 2030144061 heartbeat IPC: 1.31564 cumulative IPC: 0.724656 (Simulation time: 5 hr 16 min 43 sec) 
Heartbeat CPU 2 instructions: 1110000000 cycles: 2031321300 heartbeat IPC: 0.493407 cumulative IPC: 0.476191 (Simulation time: 5 hr 16 min 52 sec) 
Heartbeat CPU 1 instructions: 1660000000 cycles: 2038358176 heartbeat IPC: 1.21742 cumulative IPC: 0.726766 (Simulation time: 5 hr 17 min 47 sec) 
Heartbeat CPU 3 instructions: 1400000000 cycles: 2044726848 heartbeat IPC: 0.562414 cumulative IPC: 0.609745 (Simulation time: 5 hr 18 min 39 sec) 
Heartbeat CPU 1 instructions: 1670000001 cycles: 2046655199 heartbeat IPC: 1.20525 cumulative IPC: 0.728827 (Simulation time: 5 hr 18 min 52 sec) 
Heartbeat CPU 0 instructions: 1140000000 cycles: 2055954957 heartbeat IPC: 0.384021 cumulative IPC: 0.481739 (Simulation time: 5 hr 19 min 59 sec) 
Heartbeat CPU 2 instructions: 1120000000 cycles: 2060333910 heartbeat IPC: 0.344678 cumulative IPC: 0.474225 (Simulation time: 5 hr 20 min 32 sec) 
Heartbeat CPU 3 instructions: 1410000002 cycles: 2060796813 heartbeat IPC: 0.622279 cumulative IPC: 0.609849 (Simulation time: 5 hr 20 min 36 sec) 
Heartbeat CPU 1 instructions: 1680000000 cycles: 2060840516 heartbeat IPC: 0.704954 cumulative IPC: 0.728653 (Simulation time: 5 hr 20 min 36 sec) 
Heartbeat CPU 1 instructions: 1690000002 cycles: 2070398696 heartbeat IPC: 1.04622 cumulative IPC: 0.730209 (Simulation time: 5 hr 21 min 55 sec) 
Heartbeat CPU 3 instructions: 1420000000 cycles: 2076149706 heartbeat IPC: 0.651343 cumulative IPC: 0.610175 (Simulation time: 5 hr 22 min 51 sec) 
Heartbeat CPU 1 instructions: 1700000000 cycles: 2078180841 heartbeat IPC: 1.28499 cumulative IPC: 0.732414 (Simulation time: 5 hr 23 min 8 sec) 
Heartbeat CPU 0 instructions: 1150000003 cycles: 2084007010 heartbeat IPC: 0.35648 cumulative IPC: 0.479949 (Simulation time: 5 hr 24 min 1 sec) 
Heartbeat CPU 1 instructions: 1710000002 cycles: 2086377021 heartbeat IPC: 1.22008 cumulative IPC: 0.734447 (Simulation time: 5 hr 24 min 21 sec) 
[...]
Heartbeat CPU 0 instructions: 1160000000 cycles: 2110972562 heartbeat IPC: 0.370843 cumulative IPC: 0.478471 (Simulation time: 5 hr 27 min 59 sec) 
Heartbeat CPU 1 instructions: 1740000000 cycles: 2114009238 heartbeat IPC: 1.07269 cumulative IPC: 0.739316 (Simulation time: 5 hr 28 min 27 sec) 
Heartbeat CPU 2 instructions: 1140000000 cycles: 2116468190 heartbeat IPC: 0.371541 cumulative IPC: 0.470908 (Simulation time: 5 hr 28 min 50 sec) 
Heartbeat CPU 3 instructions: 1450000001 cycles: 2119395966 heartbeat IPC: 0.707887 cumulative IPC: 0.611982 (Simulation time: 5 hr 29 min 17 sec) 
Heartbeat CPU 1 instructions: 1750000003 cycles: 2123262611 heartbeat IPC: 1.08069 cumulative IPC: 0.740893 (Simulation time: 5 hr 29 min 53 sec) 
Heartbeat CPU 1 instructions: 1760000000 cycles: 2131501730 heartbeat IPC: 1.21372 cumulative IPC: 0.74283 (Simulation time: 5 hr 31 min 9 sec) 
Heartbeat CPU 3 instructions: 1460000000 cycles: 2133668942 heartbeat IPC: 0.700625 cumulative IPC: 0.61261 (Simulation time: 5 hr 31 min 27 sec) 
Heartbeat CPU 0 instructions: 1170000002 cycles: 2136404287 heartbeat IPC: 0.39321 cumulative IPC: 0.477396 (Simulation time: 5 hr 31 min 50 sec) 
Heartbeat CPU 2 instructions: 1150000001 cycles: 2137078165 heartbeat IPC: 0.485202 cumulative IPC: 0.471054 (Simulation time: 5 hr 31 min 55 sec) 
Heartbeat CPU 1 instructions: 1770000002 cycles: 2145557985 heartbeat IPC: 0.711427 cumulative IPC: 0.742612 (Simulation time: 5 hr 33 min 2 sec) 
Heartbeat CPU 3 instructions: 1470000001 cycles: 2147289359 heartbeat IPC: 0.734192 cumulative IPC: 0.613427 (Simulation time: 5 hr 33 min 17 sec) 
Heartbeat CPU 1 instructions: 1780000000 cycles: 2156206384 heartbeat IPC: 0.939108 cumulative IPC: 0.74364 (Simulation time: 5 hr 34 min 36 sec) 
Heartbeat CPU 2 instructions: 1160000000 cycles: 2158053473 heartbeat IPC: 0.476751 cumulative IPC: 0.471113 (Simulation time: 5 hr 34 min 53 sec) 
Heartbeat CPU 3 instructions: 1480000000 cycles: 2160273393 heartbeat IPC: 0.770177 cumulative IPC: 0.614425 (Simulation time: 5 hr 35 min 13 sec) 
Heartbeat CPU 1 instructions: 1790000001 cycles: 2165590134 heartbeat IPC: 1.06567 cumulative IPC: 0.745117 (Simulation time: 5 hr 36 min 4 sec) 
Heartbeat CPU 0 instructions: 1180000000 cycles: 2165704636 heartbeat IPC: 0.341293 cumulative IPC: 0.475446 (Simulation time: 5 hr 36 min 5 sec) 
Heartbeat CPU 1 instructions: 1800000000 cycles: 2175007351 heartbeat IPC: 1.06188 cumulative IPC: 0.746569 (Simulation time: 5 hr 37 min 29 sec) 
Heartbeat CPU 3 instructions: 1490000000 cycles: 2175791252 heartbeat IPC: 0.644419 cumulative IPC: 0.614651 (Simulation time: 5 hr 37 min 36 sec) 
Heartbeat CPU 2 instructions: 1170000000 cycles: 2181880150 heartbeat IPC: 0.419698 cumulative IPC: 0.470519 (Simulation time: 5 hr 38 min 30 sec) 
Heartbeat CPU 1 instructions: 1810000002 cycles: 2183311121 heartbeat IPC: 1.20427 cumulative IPC: 0.748411 (Simulation time: 5 hr 38 min 42 sec) 
Heartbeat CPU 0 instructions: 1190000001 cycles: 2185546331 heartbeat IPC: 0.503989 cumulative IPC: 0.47572 (Simulation time: 5 hr 39 min 2 sec) 
Heartbeat CPU 1 instructions: 1820000000 cycles: 2191104475 heartbeat IPC: 1.28314 cumulative IPC: 0.750424 (Simulation time: 5 hr 39 min 51 sec) 
Heartbeat CPU 3 instructions: 1500000000 cycles: 2193052766 heartbeat IPC: 0.579323 cumulative IPC: 0.614357 (Simulation time: 5 hr 40 min 8 sec) 
Heartbeat CPU 1 instructions: 1830000002 cycles: 2198988037 heartbeat IPC: 1.26846 cumulative IPC: 0.752388 (Simulation time: 5 hr 41 min 0 sec) 
Heartbeat CPU 0 instructions: 1200000000 cycles: 2205690792 heartbeat IPC: 0.496414 cumulative IPC: 0.47592 (Simulation time: 5 hr 41 min 57 sec) 
Heartbeat CPU 1 instructions: 1840000000 cycles: 2207066140 heartbeat IPC: 1.23791 cumulative IPC: 0.754268 (Simulation time: 5 hr 42 min 9 sec) 
Heartbeat CPU 2 instructions: 1180000000 cycles: 2210504143 heartbeat IPC: 0.349357 cumulative IPC: 0.468859 (Simulation time: 5 hr 42 min 38 sec) 
Heartbeat CPU 3 instructions: 1510000000 cycles: 2210617758 heartbeat IPC: 0.569314 cumulative IPC: 0.613978 (Simulation time: 5 hr 42 min 39 sec) 
Heartbeat CPU 1 instructions: 1850000002 cycles: 2214776139 heartbeat IPC: 1.29702 cumulative IPC: 0.756266 (Simulation time: 5 hr 43 min 14 sec) 
Finished CPU 0 instructions: 1000000002 cycles: 2100762233 cumulative IPC: 0.476018 (Simulation time: 5 hr 44 min 0 sec) 
Heartbeat CPU 0 instructions: 1210000002 cycles: 2226117809 heartbeat IPC: 0.489548 cumulative IPC: 0.476052 (Simulation time: 5 hr 44 min 35 sec) 
Heartbeat CPU 1 instructions: 1860000000 cycles: 2228299249 heartbeat IPC: 0.739475 cumulative IPC: 0.756158 (Simulation time: 5 hr 44 min 51 sec) 
Heartbeat CPU 3 instructions: 1520000000 cycles: 2228417807 heartbeat IPC: 0.561796 cumulative IPC: 0.613538 (Simulation time: 5 hr 44 min 52 sec) 
Heartbeat CPU 1 instructions: 1870000000 cycles: 2238591793 heartbeat IPC: 0.971577 cumulative IPC: 0.757205 (Simulation time: 5 hr 46 min 10 sec) 
Heartbeat CPU 2 instructions: 1190000001 cycles: 2241447589 heartbeat IPC: 0.32317 cumulative IPC: 0.466734 (Simulation time: 5 hr 46 min 34 sec) 
Heartbeat CPU 3 instructions: 1530000003 cycles: 2246323418 heartbeat IPC: 0.558484 cumulative IPC: 0.613074 (Simulation time: 5 hr 47 min 15 sec) 
Heartbeat CPU 1 instructions: 1880000000 cycles: 2246601374 heartbeat IPC: 1.2485 cumulative IPC: 0.759055 (Simulation time: 5 hr 47 min 17 sec) 
Heartbeat CPU 0 instructions: 1220000000 cycles: 2248933931 heartbeat IPC: 0.438286 cumulative IPC: 0.475648 (Simulation time: 5 hr 47 min 37 sec) 
Heartbeat CPU 1 instructions: 1890000001 cycles: 2254636925 heartbeat IPC: 1.24447 cumulative IPC: 0.760883 (Simulation time: 5 hr 48 min 26 sec) 
Heartbeat CPU 2 instructions: 1200000000 cycles: 2261759687 heartbeat IPC: 0.492317 cumulative IPC: 0.466977 (Simulation time: 5 hr 49 min 25 sec) 
Finished CPU 2 instructions: 1000000001 cycles: 2141434821 cumulative IPC: 0.466977 (Simulation time: 5 hr 49 min 25 sec) 

CPU 0 Branch Prediction Accuracy: 97.705% MPKI: 4.23301

CPU 1 Branch Prediction Accuracy: 99.2088% MPKI: 0.361473

CPU 2 Branch Prediction Accuracy: 97.5372% MPKI: 4.57724

CPU 3 Branch Prediction Accuracy: 98.3873% MPKI: 1.91386

ChampSim completed all CPUs

Total Simulation Statistics (not including warmup)

CPU 0 cumulative IPC: 0.47489 instructions: 1016946053 cycles: 2141434821
L1D TOTAL     ACCESS:  329745540  HIT:  326615619  MISS:    3129921
L1D LOAD      ACCESS:  186196393  HIT:  183351949  MISS:    2844444
L1D RFO       ACCESS:  143549147  HIT:  143263670  MISS:     285477
L1D PREFETCH  ACCESS:          0  HIT:          0  MISS:          0
L1D WRITEBACK ACCESS:          0  HIT:          0  MISS:          0
L1I TOTAL     ACCESS:  305316687  HIT:  303206814  MISS:    2109873
L1I LOAD      ACCESS:  305316687  HIT:  303206814  MISS:    2109873
L1I RFO       ACCESS:          0  HIT:          0  MISS:          0
L1I PREFETCH  ACCESS:          0  HIT:          0  MISS:          0
L1I WRITEBACK ACCESS:          0  HIT:          0  MISS:          0
L2C TOTAL     ACCESS:    6049898  HIT:    4933195  MISS:    1116703
L2C LOAD      ACCESS:    4954192  HIT:    3931933  MISS:    1022259
L2C RFO       ACCESS:     285464  HIT:     196892  MISS:      88572
L2C PREFETCH  ACCESS:          0  HIT:          0  MISS:          0
L2C WRITEBACK ACCESS:     810242  HIT:     804370  MISS:       5872
LLC TOTAL     ACCESS:    1343337  HIT:     696818  MISS:     646519
LLC LOAD      ACCESS:    1022257  HIT:     440410  MISS:     581847
LLC RFO       ACCESS:      88570  HIT:      40092  MISS:      48478
LLC PREFETCH  ACCESS:          0  HIT:          0  MISS:          0
LLC WRITEBACK ACCESS:     232510  HIT:     216316  MISS:      16194

CPU 1 cumulative IPC: 0.762409 instructions: 1632649073 cycles: 2141434821
L1D TOTAL     ACCESS:  430946871  HIT:  413737161  MISS:   17209710
L1D LOAD      ACCESS:  338240324  HIT:  323504642  MISS:   14735682
L1D RFO       ACCESS:   92706547  HIT:   90232519  MISS:    2474028
L1D PREFETCH  ACCESS:          0  HIT:          0  MISS:          0
L1D WRITEBACK ACCESS:          0  HIT:          0  MISS:          0
L1I TOTAL     ACCESS:  383151717  HIT:  383147701  MISS:       4016
L1I LOAD      ACCESS:  383151717  HIT:  383147701  MISS:       4016
L1I RFO       ACCESS:          0  HIT:          0  MISS:          0
L1I PREFETCH  ACCESS:          0  HIT:          0  MISS:          0
L1I WRITEBACK ACCESS:          0  HIT:          0  MISS:          0
L2C TOTAL     ACCESS:   22723091  HIT:   11344265  MISS:   11378826
L2C LOAD      ACCESS:   14739678  HIT:    4675477  MISS:   10064201
L2C RFO       ACCESS:    2474027  HIT:    1162875  MISS:    1311152
L2C PREFETCH  ACCESS:          0  HIT:          0  MISS:          0
L2C WRITEBACK ACCESS:    5509386  HIT:    5505913  MISS:       3473
LLC TOTAL     ACCESS:   15123395  HIT:    5794927  MISS:    9328468
LLC LOAD      ACCESS:   10064197  HIT:    1775489  MISS:    8288708
LLC RFO       ACCESS:    1311150  HIT:     278767  MISS:    1032383
LLC PREFETCH  ACCESS:          0  HIT:          0  MISS:          0
LLC WRITEBACK ACCESS:    3748048  HIT:    3740671  MISS:       7377

CPU 2 cumulative IPC: 0.466977 instructions: 1000000001 cycles: 2141434821
L1D TOTAL     ACCESS:  323724837  HIT:  321138184  MISS:    2586653
L1D LOAD      ACCESS:  182757384  HIT:  180403863  MISS:    2353521
L1D RFO       ACCESS:  140967453  HIT:  140734321  MISS:     233132
L1D PREFETCH  ACCESS:          0  HIT:          0  MISS:          0
L1D WRITEBACK ACCESS:          0  HIT:          0  MISS:          0
L1I TOTAL     ACCESS:  297054763  HIT:  295267467  MISS:    1787296
L1I LOAD      ACCESS:  297054763  HIT:  295267467  MISS:    1787296
L1I RFO       ACCESS:          0  HIT:          0  MISS:          0
L1I PREFETCH  ACCESS:          0  HIT:          0  MISS:          0
L1I WRITEBACK ACCESS:          0  HIT:          0  MISS:          0
L2C TOTAL     ACCESS:    5072562  HIT:    3759795  MISS:    1312767
L2C LOAD      ACCESS:    4140776  HIT:    2920677  MISS:    1220099
L2C RFO       ACCESS:     233126  HIT:     146354  MISS:      86772
L2C PREFETCH  ACCESS:          0  HIT:          0  MISS:          0
L2C WRITEBACK ACCESS:     698660  HIT:     692764  MISS:       5896
LLC TOTAL     ACCESS:    1556526  HIT:     732564  MISS:     823962
LLC LOAD      ACCESS:    1220099  HIT:     456868  MISS:     763231
LLC RFO       ACCESS:      86772  HIT:      40208  MISS:      46564
LLC PREFETCH  ACCESS:          0  HIT:          0  MISS:          0
LLC WRITEBACK ACCESS:     249655  HIT:     235488  MISS:      14167

CPU 3 cumulative IPC: 0.612912 instructions: 1312510363 cycles: 2141434822
L1D TOTAL     ACCESS:  441532516  HIT:  440080624  MISS:    1451892
L1D LOAD      ACCESS:  276923000  HIT:  275896035  MISS:    1026965
L1D RFO       ACCESS:  164609516  HIT:  164184589  MISS:     424927
L1D PREFETCH  ACCESS:          0  HIT:          0  MISS:          0
L1D WRITEBACK ACCESS:          0  HIT:          0  MISS:          0
L1I TOTAL     ACCESS:  382909715  HIT:  381873397  MISS:    1036318
L1I LOAD      ACCESS:  382909715  HIT:  381873397  MISS:    1036318
L1I RFO       ACCESS:          0  HIT:          0  MISS:          0
L1I PREFETCH  ACCESS:          0  HIT:          0  MISS:          0
L1I WRITEBACK ACCESS:          0  HIT:          0  MISS:          0
L2C TOTAL     ACCESS:    3113555  HIT:    2710246  MISS:     403309
L2C LOAD      ACCESS:    2063253  HIT:    1678017  MISS:     385236
L2C RFO       ACCESS:     424874  HIT:     409741  MISS:      15133
L2C PREFETCH  ACCESS:          0  HIT:          0  MISS:          0
L2C WRITEBACK ACCESS:     625428  HIT:     622488  MISS:       2940
LLC TOTAL     ACCESS:     465212  HIT:     270967  MISS:     194245
LLC LOAD      ACCESS:     385236  HIT:     207757  MISS:     177479
LLC RFO       ACCESS:      15133  HIT:      11553  MISS:       3580
LLC PREFETCH  ACCESS:          0  HIT:          0  MISS:          0
LLC WRITEBACK ACCESS:      64843  HIT:      51657  MISS:      13186

Region of Interest Statistics

CPU 0 cumulative IPC: 0.476018 instructions: 1000000002 cycles: 2100762233
L1D TOTAL     ACCESS:  323926586  HIT:  320876570  MISS:    3050016
L1D LOAD      ACCESS:  182894347  HIT:  180123200  MISS:    2771147
L1D RFO       ACCESS:  141032239  HIT:  140753370  MISS:     278869
L1D PREFETCH  ACCESS:          0  HIT:          0  MISS:          0
L1D WRITEBACK ACCESS:          0  HIT:          0  MISS:          0
L1D PREFETCH  REQUESTED:          0  ISSUED:          0  USEFUL:          0  USELESS:          0
L1I TOTAL     ACCESS:  300394962  HIT:  298349490  MISS:    2045472
L1I LOAD      ACCESS:  300394962  HIT:  298349490  MISS:    2045472
L1I RFO       ACCESS:          0  HIT:          0  MISS:          0
L1I PREFETCH  ACCESS:          0  HIT:          0  MISS:          0
L1I WRITEBACK ACCESS:          0  HIT:          0  MISS:          0
L1I PREFETCH  REQUESTED:          0  ISSUED:          0  USEFUL:          0  USELESS:          0
L2C TOTAL     ACCESS:    5887063  HIT:    4809253  MISS:    1077810
L2C LOAD      ACCESS:    4816498  HIT:    3830526  MISS:     985972
L2C RFO       ACCESS:     278856  HIT:     192635  MISS:      86221
L2C PREFETCH  ACCESS:          0  HIT:          0  MISS:          0
L2C WRITEBACK ACCESS:     791709  HIT:     786092  MISS:       5617
L2C PREFETCH  REQUESTED:          0  ISSUED:          0  USEFUL:          0  USELESS:          0
LLC TOTAL     ACCESS:    1298335  HIT:     679302  MISS:     619033
LLC LOAD      ACCESS:     985970  HIT:     429624  MISS:     556346
LLC RFO       ACCESS:      86219  HIT:      39246  MISS:      46973
LLC PREFETCH  ACCESS:          0  HIT:          0  MISS:          0
LLC WRITEBACK ACCESS:     226146  HIT:     210432  MISS:      15714
LLC PREFETCH  REQUESTED:          0  ISSUED:          0  USEFUL:          0  USELESS:          0
Major fault: 0 Minor fault: 5225

CPU 1 cumulative IPC: 0.684891 instructions: 1000000001 cycles: 1460085579
L1D TOTAL     ACCESS:  293229354  HIT:  282200003  MISS:   11029351
L1D LOAD      ACCESS:  230723667  HIT:  221041810  MISS:    9681857
L1D RFO       ACCESS:   62505687  HIT:   61158193  MISS:    1347494
L1D PREFETCH  ACCESS:          0  HIT:          0  MISS:          0
L1D WRITEBACK ACCESS:          0  HIT:          0  MISS:          0
L1D PREFETCH  REQUESTED:          0  ISSUED:          0  USEFUL:          0  USELESS:          0
L1I TOTAL     ACCESS:  244614358  HIT:  244611439  MISS:       2919
L1I LOAD      ACCESS:  244614358  HIT:  244611439  MISS:       2919
L1I RFO       ACCESS:          0  HIT:          0  MISS:          0
L1I PREFETCH  ACCESS:          0  HIT:          0  MISS:          0
L1I WRITEBACK ACCESS:          0  HIT:          0  MISS:          0
L1I PREFETCH  REQUESTED:          0  ISSUED:          0  USEFUL:          0  USELESS:          0
L2C TOTAL     ACCESS:   14322113  HIT:    6948080  MISS:    7374033
L2C LOAD      ACCESS:    9684768  HIT:    2938191  MISS:    6746577
L2C RFO       ACCESS:    1347494  HIT:     723088  MISS:     624406
L2C PREFETCH  ACCESS:          0  HIT:          0  MISS:          0
L2C WRITEBACK ACCESS:    3289851  HIT:    3286801  MISS:       3050
L2C PREFETCH  REQUESTED:          0  ISSUED:          0  USEFUL:          0  USELESS:          0
LLC TOTAL     ACCESS:    9461061  HIT:    3004523  MISS:    6456538
LLC LOAD      ACCESS:    6746573  HIT:     802753  MISS:    5943820
LLC RFO       ACCESS:     624404  HIT:     115929  MISS:     508475
LLC PREFETCH  ACCESS:          0  HIT:          0  MISS:          0
LLC WRITEBACK ACCESS:    2090084  HIT:    2085841  MISS:       4243
LLC PREFETCH  REQUESTED:          0  ISSUED:          0  USEFUL:          0  USELESS:          0
Major fault: 0 Minor fault: 32461

CPU 2 cumulative IPC: 0.466977 instructions: 1000000001 cycles: 2141434821
L1D TOTAL     ACCESS:  323724837  HIT:  321138184  MISS:    2586653
L1D LOAD      ACCESS:  182757384  HIT:  180403863  MISS:    2353521
L1D RFO       ACCESS:  140967453  HIT:  140734321  MISS:     233132
L1D PREFETCH  ACCESS:          0  HIT:          0  MISS:          0
L1D WRITEBACK ACCESS:          0  HIT:          0  MISS:          0
L1D PREFETCH  REQUESTED:          0  ISSUED:          0  USEFUL:          0  USELESS:          0
L1I TOTAL     ACCESS:  297054763  HIT:  295267467  MISS:    1787296
L1I LOAD      ACCESS:  297054763  HIT:  295267467  MISS:    1787296
L1I RFO       ACCESS:          0  HIT:          0  MISS:          0
L1I PREFETCH  ACCESS:          0  HIT:          0  MISS:          0
L1I WRITEBACK ACCESS:          0  HIT:          0  MISS:          0
L1I PREFETCH  REQUESTED:          0  ISSUED:          0  USEFUL:          0  USELESS:          0
L2C TOTAL     ACCESS:    5072562  HIT:    3759795  MISS:    1312767
L2C LOAD      ACCESS:    4140776  HIT:    2920677  MISS:    1220099
L2C RFO       ACCESS:     233126  HIT:     146354  MISS:      86772
L2C PREFETCH  ACCESS:          0  HIT:          0  MISS:          0
L2C WRITEBACK ACCESS:     698660  HIT:     692764  MISS:       5896
L2C PREFETCH  REQUESTED:          0  ISSUED:          0  USEFUL:          0  USELESS:          0
LLC TOTAL     ACCESS:    1556526  HIT:     732564  MISS:     823962
LLC LOAD      ACCESS:    1220099  HIT:     456868  MISS:     763231
LLC RFO       ACCESS:      86772  HIT:      40208  MISS:      46564
LLC PREFETCH  ACCESS:          0  HIT:          0  MISS:          0
LLC WRITEBACK ACCESS:     249655  HIT:     235488  MISS:      14167
LLC PREFETCH  REQUESTED:          0  ISSUED:          0  USEFUL:          0  USELESS:          0
Major fault: 0 Minor fault: 5290

CPU 3 cumulative IPC: 0.607561 instructions: 1000000003 cycles: 1645924631
L1D TOTAL     ACCESS:  335812451  HIT:  335208059  MISS:     604392
L1D LOAD      ACCESS:  208867902  HIT:  208418289  MISS:     449613
L1D RFO       ACCESS:  126944549  HIT:  126789770  MISS:     154779
L1D PREFETCH  ACCESS:          0  HIT:          0  MISS:          0
L1D WRITEBACK ACCESS:          0  HIT:          0  MISS:          0
L1D PREFETCH  REQUESTED:          0  ISSUED:          0  USEFUL:          0  USELESS:          0
L1I TOTAL     ACCESS:  296930366  HIT:  296482471  MISS:     447895
L1I LOAD      ACCESS:  296930366  HIT:  296482471  MISS:     447895
L1I RFO       ACCESS:          0  HIT:          0  MISS:          0
L1I PREFETCH  ACCESS:          0  HIT:          0  MISS:          0
L1I WRITEBACK ACCESS:          0  HIT:          0  MISS:          0
L1I PREFETCH  REQUESTED:          0  ISSUED:          0  USEFUL:          0  USELESS:          0
L2C TOTAL     ACCESS:    1286977  HIT:    1123140  MISS:     163837
L2C LOAD      ACCESS:     897499  HIT:     739535  MISS:     157964
L2C RFO       ACCESS:     154758  HIT:     150036  MISS:       4722
L2C PREFETCH  ACCESS:          0  HIT:          0  MISS:          0
L2C WRITEBACK ACCESS:     234720  HIT:     233569  MISS:       1151
L2C PREFETCH  REQUESTED:          0  ISSUED:          0  USEFUL:          0  USELESS:          0
LLC TOTAL     ACCESS:     186680  HIT:      97720  MISS:      88960
LLC LOAD      ACCESS:     157964  HIT:      77576  MISS:      80388
LLC RFO       ACCESS:       4722  HIT:       3431  MISS:       1291
LLC PREFETCH  ACCESS:          0  HIT:          0  MISS:          0
LLC WRITEBACK ACCESS:      23994  HIT:      16713  MISS:       7281
LLC PREFETCH  REQUESTED:          0  ISSUED:          0  USEFUL:          0  USELESS:          0
Major fault: 0 Minor fault: 650

DRAM Statistics
 CHANNEL 0
 RQ ROW_BUFFER_HIT:    2929280  ROW_BUFFER_MISS:    2545110
 DBUS_CONGESTED:    3546163
 WQ ROW_BUFFER_HIT:     212303  ROW_BUFFER_MISS:    1282981  FULL:          0

 CHANNEL 1
 RQ ROW_BUFFER_HIT:    2927043  ROW_BUFFER_MISS:    2539483
 DBUS_CONGESTED:    3546163
 WQ ROW_BUFFER_HIT:     212855  ROW_BUFFER_MISS:    1280254  FULL:          0

 AVG_CONGESTED_CYCLE: 13
