
*** ChampSim Multicore Out-of-Order Simulator ***

Warmup Instructions: 200000000
Simulation Instructions: 1000000000
Number of CPUs: 4
LLC sets: 8192
LLC ways: 16
Off-chip DRAM Size: 8192 MB Channels: 2 Width: 64-bit Data Rate: 1600 MT/s

CPU 0 runs /scratch/user/djimenez/champsim-traces/speccpu2006/xz//458.sjeng-767B.champsimtrace.xz
CPU 1 runs /scratch/user/djimenez/champsim-traces/speccpu2006/xz//450.soplex-92B.champsimtrace.xz
CPU 2 runs /scratch/user/djimenez/champsim-traces/speccpu2006/xz//459.GemsFDTD-1211B.champsimtrace.xz
CPU 3 runs /scratch/user/djimenez/champsim-traces/speccpu2006/xz//483.xalancbmk-716B.champsimtrace.xz
Heartbeat CPU 3 instructions: 10000002 cycles: 4943991 heartbeat IPC: 2.02266 cumulative IPC: 2.02266 (Simulation time: 0 hr 1 min 18 sec) 
Heartbeat CPU 1 instructions: 10000000 cycles: 5040832 heartbeat IPC: 1.9838 cumulative IPC: 1.9838 (Simulation time: 0 hr 1 min 20 sec) 
Heartbeat CPU 0 instructions: 10000003 cycles: 5347110 heartbeat IPC: 1.87017 cumulative IPC: 1.87017 (Simulation time: 0 hr 1 min 25 sec) 
Heartbeat CPU 2 instructions: 10000000 cycles: 8096912 heartbeat IPC: 1.23504 cumulative IPC: 1.23504 (Simulation time: 0 hr 2 min 8 sec) 
Heartbeat CPU 3 instructions: 20000000 cycles: 9819960 heartbeat IPC: 2.05087 cumulative IPC: 2.03667 (Simulation time: 0 hr 2 min 34 sec) 
Heartbeat CPU 1 instructions: 20000000 cycles: 10196571 heartbeat IPC: 1.93959 cumulative IPC: 1.96144 (Simulation time: 0 hr 2 min 41 sec) 
Heartbeat CPU 0 instructions: 20000000 cycles: 10744736 heartbeat IPC: 1.85267 cumulative IPC: 1.86138 (Simulation time: 0 hr 2 min 54 sec) 
Heartbeat CPU 3 instructions: 30000000 cycles: 14645967 heartbeat IPC: 2.07211 cumulative IPC: 2.04835 (Simulation time: 0 hr 3 min 58 sec) 
Heartbeat CPU 1 instructions: 30000002 cycles: 15280024 heartbeat IPC: 1.96717 cumulative IPC: 1.96335 (Simulation time: 0 hr 4 min 9 sec) 
Heartbeat CPU 2 instructions: 20000000 cycles: 16194084 heartbeat IPC: 1.235 cumulative IPC: 1.23502 (Simulation time: 0 hr 4 min 24 sec) 
Heartbeat CPU 0 instructions: 30000000 cycles: 16203353 heartbeat IPC: 1.83197 cumulative IPC: 1.85147 (Simulation time: 0 hr 4 min 24 sec) 
Heartbeat CPU 3 instructions: 40000000 cycles: 19244523 heartbeat IPC: 2.1746 cumulative IPC: 2.07851 (Simulation time: 0 hr 5 min 15 sec) 
Heartbeat CPU 1 instructions: 40000000 cycles: 20331204 heartbeat IPC: 1.97974 cumulative IPC: 1.96742 (Simulation time: 0 hr 5 min 33 sec) 
Heartbeat CPU 0 instructions: 40000000 cycles: 21713380 heartbeat IPC: 1.81487 cumulative IPC: 1.84218 (Simulation time: 0 hr 5 min 57 sec) 
Heartbeat CPU 2 instructions: 30000001 cycles: 24290995 heartbeat IPC: 1.23504 cumulative IPC: 1.23503 (Simulation time: 0 hr 6 min 42 sec) 
Heartbeat CPU 3 instructions: 50000000 cycles: 24851715 heartbeat IPC: 1.78342 cumulative IPC: 2.01193 (Simulation time: 0 hr 6 min 52 sec) 
Heartbeat CPU 1 instructions: 50000002 cycles: 25344534 heartbeat IPC: 1.99468 cumulative IPC: 1.97281 (Simulation time: 0 hr 7 min 0 sec) 
Heartbeat CPU 0 instructions: 50000000 cycles: 27262022 heartbeat IPC: 1.80224 cumulative IPC: 1.83405 (Simulation time: 0 hr 7 min 33 sec) 
Heartbeat CPU 3 instructions: 60000000 cycles: 29885632 heartbeat IPC: 1.98652 cumulative IPC: 2.00765 (Simulation time: 0 hr 8 min 29 sec) 
Heartbeat CPU 1 instructions: 60000000 cycles: 30502126 heartbeat IPC: 1.93889 cumulative IPC: 1.96708 (Simulation time: 0 hr 8 min 40 sec) 
Heartbeat CPU 2 instructions: 40000000 cycles: 32372063 heartbeat IPC: 1.23746 cumulative IPC: 1.23563 (Simulation time: 0 hr 9 min 12 sec) 
Heartbeat CPU 0 instructions: 60000000 cycles: 32726465 heartbeat IPC: 1.83001 cumulative IPC: 1.83338 (Simulation time: 0 hr 9 min 19 sec) 
Heartbeat CPU 3 instructions: 70000000 cycles: 35600079 heartbeat IPC: 1.74995 cumulative IPC: 1.96629 (Simulation time: 0 hr 10 min 15 sec) 
Heartbeat CPU 1 instructions: 70000000 cycles: 36519377 heartbeat IPC: 1.66189 cumulative IPC: 1.91679 (Simulation time: 0 hr 10 min 32 sec) 
Heartbeat CPU 0 instructions: 70000001 cycles: 38118918 heartbeat IPC: 1.85444 cumulative IPC: 1.83636 (Simulation time: 0 hr 11 min 0 sec) 
Heartbeat CPU 2 instructions: 50000001 cycles: 40366477 heartbeat IPC: 1.25087 cumulative IPC: 1.23865 (Simulation time: 0 hr 11 min 41 sec) 
Heartbeat CPU 3 instructions: 80000000 cycles: 41107900 heartbeat IPC: 1.8156 cumulative IPC: 1.9461 (Simulation time: 0 hr 11 min 55 sec) 
Heartbeat CPU 1 instructions: 80000000 cycles: 42717127 heartbeat IPC: 1.61349 cumulative IPC: 1.87279 (Simulation time: 0 hr 12 min 24 sec) 
Heartbeat CPU 0 instructions: 80000000 cycles: 43537729 heartbeat IPC: 1.84542 cumulative IPC: 1.83749 (Simulation time: 0 hr 12 min 40 sec) 
Heartbeat CPU 3 instructions: 90000001 cycles: 46555976 heartbeat IPC: 1.83551 cumulative IPC: 1.93316 (Simulation time: 0 hr 13 min 31 sec) 
Heartbeat CPU 1 instructions: 90000000 cycles: 47836753 heartbeat IPC: 1.95327 cumulative IPC: 1.8814 (Simulation time: 0 hr 13 min 54 sec) 
Heartbeat CPU 2 instructions: 60000000 cycles: 48453539 heartbeat IPC: 1.23654 cumulative IPC: 1.2383 (Simulation time: 0 hr 14 min 5 sec) 
Heartbeat CPU 0 instructions: 90000003 cycles: 49004008 heartbeat IPC: 1.8294 cumulative IPC: 1.83658 (Simulation time: 0 hr 14 min 14 sec) 
Heartbeat CPU 3 instructions: 100000000 cycles: 51674530 heartbeat IPC: 1.95368 cumulative IPC: 1.93519 (Simulation time: 0 hr 14 min 58 sec) 
Heartbeat CPU 1 instructions: 100000000 cycles: 52933526 heartbeat IPC: 1.96203 cumulative IPC: 1.88916 (Simulation time: 0 hr 15 min 38 sec) 
Heartbeat CPU 0 instructions: 100000000 cycles: 54458447 heartbeat IPC: 1.83337 cumulative IPC: 1.83626 (Simulation time: 0 hr 16 min 32 sec) 
Heartbeat CPU 3 instructions: 110000003 cycles: 56299660 heartbeat IPC: 2.1621 cumulative IPC: 1.95383 (Simulation time: 0 hr 17 min 34 sec) 
Heartbeat CPU 2 instructions: 70000002 cycles: 56540781 heartbeat IPC: 1.23652 cumulative IPC: 1.23804 (Simulation time: 0 hr 17 min 44 sec) 
Heartbeat CPU 1 instructions: 110000001 cycles: 58007885 heartbeat IPC: 1.97069 cumulative IPC: 1.89629 (Simulation time: 0 hr 18 min 9 sec) 
Heartbeat CPU 0 instructions: 110000002 cycles: 59904549 heartbeat IPC: 1.83618 cumulative IPC: 1.83625 (Simulation time: 0 hr 18 min 42 sec) 
Heartbeat CPU 3 instructions: 120000000 cycles: 61799006 heartbeat IPC: 1.8184 cumulative IPC: 1.94178 (Simulation time: 0 hr 19 min 16 sec) 
Heartbeat CPU 1 instructions: 120000000 cycles: 63042739 heartbeat IPC: 1.98615 cumulative IPC: 1.90347 (Simulation time: 0 hr 19 min 38 sec) 
Heartbeat CPU 2 instructions: 80000000 cycles: 64627824 heartbeat IPC: 1.23655 cumulative IPC: 1.23786 (Simulation time: 0 hr 20 min 5 sec) 
Heartbeat CPU 0 instructions: 120000000 cycles: 65292002 heartbeat IPC: 1.85616 cumulative IPC: 1.8379 (Simulation time: 0 hr 20 min 17 sec) 
Heartbeat CPU 3 instructions: 130000001 cycles: 67375663 heartbeat IPC: 1.79319 cumulative IPC: 1.92948 (Simulation time: 0 hr 20 min 54 sec) 
Heartbeat CPU 1 instructions: 130000002 cycles: 68169861 heartbeat IPC: 1.95041 cumulative IPC: 1.907 (Simulation time: 0 hr 21 min 8 sec) 
Heartbeat CPU 0 instructions: 130000003 cycles: 70649055 heartbeat IPC: 1.8667 cumulative IPC: 1.84008 (Simulation time: 0 hr 21 min 52 sec) 
Heartbeat CPU 2 instructions: 90000003 cycles: 72714922 heartbeat IPC: 1.23654 cumulative IPC: 1.23771 (Simulation time: 0 hr 22 min 28 sec) 
Heartbeat CPU 3 instructions: 140000000 cycles: 72724522 heartbeat IPC: 1.86956 cumulative IPC: 1.92507 (Simulation time: 0 hr 22 min 29 sec) 
Heartbeat CPU 1 instructions: 140000000 cycles: 73331182 heartbeat IPC: 1.93749 cumulative IPC: 1.90915 (Simulation time: 0 hr 22 min 38 sec) 
Heartbeat CPU 0 instructions: 140000000 cycles: 76025994 heartbeat IPC: 1.85979 cumulative IPC: 1.84148 (Simulation time: 0 hr 23 min 26 sec) 
Heartbeat CPU 1 instructions: 150000001 cycles: 78499627 heartbeat IPC: 1.93482 cumulative IPC: 1.91084 (Simulation time: 0 hr 24 min 9 sec) 
Heartbeat CPU 3 instructions: 150000001 cycles: 78553479 heartbeat IPC: 1.71557 cumulative IPC: 1.90953 (Simulation time: 0 hr 24 min 9 sec) 
Heartbeat CPU 2 instructions: 100000000 cycles: 80802026 heartbeat IPC: 1.23654 cumulative IPC: 1.23759 (Simulation time: 0 hr 24 min 50 sec) 
Heartbeat CPU 0 instructions: 150000003 cycles: 81458438 heartbeat IPC: 1.84079 cumulative IPC: 1.84143 (Simulation time: 0 hr 25 min 1 sec) 
Heartbeat CPU 1 instructions: 160000000 cycles: 83603434 heartbeat IPC: 1.95932 cumulative IPC: 1.9138 (Simulation time: 0 hr 25 min 38 sec) 
Heartbeat CPU 3 instructions: 160000000 cycles: 84076483 heartbeat IPC: 1.81061 cumulative IPC: 1.90303 (Simulation time: 0 hr 25 min 47 sec) 
Heartbeat CPU 0 instructions: 160000000 cycles: 86872513 heartbeat IPC: 1.84704 cumulative IPC: 1.84178 (Simulation time: 0 hr 26 min 34 sec) 
Heartbeat CPU 3 instructions: 170000000 cycles: 88664855 heartbeat IPC: 2.17942 cumulative IPC: 1.91733 (Simulation time: 0 hr 27 min 4 sec) 
Heartbeat CPU 1 instructions: 170000000 cycles: 88855119 heartbeat IPC: 1.90415 cumulative IPC: 1.91323 (Simulation time: 0 hr 27 min 8 sec) 
Heartbeat CPU 2 instructions: 110000003 cycles: 88889125 heartbeat IPC: 1.23654 cumulative IPC: 1.2375 (Simulation time: 0 hr 27 min 9 sec) 
Heartbeat CPU 0 instructions: 170000003 cycles: 92289741 heartbeat IPC: 1.84596 cumulative IPC: 1.84202 (Simulation time: 0 hr 28 min 13 sec) 
Heartbeat CPU 3 instructions: 180000000 cycles: 94306540 heartbeat IPC: 1.77252 cumulative IPC: 1.90867 (Simulation time: 0 hr 28 min 48 sec) 
Heartbeat CPU 1 instructions: 180000000 cycles: 95152200 heartbeat IPC: 1.58804 cumulative IPC: 1.89171 (Simulation time: 0 hr 29 min 3 sec) 
Heartbeat CPU 2 instructions: 120000000 cycles: 96976245 heartbeat IPC: 1.23653 cumulative IPC: 1.23742 (Simulation time: 0 hr 29 min 36 sec) 
Heartbeat CPU 0 instructions: 180000000 cycles: 97700633 heartbeat IPC: 1.84812 cumulative IPC: 1.84236 (Simulation time: 0 hr 29 min 50 sec) 
Heartbeat CPU 3 instructions: 190000000 cycles: 99723014 heartbeat IPC: 1.84622 cumulative IPC: 1.90528 (Simulation time: 0 hr 30 min 27 sec) 
Heartbeat CPU 1 instructions: 190000001 cycles: 100628986 heartbeat IPC: 1.82589 cumulative IPC: 1.88812 (Simulation time: 0 hr 30 min 43 sec) 
Heartbeat CPU 0 instructions: 190000001 cycles: 102972664 heartbeat IPC: 1.8968 cumulative IPC: 1.84515 (Simulation time: 0 hr 31 min 24 sec) 
Heartbeat CPU 2 instructions: 130000003 cycles: 105063334 heartbeat IPC: 1.23654 cumulative IPC: 1.23735 (Simulation time: 0 hr 32 min 1 sec) 
Heartbeat CPU 3 instructions: 200000000 cycles: 105150855 heartbeat IPC: 1.84235 cumulative IPC: 1.90203 (Simulation time: 0 hr 32 min 2 sec) 
Heartbeat CPU 1 instructions: 200000000 cycles: 105720314 heartbeat IPC: 1.96412 cumulative IPC: 1.89178 (Simulation time: 0 hr 32 min 13 sec) 
Heartbeat CPU 0 instructions: 200000000 cycles: 108364693 heartbeat IPC: 1.85459 cumulative IPC: 1.84562 (Simulation time: 0 hr 32 min 58 sec) 
Heartbeat CPU 3 instructions: 210000003 cycles: 110300223 heartbeat IPC: 1.94199 cumulative IPC: 0.0906617 (Simulation time: 0 hr 33 min 31 sec) 
Heartbeat CPU 1 instructions: 210000001 cycles: 110846663 heartbeat IPC: 1.95071 cumulative IPC: 0.0902147 (Simulation time: 0 hr 33 min 39 sec) 
Heartbeat CPU 2 instructions: 140000000 cycles: 113150380 heartbeat IPC: 1.23655 cumulative IPC: 1.23729 (Simulation time: 0 hr 34 min 18 sec) 
Heartbeat CPU 0 instructions: 210000002 cycles: 113761910 heartbeat IPC: 1.85281 cumulative IPC: 0.0879029 (Simulation time: 0 hr 34 min 28 sec) 
Heartbeat CPU 3 instructions: 220000000 cycles: 115058742 heartbeat IPC: 2.10149 cumulative IPC: 0.173824 (Simulation time: 0 hr 34 min 51 sec) 
Heartbeat CPU 1 instructions: 220000000 cycles: 116019455 heartbeat IPC: 1.93319 cumulative IPC: 0.172385 (Simulation time: 0 hr 35 min 6 sec) 
Heartbeat CPU 0 instructions: 220000000 cycles: 119086864 heartbeat IPC: 1.87795 cumulative IPC: 0.167945 (Simulation time: 0 hr 36 min 0 sec) 
Heartbeat CPU 3 instructions: 230000001 cycles: 119962418 heartbeat IPC: 2.03929 cumulative IPC: 0.250078 (Simulation time: 0 hr 36 min 15 sec) 
Heartbeat CPU 1 instructions: 230000003 cycles: 121151958 heartbeat IPC: 1.94837 cumulative IPC: 0.247623 (Simulation time: 0 hr 36 min 35 sec) 
Heartbeat CPU 2 instructions: 150000002 cycles: 121236997 heartbeat IPC: 1.23661 cumulative IPC: 1.23725 (Simulation time: 0 hr 36 min 36 sec) 
Heartbeat CPU 0 instructions: 230000000 cycles: 124467725 heartbeat IPC: 1.85844 cumulative IPC: 0.241026 (Simulation time: 0 hr 37 min 34 sec) 
Heartbeat CPU 3 instructions: 240000000 cycles: 125506366 heartbeat IPC: 1.80377 cumulative IPC: 0.318709 (Simulation time: 0 hr 37 min 51 sec) 
Heartbeat CPU 1 instructions: 240000000 cycles: 126258302 heartbeat IPC: 1.95835 cumulative IPC: 0.316811 (Simulation time: 0 hr 38 min 5 sec) 
Heartbeat CPU 2 instructions: 160000000 cycles: 129323794 heartbeat IPC: 1.23658 cumulative IPC: 1.2372 (Simulation time: 0 hr 38 min 58 sec) 
Heartbeat CPU 0 instructions: 240000000 cycles: 129847998 heartbeat IPC: 1.85864 cumulative IPC: 0.308053 (Simulation time: 0 hr 39 min 7 sec) 
Heartbeat CPU 3 instructions: 250000002 cycles: 130920552 heartbeat IPC: 1.847 cumulative IPC: 0.381911 (Simulation time: 0 hr 39 min 26 sec) 
Heartbeat CPU 1 instructions: 250000003 cycles: 131382149 heartbeat IPC: 1.95166 cumulative IPC: 0.380569 (Simulation time: 0 hr 39 min 35 sec) 
Heartbeat CPU 0 instructions: 250000003 cycles: 135090797 heartbeat IPC: 1.90738 cumulative IPC: 0.370121 (Simulation time: 0 hr 40 min 40 sec) 
Heartbeat CPU 3 instructions: 260000000 cycles: 136358594 heartbeat IPC: 1.8389 cumulative IPC: 0.440016 (Simulation time: 0 hr 41 min 2 sec) 
Heartbeat CPU 1 instructions: 260000000 cycles: 136461242 heartbeat IPC: 1.96885 cumulative IPC: 0.439685 (Simulation time: 0 hr 41 min 4 sec) 
Heartbeat CPU 2 instructions: 170000002 cycles: 137410538 heartbeat IPC: 1.23659 cumulative IPC: 1.23717 (Simulation time: 0 hr 41 min 21 sec) 
Heartbeat CPU 0 instructions: 260000000 cycles: 140425119 heartbeat IPC: 1.87465 cumulative IPC: 0.427274 (Simulation time: 0 hr 42 min 11 sec) 
Heartbeat CPU 3 instructions: 270000000 cycles: 141317714 heartbeat IPC: 2.01649 cumulative IPC: 0.495338 (Simulation time: 0 hr 42 min 26 sec) 
Heartbeat CPU 1 instructions: 270000001 cycles: 141508589 heartbeat IPC: 1.98124 cumulative IPC: 0.49467 (Simulation time: 0 hr 42 min 29 sec) 
Heartbeat CPU 2 instructions: 180000000 cycles: 145497394 heartbeat IPC: 1.23657 cumulative IPC: 1.23714 (Simulation time: 0 hr 43 min 59 sec) 
Heartbeat CPU 0 instructions: 270000002 cycles: 145770896 heartbeat IPC: 1.87064 cumulative IPC: 0.480206 (Simulation time: 0 hr 44 min 10 sec) 
Heartbeat CPU 3 instructions: 280000000 cycles: 146006479 heartbeat IPC: 2.13276 cumulative IPC: 0.547921 (Simulation time: 0 hr 44 min 19 sec) 
Heartbeat CPU 1 instructions: 280000000 cycles: 147145248 heartbeat IPC: 1.7741 cumulative IPC: 0.54368 (Simulation time: 0 hr 45 min 4 sec) 
Heartbeat CPU 0 instructions: 280000000 cycles: 151100312 heartbeat IPC: 1.87638 cumulative IPC: 0.52945 (Simulation time: 0 hr 47 min 30 sec) 
Heartbeat CPU 3 instructions: 290000003 cycles: 151294686 heartbeat IPC: 1.891 cumulative IPC: 0.594866 (Simulation time: 0 hr 47 min 38 sec) 
Heartbeat CPU 2 instructions: 190000003 cycles: 153470188 heartbeat IPC: 1.25427 cumulative IPC: 1.23803 (Simulation time: 0 hr 48 min 59 sec) 
Heartbeat CPU 1 instructions: 290000000 cycles: 153537860 heartbeat IPC: 1.56431 cumulative IPC: 0.586175 (Simulation time: 0 hr 49 min 1 sec) 
Heartbeat CPU 0 instructions: 290000002 cycles: 156463089 heartbeat IPC: 1.86471 cumulative IPC: 0.575216 (Simulation time: 0 hr 50 min 9 sec) 
Heartbeat CPU 3 instructions: 300000000 cycles: 156824453 heartbeat IPC: 1.80839 cumulative IPC: 0.637656 (Simulation time: 0 hr 50 min 16 sec) 
Heartbeat CPU 1 instructions: 300000000 cycles: 158738360 heartbeat IPC: 1.92289 cumulative IPC: 0.629967 (Simulation time: 0 hr 50 min 49 sec) 
Heartbeat CPU 2 instructions: 200000000 cycles: 161237787 heartbeat IPC: 1.2874 cumulative IPC: 1.2404 (Simulation time: 0 hr 51 min 34 sec) 

Warmup complete CPU 0 instructions: 298829648 cycles: 161237804 (Simulation time: 0 hr 51 min 34 sec) 
Warmup complete CPU 1 instructions: 305307382 cycles: 161237804 (Simulation time: 0 hr 51 min 34 sec) 
Warmup complete CPU 2 instructions: 200000001 cycles: 161237804 (Simulation time: 0 hr 51 min 34 sec) 
Warmup complete CPU 3 instructions: 307859311 cycles: 161237803 (Simulation time: 0 hr 51 min 34 sec) 

Heartbeat CPU 0 instructions: 300000000 cycles: 163136823 heartbeat IPC: 1.49841 cumulative IPC: 0.616293 (Simulation time: 0 hr 51 min 52 sec) 
Heartbeat CPU 3 instructions: 310000002 cycles: 165509072 heartbeat IPC: 1.15146 cumulative IPC: 0.501184 (Simulation time: 0 hr 52 min 28 sec) 
Heartbeat CPU 1 instructions: 310000001 cycles: 174907030 heartbeat IPC: 0.61848 cumulative IPC: 0.343298 (Simulation time: 0 hr 54 min 23 sec) 
Heartbeat CPU 0 instructions: 310000001 cycles: 179370903 heartbeat IPC: 0.615988 cumulative IPC: 0.61602 (Simulation time: 0 hr 54 min 57 sec) 
Heartbeat CPU 2 instructions: 210000000 cycles: 181011640 heartbeat IPC: 0.505718 cumulative IPC: 0.505719 (Simulation time: 0 hr 55 min 9 sec) 
Heartbeat CPU 3 instructions: 320000000 cycles: 183991982 heartbeat IPC: 0.54104 cumulative IPC: 0.533559 (Simulation time: 0 hr 55 min 33 sec) 
Heartbeat CPU 0 instructions: 320000000 cycles: 195272962 heartbeat IPC: 0.628849 cumulative IPC: 0.622014 (Simulation time: 0 hr 56 min 58 sec) 
Heartbeat CPU 2 instructions: 220000000 cycles: 200856623 heartbeat IPC: 0.503906 cumulative IPC: 0.504811 (Simulation time: 0 hr 57 min 40 sec) 
Heartbeat CPU 3 instructions: 330000000 cycles: 200857425 heartbeat IPC: 0.592928 cumulative IPC: 0.558831 (Simulation time: 0 hr 57 min 40 sec) 
Heartbeat CPU 1 instructions: 320000000 cycles: 204626077 heartbeat IPC: 0.336485 cumulative IPC: 0.338631 (Simulation time: 0 hr 58 min 10 sec) 
Heartbeat CPU 0 instructions: 330000000 cycles: 211138999 heartbeat IPC: 0.630277 cumulative IPC: 0.624641 (Simulation time: 0 hr 59 min 1 sec) 
Heartbeat CPU 3 instructions: 340000000 cycles: 216670299 heartbeat IPC: 0.632396 cumulative IPC: 0.579817 (Simulation time: 0 hr 59 min 43 sec) 
Heartbeat CPU 2 instructions: 230000003 cycles: 220643861 heartbeat IPC: 0.505376 cumulative IPC: 0.504999 (Simulation time: 1 hr 0 min 13 sec) 
Heartbeat CPU 0 instructions: 340000000 cycles: 227229715 heartbeat IPC: 0.621476 cumulative IPC: 0.62387 (Simulation time: 1 hr 1 min 6 sec) 
Heartbeat CPU 3 instructions: 350000003 cycles: 231712147 heartbeat IPC: 0.664812 cumulative IPC: 0.597958 (Simulation time: 1 hr 1 min 41 sec) 
Heartbeat CPU 1 instructions: 330000001 cycles: 232230229 heartbeat IPC: 0.362264 cumulative IPC: 0.34782 (Simulation time: 1 hr 1 min 45 sec) 
Heartbeat CPU 2 instructions: 240000000 cycles: 240670531 heartbeat IPC: 0.499334 cumulative IPC: 0.503571 (Simulation time: 1 hr 2 min 52 sec) 
Heartbeat CPU 0 instructions: 350000000 cycles: 243623834 heartbeat IPC: 0.609975 cumulative IPC: 0.621105 (Simulation time: 1 hr 3 min 16 sec) 
Heartbeat CPU 3 instructions: 360000000 cycles: 244545230 heartbeat IPC: 0.779236 cumulative IPC: 0.625883 (Simulation time: 1 hr 3 min 24 sec) 
Heartbeat CPU 3 instructions: 370000000 cycles: 255828952 heartbeat IPC: 0.886232 cumulative IPC: 0.65694 (Simulation time: 1 hr 4 min 54 sec) 
Heartbeat CPU 1 instructions: 340000000 cycles: 259880142 heartbeat IPC: 0.361665 cumulative IPC: 0.351701 (Simulation time: 1 hr 5 min 27 sec) 
Heartbeat CPU 0 instructions: 360000000 cycles: 260030720 heartbeat IPC: 0.6095 cumulative IPC: 0.619178 (Simulation time: 1 hr 5 min 28 sec) 
Heartbeat CPU 2 instructions: 250000003 cycles: 260276460 heartbeat IPC: 0.51005 cumulative IPC: 0.504853 (Simulation time: 1 hr 5 min 30 sec) 
Heartbeat CPU 3 instructions: 380000000 cycles: 268132250 heartbeat IPC: 0.81279 cumulative IPC: 0.674878 (Simulation time: 1 hr 6 min 31 sec) 
Heartbeat CPU 0 instructions: 370000001 cycles: 276478160 heartbeat IPC: 0.607997 cumulative IPC: 0.617582 (Simulation time: 1 hr 7 min 33 sec) 
Heartbeat CPU 2 instructions: 260000000 cycles: 279953998 heartbeat IPC: 0.508193 cumulative IPC: 0.505407 (Simulation time: 1 hr 7 min 56 sec) 
Heartbeat CPU 1 instructions: 350000003 cycles: 288960536 heartbeat IPC: 0.343874 cumulative IPC: 0.349919 (Simulation time: 1 hr 8 min 57 sec) 
Heartbeat CPU 3 instructions: 390000000 cycles: 289037666 heartbeat IPC: 0.478345 cumulative IPC: 0.642729 (Simulation time: 1 hr 8 min 57 sec) 
Heartbeat CPU 0 instructions: 380000000 cycles: 292784189 heartbeat IPC: 0.61327 cumulative IPC: 0.617047 (Simulation time: 1 hr 9 min 26 sec) 
Heartbeat CPU 2 instructions: 270000000 cycles: 299742733 heartbeat IPC: 0.505338 cumulative IPC: 0.505397 (Simulation time: 1 hr 10 min 18 sec) 
Heartbeat CPU 3 instructions: 400000000 cycles: 308645180 heartbeat IPC: 0.510009 cumulative IPC: 0.625075 (Simulation time: 1 hr 11 min 23 sec) 
Heartbeat CPU 0 instructions: 390000000 cycles: 309152709 heartbeat IPC: 0.610929 cumulative IPC: 0.61637 (Simulation time: 1 hr 11 min 26 sec) 
Heartbeat CPU 1 instructions: 360000000 cycles: 316905242 heartbeat IPC: 0.357849 cumulative IPC: 0.351343 (Simulation time: 1 hr 12 min 25 sec) 
Heartbeat CPU 2 instructions: 280000000 cycles: 319806976 heartbeat IPC: 0.498399 cumulative IPC: 0.504512 (Simulation time: 1 hr 12 min 48 sec) 
Heartbeat CPU 0 instructions: 400000000 cycles: 325286360 heartbeat IPC: 0.619823 cumulative IPC: 0.61671 (Simulation time: 1 hr 13 min 29 sec) 
Heartbeat CPU 3 instructions: 410000001 cycles: 325857935 heartbeat IPC: 0.580965 cumulative IPC: 0.620463 (Simulation time: 1 hr 13 min 33 sec) 
Heartbeat CPU 2 instructions: 290000000 cycles: 339827340 heartbeat IPC: 0.499491 cumulative IPC: 0.503949 (Simulation time: 1 hr 15 min 20 sec) 
Heartbeat CPU 0 instructions: 410000003 cycles: 341743288 heartbeat IPC: 0.607647 cumulative IPC: 0.615884 (Simulation time: 1 hr 15 min 34 sec) 
Heartbeat CPU 3 instructions: 420000000 cycles: 341890895 heartbeat IPC: 0.623715 cumulative IPC: 0.620752 (Simulation time: 1 hr 15 min 35 sec) 
Heartbeat CPU 1 instructions: 370000001 cycles: 345987545 heartbeat IPC: 0.343852 cumulative IPC: 0.350164 (Simulation time: 1 hr 16 min 7 sec) 
Heartbeat CPU 3 instructions: 430000003 cycles: 357173191 heartbeat IPC: 0.654352 cumulative IPC: 0.623372 (Simulation time: 1 hr 17 min 33 sec) 
Heartbeat CPU 0 instructions: 420000000 cycles: 358186640 heartbeat IPC: 0.608148 cumulative IPC: 0.615238 (Simulation time: 1 hr 17 min 40 sec) 
Heartbeat CPU 2 instructions: 300000000 cycles: 359703432 heartbeat IPC: 0.503117 cumulative IPC: 0.503866 (Simulation time: 1 hr 17 min 52 sec) 
Heartbeat CPU 3 instructions: 440000000 cycles: 371847634 heartbeat IPC: 0.681457 cumulative IPC: 0.627419 (Simulation time: 1 hr 19 min 27 sec) 
Heartbeat CPU 1 instructions: 380000000 cycles: 374645798 heartbeat IPC: 0.34894 cumulative IPC: 0.349999 (Simulation time: 1 hr 19 min 50 sec) 
Heartbeat CPU 0 instructions: 430000000 cycles: 374658684 heartbeat IPC: 0.607089 cumulative IPC: 0.614609 (Simulation time: 1 hr 19 min 50 sec) 
Heartbeat CPU 2 instructions: 310000002 cycles: 379566888 heartbeat IPC: 0.503437 cumulative IPC: 0.503827 (Simulation time: 1 hr 20 min 28 sec) 
Heartbeat CPU 3 instructions: 450000000 cycles: 383687978 heartbeat IPC: 0.84457 cumulative IPC: 0.638978 (Simulation time: 1 hr 21 min 2 sec) 
Heartbeat CPU 0 instructions: 440000000 cycles: 391087720 heartbeat IPC: 0.608678 cumulative IPC: 0.614185 (Simulation time: 1 hr 22 min 6 sec) 
Heartbeat CPU 3 instructions: 460000000 cycles: 394988627 heartbeat IPC: 0.884905 cumulative IPC: 0.650867 (Simulation time: 1 hr 22 min 36 sec) 
Heartbeat CPU 2 instructions: 320000000 cycles: 399372935 heartbeat IPC: 0.504896 cumulative IPC: 0.503916 (Simulation time: 1 hr 23 min 11 sec) 
Heartbeat CPU 0 instructions: 450000002 cycles: 407058153 heartbeat IPC: 0.626157 cumulative IPC: 0.614963 (Simulation time: 1 hr 24 min 17 sec) 
Heartbeat CPU 3 instructions: 470000001 cycles: 407146881 heartbeat IPC: 0.822487 cumulative IPC: 0.659352 (Simulation time: 1 hr 24 min 18 sec) 
Heartbeat CPU 1 instructions: 390000002 cycles: 411912776 heartbeat IPC: 0.268334 cumulative IPC: 0.337858 (Simulation time: 1 hr 24 min 56 sec) 
Heartbeat CPU 2 instructions: 330000003 cycles: 419245632 heartbeat IPC: 0.503203 cumulative IPC: 0.503861 (Simulation time: 1 hr 25 min 54 sec) 
Heartbeat CPU 0 instructions: 460000000 cycles: 423467672 heartbeat IPC: 0.609402 cumulative IPC: 0.614615 (Simulation time: 1 hr 26 min 21 sec) 
Heartbeat CPU 3 instructions: 480000000 cycles: 425183753 heartbeat IPC: 0.55442 cumulative IPC: 0.652182 (Simulation time: 1 hr 26 min 34 sec) 
Heartbeat CPU 1 instructions: 400000000 cycles: 438407937 heartbeat IPC: 0.377427 cumulative IPC: 0.341641 (Simulation time: 1 hr 28 min 27 sec) 
Heartbeat CPU 2 instructions: 340000000 cycles: 438792295 heartbeat IPC: 0.511596 cumulative IPC: 0.504405 (Simulation time: 1 hr 28 min 31 sec) 
Heartbeat CPU 0 instructions: 470000000 cycles: 439940695 heartbeat IPC: 0.607053 cumulative IPC: 0.614168 (Simulation time: 1 hr 28 min 40 sec) 
Heartbeat CPU 3 instructions: 490000003 cycles: 443884208 heartbeat IPC: 0.534747 cumulative IPC: 0.644412 (Simulation time: 1 hr 29 min 12 sec) 
Heartbeat CPU 0 instructions: 480000000 cycles: 456394875 heartbeat IPC: 0.607748 cumulative IPC: 0.61381 (Simulation time: 1 hr 30 min 55 sec) 
Heartbeat CPU 3 instructions: 500000000 cycles: 458518057 heartbeat IPC: 0.683347 cumulative IPC: 0.646328 (Simulation time: 1 hr 31 min 12 sec) 
Heartbeat CPU 2 instructions: 350000003 cycles: 458674075 heartbeat IPC: 0.502973 cumulative IPC: 0.50431 (Simulation time: 1 hr 31 min 13 sec) 
Heartbeat CPU 1 instructions: 410000000 cycles: 466556471 heartbeat IPC: 0.355258 cumulative IPC: 0.342896 (Simulation time: 1 hr 32 min 19 sec) 
Heartbeat CPU 0 instructions: 490000002 cycles: 472922983 heartbeat IPC: 0.60503 cumulative IPC: 0.613344 (Simulation time: 1 hr 33 min 9 sec) 
Heartbeat CPU 2 instructions: 360000000 cycles: 478332841 heartbeat IPC: 0.508679 cumulative IPC: 0.504581 (Simulation time: 1 hr 34 min 2 sec) 
Heartbeat CPU 3 instructions: 510000001 cycles: 479726387 heartbeat IPC: 0.471513 cumulative IPC: 0.634687 (Simulation time: 1 hr 34 min 17 sec) 
Heartbeat CPU 0 instructions: 500000000 cycles: 489417237 heartbeat IPC: 0.606272 cumulative IPC: 0.612989 (Simulation time: 1 hr 35 min 44 sec) 
Heartbeat CPU 1 instructions: 420000000 cycles: 496339793 heartbeat IPC: 0.335758 cumulative IPC: 0.342262 (Simulation time: 1 hr 36 min 46 sec) 
Heartbeat CPU 2 instructions: 370000000 cycles: 497703245 heartbeat IPC: 0.516252 cumulative IPC: 0.505252 (Simulation time: 1 hr 36 min 59 sec) 
Heartbeat CPU 3 instructions: 520000000 cycles: 498150435 heartbeat IPC: 0.542769 cumulative IPC: 0.629661 (Simulation time: 1 hr 37 min 3 sec) 
Heartbeat CPU 0 instructions: 510000000 cycles: 506370555 heartbeat IPC: 0.589855 cumulative IPC: 0.611853 (Simulation time: 1 hr 38 min 16 sec) 
Heartbeat CPU 3 instructions: 530000000 cycles: 515657886 heartbeat IPC: 0.571185 cumulative IPC: 0.626772 (Simulation time: 1 hr 39 min 40 sec) 
Heartbeat CPU 2 instructions: 380000000 cycles: 517186390 heartbeat IPC: 0.513264 cumulative IPC: 0.505691 (Simulation time: 1 hr 39 min 57 sec) 
Heartbeat CPU 0 instructions: 520000000 cycles: 522607844 heartbeat IPC: 0.615866 cumulative IPC: 0.612033 (Simulation time: 1 hr 40 min 42 sec) 
Heartbeat CPU 1 instructions: 430000003 cycles: 525222653 heartbeat IPC: 0.346226 cumulative IPC: 0.342576 (Simulation time: 1 hr 41 min 7 sec) 
Heartbeat CPU 2 instructions: 390000000 cycles: 536476906 heartbeat IPC: 0.518389 cumulative IPC: 0.506344 (Simulation time: 1 hr 42 min 42 sec) 
Heartbeat CPU 0 instructions: 530000003 cycles: 538944177 heartbeat IPC: 0.612133 cumulative IPC: 0.612037 (Simulation time: 1 hr 43 min 0 sec) 
Heartbeat CPU 3 instructions: 540000000 cycles: 538965432 heartbeat IPC: 0.429046 cumulative IPC: 0.614572 (Simulation time: 1 hr 43 min 0 sec) 
Heartbeat CPU 1 instructions: 440000000 cycles: 551503997 heartbeat IPC: 0.380498 cumulative IPC: 0.34513 (Simulation time: 1 hr 44 min 41 sec) 
Heartbeat CPU 0 instructions: 540000000 cycles: 555178346 heartbeat IPC: 0.615985 cumulative IPC: 0.6122 (Simulation time: 1 hr 45 min 9 sec) 
Heartbeat CPU 2 instructions: 400000000 cycles: 556042115 heartbeat IPC: 0.511111 cumulative IPC: 0.50658 (Simulation time: 1 hr 45 min 16 sec) 
Heartbeat CPU 3 instructions: 550000003 cycles: 557821508 heartbeat IPC: 0.530333 cumulative IPC: 0.610566 (Simulation time: 1 hr 45 min 30 sec) 
Heartbeat CPU 0 instructions: 550000002 cycles: 571923602 heartbeat IPC: 0.597184 cumulative IPC: 0.611588 (Simulation time: 1 hr 47 min 23 sec) 
Heartbeat CPU 3 instructions: 560000000 cycles: 572390621 heartbeat IPC: 0.686383 cumulative IPC: 0.613253 (Simulation time: 1 hr 47 min 26 sec) 
Heartbeat CPU 2 instructions: 410000003 cycles: 575460010 heartbeat IPC: 0.514989 cumulative IPC: 0.506974 (Simulation time: 1 hr 47 min 51 sec) 
Heartbeat CPU 1 instructions: 450000002 cycles: 578805896 heartbeat IPC: 0.366275 cumulative IPC: 0.346513 (Simulation time: 1 hr 48 min 16 sec) 
Heartbeat CPU 0 instructions: 560000000 cycles: 588678762 heartbeat IPC: 0.596831 cumulative IPC: 0.611009 (Simulation time: 1 hr 49 min 32 sec) 
Heartbeat CPU 3 instructions: 570000000 cycles: 592531304 heartbeat IPC: 0.496507 cumulative IPC: 0.607801 (Simulation time: 1 hr 50 min 0 sec) 
Heartbeat CPU 2 instructions: 420000000 cycles: 594957980 heartbeat IPC: 0.512874 cumulative IPC: 0.507239 (Simulation time: 1 hr 50 min 18 sec) 
Heartbeat CPU 0 instructions: 570000000 cycles: 605568221 heartbeat IPC: 0.592085 cumulative IPC: 0.61029 (Simulation time: 1 hr 51 min 37 sec) 
Heartbeat CPU 1 instructions: 460000000 cycles: 607036557 heartbeat IPC: 0.354225 cumulative IPC: 0.347001 (Simulation time: 1 hr 51 min 49 sec) 
Heartbeat CPU 3 instructions: 580000000 cycles: 613929519 heartbeat IPC: 0.467329 cumulative IPC: 0.601161 (Simulation time: 1 hr 52 min 45 sec) 
Heartbeat CPU 2 instructions: 430000000 cycles: 614412221 heartbeat IPC: 0.514027 cumulative IPC: 0.507531 (Simulation time: 1 hr 52 min 49 sec) 
Heartbeat CPU 0 instructions: 580000000 cycles: 621960624 heartbeat IPC: 0.610039 cumulative IPC: 0.610281 (Simulation time: 1 hr 53 min 47 sec) 
Heartbeat CPU 3 instructions: 590000003 cycles: 629264295 heartbeat IPC: 0.652113 cumulative IPC: 0.602831 (Simulation time: 1 hr 54 min 47 sec) 
Heartbeat CPU 1 instructions: 470000000 cycles: 634993314 heartbeat IPC: 0.357695 cumulative IPC: 0.347632 (Simulation time: 1 hr 55 min 29 sec) 
Heartbeat CPU 2 instructions: 440000000 cycles: 635648325 heartbeat IPC: 0.470896 cumulative IPC: 0.505891 (Simulation time: 1 hr 55 min 34 sec) 
Heartbeat CPU 0 instructions: 590000002 cycles: 638061550 heartbeat IPC: 0.621082 cumulative IPC: 0.610646 (Simulation time: 1 hr 55 min 51 sec) 
Heartbeat CPU 3 instructions: 600000000 cycles: 650060016 heartbeat IPC: 0.480868 cumulative IPC: 0.597642 (Simulation time: 1 hr 57 min 21 sec) 
Heartbeat CPU 0 instructions: 600000000 cycles: 654760842 heartbeat IPC: 0.598828 cumulative IPC: 0.610246 (Simulation time: 1 hr 57 min 58 sec) 
Heartbeat CPU 2 instructions: 450000001 cycles: 657322686 heartbeat IPC: 0.461375 cumulative IPC: 0.503946 (Simulation time: 1 hr 58 min 19 sec) 
Heartbeat CPU 1 instructions: 480000000 cycles: 661814925 heartbeat IPC: 0.372834 cumulative IPC: 0.348982 (Simulation time: 1 hr 58 min 54 sec) 
Heartbeat CPU 3 instructions: 610000002 cycles: 667481049 heartbeat IPC: 0.574019 cumulative IPC: 0.596829 (Simulation time: 1 hr 59 min 39 sec) 
Heartbeat CPU 0 instructions: 610000001 cycles: 671098179 heartbeat IPC: 0.612095 cumulative IPC: 0.610305 (Simulation time: 2 hr 0 min 8 sec) 
Heartbeat CPU 2 instructions: 460000000 cycles: 678851373 heartbeat IPC: 0.464496 cumulative IPC: 0.502305 (Simulation time: 2 hr 1 min 11 sec) 
Heartbeat CPU 3 instructions: 620000000 cycles: 680709445 heartbeat IPC: 0.755949 cumulative IPC: 0.600881 (Simulation time: 2 hr 1 min 24 sec) 
Heartbeat CPU 0 instructions: 620000000 cycles: 687902749 heartbeat IPC: 0.595076 cumulative IPC: 0.609819 (Simulation time: 2 hr 2 min 16 sec) 
Heartbeat CPU 1 instructions: 490000001 cycles: 688569820 heartbeat IPC: 0.373763 cumulative IPC: 0.35024 (Simulation time: 2 hr 2 min 21 sec) 
Heartbeat CPU 2 instructions: 470000001 cycles: 700345536 heartbeat IPC: 0.465243 cumulative IPC: 0.500828 (Simulation time: 2 hr 3 min 46 sec) 
Heartbeat CPU 3 instructions: 630000000 cycles: 704364281 heartbeat IPC: 0.422747 cumulative IPC: 0.593123 (Simulation time: 2 hr 4 min 13 sec) 
Heartbeat CPU 0 instructions: 630000003 cycles: 704553486 heartbeat IPC: 0.600574 cumulative IPC: 0.609536 (Simulation time: 2 hr 4 min 14 sec) 
Heartbeat CPU 0 instructions: 640000000 cycles: 721369032 heartbeat IPC: 0.594688 cumulative IPC: 0.60909 (Simulation time: 2 hr 6 min 22 sec) 
Heartbeat CPU 1 instructions: 500000000 cycles: 722667162 heartbeat IPC: 0.293278 cumulative IPC: 0.34678 (Simulation time: 2 hr 6 min 32 sec) 
Heartbeat CPU 2 instructions: 480000000 cycles: 722704315 heartbeat IPC: 0.447252 cumulative IPC: 0.498694 (Simulation time: 2 hr 6 min 32 sec) 
Heartbeat CPU 3 instructions: 640000000 cycles: 723337466 heartbeat IPC: 0.52706 cumulative IPC: 0.590893 (Simulation time: 2 hr 6 min 37 sec) 
Heartbeat CPU 0 instructions: 650000003 cycles: 738254807 heartbeat IPC: 0.592215 cumulative IPC: 0.608596 (Simulation time: 2 hr 8 min 27 sec) 
Heartbeat CPU 3 instructions: 650000000 cycles: 741551893 heartbeat IPC: 0.549015 cumulative IPC: 0.589578 (Simulation time: 2 hr 8 min 58 sec) 
Heartbeat CPU 2 instructions: 490000001 cycles: 744256207 heartbeat IPC: 0.463996 cumulative IPC: 0.497411 (Simulation time: 2 hr 9 min 23 sec) 
Heartbeat CPU 1 instructions: 510000002 cycles: 750870717 heartbeat IPC: 0.354565 cumulative IPC: 0.347153 (Simulation time: 2 hr 10 min 26 sec) 
Heartbeat CPU 0 instructions: 660000000 cycles: 754668813 heartbeat IPC: 0.609236 cumulative IPC: 0.608614 (Simulation time: 2 hr 11 min 2 sec) 
Heartbeat CPU 3 instructions: 660000000 cycles: 759618139 heartbeat IPC: 0.553518 cumulative IPC: 0.58849 (Simulation time: 2 hr 11 min 47 sec) 
Heartbeat CPU 2 instructions: 500000000 cycles: 766485500 heartbeat IPC: 0.449857 cumulative IPC: 0.495665 (Simulation time: 2 hr 12 min 51 sec) 
Heartbeat CPU 0 instructions: 670000000 cycles: 771167689 heartbeat IPC: 0.606102 cumulative IPC: 0.608546 (Simulation time: 2 hr 13 min 36 sec) 
Heartbeat CPU 3 instructions: 670000000 cycles: 774001110 heartbeat IPC: 0.695267 cumulative IPC: 0.590996 (Simulation time: 2 hr 13 min 58 sec) 
Heartbeat CPU 1 instructions: 520000000 cycles: 778519439 heartbeat IPC: 0.36168 cumulative IPC: 0.347803 (Simulation time: 2 hr 14 min 30 sec) 
Heartbeat CPU 0 instructions: 680000000 cycles: 787845055 heartbeat IPC: 0.599615 cumulative IPC: 0.608308 (Simulation time: 2 hr 15 min 38 sec) 
Heartbeat CPU 2 instructions: 510000003 cycles: 788186599 heartbeat IPC: 0.460806 cumulative IPC: 0.494458 (Simulation time: 2 hr 15 min 41 sec) 
Heartbeat CPU 3 instructions: 680000000 cycles: 795671557 heartbeat IPC: 0.461458 cumulative IPC: 0.586571 (Simulation time: 2 hr 16 min 39 sec) 
Heartbeat CPU 0 instructions: 690000002 cycles: 804136486 heartbeat IPC: 0.61382 cumulative IPC: 0.608448 (Simulation time: 2 hr 17 min 45 sec) 
Heartbeat CPU 1 instructions: 530000003 cycles: 808039916 heartbeat IPC: 0.338748 cumulative IPC: 0.34739 (Simulation time: 2 hr 18 min 15 sec) 
Heartbeat CPU 2 instructions: 520000000 cycles: 810301883 heartbeat IPC: 0.452176 cumulative IPC: 0.493018 (Simulation time: 2 hr 18 min 32 sec) 
Heartbeat CPU 3 instructions: 690000003 cycles: 812374244 heartbeat IPC: 0.598706 cumulative IPC: 0.586883 (Simulation time: 2 hr 18 min 50 sec) 
Heartbeat CPU 0 instructions: 700000000 cycles: 820756905 heartbeat IPC: 0.601669 cumulative IPC: 0.608277 (Simulation time: 2 hr 19 min 55 sec) 
Heartbeat CPU 3 instructions: 700000000 cycles: 828122584 heartbeat IPC: 0.634987 cumulative IPC: 0.588019 (Simulation time: 2 hr 20 min 54 sec) 
Heartbeat CPU 2 instructions: 530000000 cycles: 832423471 heartbeat IPC: 0.452047 cumulative IPC: 0.491667 (Simulation time: 2 hr 21 min 28 sec) 
Heartbeat CPU 1 instructions: 540000000 cycles: 835940885 heartbeat IPC: 0.35841 cumulative IPC: 0.347846 (Simulation time: 2 hr 21 min 55 sec) 
Heartbeat CPU 0 instructions: 710000001 cycles: 836785154 heartbeat IPC: 0.623899 cumulative IPC: 0.608648 (Simulation time: 2 hr 22 min 5 sec) 
Heartbeat CPU 3 instructions: 710000001 cycles: 843192801 heartbeat IPC: 0.663561 cumulative IPC: 0.589688 (Simulation time: 2 hr 22 min 57 sec) 
Heartbeat CPU 0 instructions: 720000000 cycles: 853117164 heartbeat IPC: 0.612294 cumulative IPC: 0.608734 (Simulation time: 2 hr 24 min 17 sec) 
Heartbeat CPU 2 instructions: 540000000 cycles: 854172688 heartbeat IPC: 0.459787 cumulative IPC: 0.490667 (Simulation time: 2 hr 24 min 26 sec) 
Heartbeat CPU 3 instructions: 720000000 cycles: 857761798 heartbeat IPC: 0.686389 cumulative IPC: 0.591711 (Simulation time: 2 hr 24 min 54 sec) 
Heartbeat CPU 1 instructions: 550000001 cycles: 863628984 heartbeat IPC: 0.361166 cumulative IPC: 0.348371 (Simulation time: 2 hr 26 min 28 sec) 
Heartbeat CPU 0 instructions: 730000002 cycles: 869020353 heartbeat IPC: 0.628805 cumulative IPC: 0.609185 (Simulation time: 2 hr 27 min 55 sec) 
Heartbeat CPU 3 instructions: 730000000 cycles: 871916891 heartbeat IPC: 0.70646 cumulative IPC: 0.593996 (Simulation time: 2 hr 28 min 44 sec) 
Heartbeat CPU 2 instructions: 550000000 cycles: 875413730 heartbeat IPC: 0.470787 cumulative IPC: 0.490075 (Simulation time: 2 hr 29 min 43 sec) 
Heartbeat CPU 3 instructions: 740000000 cycles: 883092025 heartbeat IPC: 0.894844 cumulative IPC: 0.598654 (Simulation time: 2 hr 31 min 5 sec) 
Heartbeat CPU 0 instructions: 740000000 cycles: 885153690 heartbeat IPC: 0.619834 cumulative IPC: 0.609422 (Simulation time: 2 hr 31 min 22 sec) 
Heartbeat CPU 1 instructions: 560000000 cycles: 890809281 heartbeat IPC: 0.367914 cumulative IPC: 0.349099 (Simulation time: 2 hr 32 min 8 sec) 
Heartbeat CPU 3 instructions: 750000002 cycles: 894137955 heartbeat IPC: 0.905311 cumulative IPC: 0.603275 (Simulation time: 2 hr 32 min 37 sec) 
Heartbeat CPU 2 instructions: 560000000 cycles: 896674046 heartbeat IPC: 0.47036 cumulative IPC: 0.489505 (Simulation time: 2 hr 32 min 57 sec) 
Heartbeat CPU 0 instructions: 750000001 cycles: 901451030 heartbeat IPC: 0.613597 cumulative IPC: 0.609514 (Simulation time: 2 hr 33 min 37 sec) 
Heartbeat CPU 3 instructions: 760000000 cycles: 905547848 heartbeat IPC: 0.876432 cumulative IPC: 0.607463 (Simulation time: 2 hr 34 min 12 sec) 
Heartbeat CPU 1 instructions: 570000001 cycles: 917400164 heartbeat IPC: 0.376069 cumulative IPC: 0.350047 (Simulation time: 2 hr 35 min 48 sec) 
Heartbeat CPU 0 instructions: 760000000 cycles: 917689482 heartbeat IPC: 0.615822 cumulative IPC: 0.609649 (Simulation time: 2 hr 35 min 53 sec) 
Heartbeat CPU 3 instructions: 770000001 cycles: 917747482 heartbeat IPC: 0.819697 cumulative IPC: 0.610885 (Simulation time: 2 hr 35 min 54 sec) 
Heartbeat CPU 2 instructions: 570000000 cycles: 917804824 heartbeat IPC: 0.473243 cumulative IPC: 0.489051 (Simulation time: 2 hr 35 min 54 sec) 
Heartbeat CPU 0 instructions: 770000003 cycles: 934070103 heartbeat IPC: 0.610478 cumulative IPC: 0.609667 (Simulation time: 2 hr 38 min 15 sec) 
Heartbeat CPU 3 instructions: 780000000 cycles: 938945138 heartbeat IPC: 0.47175 cumulative IPC: 0.607093 (Simulation time: 2 hr 38 min 48 sec) 
Heartbeat CPU 2 instructions: 580000000 cycles: 939408711 heartbeat IPC: 0.46288 cumulative IPC: 0.488325 (Simulation time: 2 hr 38 min 52 sec) 
Heartbeat CPU 1 instructions: 580000000 cycles: 944499404 heartbeat IPC: 0.369014 cumulative IPC: 0.350704 (Simulation time: 2 hr 39 min 30 sec) 
Heartbeat CPU 0 instructions: 780000000 cycles: 950460586 heartbeat IPC: 0.61011 cumulative IPC: 0.609676 (Simulation time: 2 hr 40 min 17 sec) 
Heartbeat CPU 3 instructions: 790000001 cycles: 957559508 heartbeat IPC: 0.537219 cumulative IPC: 0.60546 (Simulation time: 2 hr 41 min 11 sec) 
Heartbeat CPU 2 instructions: 590000003 cycles: 961206609 heartbeat IPC: 0.45876 cumulative IPC: 0.487519 (Simulation time: 2 hr 41 min 39 sec) 
Heartbeat CPU 0 instructions: 790000000 cycles: 966834642 heartbeat IPC: 0.610722 cumulative IPC: 0.609697 (Simulation time: 2 hr 42 min 24 sec) 
Heartbeat CPU 3 instructions: 800000000 cycles: 971936471 heartbeat IPC: 0.695557 cumulative IPC: 0.607057 (Simulation time: 2 hr 43 min 4 sec) 
Heartbeat CPU 1 instructions: 590000000 cycles: 972751142 heartbeat IPC: 0.353961 cumulative IPC: 0.350817 (Simulation time: 2 hr 43 min 10 sec) 
Heartbeat CPU 2 instructions: 600000000 cycles: 982694473 heartbeat IPC: 0.465379 cumulative IPC: 0.48694 (Simulation time: 2 hr 44 min 19 sec) 
Heartbeat CPU 0 instructions: 800000000 cycles: 982756918 heartbeat IPC: 0.628051 cumulative IPC: 0.610053 (Simulation time: 2 hr 44 min 20 sec) 
Heartbeat CPU 3 instructions: 810000000 cycles: 992423807 heartbeat IPC: 0.488106 cumulative IPC: 0.604126 (Simulation time: 2 hr 45 min 36 sec) 
Heartbeat CPU 0 instructions: 810000000 cycles: 998814999 heartbeat IPC: 0.622739 cumulative IPC: 0.610296 (Simulation time: 2 hr 46 min 24 sec) 
Heartbeat CPU 1 instructions: 600000000 cycles: 1002209737 heartbeat IPC: 0.33946 cumulative IPC: 0.350419 (Simulation time: 2 hr 46 min 50 sec) 
Heartbeat CPU 2 instructions: 610000003 cycles: 1004257682 heartbeat IPC: 0.463753 cumulative IPC: 0.486347 (Simulation time: 2 hr 47 min 6 sec) 
Heartbeat CPU 3 instructions: 820000000 cycles: 1009534612 heartbeat IPC: 0.584426 cumulative IPC: 0.603728 (Simulation time: 2 hr 47 min 48 sec) 
Heartbeat CPU 0 instructions: 820000000 cycles: 1014839727 heartbeat IPC: 0.624036 cumulative IPC: 0.610554 (Simulation time: 2 hr 48 min 30 sec) 
Heartbeat CPU 3 instructions: 830000002 cycles: 1023417291 heartbeat IPC: 0.720322 cumulative IPC: 0.605606 (Simulation time: 2 hr 49 min 40 sec) 
Heartbeat CPU 2 instructions: 620000000 cycles: 1025728791 heartbeat IPC: 0.465742 cumulative IPC: 0.485835 (Simulation time: 2 hr 49 min 58 sec) 
Heartbeat CPU 1 instructions: 610000001 cycles: 1029462835 heartbeat IPC: 0.366931 cumulative IPC: 0.350937 (Simulation time: 2 hr 50 min 26 sec) 
Heartbeat CPU 0 instructions: 830000001 cycles: 1031317586 heartbeat IPC: 0.606875 cumulative IPC: 0.610485 (Simulation time: 2 hr 50 min 40 sec) 
Heartbeat CPU 3 instructions: 840000000 cycles: 1038948563 heartbeat IPC: 0.643862 cumulative IPC: 0.606283 (Simulation time: 2 hr 51 min 35 sec) 
Heartbeat CPU 0 instructions: 840000000 cycles: 1047557262 heartbeat IPC: 0.615776 cumulative IPC: 0.610582 (Simulation time: 2 hr 52 min 42 sec) 
Heartbeat CPU 2 instructions: 630000003 cycles: 1047651398 heartbeat IPC: 0.45615 cumulative IPC: 0.485101 (Simulation time: 2 hr 52 min 42 sec) 
Heartbeat CPU 3 instructions: 850000002 cycles: 1061320293 heartbeat IPC: 0.446993 cumulative IPC: 0.602323 (Simulation time: 2 hr 54 min 22 sec) 
Heartbeat CPU 0 instructions: 850000001 cycles: 1063646813 heartbeat IPC: 0.621521 cumulative IPC: 0.610777 (Simulation time: 2 hr 54 min 42 sec) 
Heartbeat CPU 1 instructions: 620000000 cycles: 1068116560 heartbeat IPC: 0.258707 cumulative IPC: 0.347006 (Simulation time: 2 hr 55 min 53 sec) 
Heartbeat CPU 2 instructions: 640000000 cycles: 1069161079 heartbeat IPC: 0.464907 cumulative IPC: 0.484622 (Simulation time: 2 hr 56 min 7 sec) 
Heartbeat CPU 3 instructions: 860000000 cycles: 1078057250 heartbeat IPC: 0.59748 cumulative IPC: 0.602235 (Simulation time: 2 hr 57 min 39 sec) 
Heartbeat CPU 0 instructions: 860000000 cycles: 1080204762 heartbeat IPC: 0.603939 cumulative IPC: 0.610653 (Simulation time: 2 hr 58 min 2 sec) 
Heartbeat CPU 2 instructions: 650000000 cycles: 1091138228 heartbeat IPC: 0.455018 cumulative IPC: 0.483923 (Simulation time: 2 hr 59 min 29 sec) 
Heartbeat CPU 1 instructions: 630000002 cycles: 1092289606 heartbeat IPC: 0.413684 cumulative IPC: 0.348737 (Simulation time: 2 hr 59 min 37 sec) 
Heartbeat CPU 3 instructions: 870000001 cycles: 1095911239 heartbeat IPC: 0.560099 cumulative IPC: 0.60143 (Simulation time: 3 hr 0 min 6 sec) 
Heartbeat CPU 0 instructions: 870000000 cycles: 1096651791 heartbeat IPC: 0.608013 cumulative IPC: 0.610607 (Simulation time: 3 hr 0 min 13 sec) 
Heartbeat CPU 2 instructions: 660000000 cycles: 1108653460 heartbeat IPC: 0.570932 cumulative IPC: 0.485531 (Simulation time: 3 hr 1 min 51 sec) 
Heartbeat CPU 3 instructions: 880000000 cycles: 1112271079 heartbeat IPC: 0.611253 cumulative IPC: 0.601599 (Simulation time: 3 hr 2 min 22 sec) 
Heartbeat CPU 0 instructions: 880000000 cycles: 1112704814 heartbeat IPC: 0.622936 cumulative IPC: 0.610815 (Simulation time: 3 hr 2 min 26 sec) 
Heartbeat CPU 1 instructions: 640000000 cycles: 1121953470 heartbeat IPC: 0.33711 cumulative IPC: 0.348378 (Simulation time: 3 hr 3 min 35 sec) 
Heartbeat CPU 2 instructions: 670000001 cycles: 1126274025 heartbeat IPC: 0.567519 cumulative IPC: 0.487028 (Simulation time: 3 hr 4 min 11 sec) 
Heartbeat CPU 3 instructions: 890000000 cycles: 1127851349 heartbeat IPC: 0.641837 cumulative IPC: 0.602248 (Simulation time: 3 hr 4 min 23 sec) 
Heartbeat CPU 0 instructions: 890000003 cycles: 1129369238 heartbeat IPC: 0.600081 cumulative IPC: 0.61063 (Simulation time: 3 hr 4 min 35 sec) 
Heartbeat CPU 3 instructions: 900000000 cycles: 1142781245 heartbeat IPC: 0.669797 cumulative IPC: 0.603275 (Simulation time: 3 hr 6 min 11 sec) 
Heartbeat CPU 2 instructions: 680000000 cycles: 1143073860 heartbeat IPC: 0.595244 cumulative IPC: 0.48888 (Simulation time: 3 hr 6 min 13 sec) 
Heartbeat CPU 0 instructions: 900000000 cycles: 1145773159 heartbeat IPC: 0.60961 cumulative IPC: 0.610613 (Simulation time: 3 hr 6 min 37 sec) 
Heartbeat CPU 1 instructions: 650000003 cycles: 1150875778 heartbeat IPC: 0.345754 cumulative IPC: 0.348302 (Simulation time: 3 hr 7 min 13 sec) 
Heartbeat CPU 3 instructions: 910000001 cycles: 1157193616 heartbeat IPC: 0.693848 cumulative IPC: 0.604586 (Simulation time: 3 hr 8 min 2 sec) 
Heartbeat CPU 2 instructions: 690000003 cycles: 1161189758 heartbeat IPC: 0.552002 cumulative IPC: 0.490024 (Simulation time: 3 hr 8 min 33 sec) 
Heartbeat CPU 0 instructions: 910000002 cycles: 1162439301 heartbeat IPC: 0.600019 cumulative IPC: 0.610437 (Simulation time: 3 hr 8 min 43 sec) 
Heartbeat CPU 3 instructions: 920000000 cycles: 1171353074 heartbeat IPC: 0.706242 cumulative IPC: 0.606011 (Simulation time: 3 hr 9 min 52 sec) 
Heartbeat CPU 2 instructions: 700000000 cycles: 1175283437 heartbeat IPC: 0.709538 cumulative IPC: 0.493074 (Simulation time: 3 hr 10 min 26 sec) 
Heartbeat CPU 1 instructions: 660000000 cycles: 1178381631 heartbeat IPC: 0.363559 cumulative IPC: 0.348714 (Simulation time: 3 hr 10 min 49 sec) 
Heartbeat CPU 0 instructions: 920000000 cycles: 1178404476 heartbeat IPC: 0.626363 cumulative IPC: 0.610687 (Simulation time: 3 hr 10 min 49 sec) 
Heartbeat CPU 3 instructions: 930000001 cycles: 1185200684 heartbeat IPC: 0.722146 cumulative IPC: 0.607581 (Simulation time: 3 hr 11 min 47 sec) 
Heartbeat CPU 2 instructions: 710000001 cycles: 1190841261 heartbeat IPC: 0.642763 cumulative IPC: 0.495336 (Simulation time: 3 hr 12 min 30 sec) 
Heartbeat CPU 0 instructions: 930000000 cycles: 1194830808 heartbeat IPC: 0.608779 cumulative IPC: 0.610657 (Simulation time: 3 hr 13 min 2 sec) 
Heartbeat CPU 3 instructions: 940000000 cycles: 1198765627 heartbeat IPC: 0.737194 cumulative IPC: 0.609276 (Simulation time: 3 hr 13 min 34 sec) 
Heartbeat CPU 1 instructions: 670000000 cycles: 1204950217 heartbeat IPC: 0.376384 cumulative IPC: 0.349419 (Simulation time: 3 hr 14 min 23 sec) 
Heartbeat CPU 2 instructions: 720000000 cycles: 1206016920 heartbeat IPC: 0.65895 cumulative IPC: 0.497713 (Simulation time: 3 hr 14 min 32 sec) 
Heartbeat CPU 3 instructions: 950000003 cycles: 1210784756 heartbeat IPC: 0.832007 cumulative IPC: 0.611827 (Simulation time: 3 hr 15 min 13 sec) 
Heartbeat CPU 0 instructions: 940000000 cycles: 1211266637 heartbeat IPC: 0.608427 cumulative IPC: 0.610622 (Simulation time: 3 hr 15 min 17 sec) 
Heartbeat CPU 3 instructions: 960000000 cycles: 1221497802 heartbeat IPC: 0.933441 cumulative IPC: 0.615076 (Simulation time: 3 hr 16 min 43 sec) 
Heartbeat CPU 2 instructions: 730000000 cycles: 1222805803 heartbeat IPC: 0.595632 cumulative IPC: 0.499261 (Simulation time: 3 hr 16 min 54 sec) 
Heartbeat CPU 0 instructions: 950000000 cycles: 1227635242 heartbeat IPC: 0.610926 cumulative IPC: 0.610626 (Simulation time: 3 hr 17 min 35 sec) 
Heartbeat CPU 1 instructions: 680000000 cycles: 1230712482 heartbeat IPC: 0.388165 cumulative IPC: 0.350352 (Simulation time: 3 hr 18 min 2 sec) 
Heartbeat CPU 3 instructions: 970000000 cycles: 1232325124 heartbeat IPC: 0.923589 cumulative IPC: 0.618195 (Simulation time: 3 hr 18 min 16 sec) 
Heartbeat CPU 3 instructions: 980000000 cycles: 1243359161 heartbeat IPC: 0.906287 cumulative IPC: 0.621132 (Simulation time: 3 hr 19 min 28 sec) 
Heartbeat CPU 0 instructions: 960000000 cycles: 1244244681 heartbeat IPC: 0.602067 cumulative IPC: 0.610495 (Simulation time: 3 hr 19 min 34 sec) 
Heartbeat CPU 2 instructions: 740000000 cycles: 1248874895 heartbeat IPC: 0.383596 cumulative IPC: 0.496489 (Simulation time: 3 hr 20 min 6 sec) 
Heartbeat CPU 3 instructions: 990000002 cycles: 1254427118 heartbeat IPC: 0.903509 cumulative IPC: 0.623991 (Simulation time: 3 hr 20 min 49 sec) 
Heartbeat CPU 1 instructions: 690000000 cycles: 1259507779 heartbeat IPC: 0.347279 cumulative IPC: 0.350271 (Simulation time: 3 hr 21 min 28 sec) 
Heartbeat CPU 0 instructions: 970000002 cycles: 1260879762 heartbeat IPC: 0.601139 cumulative IPC: 0.610354 (Simulation time: 3 hr 21 min 39 sec) 
Heartbeat CPU 3 instructions: 1000000000 cycles: 1266161316 heartbeat IPC: 0.85221 cumulative IPC: 0.626415 (Simulation time: 3 hr 22 min 17 sec) 
Heartbeat CPU 2 instructions: 750000000 cycles: 1273915264 heartbeat IPC: 0.399355 cumulative IPC: 0.494303 (Simulation time: 3 hr 23 min 11 sec) 
Heartbeat CPU 0 instructions: 980000000 cycles: 1277558376 heartbeat IPC: 0.59957 cumulative IPC: 0.610192 (Simulation time: 3 hr 23 min 37 sec) 
Heartbeat CPU 3 instructions: 1010000003 cycles: 1279273757 heartbeat IPC: 0.762635 cumulative IPC: 0.628013 (Simulation time: 3 hr 23 min 48 sec) 
Heartbeat CPU 1 instructions: 700000000 cycles: 1289455167 heartbeat IPC: 0.333919 cumulative IPC: 0.349837 (Simulation time: 3 hr 24 min 50 sec) 
Heartbeat CPU 0 instructions: 990000003 cycles: 1294273197 heartbeat IPC: 0.598272 cumulative IPC: 0.610017 (Simulation time: 3 hr 25 min 20 sec) 
Heartbeat CPU 2 instructions: 760000000 cycles: 1299645230 heartbeat IPC: 0.388652 cumulative IPC: 0.491915 (Simulation time: 3 hr 25 min 57 sec) 
Heartbeat CPU 3 instructions: 1020000000 cycles: 1303335298 heartbeat IPC: 0.415601 cumulative IPC: 0.623538 (Simulation time: 3 hr 26 min 22 sec) 
Heartbeat CPU 0 instructions: 1000000000 cycles: 1310628806 heartbeat IPC: 0.611411 cumulative IPC: 0.610036 (Simulation time: 3 hr 27 min 11 sec) 
Heartbeat CPU 1 instructions: 710000003 cycles: 1319515021 heartbeat IPC: 0.33267 cumulative IPC: 0.349392 (Simulation time: 3 hr 28 min 12 sec) 
Heartbeat CPU 3 instructions: 1030000003 cycles: 1324312691 heartbeat IPC: 0.476704 cumulative IPC: 0.620889 (Simulation time: 3 hr 28 min 41 sec) 
Heartbeat CPU 2 instructions: 770000003 cycles: 1325419769 heartbeat IPC: 0.38798 cumulative IPC: 0.489614 (Simulation time: 3 hr 28 min 49 sec) 
Heartbeat CPU 0 instructions: 1010000003 cycles: 1327150150 heartbeat IPC: 0.605278 cumulative IPC: 0.609969 (Simulation time: 3 hr 29 min 0 sec) 
Heartbeat CPU 0 instructions: 1020000000 cycles: 1343865062 heartbeat IPC: 0.598268 cumulative IPC: 0.609804 (Simulation time: 3 hr 30 min 47 sec) 
Heartbeat CPU 3 instructions: 1040000000 cycles: 1347439948 heartbeat IPC: 0.43239 cumulative IPC: 0.617214 (Simulation time: 3 hr 31 min 11 sec) 
Heartbeat CPU 1 instructions: 720000000 cycles: 1349084865 heartbeat IPC: 0.338182 cumulative IPC: 0.349113 (Simulation time: 3 hr 31 min 24 sec) 
Heartbeat CPU 2 instructions: 780000000 cycles: 1350825974 heartbeat IPC: 0.393605 cumulative IPC: 0.487564 (Simulation time: 3 hr 31 min 36 sec) 
Heartbeat CPU 0 instructions: 1030000001 cycles: 1360305571 heartbeat IPC: 0.608254 cumulative IPC: 0.609782 (Simulation time: 3 hr 32 min 41 sec) 
Heartbeat CPU 3 instructions: 1050000003 cycles: 1365675450 heartbeat IPC: 0.548381 cumulative IPC: 0.616172 (Simulation time: 3 hr 33 min 19 sec) 
Heartbeat CPU 0 instructions: 1040000000 cycles: 1376836148 heartbeat IPC: 0.60494 cumulative IPC: 0.609716 (Simulation time: 3 hr 34 min 36 sec) 
Heartbeat CPU 2 instructions: 790000003 cycles: 1377577596 heartbeat IPC: 0.373809 cumulative IPC: 0.485062 (Simulation time: 3 hr 34 min 41 sec) 
Heartbeat CPU 3 instructions: 1060000000 cycles: 1380381898 heartbeat IPC: 0.679974 cumulative IPC: 0.616942 (Simulation time: 3 hr 35 min 1 sec) 
Heartbeat CPU 1 instructions: 730000002 cycles: 1387256728 heartbeat IPC: 0.261973 cumulative IPC: 0.3464 (Simulation time: 3 hr 35 min 48 sec) 
Heartbeat CPU 0 instructions: 1050000001 cycles: 1393365106 heartbeat IPC: 0.604999 cumulative IPC: 0.609653 (Simulation time: 3 hr 36 min 26 sec) 
Heartbeat CPU 3 instructions: 1070000003 cycles: 1400984439 heartbeat IPC: 0.485377 cumulative IPC: 0.614755 (Simulation time: 3 hr 37 min 15 sec) 
Heartbeat CPU 2 instructions: 800000000 cycles: 1402536326 heartbeat IPC: 0.400661 cumulative IPC: 0.483365 (Simulation time: 3 hr 37 min 26 sec) 
Heartbeat CPU 0 instructions: 1060000000 cycles: 1409543790 heartbeat IPC: 0.618097 cumulative IPC: 0.609763 (Simulation time: 3 hr 38 min 31 sec) 
Heartbeat CPU 1 instructions: 740000000 cycles: 1417267520 heartbeat IPC: 0.333213 cumulative IPC: 0.346085 (Simulation time: 3 hr 39 min 31 sec) 
Heartbeat CPU 3 instructions: 1080000000 cycles: 1421237787 heartbeat IPC: 0.493745 cumulative IPC: 0.61281 (Simulation time: 3 hr 40 min 4 sec) 
Heartbeat CPU 0 instructions: 1070000003 cycles: 1425468743 heartbeat IPC: 0.627946 cumulative IPC: 0.609992 (Simulation time: 3 hr 40 min 37 sec) 
Heartbeat CPU 2 instructions: 810000000 cycles: 1428753001 heartbeat IPC: 0.381437 cumulative IPC: 0.481257 (Simulation time: 3 hr 41 min 6 sec) 
Heartbeat CPU 0 instructions: 1080000000 cycles: 1441630334 heartbeat IPC: 0.618751 cumulative IPC: 0.610102 (Simulation time: 3 hr 42 min 36 sec) 
Heartbeat CPU 3 instructions: 1090000002 cycles: 1442156924 heartbeat IPC: 0.478031 cumulative IPC: 0.610609 (Simulation time: 3 hr 42 min 39 sec) 
Heartbeat CPU 1 instructions: 750000000 cycles: 1447869995 heartbeat IPC: 0.326771 cumulative IPC: 0.345625 (Simulation time: 3 hr 43 min 18 sec) 
Heartbeat CPU 2 instructions: 820000000 cycles: 1454706647 heartbeat IPC: 0.385302 cumulative IPC: 0.479331 (Simulation time: 3 hr 44 min 7 sec) 
Heartbeat CPU 0 instructions: 1090000002 cycles: 1457759726 heartbeat IPC: 0.619986 cumulative IPC: 0.610225 (Simulation time: 3 hr 44 min 31 sec) 
Heartbeat CPU 3 instructions: 1100000000 cycles: 1463001409 heartbeat IPC: 0.479743 cumulative IPC: 0.608513 (Simulation time: 3 hr 45 min 10 sec) 
Heartbeat CPU 0 instructions: 1100000000 cycles: 1473860535 heartbeat IPC: 0.621087 cumulative IPC: 0.610358 (Simulation time: 3 hr 46 min 30 sec) 
Heartbeat CPU 1 instructions: 760000000 cycles: 1478066452 heartbeat IPC: 0.331165 cumulative IPC: 0.345294 (Simulation time: 3 hr 47 min 3 sec) 
Heartbeat CPU 2 instructions: 830000001 cycles: 1480699419 heartbeat IPC: 0.384722 cumulative IPC: 0.477467 (Simulation time: 3 hr 47 min 23 sec) 
Heartbeat CPU 3 instructions: 1110000000 cycles: 1480705002 heartbeat IPC: 0.564857 cumulative IPC: 0.607928 (Simulation time: 3 hr 47 min 23 sec) 
Heartbeat CPU 0 instructions: 1110000002 cycles: 1489791441 heartbeat IPC: 0.627711 cumulative IPC: 0.610566 (Simulation time: 3 hr 48 min 40 sec) 
Heartbeat CPU 3 instructions: 1120000000 cycles: 1494533633 heartbeat IPC: 0.723137 cumulative IPC: 0.609123 (Simulation time: 3 hr 49 min 16 sec) 
Heartbeat CPU 0 instructions: 1120000000 cycles: 1505192868 heartbeat IPC: 0.64929 cumulative IPC: 0.61101 (Simulation time: 3 hr 50 min 27 sec) 
Heartbeat CPU 2 instructions: 840000000 cycles: 1506380755 heartbeat IPC: 0.389388 cumulative IPC: 0.475786 (Simulation time: 3 hr 50 min 35 sec) 
Heartbeat CPU 1 instructions: 770000000 cycles: 1507763782 heartbeat IPC: 0.336731 cumulative IPC: 0.345105 (Simulation time: 3 hr 50 min 45 sec) 
Heartbeat CPU 3 instructions: 1130000001 cycles: 1514603216 heartbeat IPC: 0.498267 cumulative IPC: 0.607479 (Simulation time: 3 hr 51 min 31 sec) 
Heartbeat CPU 0 instructions: 1130000001 cycles: 1521355415 heartbeat IPC: 0.618714 cumulative IPC: 0.611102 (Simulation time: 3 hr 52 min 13 sec) 
Heartbeat CPU 2 instructions: 850000000 cycles: 1533723540 heartbeat IPC: 0.365727 cumulative IPC: 0.473593 (Simulation time: 3 hr 53 min 39 sec) 
Heartbeat CPU 3 instructions: 1140000000 cycles: 1535249969 heartbeat IPC: 0.484338 cumulative IPC: 0.605628 (Simulation time: 3 hr 53 min 49 sec) 
Heartbeat CPU 1 instructions: 780000000 cycles: 1537427981 heartbeat IPC: 0.337107 cumulative IPC: 0.344932 (Simulation time: 3 hr 54 min 2 sec) 
Heartbeat CPU 0 instructions: 1140000000 cycles: 1537436872 heartbeat IPC: 0.621834 cumulative IPC: 0.611227 (Simulation time: 3 hr 54 min 2 sec) 
Heartbeat CPU 0 instructions: 1150000003 cycles: 1553485697 heartbeat IPC: 0.623099 cumulative IPC: 0.611364 (Simulation time: 3 hr 55 min 49 sec) 
Heartbeat CPU 3 instructions: 1150000001 cycles: 1558050154 heartbeat IPC: 0.438593 cumulative IPC: 0.602902 (Simulation time: 3 hr 56 min 20 sec) 
Heartbeat CPU 2 instructions: 860000000 cycles: 1560561413 heartbeat IPC: 0.372608 cumulative IPC: 0.471656 (Simulation time: 3 hr 56 min 37 sec) 
Heartbeat CPU 1 instructions: 790000003 cycles: 1567334352 heartbeat IPC: 0.334377 cumulative IPC: 0.344708 (Simulation time: 3 hr 57 min 25 sec) 
Heartbeat CPU 0 instructions: 1160000000 cycles: 1569467209 heartbeat IPC: 0.625723 cumulative IPC: 0.611527 (Simulation time: 3 hr 57 min 40 sec) 
Heartbeat CPU 3 instructions: 1160000000 cycles: 1575094574 heartbeat IPC: 0.586702 cumulative IPC: 0.602706 (Simulation time: 3 hr 58 min 21 sec) 
Heartbeat CPU 0 instructions: 1170000000 cycles: 1585462818 heartbeat IPC: 0.625172 cumulative IPC: 0.61168 (Simulation time: 3 hr 59 min 35 sec) 
Heartbeat CPU 2 instructions: 870000002 cycles: 1587083162 heartbeat IPC: 0.377049 cumulative IPC: 0.469897 (Simulation time: 3 hr 59 min 46 sec) 
Heartbeat CPU 3 instructions: 1170000002 cycles: 1591081411 heartbeat IPC: 0.625515 cumulative IPC: 0.602962 (Simulation time: 4 hr 0 min 15 sec) 
Heartbeat CPU 1 instructions: 800000000 cycles: 1598287374 heartbeat IPC: 0.32307 cumulative IPC: 0.344242 (Simulation time: 4 hr 1 min 7 sec) 
Heartbeat CPU 0 instructions: 1180000000 cycles: 1601595185 heartbeat IPC: 0.619872 cumulative IPC: 0.611772 (Simulation time: 4 hr 1 min 30 sec) 
Heartbeat CPU 3 instructions: 1180000000 cycles: 1606321448 heartbeat IPC: 0.656166 cumulative IPC: 0.603523 (Simulation time: 4 hr 2 min 6 sec) 
Heartbeat CPU 2 instructions: 880000000 cycles: 1613556962 heartbeat IPC: 0.377732 cumulative IPC: 0.468217 (Simulation time: 4 hr 2 min 59 sec) 
Heartbeat CPU 0 instructions: 1190000003 cycles: 1618091989 heartbeat IPC: 0.606178 cumulative IPC: 0.611709 (Simulation time: 4 hr 3 min 31 sec) 
Heartbeat CPU 3 instructions: 1190000002 cycles: 1621028152 heartbeat IPC: 0.679962 cumulative IPC: 0.604293 (Simulation time: 4 hr 3 min 53 sec) 
Heartbeat CPU 1 instructions: 810000003 cycles: 1629058565 heartbeat IPC: 0.324979 cumulative IPC: 0.343838 (Simulation time: 4 hr 4 min 52 sec) 
Heartbeat CPU 0 instructions: 1200000000 cycles: 1634679869 heartbeat IPC: 0.60285 cumulative IPC: 0.611609 (Simulation time: 4 hr 5 min 33 sec) 
Heartbeat CPU 3 instructions: 1200000000 cycles: 1635309202 heartbeat IPC: 0.700229 cumulative IPC: 0.605222 (Simulation time: 4 hr 5 min 38 sec) 
Heartbeat CPU 2 instructions: 890000001 cycles: 1640051736 heartbeat IPC: 0.377433 cumulative IPC: 0.46659 (Simulation time: 4 hr 6 min 12 sec) 
Heartbeat CPU 3 instructions: 1210000002 cycles: 1647026284 heartbeat IPC: 0.853455 cumulative IPC: 0.60718 (Simulation time: 4 hr 7 min 6 sec) 
Heartbeat CPU 0 instructions: 1210000002 cycles: 1651110718 heartbeat IPC: 0.608611 cumulative IPC: 0.611576 (Simulation time: 4 hr 7 min 38 sec) 
Heartbeat CPU 3 instructions: 1220000000 cycles: 1658106957 heartbeat IPC: 0.902472 cumulative IPC: 0.609366 (Simulation time: 4 hr 8 min 31 sec) 
Heartbeat CPU 1 instructions: 820000000 cycles: 1659320861 heartbeat IPC: 0.330444 cumulative IPC: 0.343567 (Simulation time: 4 hr 8 min 39 sec) 
Heartbeat CPU 2 instructions: 900000000 cycles: 1665706133 heartbeat IPC: 0.389797 cumulative IPC: 0.465281 (Simulation time: 4 hr 9 min 28 sec) 
Heartbeat CPU 0 instructions: 1220000000 cycles: 1667368465 heartbeat IPC: 0.615091 cumulative IPC: 0.611614 (Simulation time: 4 hr 9 min 40 sec) 
Heartbeat CPU 3 instructions: 1230000002 cycles: 1669575627 heartbeat IPC: 0.871941 cumulative IPC: 0.611362 (Simulation time: 4 hr 9 min 56 sec) 
Heartbeat CPU 3 instructions: 1240000000 cycles: 1681766799 heartbeat IPC: 0.820266 cumulative IPC: 0.613037 (Simulation time: 4 hr 11 min 25 sec) 
Heartbeat CPU 0 instructions: 1230000002 cycles: 1684504652 heartbeat IPC: 0.583561 cumulative IPC: 0.611298 (Simulation time: 4 hr 11 min 44 sec) 
Heartbeat CPU 1 instructions: 830000001 cycles: 1689033490 heartbeat IPC: 0.336557 cumulative IPC: 0.343431 (Simulation time: 4 hr 12 min 16 sec) 
Heartbeat CPU 2 instructions: 910000000 cycles: 1690930398 heartbeat IPC: 0.396444 cumulative IPC: 0.464146 (Simulation time: 4 hr 12 min 28 sec) 
Heartbeat CPU 3 instructions: 1250000000 cycles: 1699834955 heartbeat IPC: 0.55346 cumulative IPC: 0.612337 (Simulation time: 4 hr 13 min 27 sec) 
Heartbeat CPU 0 instructions: 1240000000 cycles: 1700967536 heartbeat IPC: 0.607427 cumulative IPC: 0.611257 (Simulation time: 4 hr 13 min 36 sec) 
Heartbeat CPU 2 instructions: 920000000 cycles: 1716892519 heartbeat IPC: 0.385177 cumulative IPC: 0.462828 (Simulation time: 4 hr 15 min 15 sec) 
Heartbeat CPU 0 instructions: 1250000002 cycles: 1717324946 heartbeat IPC: 0.611344 cumulative IPC: 0.611258 (Simulation time: 4 hr 15 min 18 sec) 
Heartbeat CPU 1 instructions: 840000000 cycles: 1722429379 heartbeat IPC: 0.299438 cumulative IPC: 0.34249 (Simulation time: 4 hr 15 min 49 sec) 
Heartbeat CPU 3 instructions: 1260000000 cycles: 1724511757 heartbeat IPC: 0.405239 cumulative IPC: 0.609068 (Simulation time: 4 hr 16 min 4 sec) 
Heartbeat CPU 0 instructions: 1260000000 cycles: 1733727825 heartbeat IPC: 0.609649 cumulative IPC: 0.611241 (Simulation time: 4 hr 17 min 19 sec) 
Heartbeat CPU 3 instructions: 1270000002 cycles: 1741162918 heartbeat IPC: 0.600559 cumulative IPC: 0.608979 (Simulation time: 4 hr 18 min 19 sec) 
Heartbeat CPU 2 instructions: 930000001 cycles: 1743793609 heartbeat IPC: 0.371732 cumulative IPC: 0.461279 (Simulation time: 4 hr 18 min 36 sec) 
Heartbeat CPU 0 instructions: 1270000000 cycles: 1750026103 heartbeat IPC: 0.613562 cumulative IPC: 0.611265 (Simulation time: 4 hr 19 min 24 sec) 
Heartbeat CPU 1 instructions: 850000000 cycles: 1758636805 heartbeat IPC: 0.276186 cumulative IPC: 0.340987 (Simulation time: 4 hr 20 min 32 sec) 
Heartbeat CPU 3 instructions: 1280000000 cycles: 1762132399 heartbeat IPC: 0.476883 cumulative IPC: 0.607248 (Simulation time: 4 hr 21 min 0 sec) 
Heartbeat CPU 0 instructions: 1280000000 cycles: 1766191763 heartbeat IPC: 0.618595 cumulative IPC: 0.611339 (Simulation time: 4 hr 21 min 29 sec) 
Heartbeat CPU 2 instructions: 940000000 cycles: 1769009263 heartbeat IPC: 0.396579 cumulative IPC: 0.460264 (Simulation time: 4 hr 21 min 51 sec) 
Heartbeat CPU 3 instructions: 1290000000 cycles: 1780158197 heartbeat IPC: 0.55476 cumulative IPC: 0.606664 (Simulation time: 4 hr 23 min 4 sec) 
Heartbeat CPU 0 instructions: 1290000001 cycles: 1782767953 heartbeat IPC: 0.603275 cumulative IPC: 0.611256 (Simulation time: 4 hr 23 min 21 sec) 
Heartbeat CPU 1 instructions: 860000000 cycles: 1786220252 heartbeat IPC: 0.362536 cumulative IPC: 0.341353 (Simulation time: 4 hr 23 min 44 sec) 
Heartbeat CPU 2 instructions: 950000003 cycles: 1795235228 heartbeat IPC: 0.381302 cumulative IPC: 0.458997 (Simulation time: 4 hr 24 min 42 sec) 
Finished CPU 0 instructions: 1000000002 cycles: 1635998203 cumulative IPC: 0.611248 (Simulation time: 4 hr 24 min 56 sec) 
Heartbeat CPU 0 instructions: 1300000000 cycles: 1799172249 heartbeat IPC: 0.609596 cumulative IPC: 0.61124 (Simulation time: 4 hr 25 min 9 sec) 
Heartbeat CPU 3 instructions: 1300000000 cycles: 1802343808 heartbeat IPC: 0.450743 cumulative IPC: 0.604556 (Simulation time: 4 hr 25 min 32 sec) 
Heartbeat CPU 0 instructions: 1310000002 cycles: 1815599279 heartbeat IPC: 0.608753 cumulative IPC: 0.611215 (Simulation time: 4 hr 27 min 6 sec) 
Finished CPU 3 instructions: 1000000003 cycles: 1654422337 cumulative IPC: 0.604441 (Simulation time: 4 hr 27 min 6 sec) 
Heartbeat CPU 1 instructions: 870000000 cycles: 1817337677 heartbeat IPC: 0.321363 cumulative IPC: 0.340977 (Simulation time: 4 hr 27 min 18 sec) 
Heartbeat CPU 2 instructions: 960000000 cycles: 1820502493 heartbeat IPC: 0.395769 cumulative IPC: 0.458034 (Simulation time: 4 hr 27 min 37 sec) 
Heartbeat CPU 3 instructions: 1310000001 cycles: 1821579845 heartbeat IPC: 0.519858 cumulative IPC: 0.603575 (Simulation time: 4 hr 27 min 44 sec) 
Heartbeat CPU 0 instructions: 1320000000 cycles: 1832064646 heartbeat IPC: 0.607335 cumulative IPC: 0.611177 (Simulation time: 4 hr 28 min 48 sec) 
Heartbeat CPU 3 instructions: 1320000000 cycles: 1841806321 heartbeat IPC: 0.494401 cumulative IPC: 0.602261 (Simulation time: 4 hr 29 min 53 sec) 
Heartbeat CPU 2 instructions: 970000000 cycles: 1847252064 heartbeat IPC: 0.373838 cumulative IPC: 0.456698 (Simulation time: 4 hr 30 min 29 sec) 
Heartbeat CPU 1 instructions: 880000000 cycles: 1848844345 heartbeat IPC: 0.317393 cumulative IPC: 0.340537 (Simulation time: 4 hr 30 min 41 sec) 
Heartbeat CPU 0 instructions: 1330000003 cycles: 1848912463 heartbeat IPC: 0.593549 cumulative IPC: 0.611001 (Simulation time: 4 hr 30 min 41 sec) 
Heartbeat CPU 3 instructions: 1330000001 cycles: 1857581301 heartbeat IPC: 0.633915 cumulative IPC: 0.602555 (Simulation time: 4 hr 31 min 39 sec) 
Heartbeat CPU 0 instructions: 1340000000 cycles: 1865417639 heartbeat IPC: 0.60587 cumulative IPC: 0.610951 (Simulation time: 4 hr 32 min 30 sec) 
Heartbeat CPU 2 instructions: 980000000 cycles: 1873624775 heartbeat IPC: 0.37918 cumulative IPC: 0.455505 (Simulation time: 4 hr 33 min 19 sec) 
Heartbeat CPU 3 instructions: 1340000000 cycles: 1877297212 heartbeat IPC: 0.507205 cumulative IPC: 0.60146 (Simulation time: 4 hr 33 min 43 sec) 
Heartbeat CPU 1 instructions: 890000001 cycles: 1880764341 heartbeat IPC: 0.313283 cumulative IPC: 0.340031 (Simulation time: 4 hr 34 min 8 sec) 
Heartbeat CPU 0 instructions: 1350000001 cycles: 1881535066 heartbeat IPC: 0.620447 cumulative IPC: 0.61104 (Simulation time: 4 hr 34 min 13 sec) 
Heartbeat CPU 3 instructions: 1350000003 cycles: 1897040335 heartbeat IPC: 0.506506 cumulative IPC: 0.60038 (Simulation time: 4 hr 35 min 52 sec) 
Heartbeat CPU 0 instructions: 1360000000 cycles: 1897898786 heartbeat IPC: 0.611108 cumulative IPC: 0.611041 (Simulation time: 4 hr 35 min 57 sec) 
Heartbeat CPU 2 instructions: 990000001 cycles: 1898528581 heartbeat IPC: 0.401545 cumulative IPC: 0.454731 (Simulation time: 4 hr 36 min 2 sec) 
Heartbeat CPU 1 instructions: 900000000 cycles: 1914003388 heartbeat IPC: 0.300851 cumulative IPC: 0.339288 (Simulation time: 4 hr 37 min 50 sec) 
Heartbeat CPU 0 instructions: 1370000003 cycles: 1914027513 heartbeat IPC: 0.620012 cumulative IPC: 0.611123 (Simulation time: 4 hr 37 min 51 sec) 
Heartbeat CPU 3 instructions: 1360000000 cycles: 1914763643 heartbeat IPC: 0.564229 cumulative IPC: 0.600014 (Simulation time: 4 hr 37 min 55 sec) 
Heartbeat CPU 2 instructions: 1000000000 cycles: 1924357530 heartbeat IPC: 0.387162 cumulative IPC: 0.453741 (Simulation time: 4 hr 39 min 3 sec) 
Heartbeat CPU 0 instructions: 1380000000 cycles: 1930250957 heartbeat IPC: 0.616392 cumulative IPC: 0.611171 (Simulation time: 4 hr 39 min 45 sec) 
Heartbeat CPU 3 instructions: 1370000002 cycles: 1930965490 heartbeat IPC: 0.617214 cumulative IPC: 0.600172 (Simulation time: 4 hr 39 min 51 sec) 
Heartbeat CPU 3 instructions: 1380000000 cycles: 1943852837 heartbeat IPC: 0.775955 cumulative IPC: 0.601443 (Simulation time: 4 hr 41 min 26 sec) 
Heartbeat CPU 1 instructions: 910000000 cycles: 1946542042 heartbeat IPC: 0.307327 cumulative IPC: 0.338706 (Simulation time: 4 hr 41 min 46 sec) 
Heartbeat CPU 0 instructions: 1390000000 cycles: 1946576394 heartbeat IPC: 0.612541 cumulative IPC: 0.611184 (Simulation time: 4 hr 41 min 46 sec) 
Heartbeat CPU 2 instructions: 1010000002 cycles: 1950118162 heartbeat IPC: 0.388189 cumulative IPC: 0.452797 (Simulation time: 4 hr 42 min 11 sec) 
Heartbeat CPU 3 instructions: 1390000001 cycles: 1957759600 heartbeat IPC: 0.719075 cumulative IPC: 0.602353 (Simulation time: 4 hr 43 min 4 sec) 
Heartbeat CPU 0 instructions: 1400000000 cycles: 1962737417 heartbeat IPC: 0.618773 cumulative IPC: 0.611252 (Simulation time: 4 hr 43 min 32 sec) 
Heartbeat CPU 2 instructions: 1020000000 cycles: 1976502182 heartbeat IPC: 0.379017 cumulative IPC: 0.451725 (Simulation time: 4 hr 45 min 7 sec) 
Heartbeat CPU 1 instructions: 920000000 cycles: 1978421639 heartbeat IPC: 0.31368 cumulative IPC: 0.338267 (Simulation time: 4 hr 45 min 22 sec) 
Heartbeat CPU 0 instructions: 1410000002 cycles: 1979038060 heartbeat IPC: 0.613473 cumulative IPC: 0.611272 (Simulation time: 4 hr 45 min 27 sec) 
Heartbeat CPU 3 instructions: 1400000000 cycles: 1980219030 heartbeat IPC: 0.445247 cumulative IPC: 0.600413 (Simulation time: 4 hr 45 min 37 sec) 
Heartbeat CPU 0 instructions: 1420000000 cycles: 1995594207 heartbeat IPC: 0.604005 cumulative IPC: 0.611206 (Simulation time: 4 hr 47 min 32 sec) 
Heartbeat CPU 3 instructions: 1410000002 cycles: 1998655674 heartbeat IPC: 0.542398 cumulative IPC: 0.599831 (Simulation time: 4 hr 47 min 52 sec) 
Heartbeat CPU 2 instructions: 1030000002 cycles: 2002270370 heartbeat IPC: 0.388075 cumulative IPC: 0.450834 (Simulation time: 4 hr 48 min 19 sec) 
Heartbeat CPU 1 instructions: 930000000 cycles: 2010667237 heartbeat IPC: 0.31012 cumulative IPC: 0.337776 (Simulation time: 4 hr 49 min 18 sec) 
Heartbeat CPU 0 instructions: 1430000000 cycles: 2012192281 heartbeat IPC: 0.60248 cumulative IPC: 0.611128 (Simulation time: 4 hr 49 min 32 sec) 
Heartbeat CPU 3 instructions: 1420000000 cycles: 2016398925 heartbeat IPC: 0.563594 cumulative IPC: 0.599485 (Simulation time: 4 hr 50 min 8 sec) 
Heartbeat CPU 0 instructions: 1440000000 cycles: 2028276152 heartbeat IPC: 0.621741 cumulative IPC: 0.61122 (Simulation time: 4 hr 51 min 50 sec) 
Heartbeat CPU 2 instructions: 1040000000 cycles: 2029000391 heartbeat IPC: 0.374111 cumulative IPC: 0.449736 (Simulation time: 4 hr 51 min 56 sec) 
Heartbeat CPU 3 instructions: 1430000003 cycles: 2032765992 heartbeat IPC: 0.610983 cumulative IPC: 0.599585 (Simulation time: 4 hr 52 min 28 sec) 
Heartbeat CPU 1 instructions: 940000000 cycles: 2041360177 heartbeat IPC: 0.325808 cumulative IPC: 0.33758 (Simulation time: 4 hr 53 min 36 sec) 
Heartbeat CPU 0 instructions: 1450000001 cycles: 2044336445 heartbeat IPC: 0.622654 cumulative IPC: 0.611317 (Simulation time: 4 hr 53 min 58 sec) 
Heartbeat CPU 3 instructions: 1440000000 cycles: 2048116480 heartbeat IPC: 0.651445 cumulative IPC: 0.600007 (Simulation time: 4 hr 54 min 26 sec) 
Heartbeat CPU 2 instructions: 1050000003 cycles: 2055270486 heartbeat IPC: 0.380661 cumulative IPC: 0.448778 (Simulation time: 4 hr 55 min 25 sec) 
Heartbeat CPU 3 instructions: 1450000000 cycles: 2059639886 heartbeat IPC: 0.867799 cumulative IPC: 0.601633 (Simulation time: 4 hr 55 min 59 sec) 
Heartbeat CPU 0 instructions: 1460000000 cycles: 2060831647 heartbeat IPC: 0.606237 cumulative IPC: 0.611273 (Simulation time: 4 hr 56 min 8 sec) 
Heartbeat CPU 1 instructions: 950000000 cycles: 2072356673 heartbeat IPC: 0.322617 cumulative IPC: 0.337338 (Simulation time: 4 hr 57 min 40 sec) 
Heartbeat CPU 3 instructions: 1460000000 cycles: 2072893941 heartbeat IPC: 0.754486 cumulative IPC: 0.602692 (Simulation time: 4 hr 57 min 44 sec) 
Heartbeat CPU 0 instructions: 1470000003 cycles: 2077295196 heartbeat IPC: 0.607403 cumulative IPC: 0.61124 (Simulation time: 4 hr 58 min 16 sec) 
Heartbeat CPU 2 instructions: 1060000000 cycles: 2081537506 heartbeat IPC: 0.380705 cumulative IPC: 0.447847 (Simulation time: 4 hr 58 min 45 sec) 
Heartbeat CPU 0 instructions: 1480000000 cycles: 2093681361 heartbeat IPC: 0.610271 cumulative IPC: 0.611232 (Simulation time: 5 hr 0 min 14 sec) 
Heartbeat CPU 3 instructions: 1470000000 cycles: 2095270396 heartbeat IPC: 0.446898 cumulative IPC: 0.60089 (Simulation time: 5 hr 0 min 25 sec) 
Heartbeat CPU 2 instructions: 1070000002 cycles: 2108729479 heartbeat IPC: 0.367756 cumulative IPC: 0.446728 (Simulation time: 5 hr 2 min 2 sec) 
Heartbeat CPU 0 instructions: 1490000001 cycles: 2110437774 heartbeat IPC: 0.596786 cumulative IPC: 0.611107 (Simulation time: 5 hr 2 min 15 sec) 
Heartbeat CPU 3 instructions: 1480000000 cycles: 2111289201 heartbeat IPC: 0.624266 cumulative IPC: 0.601082 (Simulation time: 5 hr 2 min 21 sec) 
Heartbeat CPU 1 instructions: 960000000 cycles: 2113395404 heartbeat IPC: 0.243672 cumulative IPC: 0.335369 (Simulation time: 5 hr 2 min 38 sec) 
Heartbeat CPU 0 instructions: 1500000000 cycles: 2126728361 heartbeat IPC: 0.613851 cumulative IPC: 0.61113 (Simulation time: 5 hr 4 min 16 sec) 
Heartbeat CPU 3 instructions: 1490000002 cycles: 2131320980 heartbeat IPC: 0.499207 cumulative IPC: 0.600046 (Simulation time: 5 hr 4 min 50 sec) 
Heartbeat CPU 2 instructions: 1080000000 cycles: 2134991045 heartbeat IPC: 0.380785 cumulative IPC: 0.445851 (Simulation time: 5 hr 5 min 16 sec) 
Heartbeat CPU 1 instructions: 970000002 cycles: 2141269135 heartbeat IPC: 0.358761 cumulative IPC: 0.335698 (Simulation time: 5 hr 6 min 15 sec) 
Heartbeat CPU 0 instructions: 1510000001 cycles: 2143014902 heartbeat IPC: 0.614004 cumulative IPC: 0.611154 (Simulation time: 5 hr 6 min 29 sec) 
Heartbeat CPU 3 instructions: 1500000000 cycles: 2148622718 heartbeat IPC: 0.577977 cumulative IPC: 0.599854 (Simulation time: 5 hr 7 min 13 sec) 
Heartbeat CPU 0 instructions: 1520000000 cycles: 2159413742 heartbeat IPC: 0.609799 cumulative IPC: 0.611143 (Simulation time: 5 hr 8 min 33 sec) 
Heartbeat CPU 2 instructions: 1090000001 cycles: 2162044537 heartbeat IPC: 0.369638 cumulative IPC: 0.444821 (Simulation time: 5 hr 8 min 51 sec) 
Heartbeat CPU 3 instructions: 1510000001 cycles: 2164671760 heartbeat IPC: 0.62309 cumulative IPC: 0.60004 (Simulation time: 5 hr 9 min 9 sec) 
Heartbeat CPU 1 instructions: 980000000 cycles: 2173642651 heartbeat IPC: 0.308894 cumulative IPC: 0.335267 (Simulation time: 5 hr 10 min 13 sec) 
Heartbeat CPU 0 instructions: 1530000002 cycles: 2176427679 heartbeat IPC: 0.587754 cumulative IPC: 0.610945 (Simulation time: 5 hr 10 min 33 sec) 
Heartbeat CPU 3 instructions: 1520000000 cycles: 2180056420 heartbeat IPC: 0.649998 cumulative IPC: 0.600421 (Simulation time: 5 hr 10 min 59 sec) 
Heartbeat CPU 2 instructions: 1100000000 cycles: 2189090934 heartbeat IPC: 0.369735 cumulative IPC: 0.443819 (Simulation time: 5 hr 12 min 5 sec) 
Heartbeat CPU 0 instructions: 1540000000 cycles: 2192854301 heartbeat IPC: 0.608768 cumulative IPC: 0.610927 (Simulation time: 5 hr 12 min 33 sec) 
Heartbeat CPU 3 instructions: 1530000001 cycles: 2194695158 heartbeat IPC: 0.683119 cumulative IPC: 0.601016 (Simulation time: 5 hr 12 min 46 sec) 
Heartbeat CPU 1 instructions: 990000001 cycles: 2204215575 heartbeat IPC: 0.327087 cumulative IPC: 0.335144 (Simulation time: 5 hr 13 min 55 sec) 
Heartbeat CPU 3 instructions: 1540000000 cycles: 2207627456 heartbeat IPC: 0.773258 cumulative IPC: 0.602105 (Simulation time: 5 hr 14 min 23 sec) 
Heartbeat CPU 0 instructions: 1550000002 cycles: 2209065243 heartbeat IPC: 0.616867 cumulative IPC: 0.610974 (Simulation time: 5 hr 14 min 33 sec) 
Heartbeat CPU 2 instructions: 1110000001 cycles: 2215254509 heartbeat IPC: 0.382211 cumulative IPC: 0.443034 (Simulation time: 5 hr 15 min 21 sec) 
Heartbeat CPU 3 instructions: 1550000000 cycles: 2218800416 heartbeat IPC: 0.895018 cumulative IPC: 0.603695 (Simulation time: 5 hr 15 min 48 sec) 
Heartbeat CPU 0 instructions: 1560000000 cycles: 2225539069 heartbeat IPC: 0.607023 cumulative IPC: 0.610943 (Simulation time: 5 hr 16 min 38 sec) 
Heartbeat CPU 3 instructions: 1560000000 cycles: 2230461152 heartbeat IPC: 0.857579 cumulative IPC: 0.605126 (Simulation time: 5 hr 17 min 14 sec) 
Heartbeat CPU 1 instructions: 1000000000 cycles: 2233900206 heartbeat IPC: 0.336875 cumulative IPC: 0.335169 (Simulation time: 5 hr 17 min 39 sec) 
Heartbeat CPU 2 instructions: 1120000000 cycles: 2241400466 heartbeat IPC: 0.382468 cumulative IPC: 0.442273 (Simulation time: 5 hr 18 min 33 sec) 
Heartbeat CPU 0 instructions: 1570000001 cycles: 2242195156 heartbeat IPC: 0.600381 cumulative IPC: 0.610858 (Simulation time: 5 hr 18 min 38 sec) 
Heartbeat CPU 3 instructions: 1570000003 cycles: 2243323257 heartbeat IPC: 0.777478 cumulative IPC: 0.606191 (Simulation time: 5 hr 18 min 46 sec) 
Heartbeat CPU 0 instructions: 1580000000 cycles: 2258435772 heartbeat IPC: 0.61574 cumulative IPC: 0.610896 (Simulation time: 5 hr 20 min 19 sec) 
Heartbeat CPU 1 instructions: 1010000001 cycles: 2264308527 heartbeat IPC: 0.328857 cumulative IPC: 0.335078 (Simulation time: 5 hr 21 min 1 sec) 
Heartbeat CPU 2 instructions: 1130000003 cycles: 2265391175 heartbeat IPC: 0.416828 cumulative IPC: 0.441983 (Simulation time: 5 hr 21 min 11 sec) 
Heartbeat CPU 3 instructions: 1580000000 cycles: 2266079654 heartbeat IPC: 0.439437 cumulative IPC: 0.604388 (Simulation time: 5 hr 21 min 16 sec) 
Heartbeat CPU 0 instructions: 1590000001 cycles: 2275065039 heartbeat IPC: 0.601349 cumulative IPC: 0.610821 (Simulation time: 5 hr 22 min 21 sec) 
Heartbeat CPU 3 instructions: 1590000000 cycles: 2284979975 heartbeat IPC: 0.529092 cumulative IPC: 0.603718 (Simulation time: 5 hr 23 min 32 sec) 
Heartbeat CPU 2 instructions: 1140000000 cycles: 2287131754 heartbeat IPC: 0.459969 cumulative IPC: 0.442167 (Simulation time: 5 hr 23 min 47 sec) 
Heartbeat CPU 1 instructions: 1020000000 cycles: 2290562373 heartbeat IPC: 0.380897 cumulative IPC: 0.335643 (Simulation time: 5 hr 24 min 11 sec) 
Heartbeat CPU 0 instructions: 1600000000 cycles: 2291179628 heartbeat IPC: 0.620556 cumulative IPC: 0.610895 (Simulation time: 5 hr 24 min 16 sec) 
Heartbeat CPU 3 instructions: 1600000000 cycles: 2305975849 heartbeat IPC: 0.476284 cumulative IPC: 0.60247 (Simulation time: 5 hr 26 min 1 sec) 
Heartbeat CPU 0 instructions: 1610000000 cycles: 2307611622 heartbeat IPC: 0.608569 cumulative IPC: 0.610877 (Simulation time: 5 hr 26 min 14 sec) 
Heartbeat CPU 2 instructions: 1150000002 cycles: 2308664764 heartbeat IPC: 0.464403 cumulative IPC: 0.44239 (Simulation time: 5 hr 26 min 22 sec) 
Heartbeat CPU 1 instructions: 1030000002 cycles: 2317605738 heartbeat IPC: 0.369777 cumulative IPC: 0.336071 (Simulation time: 5 hr 27 min 23 sec) 
Heartbeat CPU 0 instructions: 1620000000 cycles: 2324101837 heartbeat IPC: 0.60642 cumulative IPC: 0.610843 (Simulation time: 5 hr 28 min 9 sec) 
[...]
Heartbeat CPU 1 instructions: 1240000000 cycles: 2920635919 heartbeat IPC: 0.371334 cumulative IPC: 0.338731 (Simulation time: 6 hr 38 min 44 sec) 
Heartbeat CPU 0 instructions: 1990000000 cycles: 2928494789 heartbeat IPC: 0.59838 cumulative IPC: 0.611136 (Simulation time: 6 hr 39 min 44 sec) 
Heartbeat CPU 3 instructions: 1980000000 cycles: 2933135745 heartbeat IPC: 0.755902 cumulative IPC: 0.603248 (Simulation time: 6 hr 40 min 18 sec) 
Heartbeat CPU 2 instructions: 1430000000 cycles: 2936133073 heartbeat IPC: 0.521662 cumulative IPC: 0.44326 (Simulation time: 6 hr 40 min 38 sec) 
*** Reached end of trace for Core: 0 Repeating trace: /scratch/user/djimenez/champsim-traces/speccpu2006/xz//458.sjeng-767B.champsimtrace.xz
Heartbeat CPU 0 instructions: 2000000000 cycles: 2945069043 heartbeat IPC: 0.603345 cumulative IPC: 0.61109 (Simulation time: 6 hr 41 min 38 sec) 
Heartbeat CPU 1 instructions: 1250000000 cycles: 2948112902 heartbeat IPC: 0.363941 cumulative IPC: 0.338979 (Simulation time: 6 hr 41 min 59 sec) 
Heartbeat CPU 3 instructions: 1990000000 cycles: 2953400158 heartbeat IPC: 0.493476 cumulative IPC: 0.602451 (Simulation time: 6 hr 42 min 37 sec) 
Heartbeat CPU 2 instructions: 1440000000 cycles: 2955287222 heartbeat IPC: 0.52208 cumulative IPC: 0.4438 (Simulation time: 6 hr 42 min 50 sec) 
Heartbeat CPU 0 instructions: 2010000003 cycles: 2961205060 heartbeat IPC: 0.619732 cumulative IPC: 0.611139 (Simulation time: 6 hr 43 min 33 sec) 
*** Reached end of trace for Core: 3 Repeating trace: /scratch/user/djimenez/champsim-traces/speccpu2006/xz//483.xalancbmk-716B.champsimtrace.xz
Heartbeat CPU 3 instructions: 2000000000 cycles: 2970370213 heartbeat IPC: 0.589273 cumulative IPC: 0.602371 (Simulation time: 6 hr 44 min 41 sec) 
Heartbeat CPU 2 instructions: 1450000000 cycles: 2974539787 heartbeat IPC: 0.519411 cumulative IPC: 0.444318 (Simulation time: 6 hr 45 min 12 sec) 
Heartbeat CPU 1 instructions: 1260000000 cycles: 2977032033 heartbeat IPC: 0.345792 cumulative IPC: 0.339049 (Simulation time: 6 hr 45 min 31 sec) 
Heartbeat CPU 0 instructions: 2020000000 cycles: 2977486730 heartbeat IPC: 0.614187 cumulative IPC: 0.611157 (Simulation time: 6 hr 45 min 35 sec) 
Heartbeat CPU 3 instructions: 2010000003 cycles: 2981341963 heartbeat IPC: 0.911432 cumulative IPC: 0.603574 (Simulation time: 6 hr 46 min 5 sec) 
Heartbeat CPU 3 instructions: 2020000000 cycles: 2992443164 heartbeat IPC: 0.900803 cumulative IPC: 0.604739 (Simulation time: 6 hr 47 min 33 sec) 
Heartbeat CPU 2 instructions: 1460000000 cycles: 2993544803 heartbeat IPC: 0.526177 cumulative IPC: 0.444867 (Simulation time: 6 hr 47 min 41 sec) 
Heartbeat CPU 0 instructions: 2030000000 cycles: 2993906404 heartbeat IPC: 0.609025 cumulative IPC: 0.611145 (Simulation time: 6 hr 47 min 43 sec) 
Heartbeat CPU 1 instructions: 1270000001 cycles: 3003828994 heartbeat IPC: 0.373177 cumulative IPC: 0.339371 (Simulation time: 6 hr 48 min 57 sec) 
Heartbeat CPU 3 instructions: 2030000000 cycles: 3004265799 heartbeat IPC: 0.845835 cumulative IPC: 0.605742 (Simulation time: 6 hr 49 min 1 sec) 
Heartbeat CPU 0 instructions: 2040000000 cycles: 3010549227 heartbeat IPC: 0.60086 cumulative IPC: 0.611085 (Simulation time: 6 hr 49 min 47 sec) 
Heartbeat CPU 2 instructions: 1470000003 cycles: 3012565618 heartbeat IPC: 0.52574 cumulative IPC: 0.445407 (Simulation time: 6 hr 50 min 1 sec) 
Heartbeat CPU 3 instructions: 2040000000 cycles: 3017739971 heartbeat IPC: 0.742161 cumulative IPC: 0.606385 (Simulation time: 6 hr 50 min 39 sec) 
Heartbeat CPU 0 instructions: 2050000000 cycles: 3027521618 heartbeat IPC: 0.589192 cumulative IPC: 0.610955 (Simulation time: 6 hr 51 min 38 sec) 
Heartbeat CPU 1 instructions: 1280000000 cycles: 3030388920 heartbeat IPC: 0.376507 cumulative IPC: 0.339715 (Simulation time: 6 hr 51 min 59 sec) 
Heartbeat CPU 2 instructions: 1480000000 cycles: 3031645038 heartbeat IPC: 0.524125 cumulative IPC: 0.44593 (Simulation time: 6 hr 52 min 9 sec) 
Heartbeat CPU 3 instructions: 2050000000 cycles: 3040595532 heartbeat IPC: 0.43753 cumulative IPC: 0.605045 (Simulation time: 6 hr 53 min 12 sec) 
Heartbeat CPU 0 instructions: 2060000000 cycles: 3044022766 heartbeat IPC: 0.606018 cumulative IPC: 0.610927 (Simulation time: 6 hr 53 min 39 sec) 
Heartbeat CPU 2 instructions: 1490000000 cycles: 3050749146 heartbeat IPC: 0.523448 cumulative IPC: 0.446442 (Simulation time: 6 hr 54 min 27 sec) 
Heartbeat CPU 3 instructions: 2060000000 cycles: 3055752551 heartbeat IPC: 0.65976 cumulative IPC: 0.605331 (Simulation time: 6 hr 55 min 3 sec) 
Heartbeat CPU 1 instructions: 1290000001 cycles: 3057404829 heartbeat IPC: 0.370152 cumulative IPC: 0.339999 (Simulation time: 6 hr 55 min 16 sec) 
Heartbeat CPU 0 instructions: 2070000001 cycles: 3060244660 heartbeat IPC: 0.616451 cumulative IPC: 0.610958 (Simulation time: 6 hr 55 min 33 sec) 
Heartbeat CPU 2 instructions: 1500000000 cycles: 3069802877 heartbeat IPC: 0.524832 cumulative IPC: 0.446956 (Simulation time: 6 hr 56 min 40 sec) 
Heartbeat CPU 0 instructions: 2080000000 cycles: 3076332969 heartbeat IPC: 0.621569 cumulative IPC: 0.611016 (Simulation time: 6 hr 57 min 24 sec) 
Heartbeat CPU 3 instructions: 2070000000 cycles: 3078798707 heartbeat IPC: 0.433912 cumulative IPC: 0.603977 (Simulation time: 6 hr 57 min 41 sec) 
Heartbeat CPU 1 instructions: 1300000000 cycles: 3084272418 heartbeat IPC: 0.372196 cumulative IPC: 0.340295 (Simulation time: 6 hr 58 min 21 sec) 
Heartbeat CPU 2 instructions: 1510000000 cycles: 3088889746 heartbeat IPC: 0.52392 cumulative IPC: 0.447458 (Simulation time: 6 hr 58 min 54 sec) 
Heartbeat CPU 0 instructions: 2090000003 cycles: 3092775684 heartbeat IPC: 0.608172 cumulative IPC: 0.611 (Simulation time: 6 hr 59 min 22 sec) 
Heartbeat CPU 3 instructions: 2080000000 cycles: 3096676502 heartbeat IPC: 0.559353 cumulative IPC: 0.603706 (Simulation time: 6 hr 59 min 50 sec) 
Finished CPU 1 instructions: 1000000003 cycles: 2937156367 cumulative IPC: 0.340465 (Simulation time: 7 hr 0 min 3 sec) 

CPU 0 Branch Prediction Accuracy: 93.1912% MPKI: 12.9238

CPU 1 Branch Prediction Accuracy: 94.0044% MPKI: 10.3282

CPU 2 Branch Prediction Accuracy: 98.9247% MPKI: 0.193383

CPU 3 Branch Prediction Accuracy: 99.2067% MPKI: 1.55015

ChampSim completed all CPUs

Total Simulation Statistics (not including warmup)

CPU 0 cumulative IPC: 0.610977 instructions: 1794533655 cycles: 2937156367
L1D TOTAL     ACCESS:  483258262  HIT:  481234744  MISS:    2023518
L1D LOAD      ACCESS:  334354269  HIT:  332893520  MISS:    1460749
L1D RFO       ACCESS:  148903993  HIT:  148341224  MISS:     562769
L1D PREFETCH  ACCESS:          0  HIT:          0  MISS:          0
L1D WRITEBACK ACCESS:          0  HIT:          0  MISS:          0
L1I TOTAL     ACCESS:  415494320  HIT:  415384661  MISS:     109659
L1I LOAD      ACCESS:  415494320  HIT:  415384661  MISS:     109659
L1I RFO       ACCESS:          0  HIT:          0  MISS:          0
L1I PREFETCH  ACCESS:          0  HIT:          0  MISS:          0
L1I WRITEBACK ACCESS:          0  HIT:          0  MISS:          0
L2C TOTAL     ACCESS:    3285222  HIT:    2527352  MISS:     757870
L2C LOAD      ACCESS:    1570404  HIT:     876453  MISS:     693951
L2C RFO       ACCESS:     562611  HIT:     501743  MISS:      60868
L2C PREFETCH  ACCESS:          0  HIT:          0  MISS:          0
L2C WRITEBACK ACCESS:    1152207  HIT:    1149156  MISS:       3051
LLC TOTAL     ACCESS:    1329117  HIT:     163170  MISS:    1165947
LLC LOAD      ACCESS:     693950  HIT:       6446  MISS:     687504
LLC RFO       ACCESS:      60868  HIT:       7216  MISS:      53652
LLC PREFETCH  ACCESS:          0  HIT:          0  MISS:          0
LLC WRITEBACK ACCESS:     574299  HIT:     149508  MISS:     424791

CPU 1 cumulative IPC: 0.340465 instructions: 1000000003 cycles: 2937156367
L1D TOTAL     ACCESS:  206636659  HIT:  168288557  MISS:   38348102
L1D LOAD      ACCESS:  148184808  HIT:  116002339  MISS:   32182469
L1D RFO       ACCESS:   58451851  HIT:   52286218  MISS:    6165633
L1D PREFETCH  ACCESS:          0  HIT:          0  MISS:          0
L1D WRITEBACK ACCESS:          0  HIT:          0  MISS:          0
L1I TOTAL     ACCESS:  228482511  HIT:  228476420  MISS:       6091
L1I LOAD      ACCESS:  228482511  HIT:  228476420  MISS:       6091
L1I RFO       ACCESS:          0  HIT:          0  MISS:          0
L1I PREFETCH  ACCESS:          0  HIT:          0  MISS:          0
L1I WRITEBACK ACCESS:          0  HIT:          0  MISS:          0
L2C TOTAL     ACCESS:   54195431  HIT:   22078151  MISS:   32117280
L2C LOAD      ACCESS:   32185883  HIT:    5551571  MISS:   26634312
L2C RFO       ACCESS:    6165301  HIT:     691881  MISS:    5473420
L2C PREFETCH  ACCESS:          0  HIT:          0  MISS:          0
L2C WRITEBACK ACCESS:   15844247  HIT:   15834699  MISS:       9548
LLC TOTAL     ACCESS:   44434581  HIT:   27740456  MISS:   16694125
LLC LOAD      ACCESS:   26634198  HIT:   12964773  MISS:   13669425
LLC RFO       ACCESS:    5473389  HIT:    2449016  MISS:    3024373
LLC PREFETCH  ACCESS:          0  HIT:          0  MISS:          0
LLC WRITEBACK ACCESS:   12326994  HIT:   12326667  MISS:        327

CPU 2 cumulative IPC: 0.44769 instructions: 1314936953 cycles: 2937156367
L1D TOTAL     ACCESS:  633116504  HIT:  614872527  MISS:   18243977
L1D LOAD      ACCESS:  542706212  HIT:  524628600  MISS:   18077612
L1D RFO       ACCESS:   90410292  HIT:   90243927  MISS:     166365
L1D PREFETCH  ACCESS:          0  HIT:          0  MISS:          0
L1D WRITEBACK ACCESS:          0  HIT:          0  MISS:          0
L1I TOTAL     ACCESS:  351462887  HIT:  351462017  MISS:        870
L1I LOAD      ACCESS:  351462887  HIT:  351462017  MISS:        870
L1I RFO       ACCESS:          0  HIT:          0  MISS:          0
L1I PREFETCH  ACCESS:          0  HIT:          0  MISS:          0
L1I WRITEBACK ACCESS:          0  HIT:          0  MISS:          0
L2C TOTAL     ACCESS:   25868324  HIT:    9080472  MISS:   16787852
L2C LOAD      ACCESS:   18077409  HIT:    1453270  MISS:   16624139
L2C RFO       ACCESS:     166203  HIT:       3606  MISS:     162597
L2C PREFETCH  ACCESS:          0  HIT:          0  MISS:          0
L2C WRITEBACK ACCESS:    7624712  HIT:    7623596  MISS:       1116
LLC TOTAL     ACCESS:   24370520  HIT:   10539327  MISS:   13831193
LLC LOAD      ACCESS:   16624139  HIT:    2819398  MISS:   13804741
LLC RFO       ACCESS:     162597  HIT:     137769  MISS:      24828
LLC PREFETCH  ACCESS:          0  HIT:          0  MISS:          0
LLC WRITEBACK ACCESS:    7583784  HIT:    7582160  MISS:       1624

CPU 3 cumulative IPC: 0.603698 instructions: 1773156262 cycles: 2937156368
L1D TOTAL     ACCESS:  382287140  HIT:  352451299  MISS:   29835841
L1D LOAD      ACCESS:  252130849  HIT:  225606132  MISS:   26524717
L1D RFO       ACCESS:  130156291  HIT:  126845167  MISS:    3311124
L1D PREFETCH  ACCESS:          0  HIT:          0  MISS:          0
L1D WRITEBACK ACCESS:          0  HIT:          0  MISS:          0
L1I TOTAL     ACCESS:  600351108  HIT:  598750035  MISS:    1601073
L1I LOAD      ACCESS:  600351108  HIT:  598750035  MISS:    1601073
L1I RFO       ACCESS:          0  HIT:          0  MISS:          0
L1I PREFETCH  ACCESS:          0  HIT:          0  MISS:          0
L1I WRITEBACK ACCESS:          0  HIT:          0  MISS:          0
L2C TOTAL     ACCESS:   36650068  HIT:   31583608  MISS:    5066460
L2C LOAD      ACCESS:   28125288  HIT:   25861663  MISS:    2263625
L2C RFO       ACCESS:    3310975  HIT:     513612  MISS:    2797363
L2C PREFETCH  ACCESS:          0  HIT:          0  MISS:          0
L2C WRITEBACK ACCESS:    5213805  HIT:    5208333  MISS:       5472
LLC TOTAL     ACCESS:    8928272  HIT:    4825449  MISS:    4102823
LLC LOAD      ACCESS:    2263623  HIT:     809184  MISS:    1454439
LLC RFO       ACCESS:    2797362  HIT:     218979  MISS:    2578383
LLC PREFETCH  ACCESS:          0  HIT:          0  MISS:          0
LLC WRITEBACK ACCESS:    3867287  HIT:    3797286  MISS:      70001

Region of Interest Statistics

CPU 0 cumulative IPC: 0.611248 instructions: 1000000002 cycles: 1635998203
L1D TOTAL     ACCESS:  268761663  HIT:  267634506  MISS:    1127157
L1D LOAD      ACCESS:  184959228  HIT:  184144169  MISS:     815059
L1D RFO       ACCESS:   83802435  HIT:   83490337  MISS:     312098
L1D PREFETCH  ACCESS:          0  HIT:          0  MISS:          0
L1D WRITEBACK ACCESS:          0  HIT:          0  MISS:          0
L1D PREFETCH  REQUESTED:          0  ISSUED:          0  USEFUL:          0  USELESS:          0
L1I TOTAL     ACCESS:  230633587  HIT:  230566341  MISS:      67246
L1I LOAD      ACCESS:  230633587  HIT:  230566341  MISS:      67246
L1I RFO       ACCESS:          0  HIT:          0  MISS:          0
L1I PREFETCH  ACCESS:          0  HIT:          0  MISS:          0
L1I WRITEBACK ACCESS:          0  HIT:          0  MISS:          0
L1I PREFETCH  REQUESTED:          0  ISSUED:          0  USEFUL:          0  USELESS:          0
L2C TOTAL     ACCESS:    1821825  HIT:    1412783  MISS:     409042
L2C LOAD      ACCESS:     882303  HIT:     507492  MISS:     374811
L2C RFO       ACCESS:     312032  HIT:     279553  MISS:      32479
L2C PREFETCH  ACCESS:          0  HIT:          0  MISS:          0
L2C WRITEBACK ACCESS:     627490  HIT:     625738  MISS:       1752
L2C PREFETCH  REQUESTED:          0  ISSUED:          0  USEFUL:          0  USELESS:          0
LLC TOTAL     ACCESS:     713670  HIT:      90918  MISS:     622752
LLC LOAD      ACCESS:     374811  HIT:       3765  MISS:     371046
LLC RFO       ACCESS:      32479  HIT:       4031  MISS:      28448
LLC PREFETCH  ACCESS:          0  HIT:          0  MISS:          0
LLC WRITEBACK ACCESS:     306380  HIT:      83122  MISS:     223258
LLC PREFETCH  REQUESTED:          0  ISSUED:          0  USEFUL:          0  USELESS:          0
Major fault: 0 Minor fault: 44103

CPU 1 cumulative IPC: 0.340465 instructions: 1000000003 cycles: 2937156367
L1D TOTAL     ACCESS:  206636659  HIT:  168288557  MISS:   38348102
L1D LOAD      ACCESS:  148184808  HIT:  116002339  MISS:   32182469
L1D RFO       ACCESS:   58451851  HIT:   52286218  MISS:    6165633
L1D PREFETCH  ACCESS:          0  HIT:          0  MISS:          0
L1D WRITEBACK ACCESS:          0  HIT:          0  MISS:          0
L1D PREFETCH  REQUESTED:          0  ISSUED:          0  USEFUL:          0  USELESS:          0
L1I TOTAL     ACCESS:  228482511  HIT:  228476420  MISS:       6091
L1I LOAD      ACCESS:  228482511  HIT:  228476420  MISS:       6091
L1I RFO       ACCESS:          0  HIT:          0  MISS:          0
L1I PREFETCH  ACCESS:          0  HIT:          0  MISS:          0
L1I WRITEBACK ACCESS:          0  HIT:          0  MISS:          0
L1I PREFETCH  REQUESTED:          0  ISSUED:          0  USEFUL:          0  USELESS:          0
L2C TOTAL     ACCESS:   54195431  HIT:   22078151  MISS:   32117280
L2C LOAD      ACCESS:   32185883  HIT:    5551571  MISS:   26634312
L2C RFO       ACCESS:    6165301  HIT:     691881  MISS:    5473420
L2C PREFETCH  ACCESS:          0  HIT:          0  MISS:          0
L2C WRITEBACK ACCESS:   15844247  HIT:   15834699  MISS:       9548
L2C PREFETCH  REQUESTED:          0  ISSUED:          0  USEFUL:          0  USELESS:          0
LLC TOTAL     ACCESS:   44434581  HIT:   27740456  MISS:   16694125
LLC LOAD      ACCESS:   26634198  HIT:   12964773  MISS:   13669425
LLC RFO       ACCESS:    5473389  HIT:    2449016  MISS:    3024373
LLC PREFETCH  ACCESS:          0  HIT:          0  MISS:          0
LLC WRITEBACK ACCESS:   12326994  HIT:   12326667  MISS:        327
LLC PREFETCH  REQUESTED:          0  ISSUED:          0  USEFUL:          0  USELESS:          0
Major fault: 0 Minor fault: 13896

CPU 2 cumulative IPC: 0.443293 instructions: 1000000001 cycles: 2255845401
L1D TOTAL     ACCESS:  448684485  HIT:  433913339  MISS:   14771146
L1D LOAD      ACCESS:  380137565  HIT:  365532543  MISS:   14605022
L1D RFO       ACCESS:   68546920  HIT:   68380796  MISS:     166124
L1D PREFETCH  ACCESS:          0  HIT:          0  MISS:          0
L1D WRITEBACK ACCESS:          0  HIT:          0  MISS:          0
L1D PREFETCH  REQUESTED:          0  ISSUED:          0  USEFUL:          0  USELESS:          0
L1I TOTAL     ACCESS:  263254540  HIT:  263253846  MISS:        694
L1I LOAD      ACCESS:  263254540  HIT:  263253846  MISS:        694
L1I RFO       ACCESS:          0  HIT:          0  MISS:          0
L1I PREFETCH  ACCESS:          0  HIT:          0  MISS:          0
L1I WRITEBACK ACCESS:          0  HIT:          0  MISS:          0
L1I PREFETCH  REQUESTED:          0  ISSUED:          0  USEFUL:          0  USELESS:          0
L2C TOTAL     ACCESS:   20782590  HIT:    7009811  MISS:   13772779
L2C LOAD      ACCESS:   14605065  HIT:     995851  MISS:   13609214
L2C RFO       ACCESS:     166017  HIT:       3437  MISS:     162580
L2C PREFETCH  ACCESS:          0  HIT:          0  MISS:          0
L2C WRITEBACK ACCESS:    6011508  HIT:    6010523  MISS:        985
L2C PREFETCH  REQUESTED:          0  ISSUED:          0  USEFUL:          0  USELESS:          0
LLC TOTAL     ACCESS:   19748648  HIT:    8560231  MISS:   11188417
LLC LOAD      ACCESS:   13609214  HIT:    2447133  MISS:   11162081
LLC RFO       ACCESS:     162580  HIT:     137769  MISS:      24811
LLC PREFETCH  ACCESS:          0  HIT:          0  MISS:          0
LLC WRITEBACK ACCESS:    5976854  HIT:    5975329  MISS:       1525
LLC PREFETCH  REQUESTED:          0  ISSUED:          0  USEFUL:          0  USELESS:          0
Major fault: 0 Minor fault: 183463

CPU 3 cumulative IPC: 0.604441 instructions: 1000000003 cycles: 1654422337
L1D TOTAL     ACCESS:  215600345  HIT:  198310501  MISS:   17289844
L1D LOAD      ACCESS:  142076809  HIT:  126668834  MISS:   15407975
L1D RFO       ACCESS:   73523536  HIT:   71641667  MISS:    1881869
L1D PREFETCH  ACCESS:          0  HIT:          0  MISS:          0
L1D WRITEBACK ACCESS:          0  HIT:          0  MISS:          0
L1D PREFETCH  REQUESTED:          0  ISSUED:          0  USEFUL:          0  USELESS:          0
L1I TOTAL     ACCESS:  338681380  HIT:  337779117  MISS:     902263
L1I LOAD      ACCESS:  338681380  HIT:  337779117  MISS:     902263
L1I RFO       ACCESS:          0  HIT:          0  MISS:          0
L1I PREFETCH  ACCESS:          0  HIT:          0  MISS:          0
L1I WRITEBACK ACCESS:          0  HIT:          0  MISS:          0
L1I PREFETCH  REQUESTED:          0  ISSUED:          0  USEFUL:          0  USELESS:          0
L2C TOTAL     ACCESS:   21143487  HIT:   18263245  MISS:    2880242
L2C LOAD      ACCESS:   16309984  HIT:   15016468  MISS:    1293516
L2C RFO       ACCESS:    1881785  HIT:     298132  MISS:    1583653
L2C PREFETCH  ACCESS:          0  HIT:          0  MISS:          0
L2C WRITEBACK ACCESS:    2951718  HIT:    2948645  MISS:       3073
L2C PREFETCH  REQUESTED:          0  ISSUED:          0  USEFUL:          0  USELESS:          0
LLC TOTAL     ACCESS:    5052829  HIT:    2754014  MISS:    2298815
LLC LOAD      ACCESS:    1293515  HIT:     491536  MISS:     801979
LLC RFO       ACCESS:    1583652  HIT:     126013  MISS:    1457639
LLC PREFETCH  ACCESS:          0  HIT:          0  MISS:          0
LLC WRITEBACK ACCESS:    2175662  HIT:    2136465  MISS:      39197
LLC PREFETCH  REQUESTED:          0  ISSUED:          0  USEFUL:          0  USELESS:          0
Major fault: 0 Minor fault: 48810

DRAM Statistics
 CHANNEL 0
 RQ ROW_BUFFER_HIT:    6283414  ROW_BUFFER_MISS:   11356230
 DBUS_CONGESTED:   23141061
 WQ ROW_BUFFER_HIT:     997917  ROW_BUFFER_MISS:    7755692  FULL:          0

 CHANNEL 1
 RQ ROW_BUFFER_HIT:    6281364  ROW_BUFFER_MISS:   11372500
 DBUS_CONGESTED:   23141061
 WQ ROW_BUFFER_HIT:     996642  ROW_BUFFER_MISS:    7756044  FULL:          0

 AVG_CONGESTED_CYCLE: 13
