
*** ChampSim Multicore Out-of-Order Simulator ***

Warmup Instructions: 200000000
Simulation Instructions: 1000000000
Number of CPUs: 4
LLC sets: 8192
LLC ways: 16
Off-chip DRAM Size: 8192 MB Channels: 2 Width: 64-bit Data Rate: 1600 MT/s

CPU 0 runs /scratch/user/djimenez/champsim-traces/speccpu2006/xz//459.GemsFDTD-1211B.champsimtrace.xz
CPU 1 runs /scratch/user/djimenez/champsim-traces/speccpu2006/xz//444.namd-44B.champsimtrace.xz
CPU 2 runs /scratch/user/djimenez/champsim-traces/speccpu2006/xz//435.gromacs-134B.champsimtrace.xz
CPU 3 runs /scratch/user/djimenez/champsim-traces/speccpu2006/xz//458.sjeng-1088B.champsimtrace.xz
Heartbeat CPU 2 instructions: 10000002 cycles: 5065833 heartbeat IPC: 1.97401 cumulative IPC: 1.97401 (Simulation time: 0 hr 1 min 53 sec) 
Heartbeat CPU 1 instructions: 10000000 cycles: 5087714 heartbeat IPC: 1.96552 cumulative IPC: 1.96552 (Simulation time: 0 hr 1 min 53 sec) 
Heartbeat CPU 3 instructions: 10000000 cycles: 5578376 heartbeat IPC: 1.79264 cumulative IPC: 1.79264 (Simulation time: 0 hr 2 min 5 sec) 
Heartbeat CPU 0 instructions: 10000000 cycles: 8096726 heartbeat IPC: 1.23507 cumulative IPC: 1.23507 (Simulation time: 0 hr 3 min 0 sec) 
Heartbeat CPU 1 instructions: 20000000 cycles: 10161659 heartbeat IPC: 1.97085 cumulative IPC: 1.96818 (Simulation time: 0 hr 3 min 39 sec) 
Heartbeat CPU 2 instructions: 20000000 cycles: 10222829 heartbeat IPC: 1.93911 cumulative IPC: 1.95641 (Simulation time: 0 hr 3 min 41 sec) 
Heartbeat CPU 3 instructions: 20000000 cycles: 11128067 heartbeat IPC: 1.8019 cumulative IPC: 1.79726 (Simulation time: 0 hr 4 min 0 sec) 
Heartbeat CPU 2 instructions: 30000001 cycles: 15222365 heartbeat IPC: 2.00019 cumulative IPC: 1.97078 (Simulation time: 0 hr 5 min 22 sec) 
Heartbeat CPU 1 instructions: 30000000 cycles: 15256146 heartbeat IPC: 1.96291 cumulative IPC: 1.96642 (Simulation time: 0 hr 5 min 22 sec) 
Heartbeat CPU 0 instructions: 20000000 cycles: 16193718 heartbeat IPC: 1.23503 cumulative IPC: 1.23505 (Simulation time: 0 hr 5 min 39 sec) 
Heartbeat CPU 3 instructions: 30000000 cycles: 16607788 heartbeat IPC: 1.82491 cumulative IPC: 1.80638 (Simulation time: 0 hr 5 min 48 sec) 
Heartbeat CPU 2 instructions: 40000000 cycles: 20214836 heartbeat IPC: 2.00302 cumulative IPC: 1.97874 (Simulation time: 0 hr 7 min 0 sec) 
Heartbeat CPU 1 instructions: 40000000 cycles: 20321111 heartbeat IPC: 1.97435 cumulative IPC: 1.9684 (Simulation time: 0 hr 7 min 2 sec) 
Heartbeat CPU 3 instructions: 40000000 cycles: 22101920 heartbeat IPC: 1.82012 cumulative IPC: 1.8098 (Simulation time: 0 hr 7 min 40 sec) 
Heartbeat CPU 0 instructions: 30000001 cycles: 24290366 heartbeat IPC: 1.23508 cumulative IPC: 1.23506 (Simulation time: 0 hr 8 min 26 sec) 
Heartbeat CPU 2 instructions: 50000002 cycles: 24450194 heartbeat IPC: 2.36108 cumulative IPC: 2.04497 (Simulation time: 0 hr 8 min 29 sec) 
Heartbeat CPU 1 instructions: 50000002 cycles: 25413845 heartbeat IPC: 1.96358 cumulative IPC: 1.96743 (Simulation time: 0 hr 8 min 50 sec) 
Heartbeat CPU 3 instructions: 50000000 cycles: 27723630 heartbeat IPC: 1.77882 cumulative IPC: 1.80352 (Simulation time: 0 hr 9 min 39 sec) 
Heartbeat CPU 2 instructions: 60000000 cycles: 28293183 heartbeat IPC: 2.60214 cumulative IPC: 2.12065 (Simulation time: 0 hr 9 min 51 sec) 
Heartbeat CPU 1 instructions: 60000000 cycles: 30462936 heartbeat IPC: 1.98055 cumulative IPC: 1.96961 (Simulation time: 0 hr 10 min 36 sec) 
Heartbeat CPU 0 instructions: 40000000 cycles: 32371166 heartbeat IPC: 1.2375 cumulative IPC: 1.23567 (Simulation time: 0 hr 11 min 16 sec) 
Heartbeat CPU 2 instructions: 70000003 cycles: 33006265 heartbeat IPC: 2.12175 cumulative IPC: 2.12081 (Simulation time: 0 hr 11 min 30 sec) 
Heartbeat CPU 3 instructions: 60000000 cycles: 33342071 heartbeat IPC: 1.77985 cumulative IPC: 1.79953 (Simulation time: 0 hr 11 min 37 sec) 
Heartbeat CPU 1 instructions: 70000000 cycles: 35518729 heartbeat IPC: 1.97793 cumulative IPC: 1.97079 (Simulation time: 0 hr 12 min 26 sec) 
Heartbeat CPU 2 instructions: 80000000 cycles: 37797462 heartbeat IPC: 2.08716 cumulative IPC: 2.11654 (Simulation time: 0 hr 13 min 18 sec) 
Heartbeat CPU 3 instructions: 70000002 cycles: 38872079 heartbeat IPC: 1.80832 cumulative IPC: 1.80078 (Simulation time: 0 hr 13 min 41 sec) 
Heartbeat CPU 0 instructions: 50000001 cycles: 40365084 heartbeat IPC: 1.25095 cumulative IPC: 1.23869 (Simulation time: 0 hr 14 min 11 sec) 
Heartbeat CPU 1 instructions: 80000000 cycles: 40599205 heartbeat IPC: 1.96832 cumulative IPC: 1.97048 (Simulation time: 0 hr 14 min 16 sec) 
Heartbeat CPU 2 instructions: 90000003 cycles: 42590478 heartbeat IPC: 2.08637 cumulative IPC: 2.11315 (Simulation time: 0 hr 14 min 55 sec) 
Heartbeat CPU 3 instructions: 80000000 cycles: 44366548 heartbeat IPC: 1.82001 cumulative IPC: 1.80316 (Simulation time: 0 hr 15 min 31 sec) 
Heartbeat CPU 1 instructions: 90000003 cycles: 45606883 heartbeat IPC: 1.99693 cumulative IPC: 1.97339 (Simulation time: 0 hr 15 min 55 sec) 
Heartbeat CPU 2 instructions: 100000000 cycles: 47380212 heartbeat IPC: 2.0878 cumulative IPC: 2.11059 (Simulation time: 0 hr 16 min 30 sec) 
Heartbeat CPU 0 instructions: 60000000 cycles: 48451893 heartbeat IPC: 1.23658 cumulative IPC: 1.23834 (Simulation time: 0 hr 16 min 52 sec) 
Heartbeat CPU 3 instructions: 90000000 cycles: 49911257 heartbeat IPC: 1.80352 cumulative IPC: 1.8032 (Simulation time: 0 hr 17 min 21 sec) 
Heartbeat CPU 1 instructions: 100000000 cycles: 50687189 heartbeat IPC: 1.96838 cumulative IPC: 1.97289 (Simulation time: 0 hr 17 min 36 sec) 
Heartbeat CPU 2 instructions: 110000003 cycles: 52169005 heartbeat IPC: 2.08821 cumulative IPC: 2.10853 (Simulation time: 0 hr 18 min 6 sec) 
Heartbeat CPU 3 instructions: 100000000 cycles: 55399627 heartbeat IPC: 1.82203 cumulative IPC: 1.80507 (Simulation time: 0 hr 19 min 11 sec) 
Heartbeat CPU 1 instructions: 110000000 cycles: 55734141 heartbeat IPC: 1.98139 cumulative IPC: 1.97366 (Simulation time: 0 hr 19 min 18 sec) 
Heartbeat CPU 0 instructions: 70000002 cycles: 56538886 heartbeat IPC: 1.23655 cumulative IPC: 1.23809 (Simulation time: 0 hr 19 min 34 sec) 
Heartbeat CPU 2 instructions: 120000000 cycles: 56960201 heartbeat IPC: 2.08716 cumulative IPC: 2.10673 (Simulation time: 0 hr 19 min 42 sec) 
Heartbeat CPU 1 instructions: 120000000 cycles: 60769643 heartbeat IPC: 1.9859 cumulative IPC: 1.97467 (Simulation time: 0 hr 20 min 58 sec) 
Heartbeat CPU 3 instructions: 110000001 cycles: 60934204 heartbeat IPC: 1.80682 cumulative IPC: 1.80523 (Simulation time: 0 hr 21 min 1 sec) 
Heartbeat CPU 2 instructions: 130000001 cycles: 61754342 heartbeat IPC: 2.08588 cumulative IPC: 2.10512 (Simulation time: 0 hr 21 min 18 sec) 
Heartbeat CPU 0 instructions: 80000000 cycles: 64625792 heartbeat IPC: 1.23657 cumulative IPC: 1.2379 (Simulation time: 0 hr 22 min 18 sec) 
Heartbeat CPU 1 instructions: 130000000 cycles: 65844945 heartbeat IPC: 1.97033 cumulative IPC: 1.97434 (Simulation time: 0 hr 22 min 44 sec) 
Heartbeat CPU 3 instructions: 120000000 cycles: 66532403 heartbeat IPC: 1.78629 cumulative IPC: 1.80363 (Simulation time: 0 hr 22 min 58 sec) 
Heartbeat CPU 2 instructions: 140000000 cycles: 66545787 heartbeat IPC: 2.08705 cumulative IPC: 2.10381 (Simulation time: 0 hr 22 min 59 sec) 
Heartbeat CPU 1 instructions: 140000000 cycles: 70888818 heartbeat IPC: 1.9826 cumulative IPC: 1.97492 (Simulation time: 0 hr 24 min 30 sec) 
Heartbeat CPU 2 instructions: 150000001 cycles: 71340436 heartbeat IPC: 2.08566 cumulative IPC: 2.10259 (Simulation time: 0 hr 24 min 40 sec) 
Heartbeat CPU 3 instructions: 130000003 cycles: 72000616 heartbeat IPC: 1.82875 cumulative IPC: 1.80554 (Simulation time: 0 hr 24 min 54 sec) 
Heartbeat CPU 0 instructions: 90000003 cycles: 72712640 heartbeat IPC: 1.23658 cumulative IPC: 1.23775 (Simulation time: 0 hr 25 min 9 sec) 
Heartbeat CPU 1 instructions: 150000001 cycles: 75976266 heartbeat IPC: 1.96562 cumulative IPC: 1.9743 (Simulation time: 0 hr 26 min 18 sec) 
Heartbeat CPU 2 instructions: 160000000 cycles: 76138973 heartbeat IPC: 2.08397 cumulative IPC: 2.10142 (Simulation time: 0 hr 26 min 21 sec) 
Heartbeat CPU 3 instructions: 140000000 cycles: 77484337 heartbeat IPC: 1.82358 cumulative IPC: 1.80682 (Simulation time: 0 hr 26 min 49 sec) 
Heartbeat CPU 0 instructions: 100000000 cycles: 80799486 heartbeat IPC: 1.23658 cumulative IPC: 1.23763 (Simulation time: 0 hr 27 min 59 sec) 
Heartbeat CPU 2 instructions: 170000003 cycles: 80937287 heartbeat IPC: 2.08407 cumulative IPC: 2.10039 (Simulation time: 0 hr 28 min 2 sec) 
Heartbeat CPU 1 instructions: 160000000 cycles: 81064616 heartbeat IPC: 1.96527 cumulative IPC: 1.97373 (Simulation time: 0 hr 28 min 5 sec) 
Heartbeat CPU 3 instructions: 150000003 cycles: 82979938 heartbeat IPC: 1.81964 cumulative IPC: 1.80767 (Simulation time: 0 hr 28 min 45 sec) 
Heartbeat CPU 2 instructions: 180000000 cycles: 85737285 heartbeat IPC: 2.08333 cumulative IPC: 2.09944 (Simulation time: 0 hr 29 min 43 sec) 
Heartbeat CPU 1 instructions: 170000002 cycles: 86153998 heartbeat IPC: 1.96488 cumulative IPC: 1.97321 (Simulation time: 0 hr 29 min 52 sec) 
Heartbeat CPU 3 instructions: 160000000 cycles: 88481060 heartbeat IPC: 1.81781 cumulative IPC: 1.8083 (Simulation time: 0 hr 30 min 41 sec) 
Heartbeat CPU 0 instructions: 110000003 cycles: 88886441 heartbeat IPC: 1.23656 cumulative IPC: 1.23753 (Simulation time: 0 hr 30 min 49 sec) 
Heartbeat CPU 2 instructions: 190000003 cycles: 90535786 heartbeat IPC: 2.08398 cumulative IPC: 2.09862 (Simulation time: 0 hr 31 min 24 sec) 
Heartbeat CPU 1 instructions: 180000000 cycles: 91236696 heartbeat IPC: 1.96746 cumulative IPC: 1.97289 (Simulation time: 0 hr 31 min 39 sec) 
Heartbeat CPU 3 instructions: 170000001 cycles: 93992432 heartbeat IPC: 1.81443 cumulative IPC: 1.80866 (Simulation time: 0 hr 32 min 37 sec) 
Heartbeat CPU 2 instructions: 200000000 cycles: 95331546 heartbeat IPC: 2.08517 cumulative IPC: 2.09794 (Simulation time: 0 hr 33 min 5 sec) 
Heartbeat CPU 1 instructions: 190000000 cycles: 96323541 heartbeat IPC: 1.96586 cumulative IPC: 1.97252 (Simulation time: 0 hr 33 min 26 sec) 
Heartbeat CPU 0 instructions: 120000000 cycles: 96973388 heartbeat IPC: 1.23656 cumulative IPC: 1.23745 (Simulation time: 0 hr 33 min 40 sec) 
Heartbeat CPU 3 instructions: 180000000 cycles: 99534512 heartbeat IPC: 1.80438 cumulative IPC: 1.80842 (Simulation time: 0 hr 34 min 33 sec) 
Heartbeat CPU 2 instructions: 210000003 cycles: 100129457 heartbeat IPC: 2.08424 cumulative IPC: 0.0998707 (Simulation time: 0 hr 34 min 46 sec) 
Heartbeat CPU 1 instructions: 200000000 cycles: 101391492 heartbeat IPC: 1.97318 cumulative IPC: 1.97255 (Simulation time: 0 hr 35 min 12 sec) 
Heartbeat CPU 2 instructions: 220000000 cycles: 105019504 heartbeat IPC: 2.04497 cumulative IPC: 0.190441 (Simulation time: 0 hr 36 min 25 sec) 
Heartbeat CPU 0 instructions: 130000003 cycles: 105060411 heartbeat IPC: 1.23655 cumulative IPC: 1.23738 (Simulation time: 0 hr 36 min 26 sec) 
Heartbeat CPU 3 instructions: 190000000 cycles: 105079122 heartbeat IPC: 1.80355 cumulative IPC: 1.80816 (Simulation time: 0 hr 36 min 26 sec) 
Heartbeat CPU 1 instructions: 210000003 cycles: 106467483 heartbeat IPC: 1.97006 cumulative IPC: 0.0939254 (Simulation time: 0 hr 36 min 53 sec) 
Heartbeat CPU 2 instructions: 230000000 cycles: 109447784 heartbeat IPC: 2.25821 cumulative IPC: 0.274103 (Simulation time: 0 hr 37 min 51 sec) 
Heartbeat CPU 3 instructions: 200000000 cycles: 110554141 heartbeat IPC: 1.82648 cumulative IPC: 1.80907 (Simulation time: 0 hr 38 min 14 sec) 
Heartbeat CPU 1 instructions: 220000000 cycles: 111557825 heartbeat IPC: 1.9645 cumulative IPC: 0.179279 (Simulation time: 0 hr 38 min 34 sec) 
Heartbeat CPU 0 instructions: 140000000 cycles: 113147277 heartbeat IPC: 1.23657 cumulative IPC: 1.23733 (Simulation time: 0 hr 39 min 5 sec) 
Heartbeat CPU 2 instructions: 240000000 cycles: 113762787 heartbeat IPC: 2.3175 cumulative IPC: 0.351609 (Simulation time: 0 hr 39 min 18 sec) 
Heartbeat CPU 3 instructions: 210000001 cycles: 116125025 heartbeat IPC: 1.79505 cumulative IPC: 0.0861141 (Simulation time: 0 hr 40 min 5 sec) 
Heartbeat CPU 1 instructions: 230000000 cycles: 116599467 heartbeat IPC: 1.98348 cumulative IPC: 0.257291 (Simulation time: 0 hr 40 min 14 sec) 
Heartbeat CPU 2 instructions: 250000001 cycles: 117829816 heartbeat IPC: 2.4588 cumulative IPC: 0.424341 (Simulation time: 0 hr 40 min 39 sec) 
Heartbeat CPU 0 instructions: 150000002 cycles: 121233653 heartbeat IPC: 1.23665 cumulative IPC: 1.23728 (Simulation time: 0 hr 41 min 48 sec) 
Heartbeat CPU 3 instructions: 220000000 cycles: 121345323 heartbeat IPC: 1.9156 cumulative IPC: 0.164819 (Simulation time: 0 hr 41 min 50 sec) 
Heartbeat CPU 1 instructions: 240000000 cycles: 121685138 heartbeat IPC: 1.96631 cumulative IPC: 0.328717 (Simulation time: 0 hr 41 min 57 sec) 
Heartbeat CPU 2 instructions: 260000000 cycles: 121723959 heartbeat IPC: 2.56796 cumulative IPC: 0.492919 (Simulation time: 0 hr 41 min 58 sec) 
Heartbeat CPU 2 instructions: 270000001 cycles: 126515483 heartbeat IPC: 2.08702 cumulative IPC: 0.553292 (Simulation time: 0 hr 43 min 33 sec) 
Heartbeat CPU 1 instructions: 250000000 cycles: 126734584 heartbeat IPC: 1.98042 cumulative IPC: 0.394525 (Simulation time: 0 hr 43 min 37 sec) 
Heartbeat CPU 3 instructions: 230000001 cycles: 126777733 heartbeat IPC: 1.8408 cumulative IPC: 0.236635 (Simulation time: 0 hr 43 min 38 sec) 
Heartbeat CPU 0 instructions: 160000000 cycles: 129320280 heartbeat IPC: 1.23661 cumulative IPC: 1.23724 (Simulation time: 0 hr 44 min 28 sec) 
Heartbeat CPU 2 instructions: 280000000 cycles: 131308832 heartbeat IPC: 2.08622 cumulative IPC: 0.609251 (Simulation time: 0 hr 45 min 7 sec) 
Heartbeat CPU 1 instructions: 260000000 cycles: 131799930 heartbeat IPC: 1.9742 cumulative IPC: 0.455235 (Simulation time: 0 hr 45 min 17 sec) 
Heartbeat CPU 3 instructions: 240000000 cycles: 132288300 heartbeat IPC: 1.8147 cumulative IPC: 0.30237 (Simulation time: 0 hr 45 min 27 sec) 
Heartbeat CPU 2 instructions: 290000001 cycles: 136098437 heartbeat IPC: 2.08786 cumulative IPC: 0.661286 (Simulation time: 0 hr 46 min 42 sec) 
Heartbeat CPU 1 instructions: 270000001 cycles: 136879721 heartbeat IPC: 1.96859 cumulative IPC: 0.511398 (Simulation time: 0 hr 46 min 58 sec) 
Heartbeat CPU 0 instructions: 170000002 cycles: 137406843 heartbeat IPC: 1.23662 cumulative IPC: 1.2372 (Simulation time: 0 hr 47 min 8 sec) 
Heartbeat CPU 3 instructions: 250000001 cycles: 137687813 heartbeat IPC: 1.85202 cumulative IPC: 0.36314 (Simulation time: 0 hr 47 min 14 sec) 
Heartbeat CPU 2 instructions: 300000000 cycles: 140888829 heartbeat IPC: 2.08751 cumulative IPC: 0.70978 (Simulation time: 0 hr 48 min 17 sec) 
Heartbeat CPU 1 instructions: 280000000 cycles: 141959842 heartbeat IPC: 1.96846 cumulative IPC: 0.56354 (Simulation time: 0 hr 48 min 38 sec) 
Heartbeat CPU 3 instructions: 260000000 cycles: 143080204 heartbeat IPC: 1.85446 cumulative IPC: 0.419345 (Simulation time: 0 hr 49 min 0 sec) 
Heartbeat CPU 0 instructions: 180000000 cycles: 145493493 heartbeat IPC: 1.23661 cumulative IPC: 1.23717 (Simulation time: 0 hr 49 min 49 sec) 
Heartbeat CPU 2 instructions: 310000003 cycles: 145680584 heartbeat IPC: 2.08692 cumulative IPC: 0.755077 (Simulation time: 0 hr 49 min 53 sec) 
Heartbeat CPU 1 instructions: 290000001 cycles: 147055944 heartbeat IPC: 1.96228 cumulative IPC: 0.612012 (Simulation time: 0 hr 50 min 20 sec) 
Heartbeat CPU 3 instructions: 270000002 cycles: 148351211 heartbeat IPC: 1.89717 cumulative IPC: 0.471853 (Simulation time: 0 hr 50 min 46 sec) 
Heartbeat CPU 2 instructions: 320000000 cycles: 150472276 heartbeat IPC: 2.08694 cumulative IPC: 0.797489 (Simulation time: 0 hr 51 min 27 sec) 
Heartbeat CPU 1 instructions: 300000000 cycles: 152142989 heartbeat IPC: 1.96578 cumulative IPC: 0.657276 (Simulation time: 0 hr 52 min 0 sec) 
Heartbeat CPU 0 instructions: 190000003 cycles: 153466304 heartbeat IPC: 1.25426 cumulative IPC: 1.23806 (Simulation time: 0 hr 52 min 27 sec) 
Heartbeat CPU 3 instructions: 280000000 cycles: 153755915 heartbeat IPC: 1.85024 cumulative IPC: 0.520305 (Simulation time: 0 hr 52 min 32 sec) 
Heartbeat CPU 2 instructions: 330000003 cycles: 155262742 heartbeat IPC: 2.08748 cumulative IPC: 0.83729 (Simulation time: 0 hr 53 min 2 sec) 
Heartbeat CPU 1 instructions: 310000001 cycles: 157236194 heartbeat IPC: 1.9634 cumulative IPC: 0.699584 (Simulation time: 0 hr 53 min 40 sec) 
Heartbeat CPU 3 instructions: 290000000 cycles: 159065399 heartbeat IPC: 1.88342 cumulative IPC: 0.565805 (Simulation time: 0 hr 54 min 16 sec) 
Heartbeat CPU 2 instructions: 340000000 cycles: 160054151 heartbeat IPC: 2.08707 cumulative IPC: 0.874704 (Simulation time: 0 hr 54 min 35 sec) 
Heartbeat CPU 0 instructions: 200000000 cycles: 161233911 heartbeat IPC: 1.2874 cumulative IPC: 1.24043 (Simulation time: 0 hr 54 min 58 sec) 

Warmup complete CPU 0 instructions: 200000001 cycles: 161233928 (Simulation time: 0 hr 54 min 58 sec) 
Warmup complete CPU 1 instructions: 317856499 cycles: 161233927 (Simulation time: 0 hr 54 min 58 sec) 
Warmup complete CPU 2 instructions: 342460529 cycles: 161233927 (Simulation time: 0 hr 54 min 58 sec) 
Warmup complete CPU 3 instructions: 293980956 cycles: 161233927 (Simulation time: 0 hr 54 min 58 sec) 

Heartbeat CPU 1 instructions: 320000000 cycles: 163292762 heartbeat IPC: 1.6511 cumulative IPC: 1.04112 (Simulation time: 0 hr 55 min 24 sec) 
Heartbeat CPU 2 instructions: 350000002 cycles: 166230952 heartbeat IPC: 1.61896 cumulative IPC: 1.50879 (Simulation time: 0 hr 56 min 0 sec) 
Heartbeat CPU 3 instructions: 300000000 cycles: 171146470 heartbeat IPC: 0.827741 cumulative IPC: 0.607215 (Simulation time: 0 hr 57 min 0 sec) 
Heartbeat CPU 1 instructions: 330000000 cycles: 172879881 heartbeat IPC: 1.04307 cumulative IPC: 1.04272 (Simulation time: 0 hr 57 min 21 sec) 
Heartbeat CPU 2 instructions: 360000000 cycles: 172912739 heartbeat IPC: 1.49661 cumulative IPC: 1.50182 (Simulation time: 0 hr 57 min 21 sec) 
Heartbeat CPU 2 instructions: 370000002 cycles: 179640305 heartbeat IPC: 1.48642 cumulative IPC: 1.49619 (Simulation time: 0 hr 58 min 43 sec) 
Heartbeat CPU 0 instructions: 210000000 cycles: 180343298 heartbeat IPC: 0.523303 cumulative IPC: 0.523303 (Simulation time: 0 hr 58 min 51 sec) 
Heartbeat CPU 1 instructions: 340000000 cycles: 182451867 heartbeat IPC: 1.04472 cumulative IPC: 1.04362 (Simulation time: 0 hr 59 min 16 sec) 
Heartbeat CPU 2 instructions: 380000000 cycles: 186368888 heartbeat IPC: 1.4862 cumulative IPC: 1.49352 (Simulation time: 1 hr 0 min 3 sec) 
Heartbeat CPU 3 instructions: 310000001 cycles: 187560513 heartbeat IPC: 0.609235 cumulative IPC: 0.608474 (Simulation time: 1 hr 0 min 18 sec) 
Heartbeat CPU 1 instructions: 350000003 cycles: 192052125 heartbeat IPC: 1.04164 cumulative IPC: 1.043 (Simulation time: 1 hr 1 min 12 sec) 
Heartbeat CPU 2 instructions: 390000000 cycles: 193118283 heartbeat IPC: 1.48161 cumulative IPC: 1.491 (Simulation time: 1 hr 1 min 25 sec) 
Heartbeat CPU 0 instructions: 220000000 cycles: 199442817 heartbeat IPC: 0.523573 cumulative IPC: 0.523438 (Simulation time: 1 hr 2 min 41 sec) 
Heartbeat CPU 2 instructions: 400000000 cycles: 199859109 heartbeat IPC: 1.4835 cumulative IPC: 1.48969 (Simulation time: 1 hr 2 min 46 sec) 
Heartbeat CPU 1 instructions: 360000000 cycles: 201546363 heartbeat IPC: 1.05327 cumulative IPC: 1.04542 (Simulation time: 1 hr 3 min 7 sec) 
Heartbeat CPU 3 instructions: 320000000 cycles: 204075214 heartbeat IPC: 0.605521 cumulative IPC: 0.607336 (Simulation time: 1 hr 3 min 37 sec) 
Heartbeat CPU 2 instructions: 410000000 cycles: 206604927 heartbeat IPC: 1.4824 cumulative IPC: 1.4886 (Simulation time: 1 hr 4 min 8 sec) 
Heartbeat CPU 1 instructions: 370000003 cycles: 211166960 heartbeat IPC: 1.03944 cumulative IPC: 1.04427 (Simulation time: 1 hr 5 min 3 sec) 
Heartbeat CPU 2 instructions: 420000000 cycles: 216446248 heartbeat IPC: 1.01612 cumulative IPC: 1.40439 (Simulation time: 1 hr 5 min 55 sec) 
Heartbeat CPU 0 instructions: 230000003 cycles: 218539968 heartbeat IPC: 0.523638 cumulative IPC: 0.523505 (Simulation time: 1 hr 6 min 17 sec) 
Heartbeat CPU 1 instructions: 380000000 cycles: 220690089 heartbeat IPC: 1.05007 cumulative IPC: 1.0452 (Simulation time: 1 hr 6 min 40 sec) 
Heartbeat CPU 3 instructions: 330000003 cycles: 220891690 heartbeat IPC: 0.594655 cumulative IPC: 0.603761 (Simulation time: 1 hr 6 min 42 sec) 
Heartbeat CPU 2 instructions: 430000001 cycles: 226402122 heartbeat IPC: 1.00443 cumulative IPC: 1.34329 (Simulation time: 1 hr 7 min 42 sec) 
Heartbeat CPU 1 instructions: 390000000 cycles: 230294779 heartbeat IPC: 1.04116 cumulative IPC: 1.04464 (Simulation time: 1 hr 8 min 25 sec) 
Heartbeat CPU 2 instructions: 440000000 cycles: 235652851 heartbeat IPC: 1.081 cumulative IPC: 1.31068 (Simulation time: 1 hr 9 min 25 sec) 
Heartbeat CPU 3 instructions: 340000000 cycles: 237024083 heartbeat IPC: 0.619871 cumulative IPC: 0.60719 (Simulation time: 1 hr 9 min 39 sec) 
Heartbeat CPU 0 instructions: 240000000 cycles: 237995479 heartbeat IPC: 0.513993 cumulative IPC: 0.521094 (Simulation time: 1 hr 9 min 50 sec) 
Heartbeat CPU 1 instructions: 400000000 cycles: 239847455 heartbeat IPC: 1.04683 cumulative IPC: 1.0449 (Simulation time: 1 hr 10 min 9 sec) 
Heartbeat CPU 2 instructions: 450000003 cycles: 246101498 heartbeat IPC: 0.957062 cumulative IPC: 1.26714 (Simulation time: 1 hr 11 min 18 sec) 
Heartbeat CPU 1 instructions: 410000001 cycles: 249418837 heartbeat IPC: 1.04478 cumulative IPC: 1.04489 (Simulation time: 1 hr 11 min 54 sec) 
Heartbeat CPU 3 instructions: 350000000 cycles: 253547388 heartbeat IPC: 0.605206 cumulative IPC: 0.606835 (Simulation time: 1 hr 12 min 41 sec) 
Heartbeat CPU 2 instructions: 460000000 cycles: 253853722 heartbeat IPC: 1.28995 cumulative IPC: 1.26905 (Simulation time: 1 hr 12 min 45 sec) 
Heartbeat CPU 0 instructions: 250000003 cycles: 257150671 heartbeat IPC: 0.522052 cumulative IPC: 0.521285 (Simulation time: 1 hr 13 min 25 sec) 
Heartbeat CPU 1 instructions: 420000000 cycles: 259020734 heartbeat IPC: 1.04146 cumulative IPC: 1.04455 (Simulation time: 1 hr 13 min 47 sec) 
Heartbeat CPU 2 instructions: 470000003 cycles: 260532638 heartbeat IPC: 1.49725 cumulative IPC: 1.2844 (Simulation time: 1 hr 14 min 6 sec) 
Heartbeat CPU 2 instructions: 480000000 cycles: 267232006 heartbeat IPC: 1.49268 cumulative IPC: 1.29757 (Simulation time: 1 hr 15 min 27 sec) 
Heartbeat CPU 1 instructions: 430000001 cycles: 268486912 heartbeat IPC: 1.05639 cumulative IPC: 1.0456 (Simulation time: 1 hr 15 min 43 sec) 
Heartbeat CPU 3 instructions: 360000000 cycles: 270533882 heartbeat IPC: 0.588703 cumulative IPC: 0.604017 (Simulation time: 1 hr 16 min 7 sec) 
Heartbeat CPU 2 instructions: 490000003 cycles: 273946560 heartbeat IPC: 1.4893 cumulative IPC: 1.30899 (Simulation time: 1 hr 16 min 48 sec) 
Heartbeat CPU 0 instructions: 260000000 cycles: 276061341 heartbeat IPC: 0.528802 cumulative IPC: 0.522523 (Simulation time: 1 hr 17 min 14 sec) 
Heartbeat CPU 1 instructions: 440000000 cycles: 278169808 heartbeat IPC: 1.03275 cumulative IPC: 1.04453 (Simulation time: 1 hr 17 min 39 sec) 
Heartbeat CPU 2 instructions: 500000000 cycles: 280631349 heartbeat IPC: 1.49593 cumulative IPC: 1.31945 (Simulation time: 1 hr 18 min 9 sec) 
Heartbeat CPU 3 instructions: 370000001 cycles: 286749587 heartbeat IPC: 0.616686 cumulative IPC: 0.605654 (Simulation time: 1 hr 19 min 25 sec) 
Heartbeat CPU 2 instructions: 510000003 cycles: 287350969 heartbeat IPC: 1.48818 cumulative IPC: 1.32844 (Simulation time: 1 hr 19 min 33 sec) 
Heartbeat CPU 1 instructions: 450000001 cycles: 287734012 heartbeat IPC: 1.04557 cumulative IPC: 1.04461 (Simulation time: 1 hr 19 min 37 sec) 
Heartbeat CPU 2 instructions: 520000000 cycles: 294088566 heartbeat IPC: 1.48421 cumulative IPC: 1.33634 (Simulation time: 1 hr 20 min 55 sec) 
Heartbeat CPU 0 instructions: 270000000 cycles: 295123028 heartbeat IPC: 0.524613 cumulative IPC: 0.522821 (Simulation time: 1 hr 21 min 8 sec) 
Heartbeat CPU 1 instructions: 460000000 cycles: 297305499 heartbeat IPC: 1.04477 cumulative IPC: 1.04462 (Simulation time: 1 hr 21 min 36 sec) 
Heartbeat CPU 2 instructions: 530000000 cycles: 300842772 heartbeat IPC: 1.48056 cumulative IPC: 1.34332 (Simulation time: 1 hr 22 min 21 sec) 
Heartbeat CPU 3 instructions: 380000000 cycles: 303344313 heartbeat IPC: 0.602601 cumulative IPC: 0.605297 (Simulation time: 1 hr 22 min 53 sec) 
Heartbeat CPU 1 instructions: 470000003 cycles: 306879454 heartbeat IPC: 1.0445 cumulative IPC: 1.04462 (Simulation time: 1 hr 23 min 38 sec) 
Heartbeat CPU 2 instructions: 540000000 cycles: 307566699 heartbeat IPC: 1.48723 cumulative IPC: 1.34993 (Simulation time: 1 hr 23 min 47 sec) 
Heartbeat CPU 0 instructions: 280000000 cycles: 314159878 heartbeat IPC: 0.525297 cumulative IPC: 0.523129 (Simulation time: 1 hr 25 min 12 sec) 
Heartbeat CPU 2 instructions: 550000000 cycles: 314203134 heartbeat IPC: 1.50683 cumulative IPC: 1.35674 (Simulation time: 1 hr 25 min 12 sec) 
Heartbeat CPU 1 instructions: 480000000 cycles: 316385897 heartbeat IPC: 1.05192 cumulative IPC: 1.04506 (Simulation time: 1 hr 25 min 40 sec) 
Heartbeat CPU 3 instructions: 390000001 cycles: 320095596 heartbeat IPC: 0.596969 cumulative IPC: 0.604419 (Simulation time: 1 hr 26 min 28 sec) 
Heartbeat CPU 2 instructions: 560000000 cycles: 320897229 heartbeat IPC: 1.49385 cumulative IPC: 1.36249 (Simulation time: 1 hr 26 min 38 sec) 
Heartbeat CPU 1 instructions: 490000002 cycles: 326031053 heartbeat IPC: 1.03679 cumulative IPC: 1.04458 (Simulation time: 1 hr 27 min 43 sec) 
Heartbeat CPU 2 instructions: 570000000 cycles: 327628560 heartbeat IPC: 1.48559 cumulative IPC: 1.36747 (Simulation time: 1 hr 28 min 3 sec) 
Heartbeat CPU 0 instructions: 290000000 cycles: 333244935 heartbeat IPC: 0.52397 cumulative IPC: 0.523222 (Simulation time: 1 hr 29 min 15 sec) 
Heartbeat CPU 2 instructions: 580000000 cycles: 334345718 heartbeat IPC: 1.48872 cumulative IPC: 1.37217 (Simulation time: 1 hr 29 min 29 sec) 
Heartbeat CPU 1 instructions: 500000000 cycles: 335511779 heartbeat IPC: 1.05477 cumulative IPC: 1.04513 (Simulation time: 1 hr 29 min 44 sec) 
Heartbeat CPU 3 instructions: 400000000 cycles: 337036128 heartbeat IPC: 0.5903 cumulative IPC: 0.603059 (Simulation time: 1 hr 30 min 3 sec) 
Heartbeat CPU 2 instructions: 590000002 cycles: 341089344 heartbeat IPC: 1.48288 cumulative IPC: 1.37632 (Simulation time: 1 hr 30 min 56 sec) 
Heartbeat CPU 1 instructions: 510000000 cycles: 345098428 heartbeat IPC: 1.04312 cumulative IPC: 1.04503 (Simulation time: 1 hr 31 min 48 sec) 
Heartbeat CPU 2 instructions: 600000000 cycles: 347819104 heartbeat IPC: 1.48594 cumulative IPC: 1.38028 (Simulation time: 1 hr 32 min 26 sec) 
Heartbeat CPU 0 instructions: 300000000 cycles: 352241961 heartbeat IPC: 0.526398 cumulative IPC: 0.523538 (Simulation time: 1 hr 33 min 33 sec) 
Heartbeat CPU 3 instructions: 410000003 cycles: 353341671 heartbeat IPC: 0.613289 cumulative IPC: 0.603927 (Simulation time: 1 hr 33 min 48 sec) 
Heartbeat CPU 2 instructions: 610000000 cycles: 354546186 heartbeat IPC: 1.48653 cumulative IPC: 1.38398 (Simulation time: 1 hr 34 min 5 sec) 
Heartbeat CPU 1 instructions: 520000000 cycles: 354683880 heartbeat IPC: 1.04325 cumulative IPC: 1.04494 (Simulation time: 1 hr 34 min 7 sec) 
Heartbeat CPU 1 instructions: 530000000 cycles: 364238593 heartbeat IPC: 1.0466 cumulative IPC: 1.04502 (Simulation time: 1 hr 36 min 11 sec) 
Heartbeat CPU 2 instructions: 620000000 cycles: 365189955 heartbeat IPC: 0.939517 cumulative IPC: 1.36078 (Simulation time: 1 hr 36 min 23 sec) 
Heartbeat CPU 3 instructions: 420000000 cycles: 369952402 heartbeat IPC: 0.60202 cumulative IPC: 0.603775 (Simulation time: 1 hr 37 min 25 sec) 
Heartbeat CPU 0 instructions: 310000002 cycles: 371297149 heartbeat IPC: 0.524792 cumulative IPC: 0.523652 (Simulation time: 1 hr 37 min 42 sec) 
Heartbeat CPU 1 instructions: 540000000 cycles: 373806722 heartbeat IPC: 1.04514 cumulative IPC: 1.04502 (Simulation time: 1 hr 38 min 17 sec) 
Heartbeat CPU 2 instructions: 630000001 cycles: 374422191 heartbeat IPC: 1.08316 cumulative IPC: 1.34876 (Simulation time: 1 hr 38 min 26 sec) 
Heartbeat CPU 1 instructions: 550000001 cycles: 383290875 heartbeat IPC: 1.05439 cumulative IPC: 1.04542 (Simulation time: 1 hr 40 min 17 sec) 
Heartbeat CPU 2 instructions: 640000000 cycles: 384542437 heartbeat IPC: 0.988118 cumulative IPC: 1.33241 (Simulation time: 1 hr 40 min 34 sec) 
Heartbeat CPU 3 instructions: 430000002 cycles: 386811799 heartbeat IPC: 0.593141 cumulative IPC: 0.60298 (Simulation time: 1 hr 41 min 3 sec) 
Heartbeat CPU 0 instructions: 320000000 cycles: 390357392 heartbeat IPC: 0.524652 cumulative IPC: 0.523735 (Simulation time: 1 hr 41 min 46 sec) 
Heartbeat CPU 1 instructions: 560000000 cycles: 392937713 heartbeat IPC: 1.03661 cumulative IPC: 1.04506 (Simulation time: 1 hr 42 min 16 sec) 
Heartbeat CPU 2 instructions: 650000003 cycles: 394219294 heartbeat IPC: 1.03339 cumulative IPC: 1.31999 (Simulation time: 1 hr 42 min 31 sec) 
Heartbeat CPU 2 instructions: 660000000 cycles: 401743578 heartbeat IPC: 1.32903 cumulative IPC: 1.32028 (Simulation time: 1 hr 44 min 4 sec) 
Heartbeat CPU 1 instructions: 570000001 cycles: 402381689 heartbeat IPC: 1.05888 cumulative IPC: 1.0456 (Simulation time: 1 hr 44 min 12 sec) 
Heartbeat CPU 3 instructions: 440000000 cycles: 403723793 heartbeat IPC: 0.591296 cumulative IPC: 0.602166 (Simulation time: 1 hr 44 min 29 sec) 
Heartbeat CPU 2 instructions: 670000003 cycles: 408436293 heartbeat IPC: 1.49416 cumulative IPC: 1.32499 (Simulation time: 1 hr 45 min 29 sec) 
Heartbeat CPU 0 instructions: 330000003 cycles: 409325240 heartbeat IPC: 0.527208 cumulative IPC: 0.524001 (Simulation time: 1 hr 45 min 40 sec) 
Heartbeat CPU 1 instructions: 580000000 cycles: 412052526 heartbeat IPC: 1.03404 cumulative IPC: 1.04515 (Simulation time: 1 hr 46 min 15 sec) 
Heartbeat CPU 2 instructions: 680000000 cycles: 415152012 heartbeat IPC: 1.48904 cumulative IPC: 1.32932 (Simulation time: 1 hr 46 min 56 sec) 
Heartbeat CPU 3 instructions: 450000000 cycles: 420003202 heartbeat IPC: 0.614273 cumulative IPC: 0.602927 (Simulation time: 1 hr 47 min 59 sec) 
Heartbeat CPU 1 instructions: 590000001 cycles: 421541119 heartbeat IPC: 1.0539 cumulative IPC: 1.04547 (Simulation time: 1 hr 48 min 19 sec) 
Heartbeat CPU 2 instructions: 690000002 cycles: 421853683 heartbeat IPC: 1.49217 cumulative IPC: 1.33351 (Simulation time: 1 hr 48 min 23 sec) 
Heartbeat CPU 0 instructions: 340000000 cycles: 427938652 heartbeat IPC: 0.537247 cumulative IPC: 0.524925 (Simulation time: 1 hr 49 min 42 sec) 
Heartbeat CPU 2 instructions: 700000000 cycles: 428558834 heartbeat IPC: 1.49139 cumulative IPC: 1.33747 (Simulation time: 1 hr 49 min 50 sec) 
Heartbeat CPU 1 instructions: 600000000 cycles: 431156244 heartbeat IPC: 1.04003 cumulative IPC: 1.04528 (Simulation time: 1 hr 50 min 23 sec) 
Heartbeat CPU 2 instructions: 710000003 cycles: 435263934 heartbeat IPC: 1.4914 cumulative IPC: 1.34124 (Simulation time: 1 hr 51 min 16 sec) 
Heartbeat CPU 3 instructions: 460000000 cycles: 436307862 heartbeat IPC: 0.613322 cumulative IPC: 0.603543 (Simulation time: 1 hr 51 min 30 sec) 
Heartbeat CPU 1 instructions: 610000002 cycles: 440670442 heartbeat IPC: 1.05106 cumulative IPC: 1.04547 (Simulation time: 1 hr 52 min 27 sec) 
Heartbeat CPU 2 instructions: 720000000 cycles: 442025503 heartbeat IPC: 1.47895 cumulative IPC: 1.34455 (Simulation time: 1 hr 52 min 45 sec) 
Heartbeat CPU 0 instructions: 350000003 cycles: 446668701 heartbeat IPC: 0.533902 cumulative IPC: 0.525514 (Simulation time: 1 hr 53 min 44 sec) 
Heartbeat CPU 2 instructions: 730000001 cycles: 448788950 heartbeat IPC: 1.47854 cumulative IPC: 1.34771 (Simulation time: 1 hr 54 min 11 sec) 
Heartbeat CPU 1 instructions: 620000000 cycles: 450215219 heartbeat IPC: 1.04769 cumulative IPC: 1.04555 (Simulation time: 1 hr 54 min 29 sec) 
Heartbeat CPU 3 instructions: 470000000 cycles: 452797480 heartbeat IPC: 0.606442 cumulative IPC: 0.603707 (Simulation time: 1 hr 55 min 2 sec) 
Heartbeat CPU 2 instructions: 740000000 cycles: 455519989 heartbeat IPC: 1.48565 cumulative IPC: 1.35086 (Simulation time: 1 hr 55 min 37 sec) 
Heartbeat CPU 1 instructions: 630000003 cycles: 459642603 heartbeat IPC: 1.06074 cumulative IPC: 1.04603 (Simulation time: 1 hr 56 min 31 sec) 
Heartbeat CPU 2 instructions: 750000001 cycles: 462162009 heartbeat IPC: 1.50557 cumulative IPC: 1.35428 (Simulation time: 1 hr 57 min 3 sec) 
Heartbeat CPU 0 instructions: 360000000 cycles: 465516843 heartbeat IPC: 0.530556 cumulative IPC: 0.525826 (Simulation time: 1 hr 57 min 46 sec) 
Heartbeat CPU 2 instructions: 760000000 cycles: 468868362 heartbeat IPC: 1.49112 cumulative IPC: 1.35726 (Simulation time: 1 hr 58 min 29 sec) 
Heartbeat CPU 1 instructions: 640000000 cycles: 469128357 heartbeat IPC: 1.05421 cumulative IPC: 1.04628 (Simulation time: 1 hr 58 min 33 sec) 
Heartbeat CPU 3 instructions: 480000000 cycles: 469471056 heartbeat IPC: 0.599751 cumulative IPC: 0.603493 (Simulation time: 1 hr 58 min 37 sec) 
Heartbeat CPU 2 instructions: 770000003 cycles: 475606334 heartbeat IPC: 1.48413 cumulative IPC: 1.35998 (Simulation time: 1 hr 59 min 56 sec) 
Heartbeat CPU 1 instructions: 650000003 cycles: 478634511 heartbeat IPC: 1.05195 cumulative IPC: 1.04645 (Simulation time: 2 hr 0 min 35 sec) 
Heartbeat CPU 2 instructions: 780000000 cycles: 482335856 heartbeat IPC: 1.48599 cumulative IPC: 1.36262 (Simulation time: 2 hr 1 min 23 sec) 
Heartbeat CPU 0 instructions: 370000000 cycles: 484379434 heartbeat IPC: 0.53015 cumulative IPC: 0.526079 (Simulation time: 2 hr 1 min 50 sec) 
Heartbeat CPU 3 instructions: 490000000 cycles: 486048998 heartbeat IPC: 0.603211 cumulative IPC: 0.603479 (Simulation time: 2 hr 2 min 12 sec) 
Heartbeat CPU 1 instructions: 660000000 cycles: 488037060 heartbeat IPC: 1.06354 cumulative IPC: 1.04694 (Simulation time: 2 hr 2 min 37 sec) 
Heartbeat CPU 2 instructions: 790000001 cycles: 489090654 heartbeat IPC: 1.48043 cumulative IPC: 1.36505 (Simulation time: 2 hr 2 min 51 sec) 
Heartbeat CPU 2 instructions: 800000000 cycles: 495818126 heartbeat IPC: 1.48644 cumulative IPC: 1.36749 (Simulation time: 2 hr 4 min 17 sec) 
Heartbeat CPU 1 instructions: 670000003 cycles: 497382422 heartbeat IPC: 1.07005 cumulative IPC: 1.04758 (Simulation time: 2 hr 4 min 37 sec) 
Heartbeat CPU 2 instructions: 810000003 cycles: 502572579 heartbeat IPC: 1.48051 cumulative IPC: 1.36972 (Simulation time: 2 hr 5 min 44 sec) 
Heartbeat CPU 3 instructions: 500000000 cycles: 502823044 heartbeat IPC: 0.596159 cumulative IPC: 0.603119 (Simulation time: 2 hr 5 min 47 sec) 
Heartbeat CPU 0 instructions: 380000000 cycles: 503206684 heartbeat IPC: 0.531145 cumulative IPC: 0.526358 (Simulation time: 2 hr 5 min 52 sec) 
Heartbeat CPU 1 instructions: 680000000 cycles: 506856397 heartbeat IPC: 1.05552 cumulative IPC: 1.0478 (Simulation time: 2 hr 6 min 35 sec) 
Heartbeat CPU 2 instructions: 820000000 cycles: 513414131 heartbeat IPC: 0.922377 cumulative IPC: 1.35595 (Simulation time: 2 hr 7 min 47 sec) 
Heartbeat CPU 1 instructions: 690000001 cycles: 516210162 heartbeat IPC: 1.06909 cumulative IPC: 1.04836 (Simulation time: 2 hr 8 min 19 sec) 
Heartbeat CPU 3 instructions: 510000003 cycles: 519579243 heartbeat IPC: 0.596794 cumulative IPC: 0.602824 (Simulation time: 2 hr 8 min 57 sec) 
Heartbeat CPU 0 instructions: 390000000 cycles: 522158611 heartbeat IPC: 0.527651 cumulative IPC: 0.526426 (Simulation time: 2 hr 9 min 35 sec) 
Heartbeat CPU 2 instructions: 830000001 cycles: 522692339 heartbeat IPC: 1.07779 cumulative IPC: 1.34881 (Simulation time: 2 hr 9 min 41 sec) 
Heartbeat CPU 1 instructions: 700000000 cycles: 525742869 heartbeat IPC: 1.04902 cumulative IPC: 1.04838 (Simulation time: 2 hr 10 min 22 sec) 
Heartbeat CPU 2 instructions: 840000000 cycles: 533011306 heartbeat IPC: 0.969089 cumulative IPC: 1.33827 (Simulation time: 2 hr 11 min 51 sec) 
Heartbeat CPU 1 instructions: 710000000 cycles: 535255828 heartbeat IPC: 1.0512 cumulative IPC: 1.04845 (Simulation time: 2 hr 12 min 22 sec) 
Heartbeat CPU 3 instructions: 520000000 cycles: 536428918 heartbeat IPC: 0.593483 cumulative IPC: 0.602404 (Simulation time: 2 hr 12 min 38 sec) 
Heartbeat CPU 0 instructions: 400000000 cycles: 541323284 heartbeat IPC: 0.521793 cumulative IPC: 0.526192 (Simulation time: 2 hr 13 min 41 sec) 
Heartbeat CPU 2 instructions: 850000000 cycles: 542377285 heartbeat IPC: 1.06769 cumulative IPC: 1.33162 (Simulation time: 2 hr 13 min 55 sec) 
Heartbeat CPU 1 instructions: 720000000 cycles: 544753890 heartbeat IPC: 1.05285 cumulative IPC: 1.04856 (Simulation time: 2 hr 14 min 25 sec) 
Heartbeat CPU 2 instructions: 860000000 cycles: 549727628 heartbeat IPC: 1.36048 cumulative IPC: 1.33217 (Simulation time: 2 hr 15 min 28 sec) 
Heartbeat CPU 3 instructions: 530000002 cycles: 553181881 heartbeat IPC: 0.596909 cumulative IPC: 0.602169 (Simulation time: 2 hr 16 min 12 sec) 
Heartbeat CPU 1 instructions: 730000000 cycles: 554400835 heartbeat IPC: 1.0366 cumulative IPC: 1.04827 (Simulation time: 2 hr 16 min 28 sec) 
Heartbeat CPU 2 instructions: 870000002 cycles: 556421247 heartbeat IPC: 1.49396 cumulative IPC: 1.33491 (Simulation time: 2 hr 16 min 54 sec) 
Heartbeat CPU 0 instructions: 410000003 cycles: 560354432 heartbeat IPC: 0.525455 cumulative IPC: 0.526157 (Simulation time: 2 hr 17 min 44 sec) 
Heartbeat CPU 2 instructions: 880000000 cycles: 563123108 heartbeat IPC: 1.49212 cumulative IPC: 1.33753 (Simulation time: 2 hr 18 min 20 sec) 
Heartbeat CPU 1 instructions: 740000000 cycles: 563924291 heartbeat IPC: 1.05004 cumulative IPC: 1.04831 (Simulation time: 2 hr 18 min 30 sec) 
Heartbeat CPU 2 instructions: 890000001 cycles: 569813962 heartbeat IPC: 1.49458 cumulative IPC: 1.3401 (Simulation time: 2 hr 19 min 46 sec) 
Heartbeat CPU 3 instructions: 540000000 cycles: 569941617 heartbeat IPC: 0.596668 cumulative IPC: 0.601944 (Simulation time: 2 hr 19 min 48 sec) 
Heartbeat CPU 1 instructions: 750000003 cycles: 573459763 heartbeat IPC: 1.04872 cumulative IPC: 1.04832 (Simulation time: 2 hr 20 min 33 sec) 
Heartbeat CPU 2 instructions: 900000000 cycles: 576496430 heartbeat IPC: 1.49645 cumulative IPC: 1.34262 (Simulation time: 2 hr 21 min 12 sec) 
Heartbeat CPU 0 instructions: 420000000 cycles: 579025778 heartbeat IPC: 0.53558 cumulative IPC: 0.526578 (Simulation time: 2 hr 21 min 45 sec) 
Heartbeat CPU 1 instructions: 760000000 cycles: 583015337 heartbeat IPC: 1.04651 cumulative IPC: 1.04828 (Simulation time: 2 hr 22 min 36 sec) 
Heartbeat CPU 2 instructions: 910000001 cycles: 583227422 heartbeat IPC: 1.48567 cumulative IPC: 1.3449 (Simulation time: 2 hr 22 min 39 sec) 
Heartbeat CPU 3 instructions: 550000003 cycles: 586415597 heartbeat IPC: 0.607018 cumulative IPC: 0.60214 (Simulation time: 2 hr 23 min 20 sec) 
Heartbeat CPU 2 instructions: 920000000 cycles: 589990147 heartbeat IPC: 1.47869 cumulative IPC: 1.34701 (Simulation time: 2 hr 24 min 6 sec) 
Heartbeat CPU 1 instructions: 770000002 cycles: 592545431 heartbeat IPC: 1.04931 cumulative IPC: 1.0483 (Simulation time: 2 hr 24 min 38 sec) 
Heartbeat CPU 2 instructions: 930000000 cycles: 596742249 heartbeat IPC: 1.48102 cumulative IPC: 1.34909 (Simulation time: 2 hr 25 min 30 sec) 
Heartbeat CPU 0 instructions: 430000000 cycles: 597832952 heartbeat IPC: 0.531712 cumulative IPC: 0.526799 (Simulation time: 2 hr 25 min 43 sec) 
Heartbeat CPU 1 instructions: 780000000 cycles: 602055736 heartbeat IPC: 1.05149 cumulative IPC: 1.04837 (Simulation time: 2 hr 26 min 35 sec) 
Heartbeat CPU 3 instructions: 560000000 cycles: 603150169 heartbeat IPC: 0.597565 cumulative IPC: 0.601967 (Simulation time: 2 hr 26 min 48 sec) 
Heartbeat CPU 2 instructions: 940000000 cycles: 603436609 heartbeat IPC: 1.49379 cumulative IPC: 1.35128 (Simulation time: 2 hr 26 min 51 sec) 
Heartbeat CPU 2 instructions: 950000000 cycles: 610070446 heartbeat IPC: 1.50742 cumulative IPC: 1.35359 (Simulation time: 2 hr 28 min 12 sec) 
Heartbeat CPU 1 instructions: 790000000 cycles: 611448197 heartbeat IPC: 1.06468 cumulative IPC: 1.04871 (Simulation time: 2 hr 28 min 29 sec) 
Heartbeat CPU 2 instructions: 960000000 cycles: 616782839 heartbeat IPC: 1.48978 cumulative IPC: 1.35559 (Simulation time: 2 hr 29 min 33 sec) 
Heartbeat CPU 0 instructions: 440000000 cycles: 617979255 heartbeat IPC: 0.496369 cumulative IPC: 0.525457 (Simulation time: 2 hr 29 min 47 sec) 
Heartbeat CPU 3 instructions: 570000001 cycles: 619928587 heartbeat IPC: 0.596004 cumulative IPC: 0.601749 (Simulation time: 2 hr 30 min 11 sec) 
Heartbeat CPU 1 instructions: 800000000 cycles: 620914856 heartbeat IPC: 1.05634 cumulative IPC: 1.04887 (Simulation time: 2 hr 30 min 23 sec) 
Heartbeat CPU 2 instructions: 970000002 cycles: 623509255 heartbeat IPC: 1.48668 cumulative IPC: 1.3575 (Simulation time: 2 hr 30 min 55 sec) 
Heartbeat CPU 2 instructions: 980000000 cycles: 630238482 heartbeat IPC: 1.48605 cumulative IPC: 1.35935 (Simulation time: 2 hr 32 min 19 sec) 
Heartbeat CPU 1 instructions: 810000002 cycles: 630252842 heartbeat IPC: 1.07089 cumulative IPC: 1.0493 (Simulation time: 2 hr 32 min 19 sec) 
Heartbeat CPU 3 instructions: 580000000 cycles: 635807672 heartbeat IPC: 0.629759 cumulative IPC: 0.602686 (Simulation time: 2 hr 33 min 28 sec) 
Heartbeat CPU 2 instructions: 990000003 cycles: 636969586 heartbeat IPC: 1.48564 cumulative IPC: 1.36113 (Simulation time: 2 hr 33 min 42 sec) 
Heartbeat CPU 0 instructions: 450000001 cycles: 637274130 heartbeat IPC: 0.518272 cumulative IPC: 0.525166 (Simulation time: 2 hr 33 min 46 sec) 
Heartbeat CPU 1 instructions: 820000000 cycles: 639566381 heartbeat IPC: 1.07371 cumulative IPC: 1.04978 (Simulation time: 2 hr 34 min 14 sec) 
Heartbeat CPU 2 instructions: 1000000000 cycles: 643692055 heartbeat IPC: 1.48755 cumulative IPC: 1.36289 (Simulation time: 2 hr 35 min 5 sec) 
Heartbeat CPU 1 instructions: 830000001 cycles: 649037969 heartbeat IPC: 1.05579 cumulative IPC: 1.0499 (Simulation time: 2 hr 36 min 10 sec) 
Heartbeat CPU 2 instructions: 1010000001 cycles: 650431455 heartbeat IPC: 1.48381 cumulative IPC: 1.36456 (Simulation time: 2 hr 36 min 28 sec) 
Heartbeat CPU 3 instructions: 590000000 cycles: 651726215 heartbeat IPC: 0.628198 cumulative IPC: 0.603514 (Simulation time: 2 hr 36 min 44 sec) 
Heartbeat CPU 0 instructions: 460000000 cycles: 656549986 heartbeat IPC: 0.518784 cumulative IPC: 0.524917 (Simulation time: 2 hr 37 min 34 sec) 
Heartbeat CPU 1 instructions: 840000000 cycles: 658371488 heartbeat IPC: 1.07141 cumulative IPC: 1.0503 (Simulation time: 2 hr 37 min 53 sec) 
Heartbeat CPU 2 instructions: 1020000000 cycles: 661735521 heartbeat IPC: 0.884637 cumulative IPC: 1.35372 (Simulation time: 2 hr 38 min 30 sec) 
Heartbeat CPU 1 instructions: 850000000 cycles: 667832966 heartbeat IPC: 1.05692 cumulative IPC: 1.05042 (Simulation time: 2 hr 39 min 36 sec) 
Heartbeat CPU 3 instructions: 600000000 cycles: 667960868 heartbeat IPC: 0.615966 cumulative IPC: 0.603913 (Simulation time: 2 hr 39 min 38 sec) 
Heartbeat CPU 2 instructions: 1030000003 cycles: 671029056 heartbeat IPC: 1.07602 cumulative IPC: 1.34866 (Simulation time: 2 hr 40 min 12 sec) 
Heartbeat CPU 0 instructions: 470000001 cycles: 676282337 heartbeat IPC: 0.506782 cumulative IPC: 0.524223 (Simulation time: 2 hr 41 min 12 sec) 
Heartbeat CPU 1 instructions: 860000000 cycles: 677251762 heartbeat IPC: 1.06171 cumulative IPC: 1.05063 (Simulation time: 2 hr 41 min 21 sec) 
Heartbeat CPU 2 instructions: 1040000000 cycles: 681286449 heartbeat IPC: 0.974906 cumulative IPC: 1.34129 (Simulation time: 2 hr 42 min 4 sec) 
Heartbeat CPU 3 instructions: 610000000 cycles: 684158663 heartbeat IPC: 0.617368 cumulative IPC: 0.60433 (Simulation time: 2 hr 42 min 35 sec) 
Heartbeat CPU 1 instructions: 870000000 cycles: 686556358 heartbeat IPC: 1.07474 cumulative IPC: 1.05106 (Simulation time: 2 hr 43 min 1 sec) 
Heartbeat CPU 2 instructions: 1050000002 cycles: 690381666 heartbeat IPC: 1.09948 cumulative IPC: 1.33713 (Simulation time: 2 hr 43 min 43 sec) 
Heartbeat CPU 1 instructions: 880000000 cycles: 696126541 heartbeat IPC: 1.04491 cumulative IPC: 1.05095 (Simulation time: 2 hr 44 min 50 sec) 
Heartbeat CPU 0 instructions: 480000000 cycles: 696295493 heartbeat IPC: 0.499671 cumulative IPC: 0.523304 (Simulation time: 2 hr 44 min 52 sec) 
Heartbeat CPU 2 instructions: 1060000000 cycles: 697568556 heartbeat IPC: 1.39142 cumulative IPC: 1.33786 (Simulation time: 2 hr 45 min 7 sec) 
Heartbeat CPU 3 instructions: 620000000 cycles: 700682567 heartbeat IPC: 0.605184 cumulative IPC: 0.604356 (Simulation time: 2 hr 45 min 45 sec) 
Heartbeat CPU 2 instructions: 1070000001 cycles: 704264141 heartbeat IPC: 1.49352 cumulative IPC: 1.33978 (Simulation time: 2 hr 46 min 28 sec) 
Heartbeat CPU 1 instructions: 890000000 cycles: 705679448 heartbeat IPC: 1.0468 cumulative IPC: 1.05087 (Simulation time: 2 hr 46 min 45 sec) 
Heartbeat CPU 2 instructions: 1080000000 cycles: 710969608 heartbeat IPC: 1.49132 cumulative IPC: 1.34163 (Simulation time: 2 hr 47 min 50 sec) 
Heartbeat CPU 1 instructions: 900000000 cycles: 715211015 heartbeat IPC: 1.04915 cumulative IPC: 1.05084 (Simulation time: 2 hr 48 min 41 sec) 
Heartbeat CPU 0 instructions: 490000001 cycles: 715376189 heartbeat IPC: 0.52409 cumulative IPC: 0.523331 (Simulation time: 2 hr 48 min 43 sec) 
Heartbeat CPU 3 instructions: 630000001 cycles: 717358117 heartbeat IPC: 0.59968 cumulative IPC: 0.604216 (Simulation time: 2 hr 49 min 7 sec) 
Heartbeat CPU 2 instructions: 1090000001 cycles: 717662639 heartbeat IPC: 1.49409 cumulative IPC: 1.34346 (Simulation time: 2 hr 49 min 11 sec) 
Heartbeat CPU 2 instructions: 1100000000 cycles: 724375320 heartbeat IPC: 1.48972 cumulative IPC: 1.3452 (Simulation time: 2 hr 50 min 32 sec) 
Heartbeat CPU 1 instructions: 910000003 cycles: 724823021 heartbeat IPC: 1.04037 cumulative IPC: 1.05067 (Simulation time: 2 hr 50 min 37 sec) 
Heartbeat CPU 2 instructions: 1110000000 cycles: 731107459 heartbeat IPC: 1.48541 cumulative IPC: 1.34686 (Simulation time: 2 hr 51 min 54 sec) 
Heartbeat CPU 3 instructions: 640000000 cycles: 734133614 heartbeat IPC: 0.596107 cumulative IPC: 0.603978 (Simulation time: 2 hr 52 min 30 sec) 
Heartbeat CPU 1 instructions: 920000000 cycles: 734361868 heartbeat IPC: 1.04834 cumulative IPC: 1.05063 (Simulation time: 2 hr 52 min 33 sec) 
Heartbeat CPU 0 instructions: 500000000 cycles: 734544840 heartbeat IPC: 0.521685 cumulative IPC: 0.523276 (Simulation time: 2 hr 52 min 35 sec) 
Heartbeat CPU 2 instructions: 1120000000 cycles: 737879984 heartbeat IPC: 1.47655 cumulative IPC: 1.34838 (Simulation time: 2 hr 53 min 16 sec) 
Heartbeat CPU 1 instructions: 930000000 cycles: 743889761 heartbeat IPC: 1.04955 cumulative IPC: 1.05061 (Simulation time: 2 hr 54 min 30 sec) 
Heartbeat CPU 2 instructions: 1130000001 cycles: 744641661 heartbeat IPC: 1.47892 cumulative IPC: 1.3499 (Simulation time: 2 hr 54 min 39 sec) 
Heartbeat CPU 3 instructions: 650000001 cycles: 750216826 heartbeat IPC: 0.621766 cumulative IPC: 0.604464 (Simulation time: 2 hr 55 min 48 sec) 
Heartbeat CPU 2 instructions: 1140000000 cycles: 751333509 heartbeat IPC: 1.49436 cumulative IPC: 1.35153 (Simulation time: 2 hr 56 min 1 sec) 
Heartbeat CPU 1 instructions: 940000000 cycles: 753256133 heartbeat IPC: 1.06765 cumulative IPC: 1.05088 (Simulation time: 2 hr 56 min 25 sec) 
Heartbeat CPU 0 instructions: 510000003 cycles: 753823814 heartbeat IPC: 0.5187 cumulative IPC: 0.523127 (Simulation time: 2 hr 56 min 32 sec) 
Heartbeat CPU 2 instructions: 1150000001 cycles: 757964028 heartbeat IPC: 1.50818 cumulative IPC: 1.35327 (Simulation time: 2 hr 57 min 23 sec) 
Heartbeat CPU 1 instructions: 950000000 cycles: 762726167 heartbeat IPC: 1.05596 cumulative IPC: 1.05096 (Simulation time: 2 hr 58 min 20 sec) 
Heartbeat CPU 2 instructions: 1160000000 cycles: 764690110 heartbeat IPC: 1.48675 cumulative IPC: 1.35476 (Simulation time: 2 hr 58 min 45 sec) 
Heartbeat CPU 3 instructions: 660000000 cycles: 766765288 heartbeat IPC: 0.604286 cumulative IPC: 0.604459 (Simulation time: 2 hr 59 min 10 sec) 
Heartbeat CPU 2 instructions: 1170000001 cycles: 771428011 heartbeat IPC: 1.48414 cumulative IPC: 1.35619 (Simulation time: 3 hr 0 min 7 sec) 
Heartbeat CPU 1 instructions: 960000000 cycles: 772143414 heartbeat IPC: 1.06188 cumulative IPC: 1.05113 (Simulation time: 3 hr 0 min 15 sec) 
Heartbeat CPU 0 instructions: 520000000 cycles: 773231771 heartbeat IPC: 0.515252 cumulative IPC: 0.522878 (Simulation time: 3 hr 0 min 28 sec) 
Heartbeat CPU 2 instructions: 1180000000 cycles: 778165393 heartbeat IPC: 1.48426 cumulative IPC: 1.35759 (Simulation time: 3 hr 1 min 28 sec) 
Heartbeat CPU 1 instructions: 970000000 cycles: 781470486 heartbeat IPC: 1.07215 cumulative IPC: 1.05144 (Simulation time: 3 hr 2 min 8 sec) 
Heartbeat CPU 3 instructions: 670000001 cycles: 783584322 heartbeat IPC: 0.594565 cumulative IPC: 0.604192 (Simulation time: 3 hr 2 min 34 sec) 
Heartbeat CPU 2 instructions: 1190000001 cycles: 784898776 heartbeat IPC: 1.48514 cumulative IPC: 1.35897 (Simulation time: 3 hr 2 min 50 sec) 
Heartbeat CPU 1 instructions: 980000000 cycles: 790850202 heartbeat IPC: 1.06613 cumulative IPC: 1.05166 (Simulation time: 3 hr 4 min 3 sec) 
Heartbeat CPU 2 instructions: 1200000000 cycles: 791633481 heartbeat IPC: 1.48485 cumulative IPC: 1.36031 (Simulation time: 3 hr 4 min 12 sec) 
Heartbeat CPU 0 instructions: 530000000 cycles: 792499790 heartbeat IPC: 0.518995 cumulative IPC: 0.522759 (Simulation time: 3 hr 4 min 23 sec) 
Heartbeat CPU 2 instructions: 1210000001 cycles: 798376275 heartbeat IPC: 1.48306 cumulative IPC: 1.36161 (Simulation time: 3 hr 5 min 35 sec) 
Heartbeat CPU 3 instructions: 680000000 cycles: 800059340 heartbeat IPC: 0.60698 cumulative IPC: 0.604264 (Simulation time: 3 hr 5 min 56 sec) 
Heartbeat CPU 1 instructions: 990000003 cycles: 800246801 heartbeat IPC: 1.06422 cumulative IPC: 1.05185 (Simulation time: 3 hr 5 min 57 sec) 
Heartbeat CPU 1 instructions: 1000000000 cycles: 809617805 heartbeat IPC: 1.06712 cumulative IPC: 1.05207 (Simulation time: 3 hr 7 min 37 sec) 
Heartbeat CPU 2 instructions: 1220000000 cycles: 810177174 heartbeat IPC: 0.847393 cumulative IPC: 1.35226 (Simulation time: 3 hr 7 min 43 sec) 
Heartbeat CPU 0 instructions: 540000000 cycles: 811744139 heartbeat IPC: 0.519633 cumulative IPC: 0.522667 (Simulation time: 3 hr 8 min 0 sec) 
Heartbeat CPU 3 instructions: 690000001 cycles: 816188436 heartbeat IPC: 0.619998 cumulative IPC: 0.604651 (Simulation time: 3 hr 8 min 51 sec) 
Heartbeat CPU 1 instructions: 1010000003 cycles: 819083690 heartbeat IPC: 1.05643 cumulative IPC: 1.05213 (Simulation time: 3 hr 9 min 22 sec) 
Heartbeat CPU 2 instructions: 1230000001 cycles: 819094394 heartbeat IPC: 1.12143 cumulative IPC: 1.34913 (Simulation time: 3 hr 9 min 22 sec) 
Heartbeat CPU 1 instructions: 1020000000 cycles: 828520584 heartbeat IPC: 1.05967 cumulative IPC: 1.05224 (Simulation time: 3 hr 11 min 2 sec) 
Heartbeat CPU 2 instructions: 1240000000 cycles: 829864273 heartbeat IPC: 0.928515 cumulative IPC: 1.34236 (Simulation time: 3 hr 11 min 16 sec) 
Heartbeat CPU 0 instructions: 550000000 cycles: 831758402 heartbeat IPC: 0.499644 cumulative IPC: 0.521979 (Simulation time: 3 hr 11 min 37 sec) 
Heartbeat CPU 3 instructions: 700000000 cycles: 832906942 heartbeat IPC: 0.59814 cumulative IPC: 0.604489 (Simulation time: 3 hr 11 min 49 sec) 
Heartbeat CPU 1 instructions: 1030000001 cycles: 837867609 heartbeat IPC: 1.06986 cumulative IPC: 1.05248 (Simulation time: 3 hr 12 min 44 sec) 
Heartbeat CPU 2 instructions: 1250000002 cycles: 838554517 heartbeat IPC: 1.15072 cumulative IPC: 1.3399 (Simulation time: 3 hr 12 min 51 sec) 
Heartbeat CPU 2 instructions: 1260000000 cycles: 845516016 heartbeat IPC: 1.43647 cumulative IPC: 1.34088 (Simulation time: 3 hr 14 min 14 sec) 
Heartbeat CPU 1 instructions: 1040000000 cycles: 847481187 heartbeat IPC: 1.0402 cumulative IPC: 1.05231 (Simulation time: 3 hr 14 min 37 sec) 
Heartbeat CPU 3 instructions: 710000002 cycles: 849749171 heartbeat IPC: 0.593746 cumulative IPC: 0.604226 (Simulation time: 3 hr 15 min 5 sec) 
Heartbeat CPU 0 instructions: 560000000 cycles: 851334888 heartbeat IPC: 0.510817 cumulative IPC: 0.521663 (Simulation time: 3 hr 15 min 24 sec) 
Heartbeat CPU 2 instructions: 1270000000 cycles: 852204737 heartbeat IPC: 1.49505 cumulative IPC: 1.34237 (Simulation time: 3 hr 15 min 35 sec) 
Heartbeat CPU 1 instructions: 1050000001 cycles: 857009265 heartbeat IPC: 1.04953 cumulative IPC: 1.05227 (Simulation time: 3 hr 16 min 33 sec) 
Heartbeat CPU 2 instructions: 1280000000 cycles: 858896199 heartbeat IPC: 1.49444 cumulative IPC: 1.34383 (Simulation time: 3 hr 16 min 57 sec) 
Heartbeat CPU 2 instructions: 1290000000 cycles: 865585698 heartbeat IPC: 1.49488 cumulative IPC: 1.34526 (Simulation time: 3 hr 18 min 18 sec) 
Heartbeat CPU 3 instructions: 720000000 cycles: 866515497 heartbeat IPC: 0.596433 cumulative IPC: 0.604041 (Simulation time: 3 hr 18 min 30 sec) 
Heartbeat CPU 1 instructions: 1060000000 cycles: 866592914 heartbeat IPC: 1.04344 cumulative IPC: 1.05215 (Simulation time: 3 hr 18 min 31 sec) 
Heartbeat CPU 0 instructions: 570000000 cycles: 870177972 heartbeat IPC: 0.530699 cumulative IPC: 0.521903 (Simulation time: 3 hr 19 min 14 sec) 
Heartbeat CPU 2 instructions: 1300000000 cycles: 872298424 heartbeat IPC: 1.48971 cumulative IPC: 1.34663 (Simulation time: 3 hr 19 min 40 sec) 
Heartbeat CPU 1 instructions: 1070000003 cycles: 876124274 heartbeat IPC: 1.04917 cumulative IPC: 1.05211 (Simulation time: 3 hr 20 min 27 sec) 
Heartbeat CPU 2 instructions: 1310000001 cycles: 879035243 heartbeat IPC: 1.48438 cumulative IPC: 1.34792 (Simulation time: 3 hr 21 min 3 sec) 
Heartbeat CPU 3 instructions: 730000000 cycles: 883202983 heartbeat IPC: 0.599251 cumulative IPC: 0.60393 (Simulation time: 3 hr 21 min 53 sec) 
Heartbeat CPU 1 instructions: 1080000000 cycles: 885698130 heartbeat IPC: 1.04451 cumulative IPC: 1.05201 (Simulation time: 3 hr 22 min 23 sec) 
Heartbeat CPU 2 instructions: 1320000000 cycles: 885807363 heartbeat IPC: 1.47664 cumulative IPC: 1.34912 (Simulation time: 3 hr 22 min 25 sec) 
Heartbeat CPU 0 instructions: 580000000 cycles: 889351069 heartbeat IPC: 0.521564 cumulative IPC: 0.521894 (Simulation time: 3 hr 23 min 8 sec) 
Heartbeat CPU 2 instructions: 1330000001 cycles: 892567336 heartbeat IPC: 1.4793 cumulative IPC: 1.35033 (Simulation time: 3 hr 23 min 46 sec) 
Heartbeat CPU 1 instructions: 1090000000 cycles: 895277719 heartbeat IPC: 1.04389 cumulative IPC: 1.0519 (Simulation time: 3 hr 24 min 19 sec) 
Heartbeat CPU 2 instructions: 1340000000 cycles: 899229081 heartbeat IPC: 1.50111 cumulative IPC: 1.35169 (Simulation time: 3 hr 25 min 7 sec) 
Heartbeat CPU 3 instructions: 740000000 cycles: 899910497 heartbeat IPC: 0.598533 cumulative IPC: 0.603808 (Simulation time: 3 hr 25 min 15 sec) 
Finished CPU 2 instructions: 1000000000 cycles: 739623064 cumulative IPC: 1.35204 (Simulation time: 3 hr 25 min 27 sec) 
Heartbeat CPU 1 instructions: 1100000000 cycles: 904807184 heartbeat IPC: 1.04938 cumulative IPC: 1.05187 (Simulation time: 3 hr 26 min 15 sec) 
Heartbeat CPU 2 instructions: 1350000000 cycles: 905862122 heartbeat IPC: 1.5076 cumulative IPC: 1.35308 (Simulation time: 3 hr 26 min 28 sec) 
Heartbeat CPU 0 instructions: 590000003 cycles: 908541371 heartbeat IPC: 0.521097 cumulative IPC: 0.521874 (Simulation time: 3 hr 27 min 1 sec) 
Heartbeat CPU 2 instructions: 1360000000 cycles: 912572694 heartbeat IPC: 1.49019 cumulative IPC: 1.3543 (Simulation time: 3 hr 27 min 50 sec) 
Heartbeat CPU 1 instructions: 1110000002 cycles: 914330984 heartbeat IPC: 1.05 cumulative IPC: 1.05185 (Simulation time: 3 hr 28 min 13 sec) 
Heartbeat CPU 3 instructions: 750000000 cycles: 916495806 heartbeat IPC: 0.602943 cumulative IPC: 0.603789 (Simulation time: 3 hr 28 min 41 sec) 
Heartbeat CPU 2 instructions: 1370000002 cycles: 919302339 heartbeat IPC: 1.48596 cumulative IPC: 1.35547 (Simulation time: 3 hr 29 min 17 sec) 
Heartbeat CPU 1 instructions: 1120000000 cycles: 923687691 heartbeat IPC: 1.06875 cumulative IPC: 1.05206 (Simulation time: 3 hr 30 min 12 sec) 
Heartbeat CPU 2 instructions: 1380000000 cycles: 926047427 heartbeat IPC: 1.48256 cumulative IPC: 1.35659 (Simulation time: 3 hr 30 min 42 sec) 
Heartbeat CPU 0 instructions: 600000000 cycles: 927677903 heartbeat IPC: 0.522561 cumulative IPC: 0.521891 (Simulation time: 3 hr 31 min 3 sec) 
Heartbeat CPU 2 instructions: 1390000002 cycles: 932780542 heartbeat IPC: 1.4852 cumulative IPC: 1.35771 (Simulation time: 3 hr 32 min 9 sec) 
Heartbeat CPU 1 instructions: 1130000003 cycles: 933036236 heartbeat IPC: 1.06969 cumulative IPC: 1.05227 (Simulation time: 3 hr 32 min 12 sec) 
Heartbeat CPU 3 instructions: 760000000 cycles: 933197402 heartbeat IPC: 0.598745 cumulative IPC: 0.60368 (Simulation time: 3 hr 32 min 14 sec) 
Heartbeat CPU 2 instructions: 1400000000 cycles: 939508470 heartbeat IPC: 1.48634 cumulative IPC: 1.35883 (Simulation time: 3 hr 33 min 35 sec) 
Heartbeat CPU 1 instructions: 1140000000 cycles: 942491232 heartbeat IPC: 1.05764 cumulative IPC: 1.05233 (Simulation time: 3 hr 34 min 14 sec) 
Heartbeat CPU 2 instructions: 1410000003 cycles: 946251897 heartbeat IPC: 1.48293 cumulative IPC: 1.35989 (Simulation time: 3 hr 35 min 2 sec) 
Heartbeat CPU 0 instructions: 610000003 cycles: 946725902 heartbeat IPC: 0.52499 cumulative IPC: 0.521966 (Simulation time: 3 hr 35 min 7 sec) 
Heartbeat CPU 3 instructions: 770000000 cycles: 949918231 heartbeat IPC: 0.598056 cumulative IPC: 0.603561 (Simulation time: 3 hr 35 min 40 sec) 
Heartbeat CPU 1 instructions: 1150000000 cycles: 951848220 heartbeat IPC: 1.06872 cumulative IPC: 1.05253 (Simulation time: 3 hr 36 min 1 sec) 
Heartbeat CPU 2 instructions: 1420000000 cycles: 958465982 heartbeat IPC: 0.818727 cumulative IPC: 1.3516 (Simulation time: 3 hr 37 min 16 sec) 
Heartbeat CPU 1 instructions: 1160000000 cycles: 961365298 heartbeat IPC: 1.05074 cumulative IPC: 1.05251 (Simulation time: 3 hr 37 min 54 sec) 
Heartbeat CPU 0 instructions: 620000000 cycles: 966280660 heartbeat IPC: 0.511384 cumulative IPC: 0.521709 (Simulation time: 3 hr 39 min 5 sec) 
Heartbeat CPU 3 instructions: 780000000 cycles: 966892154 heartbeat IPC: 0.589139 cumulative IPC: 0.603257 (Simulation time: 3 hr 39 min 13 sec) 
Heartbeat CPU 2 instructions: 1430000000 cycles: 967226370 heartbeat IPC: 1.1415 cumulative IPC: 1.34932 (Simulation time: 3 hr 39 min 18 sec) 
Heartbeat CPU 1 instructions: 1170000001 cycles: 970825641 heartbeat IPC: 1.05704 cumulative IPC: 1.05256 (Simulation time: 3 hr 40 min 12 sec) 
Heartbeat CPU 2 instructions: 1440000000 cycles: 977882375 heartbeat IPC: 0.938438 cumulative IPC: 1.34396 (Simulation time: 3 hr 41 min 41 sec) 
Heartbeat CPU 1 instructions: 1180000000 cycles: 980265256 heartbeat IPC: 1.05937 cumulative IPC: 1.05264 (Simulation time: 3 hr 42 min 14 sec) 
Heartbeat CPU 3 instructions: 790000002 cycles: 983538817 heartbeat IPC: 0.600721 cumulative IPC: 0.603206 (Simulation time: 3 hr 42 min 58 sec) 
Heartbeat CPU 0 instructions: 630000003 cycles: 986309605 heartbeat IPC: 0.499278 cumulative IPC: 0.521164 (Simulation time: 3 hr 43 min 34 sec) 
Heartbeat CPU 2 instructions: 1450000000 cycles: 986538197 heartbeat IPC: 1.15529 cumulative IPC: 1.34198 (Simulation time: 3 hr 43 min 37 sec) 
Heartbeat CPU 1 instructions: 1190000001 cycles: 989891489 heartbeat IPC: 1.03883 cumulative IPC: 1.05248 (Simulation time: 3 hr 44 min 27 sec) 
Heartbeat CPU 2 instructions: 1460000000 cycles: 993309688 heartbeat IPC: 1.47678 cumulative IPC: 1.34307 (Simulation time: 3 hr 45 min 19 sec) 
Heartbeat CPU 1 instructions: 1200000000 cycles: 999403321 heartbeat IPC: 1.05132 cumulative IPC: 1.05246 (Simulation time: 3 hr 46 min 52 sec) 
Heartbeat CPU 2 instructions: 1470000000 cycles: 999998308 heartbeat IPC: 1.49508 cumulative IPC: 1.34429 (Simulation time: 3 hr 47 min 4 sec) 
Heartbeat CPU 3 instructions: 800000000 cycles: 1000081375 heartbeat IPC: 0.604501 cumulative IPC: 0.603231 (Simulation time: 3 hr 47 min 5 sec) 
Heartbeat CPU 0 instructions: 640000000 cycles: 1005304961 heartbeat IPC: 0.526444 cumulative IPC: 0.521283 (Simulation time: 3 hr 48 min 23 sec) 
Heartbeat CPU 2 instructions: 1480000000 cycles: 1006690663 heartbeat IPC: 1.49424 cumulative IPC: 1.34547 (Simulation time: 3 hr 48 min 41 sec) 
Heartbeat CPU 1 instructions: 1210000003 cycles: 1008981065 heartbeat IPC: 1.04409 cumulative IPC: 1.05237 (Simulation time: 3 hr 49 min 10 sec) 
Heartbeat CPU 2 instructions: 1490000002 cycles: 1013386862 heartbeat IPC: 1.49338 cumulative IPC: 1.34664 (Simulation time: 3 hr 50 min 7 sec) 
Heartbeat CPU 3 instructions: 810000000 cycles: 1016651039 heartbeat IPC: 0.603513 cumulative IPC: 0.603237 (Simulation time: 3 hr 50 min 49 sec) 
Heartbeat CPU 1 instructions: 1220000000 cycles: 1018553103 heartbeat IPC: 1.04471 cumulative IPC: 1.05228 (Simulation time: 3 hr 51 min 13 sec) 
Heartbeat CPU 2 instructions: 1500000000 cycles: 1020115741 heartbeat IPC: 1.48613 cumulative IPC: 1.34773 (Simulation time: 3 hr 51 min 33 sec) 
Heartbeat CPU 0 instructions: 650000000 cycles: 1024222813 heartbeat IPC: 0.528601 cumulative IPC: 0.521444 (Simulation time: 3 hr 52 min 26 sec) 
Heartbeat CPU 2 instructions: 1510000000 cycles: 1026862987 heartbeat IPC: 1.48209 cumulative IPC: 1.34878 (Simulation time: 3 hr 52 min 59 sec) 
Heartbeat CPU 1 instructions: 1230000000 cycles: 1028084451 heartbeat IPC: 1.04917 cumulative IPC: 1.05225 (Simulation time: 3 hr 53 min 14 sec) 
Heartbeat CPU 3 instructions: 820000000 cycles: 1033319999 heartbeat IPC: 0.599917 cumulative IPC: 0.603173 (Simulation time: 3 hr 54 min 18 sec) 
Heartbeat CPU 2 instructions: 1520000000 cycles: 1033613712 heartbeat IPC: 1.48132 cumulative IPC: 1.3498 (Simulation time: 3 hr 54 min 22 sec) 
Heartbeat CPU 1 instructions: 1240000000 cycles: 1037677296 heartbeat IPC: 1.04244 cumulative IPC: 1.05214 (Simulation time: 3 hr 55 min 9 sec) 
Heartbeat CPU 2 instructions: 1530000002 cycles: 1040334816 heartbeat IPC: 1.48785 cumulative IPC: 1.35086 (Simulation time: 3 hr 55 min 42 sec) 
Heartbeat CPU 0 instructions: 660000000 cycles: 1041197172 heartbeat IPC: 0.589124 cumulative IPC: 0.522749 (Simulation time: 3 hr 55 min 52 sec) 
Heartbeat CPU 2 instructions: 1540000000 cycles: 1046932621 heartbeat IPC: 1.51566 cumulative IPC: 1.35208 (Simulation time: 3 hr 57 min 4 sec) 
Heartbeat CPU 1 instructions: 1250000000 cycles: 1047128550 heartbeat IPC: 1.05806 cumulative IPC: 1.05221 (Simulation time: 3 hr 57 min 7 sec) 
Heartbeat CPU 3 instructions: 830000000 cycles: 1050090041 heartbeat IPC: 0.596301 cumulative IPC: 0.603044 (Simulation time: 3 hr 57 min 45 sec) 
Heartbeat CPU 2 instructions: 1550000000 cycles: 1053600679 heartbeat IPC: 1.49969 cumulative IPC: 1.35319 (Simulation time: 3 hr 58 min 23 sec) 
Heartbeat CPU 1 instructions: 1260000000 cycles: 1056762866 heartbeat IPC: 1.03796 cumulative IPC: 1.05205 (Simulation time: 3 hr 59 min 3 sec) 
Heartbeat CPU 0 instructions: 670000001 cycles: 1058033732 heartbeat IPC: 0.593946 cumulative IPC: 0.524086 (Simulation time: 3 hr 59 min 19 sec) 
Heartbeat CPU 2 instructions: 1560000000 cycles: 1060288782 heartbeat IPC: 1.49519 cumulative IPC: 1.35424 (Simulation time: 3 hr 59 min 48 sec) 
Heartbeat CPU 1 instructions: 1270000002 cycles: 1066242420 heartbeat IPC: 1.0549 cumulative IPC: 1.05208 (Simulation time: 4 hr 0 min 57 sec) 
Heartbeat CPU 3 instructions: 840000000 cycles: 1066718454 heartbeat IPC: 0.60138 cumulative IPC: 0.603013 (Simulation time: 4 hr 1 min 3 sec) 
Heartbeat CPU 2 instructions: 1570000001 cycles: 1067038782 heartbeat IPC: 1.48148 cumulative IPC: 1.35519 (Simulation time: 4 hr 1 min 7 sec) 
Heartbeat CPU 2 instructions: 1580000000 cycles: 1073744787 heartbeat IPC: 1.4912 cumulative IPC: 1.35619 (Simulation time: 4 hr 2 min 29 sec) 
Heartbeat CPU 0 instructions: 680000000 cycles: 1074473220 heartbeat IPC: 0.608291 cumulative IPC: 0.525602 (Simulation time: 4 hr 2 min 38 sec) 
Heartbeat CPU 1 instructions: 1280000000 cycles: 1075799161 heartbeat IPC: 1.04638 cumulative IPC: 1.05202 (Simulation time: 4 hr 2 min 55 sec) 
Heartbeat CPU 2 instructions: 1590000002 cycles: 1080437625 heartbeat IPC: 1.49413 cumulative IPC: 1.3572 (Simulation time: 4 hr 3 min 55 sec) 
Heartbeat CPU 3 instructions: 850000003 cycles: 1083179985 heartbeat IPC: 0.607477 cumulative IPC: 0.603093 (Simulation time: 4 hr 4 min 23 sec) 
Heartbeat CPU 1 instructions: 1290000002 cycles: 1085337752 heartbeat IPC: 1.04837 cumulative IPC: 1.05199 (Simulation time: 4 hr 4 min 51 sec) 
Heartbeat CPU 2 instructions: 1600000000 cycles: 1087193439 heartbeat IPC: 1.48021 cumulative IPC: 1.35809 (Simulation time: 4 hr 5 min 15 sec) 
Heartbeat CPU 0 instructions: 690000003 cycles: 1092047016 heartbeat IPC: 0.569029 cumulative IPC: 0.526421 (Simulation time: 4 hr 6 min 16 sec) 
Heartbeat CPU 1 instructions: 1300000000 cycles: 1094872989 heartbeat IPC: 1.04874 cumulative IPC: 1.05195 (Simulation time: 4 hr 6 min 46 sec) 
Heartbeat CPU 2 instructions: 1610000002 cycles: 1095262586 heartbeat IPC: 1.23929 cumulative IPC: 1.35707 (Simulation time: 4 hr 6 min 50 sec) 
Heartbeat CPU 3 instructions: 860000000 cycles: 1099794064 heartbeat IPC: 0.601899 cumulative IPC: 0.603072 (Simulation time: 4 hr 7 min 36 sec) 
Heartbeat CPU 1 instructions: 1310000000 cycles: 1104462406 heartbeat IPC: 1.04282 cumulative IPC: 1.05186 (Simulation time: 4 hr 8 min 29 sec) 
Heartbeat CPU 0 instructions: 700000000 cycles: 1106004635 heartbeat IPC: 0.716454 cumulative IPC: 0.529229 (Simulation time: 4 hr 8 min 47 sec) 
Heartbeat CPU 2 instructions: 1620000000 cycles: 1106433876 heartbeat IPC: 0.895152 cumulative IPC: 1.35161 (Simulation time: 4 hr 8 min 52 sec) 
Finished CPU 1 instructions: 1000000002 cycles: 950661490 cumulative IPC: 1.0519 (Simulation time: 4 hr 9 min 56 sec) 
Heartbeat CPU 1 instructions: 1320000000 cycles: 1113900140 heartbeat IPC: 1.05958 cumulative IPC: 1.05194 (Simulation time: 4 hr 10 min 21 sec) 
Heartbeat CPU 2 instructions: 1630000001 cycles: 1114952911 heartbeat IPC: 1.17384 cumulative IPC: 1.35002 (Simulation time: 4 hr 10 min 33 sec) 
Heartbeat CPU 3 instructions: 870000000 cycles: 1116302304 heartbeat IPC: 0.605758 cumulative IPC: 0.603118 (Simulation time: 4 hr 10 min 48 sec) 
Heartbeat CPU 0 instructions: 710000001 cycles: 1121325795 heartbeat IPC: 0.652692 cumulative IPC: 0.531199 (Simulation time: 4 hr 11 min 41 sec) 
Heartbeat CPU 1 instructions: 1330000002 cycles: 1123587300 heartbeat IPC: 1.03229 cumulative IPC: 1.05174 (Simulation time: 4 hr 12 min 6 sec) 
Heartbeat CPU 2 instructions: 1640000000 cycles: 1125357116 heartbeat IPC: 0.96115 cumulative IPC: 1.34582 (Simulation time: 4 hr 12 min 26 sec) 
Heartbeat CPU 3 instructions: 880000000 cycles: 1132823223 heartbeat IPC: 0.605293 cumulative IPC: 0.603155 (Simulation time: 4 hr 13 min 53 sec) 
Heartbeat CPU 1 instructions: 1340000000 cycles: 1133099059 heartbeat IPC: 1.05133 cumulative IPC: 1.05173 (Simulation time: 4 hr 13 min 56 sec) 
Heartbeat CPU 2 instructions: 1650000001 cycles: 1133380259 heartbeat IPC: 1.24639 cumulative IPC: 1.345 (Simulation time: 4 hr 13 min 59 sec) 
Heartbeat CPU 0 instructions: 720000000 cycles: 1136046549 heartbeat IPC: 0.679313 cumulative IPC: 0.533436 (Simulation time: 4 hr 14 min 33 sec) 
Heartbeat CPU 2 instructions: 1660000000 cycles: 1140043052 heartbeat IPC: 1.50087 cumulative IPC: 1.34606 (Simulation time: 4 hr 15 min 24 sec) 
Heartbeat CPU 1 instructions: 1350000003 cycles: 1142686299 heartbeat IPC: 1.04305 cumulative IPC: 1.05165 (Simulation time: 4 hr 15 min 57 sec) 
Heartbeat CPU 2 instructions: 1670000000 cycles: 1146708368 heartbeat IPC: 1.5003 cumulative IPC: 1.34711 (Simulation time: 4 hr 16 min 55 sec) 
Heartbeat CPU 3 instructions: 890000000 cycles: 1149490647 heartbeat IPC: 0.599973 cumulative IPC: 0.603101 (Simulation time: 4 hr 17 min 32 sec) 
Heartbeat CPU 1 instructions: 1360000000 cycles: 1152264095 heartbeat IPC: 1.04408 cumulative IPC: 1.05158 (Simulation time: 4 hr 18 min 17 sec) 
Heartbeat CPU 0 instructions: 730000000 cycles: 1152645178 heartbeat IPC: 0.602459 cumulative IPC: 0.534591 (Simulation time: 4 hr 18 min 21 sec) 
Heartbeat CPU 2 instructions: 1680000000 cycles: 1153356205 heartbeat IPC: 1.50425 cumulative IPC: 1.34816 (Simulation time: 4 hr 18 min 32 sec) 
Heartbeat CPU 2 instructions: 1690000000 cycles: 1160000968 heartbeat IPC: 1.50494 cumulative IPC: 1.3492 (Simulation time: 4 hr 19 min 59 sec) 
Heartbeat CPU 1 instructions: 1370000001 cycles: 1161805184 heartbeat IPC: 1.0481 cumulative IPC: 1.05154 (Simulation time: 4 hr 20 min 22 sec) 
Heartbeat CPU 3 instructions: 900000000 cycles: 1166309937 heartbeat IPC: 0.594555 cumulative IPC: 0.602958 (Simulation time: 4 hr 21 min 14 sec) 
Heartbeat CPU 2 instructions: 1700000000 cycles: 1166691210 heartbeat IPC: 1.49471 cumulative IPC: 1.35017 (Simulation time: 4 hr 21 min 18 sec) 
Heartbeat CPU 1 instructions: 1380000000 cycles: 1171413625 heartbeat IPC: 1.04075 cumulative IPC: 1.05144 (Simulation time: 4 hr 22 min 7 sec) 
Heartbeat CPU 2 instructions: 1710000001 cycles: 1173515314 heartbeat IPC: 1.46539 cumulative IPC: 1.35095 (Simulation time: 4 hr 22 min 29 sec) 
Heartbeat CPU 0 instructions: 740000000 cycles: 1177960523 heartbeat IPC: 0.395017 cumulative IPC: 0.531116 (Simulation time: 4 hr 23 min 19 sec) 
Heartbeat CPU 2 instructions: 1720000000 cycles: 1180332335 heartbeat IPC: 1.46692 cumulative IPC: 1.35172 (Simulation time: 4 hr 23 min 47 sec) 
Heartbeat CPU 1 instructions: 1390000000 cycles: 1180868886 heartbeat IPC: 1.05761 cumulative IPC: 1.0515 (Simulation time: 4 hr 23 min 53 sec) 
Heartbeat CPU 3 instructions: 910000001 cycles: 1182920992 heartbeat IPC: 0.602009 cumulative IPC: 0.602943 (Simulation time: 4 hr 24 min 17 sec) 
Heartbeat CPU 2 instructions: 1730000003 cycles: 1187109100 heartbeat IPC: 1.47563 cumulative IPC: 1.35254 (Simulation time: 4 hr 25 min 7 sec) 
Heartbeat CPU 1 instructions: 1400000000 cycles: 1190539034 heartbeat IPC: 1.03411 cumulative IPC: 1.05133 (Simulation time: 4 hr 25 min 48 sec) 
Heartbeat CPU 2 instructions: 1740000000 cycles: 1193802952 heartbeat IPC: 1.49391 cumulative IPC: 1.35346 (Simulation time: 4 hr 26 min 27 sec) 
Heartbeat CPU 3 instructions: 920000000 cycles: 1199637575 heartbeat IPC: 0.598208 cumulative IPC: 0.602867 (Simulation time: 4 hr 27 min 36 sec) 
Heartbeat CPU 1 instructions: 1410000000 cycles: 1200097805 heartbeat IPC: 1.04616 cumulative IPC: 1.05129 (Simulation time: 4 hr 27 min 41 sec) 
Heartbeat CPU 2 instructions: 1750000001 cycles: 1200495254 heartbeat IPC: 1.49425 cumulative IPC: 1.35437 (Simulation time: 4 hr 27 min 50 sec) 
Heartbeat CPU 0 instructions: 750000000 cycles: 1201570148 heartbeat IPC: 0.423556 cumulative IPC: 0.528675 (Simulation time: 4 hr 28 min 5 sec) 
Heartbeat CPU 2 instructions: 1760000000 cycles: 1207270108 heartbeat IPC: 1.47605 cumulative IPC: 1.35515 (Simulation time: 4 hr 29 min 12 sec) 
Heartbeat CPU 1 instructions: 1420000000 cycles: 1209645213 heartbeat IPC: 1.0474 cumulative IPC: 1.05125 (Simulation time: 4 hr 29 min 40 sec) 
Heartbeat CPU 2 instructions: 1770000001 cycles: 1214072288 heartbeat IPC: 1.47012 cumulative IPC: 1.3559 (Simulation time: 4 hr 30 min 32 sec) 
Heartbeat CPU 3 instructions: 930000002 cycles: 1216585153 heartbeat IPC: 0.590055 cumulative IPC: 0.602661 (Simulation time: 4 hr 31 min 1 sec) 
Heartbeat CPU 1 instructions: 1430000000 cycles: 1219212962 heartbeat IPC: 1.04518 cumulative IPC: 1.0512 (Simulation time: 4 hr 31 min 32 sec) 
Heartbeat CPU 2 instructions: 1780000000 cycles: 1220871531 heartbeat IPC: 1.47075 cumulative IPC: 1.35663 (Simulation time: 4 hr 31 min 52 sec) 
Heartbeat CPU 0 instructions: 760000000 cycles: 1225049735 heartbeat IPC: 0.425902 cumulative IPC: 0.526407 (Simulation time: 4 hr 32 min 41 sec) 
Heartbeat CPU 2 instructions: 1790000001 cycles: 1227645171 heartbeat IPC: 1.47631 cumulative IPC: 1.35739 (Simulation time: 4 hr 33 min 12 sec) 
Heartbeat CPU 1 instructions: 1440000000 cycles: 1228737951 heartbeat IPC: 1.04987 cumulative IPC: 1.05118 (Simulation time: 4 hr 33 min 24 sec) 
Heartbeat CPU 3 instructions: 940000000 cycles: 1233433538 heartbeat IPC: 0.593529 cumulative IPC: 0.602517 (Simulation time: 4 hr 34 min 19 sec) 
Heartbeat CPU 2 instructions: 1800000000 cycles: 1234444501 heartbeat IPC: 1.47073 cumulative IPC: 1.35811 (Simulation time: 4 hr 34 min 32 sec) 
Heartbeat CPU 1 instructions: 1450000001 cycles: 1238404562 heartbeat IPC: 1.03449 cumulative IPC: 1.05103 (Simulation time: 4 hr 35 min 27 sec) 
Heartbeat CPU 2 instructions: 1810000002 cycles: 1244054770 heartbeat IPC: 1.04055 cumulative IPC: 1.35529 (Simulation time: 4 hr 36 min 30 sec) 
Heartbeat CPU 1 instructions: 1460000000 cycles: 1247859087 heartbeat IPC: 1.05769 cumulative IPC: 1.05109 (Simulation time: 4 hr 37 min 10 sec) 
Heartbeat CPU 0 instructions: 770000003 cycles: 1248558980 heartbeat IPC: 0.425365 cumulative IPC: 0.524222 (Simulation time: 4 hr 37 min 17 sec) 
Heartbeat CPU 3 instructions: 950000001 cycles: 1250395281 heartbeat IPC: 0.589562 cumulative IPC: 0.602316 (Simulation time: 4 hr 37 min 35 sec) 
Heartbeat CPU 2 instructions: 1820000000 cycles: 1254847879 heartbeat IPC: 0.926517 cumulative IPC: 1.35106 (Simulation time: 4 hr 38 min 21 sec) 
Heartbeat CPU 1 instructions: 1470000001 cycles: 1257565214 heartbeat IPC: 1.03028 cumulative IPC: 1.05091 (Simulation time: 4 hr 38 min 51 sec) 
Heartbeat CPU 2 instructions: 1830000001 cycles: 1265105679 heartbeat IPC: 0.974868 cumulative IPC: 1.34757 (Simulation time: 4 hr 40 min 7 sec) 
Heartbeat CPU 1 instructions: 1480000000 cycles: 1267099945 heartbeat IPC: 1.0488 cumulative IPC: 1.05089 (Simulation time: 4 hr 40 min 26 sec) 
Heartbeat CPU 3 instructions: 960000000 cycles: 1267287453 heartbeat IPC: 0.59199 cumulative IPC: 0.602158 (Simulation time: 4 hr 40 min 28 sec) 
Heartbeat CPU 0 instructions: 780000000 cycles: 1272956429 heartbeat IPC: 0.409879 cumulative IPC: 0.521713 (Simulation time: 4 hr 41 min 26 sec) 
Heartbeat CPU 2 instructions: 1840000000 cycles: 1276099614 heartbeat IPC: 0.909592 cumulative IPC: 1.34325 (Simulation time: 4 hr 41 min 58 sec) 
Heartbeat CPU 1 instructions: 1490000003 cycles: 1276707069 heartbeat IPC: 1.04089 cumulative IPC: 1.0508 (Simulation time: 4 hr 42 min 4 sec) 
Heartbeat CPU 3 instructions: 970000000 cycles: 1284386139 heartbeat IPC: 0.58484 cumulative IPC: 0.601894 (Simulation time: 4 hr 43 min 26 sec) 
Heartbeat CPU 2 instructions: 1850000003 cycles: 1284599179 heartbeat IPC: 1.17653 cumulative IPC: 1.34199 (Simulation time: 4 hr 43 min 28 sec) 
Heartbeat CPU 1 instructions: 1500000000 cycles: 1286271550 heartbeat IPC: 1.04553 cumulative IPC: 1.05076 (Simulation time: 4 hr 43 min 47 sec) 
Heartbeat CPU 2 instructions: 1860000000 cycles: 1291388879 heartbeat IPC: 1.47282 cumulative IPC: 1.34277 (Simulation time: 4 hr 44 min 48 sec) 
Heartbeat CPU 1 instructions: 1510000001 cycles: 1295788923 heartbeat IPC: 1.05071 cumulative IPC: 1.05076 (Simulation time: 4 hr 45 min 36 sec) 
Heartbeat CPU 0 instructions: 790000003 cycles: 1296630240 heartbeat IPC: 0.422408 cumulative IPC: 0.519642 (Simulation time: 4 hr 45 min 46 sec) 
Heartbeat CPU 2 instructions: 1870000002 cycles: 1298187541 heartbeat IPC: 1.47088 cumulative IPC: 1.34354 (Simulation time: 4 hr 46 min 3 sec) 
Heartbeat CPU 3 instructions: 980000000 cycles: 1301698835 heartbeat IPC: 0.577611 cumulative IPC: 0.601526 (Simulation time: 4 hr 46 min 42 sec) 
Heartbeat CPU 2 instructions: 1880000000 cycles: 1304984614 heartbeat IPC: 1.47122 cumulative IPC: 1.3443 (Simulation time: 4 hr 47 min 18 sec) 
Heartbeat CPU 1 instructions: 1520000000 cycles: 1305297793 heartbeat IPC: 1.05165 cumulative IPC: 1.05077 (Simulation time: 4 hr 47 min 22 sec) 
Heartbeat CPU 2 instructions: 1890000002 cycles: 1311792114 heartbeat IPC: 1.46897 cumulative IPC: 1.34503 (Simulation time: 4 hr 48 min 34 sec) 
Heartbeat CPU 1 instructions: 1530000000 cycles: 1314767335 heartbeat IPC: 1.05602 cumulative IPC: 1.05081 (Simulation time: 4 hr 49 min 7 sec) 
Heartbeat CPU 2 instructions: 1900000000 cycles: 1318586798 heartbeat IPC: 1.47174 cumulative IPC: 1.34578 (Simulation time: 4 hr 49 min 49 sec) 
Heartbeat CPU 3 instructions: 990000001 cycles: 1318977677 heartbeat IPC: 0.578743 cumulative IPC: 0.601186 (Simulation time: 4 hr 49 min 54 sec) 
Heartbeat CPU 0 instructions: 800000000 cycles: 1320139472 heartbeat IPC: 0.425365 cumulative IPC: 0.51773 (Simulation time: 4 hr 50 min 6 sec) 
Heartbeat CPU 1 instructions: 1540000000 cycles: 1324305233 heartbeat IPC: 1.04845 cumulative IPC: 1.05079 (Simulation time: 4 hr 50 min 53 sec) 
Heartbeat CPU 2 instructions: 1910000003 cycles: 1325377030 heartbeat IPC: 1.4727 cumulative IPC: 1.34652 (Simulation time: 4 hr 51 min 5 sec) 
Heartbeat CPU 2 instructions: 1920000000 cycles: 1332175006 heartbeat IPC: 1.47103 cumulative IPC: 1.34724 (Simulation time: 4 hr 52 min 20 sec) 
Heartbeat CPU 1 instructions: 1550000001 cycles: 1333667547 heartbeat IPC: 1.06811 cumulative IPC: 1.05093 (Simulation time: 4 hr 52 min 37 sec) 
Heartbeat CPU 3 instructions: 1000000000 cycles: 1336174391 heartbeat IPC: 0.581506 cumulative IPC: 0.600898 (Simulation time: 4 hr 53 min 5 sec) 
Heartbeat CPU 2 instructions: 1930000001 cycles: 1338950988 heartbeat IPC: 1.4758 cumulative IPC: 1.34798 (Simulation time: 4 hr 53 min 36 sec) 
Heartbeat CPU 1 instructions: 1560000000 cycles: 1343059945 heartbeat IPC: 1.06469 cumulative IPC: 1.05104 (Simulation time: 4 hr 54 min 22 sec) 
Heartbeat CPU 0 instructions: 810000000 cycles: 1343999128 heartbeat IPC: 0.419118 cumulative IPC: 0.515741 (Simulation time: 4 hr 54 min 32 sec) 
Heartbeat CPU 2 instructions: 1940000000 cycles: 1345618221 heartbeat IPC: 1.49987 cumulative IPC: 1.34884 (Simulation time: 4 hr 54 min 50 sec) 
Heartbeat CPU 2 instructions: 1950000002 cycles: 1352332130 heartbeat IPC: 1.48945 cumulative IPC: 1.34963 (Simulation time: 4 hr 56 min 6 sec) 
Heartbeat CPU 1 instructions: 1570000000 cycles: 1352524131 heartbeat IPC: 1.05661 cumulative IPC: 1.05108 (Simulation time: 4 hr 56 min 8 sec) 
Heartbeat CPU 3 instructions: 1010000000 cycles: 1353417122 heartbeat IPC: 0.579955 cumulative IPC: 0.600595 (Simulation time: 4 hr 56 min 18 sec) 
Heartbeat CPU 2 instructions: 1960000000 cycles: 1359097053 heartbeat IPC: 1.47821 cumulative IPC: 1.35035 (Simulation time: 4 hr 57 min 21 sec) 
Heartbeat CPU 1 instructions: 1580000000 cycles: 1361884316 heartbeat IPC: 1.06835 cumulative IPC: 1.05122 (Simulation time: 4 hr 57 min 52 sec) 
Heartbeat CPU 2 instructions: 1970000000 cycles: 1365873303 heartbeat IPC: 1.47574 cumulative IPC: 1.35106 (Simulation time: 4 hr 58 min 37 sec) 
Heartbeat CPU 0 instructions: 820000000 cycles: 1367037692 heartbeat IPC: 0.434055 cumulative IPC: 0.51418 (Simulation time: 4 hr 58 min 50 sec) 
Heartbeat CPU 3 instructions: 1020000000 cycles: 1370439318 heartbeat IPC: 0.587468 cumulative IPC: 0.60041 (Simulation time: 4 hr 59 min 28 sec) 
Heartbeat CPU 1 instructions: 1590000001 cycles: 1371423460 heartbeat IPC: 1.04831 cumulative IPC: 1.05119 (Simulation time: 4 hr 59 min 39 sec) 
Heartbeat CPU 2 instructions: 1980000000 cycles: 1372661280 heartbeat IPC: 1.47319 cumulative IPC: 1.35174 (Simulation time: 4 hr 59 min 54 sec) 
Heartbeat CPU 2 instructions: 1990000002 cycles: 1379440011 heartbeat IPC: 1.4752 cumulative IPC: 1.35243 (Simulation time: 5 hr 1 min 14 sec) 
Heartbeat CPU 1 instructions: 1600000000 cycles: 1380893725 heartbeat IPC: 1.05594 cumulative IPC: 1.05123 (Simulation time: 5 hr 1 min 31 sec) 
*** Reached end of trace for Core: 2 Repeating trace: /scratch/user/djimenez/champsim-traces/speccpu2006/xz//435.gromacs-134B.champsimtrace.xz
Heartbeat CPU 2 instructions: 2000000000 cycles: 1386209315 heartbeat IPC: 1.47726 cumulative IPC: 1.35312 (Simulation time: 5 hr 2 min 33 sec) 
[...]
Heartbeat CPU 2 instructions: 2980000000 cycles: 2136251483 heartbeat IPC: 1.48265 cumulative IPC: 1.33545 (Simulation time: 7 hr 13 min 10 sec) 
Heartbeat CPU 1 instructions: 2400000000 cycles: 2142149839 heartbeat IPC: 1.04691 cumulative IPC: 1.0511 (Simulation time: 7 hr 14 min 15 sec) 
Heartbeat CPU 2 instructions: 2990000003 cycles: 2143008862 heartbeat IPC: 1.47986 cumulative IPC: 1.33594 (Simulation time: 7 hr 14 min 25 sec) 
Heartbeat CPU 0 instructions: 1150000002 cycles: 2143994301 heartbeat IPC: 0.47616 cumulative IPC: 0.47913 (Simulation time: 7 hr 14 min 36 sec) 
Heartbeat CPU 3 instructions: 1480000000 cycles: 2145822633 heartbeat IPC: 0.581652 cumulative IPC: 0.597615 (Simulation time: 7 hr 14 min 56 sec) 
Heartbeat CPU 2 instructions: 3000000000 cycles: 2149756066 heartbeat IPC: 1.4821 cumulative IPC: 1.33644 (Simulation time: 7 hr 15 min 40 sec) 
Heartbeat CPU 1 instructions: 2410000001 cycles: 2151715888 heartbeat IPC: 1.04536 cumulative IPC: 1.05107 (Simulation time: 7 hr 16 min 2 sec) 
Heartbeat CPU 2 instructions: 3010000001 cycles: 2156513441 heartbeat IPC: 1.47986 cumulative IPC: 1.33693 (Simulation time: 7 hr 16 min 55 sec) 
Heartbeat CPU 1 instructions: 2420000000 cycles: 2161316961 heartbeat IPC: 1.04155 cumulative IPC: 1.05103 (Simulation time: 7 hr 17 min 42 sec) 
Heartbeat CPU 3 instructions: 1490000002 cycles: 2162541360 heartbeat IPC: 0.598132 cumulative IPC: 0.597619 (Simulation time: 7 hr 17 min 53 sec) 
Heartbeat CPU 0 instructions: 1160000000 cycles: 2165041415 heartbeat IPC: 0.475124 cumulative IPC: 0.479088 (Simulation time: 7 hr 18 min 16 sec) 
Heartbeat CPU 2 instructions: 3020000000 cycles: 2167933493 heartbeat IPC: 0.875653 cumulative IPC: 1.3343 (Simulation time: 7 hr 18 min 45 sec) 
Heartbeat CPU 1 instructions: 2430000001 cycles: 2170784044 heartbeat IPC: 1.05629 cumulative IPC: 1.05105 (Simulation time: 7 hr 19 min 13 sec) 
Heartbeat CPU 2 instructions: 3030000003 cycles: 2177253433 heartbeat IPC: 1.07297 cumulative IPC: 1.33309 (Simulation time: 7 hr 20 min 19 sec) 
Heartbeat CPU 3 instructions: 1500000000 cycles: 2179808792 heartbeat IPC: 0.579125 cumulative IPC: 0.597461 (Simulation time: 7 hr 20 min 45 sec) 
Heartbeat CPU 1 instructions: 2440000000 cycles: 2180475663 heartbeat IPC: 1.03182 cumulative IPC: 1.05096 (Simulation time: 7 hr 20 min 51 sec) 
Heartbeat CPU 0 instructions: 1170000002 cycles: 2186337302 heartbeat IPC: 0.469574 cumulative IPC: 0.478988 (Simulation time: 7 hr 21 min 48 sec) 
Heartbeat CPU 2 instructions: 3040000000 cycles: 2187686514 heartbeat IPC: 0.958489 cumulative IPC: 1.33116 (Simulation time: 7 hr 22 min 1 sec) 
Heartbeat CPU 1 instructions: 2450000001 cycles: 2190039539 heartbeat IPC: 1.0456 cumulative IPC: 1.05094 (Simulation time: 7 hr 22 min 24 sec) 
Heartbeat CPU 2 instructions: 3050000002 cycles: 2196829051 heartbeat IPC: 1.09379 cumulative IPC: 1.3301 (Simulation time: 7 hr 23 min 32 sec) 
Heartbeat CPU 3 instructions: 1510000002 cycles: 2197111035 heartbeat IPC: 0.57796 cumulative IPC: 0.597295 (Simulation time: 7 hr 23 min 35 sec) 
Heartbeat CPU 1 instructions: 2460000000 cycles: 2199620056 heartbeat IPC: 1.04378 cumulative IPC: 1.0509 (Simulation time: 7 hr 24 min 1 sec) 
Heartbeat CPU 2 instructions: 3060000000 cycles: 2204040226 heartbeat IPC: 1.38674 cumulative IPC: 1.3303 (Simulation time: 7 hr 24 min 50 sec) 
Heartbeat CPU 0 instructions: 1180000000 cycles: 2207468413 heartbeat IPC: 0.473236 cumulative IPC: 0.478929 (Simulation time: 7 hr 25 min 28 sec) 
Heartbeat CPU 1 instructions: 2470000003 cycles: 2209194372 heartbeat IPC: 1.04446 cumulative IPC: 1.05087 (Simulation time: 7 hr 25 min 48 sec) 
Heartbeat CPU 2 instructions: 3070000001 cycles: 2210763992 heartbeat IPC: 1.48726 cumulative IPC: 1.33081 (Simulation time: 7 hr 26 min 5 sec) 
Heartbeat CPU 3 instructions: 1520000000 cycles: 2214348564 heartbeat IPC: 0.580129 cumulative IPC: 0.597151 (Simulation time: 7 hr 26 min 45 sec) 
Heartbeat CPU 2 instructions: 3080000000 cycles: 2217487451 heartbeat IPC: 1.48733 cumulative IPC: 1.33132 (Simulation time: 7 hr 27 min 21 sec) 
Heartbeat CPU 1 instructions: 2480000000 cycles: 2218699815 heartbeat IPC: 1.05203 cumulative IPC: 1.05088 (Simulation time: 7 hr 27 min 35 sec) 
Heartbeat CPU 2 instructions: 3090000001 cycles: 2224218721 heartbeat IPC: 1.4856 cumulative IPC: 1.33183 (Simulation time: 7 hr 28 min 36 sec) 
Heartbeat CPU 1 instructions: 2490000002 cycles: 2228343410 heartbeat IPC: 1.03696 cumulative IPC: 1.05081 (Simulation time: 7 hr 29 min 22 sec) 
Heartbeat CPU 0 instructions: 1190000000 cycles: 2228352650 heartbeat IPC: 0.47883 cumulative IPC: 0.478927 (Simulation time: 7 hr 29 min 22 sec) 
Heartbeat CPU 2 instructions: 3100000000 cycles: 2230963708 heartbeat IPC: 1.48258 cumulative IPC: 1.33232 (Simulation time: 7 hr 29 min 51 sec) 
Heartbeat CPU 3 instructions: 1530000000 cycles: 2231442617 heartbeat IPC: 0.584999 cumulative IPC: 0.59705 (Simulation time: 7 hr 29 min 57 sec) 
Heartbeat CPU 2 instructions: 3110000000 cycles: 2237734281 heartbeat IPC: 1.47698 cumulative IPC: 1.33279 (Simulation time: 7 hr 31 min 7 sec) 
Heartbeat CPU 1 instructions: 2500000000 cycles: 2237819645 heartbeat IPC: 1.05527 cumulative IPC: 1.05083 (Simulation time: 7 hr 31 min 8 sec) 
Heartbeat CPU 2 instructions: 3120000000 cycles: 2244527467 heartbeat IPC: 1.47206 cumulative IPC: 1.33324 (Simulation time: 7 hr 32 min 22 sec) 
Heartbeat CPU 1 instructions: 2510000000 cycles: 2247410526 heartbeat IPC: 1.04266 cumulative IPC: 1.05079 (Simulation time: 7 hr 32 min 54 sec) 
Heartbeat CPU 3 instructions: 1540000000 cycles: 2248845419 heartbeat IPC: 0.57462 cumulative IPC: 0.596863 (Simulation time: 7 hr 33 min 10 sec) 
Heartbeat CPU 0 instructions: 1200000000 cycles: 2249342376 heartbeat IPC: 0.476424 cumulative IPC: 0.478902 (Simulation time: 7 hr 33 min 16 sec) 
Finished CPU 0 instructions: 1000000001 cycles: 2088108478 cumulative IPC: 0.478902 (Simulation time: 7 hr 33 min 16 sec) 

CPU 0 Branch Prediction Accuracy: 98.8567% MPKI: 0.250675

CPU 1 Branch Prediction Accuracy: 96.5144% MPKI: 1.11277

CPU 2 Branch Prediction Accuracy: 97.6338% MPKI: 0.210005

CPU 3 Branch Prediction Accuracy: 92.6082% MPKI: 13.816

ChampSim completed all CPUs

Total Simulation Statistics (not including warmup)

CPU 0 cumulative IPC: 0.478902 instructions: 1000000001 cycles: 2088108478
L1D TOTAL     ACCESS:  448573624  HIT:  433802354  MISS:   14771270
L1D LOAD      ACCESS:  380016159  HIT:  365411000  MISS:   14605159
L1D RFO       ACCESS:   68557465  HIT:   68391354  MISS:     166111
L1D PREFETCH  ACCESS:          0  HIT:          0  MISS:          0
L1D WRITEBACK ACCESS:          0  HIT:          0  MISS:          0
L1I TOTAL     ACCESS:  262471217  HIT:  262470523  MISS:        694
L1I LOAD      ACCESS:  262471217  HIT:  262470523  MISS:        694
L1I RFO       ACCESS:          0  HIT:          0  MISS:          0
L1I PREFETCH  ACCESS:          0  HIT:          0  MISS:          0
L1I WRITEBACK ACCESS:          0  HIT:          0  MISS:          0
L2C TOTAL     ACCESS:   20782702  HIT:    7014569  MISS:   13768133
L2C LOAD      ACCESS:   14605180  HIT:    1003640  MISS:   13601540
L2C RFO       ACCESS:     166012  HIT:        356  MISS:     165656
L2C PREFETCH  ACCESS:          0  HIT:          0  MISS:          0
L2C WRITEBACK ACCESS:    6011510  HIT:    6010573  MISS:        937
LLC TOTAL     ACCESS:   19747355  HIT:    9078021  MISS:   10669334
LLC LOAD      ACCESS:   13601540  HIT:    2941723  MISS:   10659817
LLC RFO       ACCESS:     165656  HIT:     156372  MISS:       9284
LLC PREFETCH  ACCESS:          0  HIT:          0  MISS:          0
LLC WRITEBACK ACCESS:    5980159  HIT:    5979926  MISS:        233

CPU 1 cumulative IPC: 1.05079 instructions: 2194160911 cycles: 2088108479
L1D TOTAL     ACCESS:  587470984  HIT:  564563466  MISS:   22907518
L1D LOAD      ACCESS:  378322667  HIT:  356141800  MISS:   22180867
L1D RFO       ACCESS:  209148317  HIT:  208421666  MISS:     726651
L1D PREFETCH  ACCESS:          0  HIT:          0  MISS:          0
L1D WRITEBACK ACCESS:          0  HIT:          0  MISS:          0
L1I TOTAL     ACCESS:  560432445  HIT:  560432445  MISS:          0
L1I LOAD      ACCESS:  560432445  HIT:  560432445  MISS:          0
L1I RFO       ACCESS:          0  HIT:          0  MISS:          0
L1I PREFETCH  ACCESS:          0  HIT:          0  MISS:          0
L1I WRITEBACK ACCESS:          0  HIT:          0  MISS:          0
L2C TOTAL     ACCESS:   29969409  HIT:   29848747  MISS:     120662
L2C LOAD      ACCESS:   22180050  HIT:   22060065  MISS:     119985
L2C RFO       ACCESS:     726421  HIT:     725865  MISS:        556
L2C PREFETCH  ACCESS:          0  HIT:          0  MISS:          0
L2C WRITEBACK ACCESS:    7062938  HIT:    7062817  MISS:        121
LLC TOTAL     ACCESS:     165119  HIT:       4723  MISS:     160396
LLC LOAD      ACCESS:     119985  HIT:       1653  MISS:     118332
LLC RFO       ACCESS:        556  HIT:        286  MISS:        270
LLC PREFETCH  ACCESS:          0  HIT:          0  MISS:          0
LLC WRITEBACK ACCESS:      44578  HIT:       2784  MISS:      41794

CPU 2 cumulative IPC: 1.33357 instructions: 2784639638 cycles: 2088108479
L1D TOTAL     ACCESS:  744120275  HIT:  727157199  MISS:   16963076
L1D LOAD      ACCESS:  362183631  HIT:  345726669  MISS:   16456962
L1D RFO       ACCESS:  381936644  HIT:  381430530  MISS:     506114
L1D PREFETCH  ACCESS:          0  HIT:          0  MISS:          0
L1D WRITEBACK ACCESS:          0  HIT:          0  MISS:          0
L1I TOTAL     ACCESS:  651241726  HIT:  651230394  MISS:      11332
L1I LOAD      ACCESS:  651241726  HIT:  651230394  MISS:      11332
L1I RFO       ACCESS:          0  HIT:          0  MISS:          0
L1I PREFETCH  ACCESS:          0  HIT:          0  MISS:          0
L1I WRITEBACK ACCESS:          0  HIT:          0  MISS:          0
L2C TOTAL     ACCESS:   24474631  HIT:   19597657  MISS:    4876974
L2C LOAD      ACCESS:   16465065  HIT:   12069729  MISS:    4395336
L2C RFO       ACCESS:     506108  HIT:      27871  MISS:     478237
L2C PREFETCH  ACCESS:          0  HIT:          0  MISS:          0
L2C WRITEBACK ACCESS:    7503458  HIT:    7500057  MISS:       3401
LLC TOTAL     ACCESS:    6670952  HIT:    5140335  MISS:    1530617
LLC LOAD      ACCESS:    4395324  HIT:    3223395  MISS:    1171929
LLC RFO       ACCESS:     478237  HIT:     141882  MISS:     336355
LLC PREFETCH  ACCESS:          0  HIT:          0  MISS:          0
LLC WRITEBACK ACCESS:    1797391  HIT:    1775058  MISS:      22333

CPU 3 cumulative IPC: 0.596862 instructions: 1246311550 cycles: 2088108479
L1D TOTAL     ACCESS:  335135987  HIT:  333781234  MISS:    1354753
L1D LOAD      ACCESS:  237109569  HIT:  236135459  MISS:     974110
L1D RFO       ACCESS:   98026418  HIT:   97645775  MISS:     380643
L1D PREFETCH  ACCESS:          0  HIT:          0  MISS:          0
L1D WRITEBACK ACCESS:          0  HIT:          0  MISS:          0
L1I TOTAL     ACCESS:  287624191  HIT:  287595487  MISS:      28704
L1I LOAD      ACCESS:  287624191  HIT:  287595487  MISS:      28704
L1I RFO       ACCESS:          0  HIT:          0  MISS:          0
L1I PREFETCH  ACCESS:          0  HIT:          0  MISS:          0
L1I WRITEBACK ACCESS:          0  HIT:          0  MISS:          0
L2C TOTAL     ACCESS:    2186436  HIT:    1705529  MISS:     480907
L2C LOAD      ACCESS:    1002804  HIT:     557538  MISS:     445266
L2C RFO       ACCESS:     380518  HIT:     347009  MISS:      33509
L2C PREFETCH  ACCESS:          0  HIT:          0  MISS:          0
L2C WRITEBACK ACCESS:     803114  HIT:     800982  MISS:       2132
LLC TOTAL     ACCESS:     887391  HIT:     282529  MISS:     604862
LLC LOAD      ACCESS:     445266  HIT:       9407  MISS:     435859
LLC RFO       ACCESS:      33509  HIT:       5280  MISS:      28229
LLC PREFETCH  ACCESS:          0  HIT:          0  MISS:          0
LLC WRITEBACK ACCESS:     408616  HIT:     267842  MISS:     140774

Region of Interest Statistics

CPU 0 cumulative IPC: 0.478902 instructions: 1000000001 cycles: 2088108478
L1D TOTAL     ACCESS:  448573624  HIT:  433802354  MISS:   14771270
L1D LOAD      ACCESS:  380016159  HIT:  365411000  MISS:   14605159
L1D RFO       ACCESS:   68557465  HIT:   68391354  MISS:     166111
L1D PREFETCH  ACCESS:          0  HIT:          0  MISS:          0
L1D WRITEBACK ACCESS:          0  HIT:          0  MISS:          0
L1D PREFETCH  REQUESTED:          0  ISSUED:          0  USEFUL:          0  USELESS:          0
L1I TOTAL     ACCESS:  262471217  HIT:  262470523  MISS:        694
L1I LOAD      ACCESS:  262471217  HIT:  262470523  MISS:        694
L1I RFO       ACCESS:          0  HIT:          0  MISS:          0
L1I PREFETCH  ACCESS:          0  HIT:          0  MISS:          0
L1I WRITEBACK ACCESS:          0  HIT:          0  MISS:          0
L1I PREFETCH  REQUESTED:          0  ISSUED:          0  USEFUL:          0  USELESS:          0
L2C TOTAL     ACCESS:   20782702  HIT:    7014569  MISS:   13768133
L2C LOAD      ACCESS:   14605180  HIT:    1003640  MISS:   13601540
L2C RFO       ACCESS:     166012  HIT:        356  MISS:     165656
L2C PREFETCH  ACCESS:          0  HIT:          0  MISS:          0
L2C WRITEBACK ACCESS:    6011510  HIT:    6010573  MISS:        937
L2C PREFETCH  REQUESTED:          0  ISSUED:          0  USEFUL:          0  USELESS:          0
LLC TOTAL     ACCESS:   19747355  HIT:    9078021  MISS:   10669334
LLC LOAD      ACCESS:   13601540  HIT:    2941723  MISS:   10659817
LLC RFO       ACCESS:     165656  HIT:     156372  MISS:       9284
LLC PREFETCH  ACCESS:          0  HIT:          0  MISS:          0
LLC WRITEBACK ACCESS:    5980159  HIT:    5979926  MISS:        233
LLC PREFETCH  REQUESTED:          0  ISSUED:          0  USEFUL:          0  USELESS:          0
Major fault: 0 Minor fault: 173904

CPU 1 cumulative IPC: 1.0519 instructions: 1000000002 cycles: 950661490
L1D TOTAL     ACCESS:  267630044  HIT:  257214068  MISS:   10415976
L1D LOAD      ACCESS:  172374422  HIT:  162291200  MISS:   10083222
L1D RFO       ACCESS:   95255622  HIT:   94922868  MISS:     332754
L1D PREFETCH  ACCESS:          0  HIT:          0  MISS:          0
L1D WRITEBACK ACCESS:          0  HIT:          0  MISS:          0
L1D PREFETCH  REQUESTED:          0  ISSUED:          0  USEFUL:          0  USELESS:          0
L1I TOTAL     ACCESS:  255389755  HIT:  255389755  MISS:          0
L1I LOAD      ACCESS:  255389755  HIT:  255389755  MISS:          0
L1I RFO       ACCESS:          0  HIT:          0  MISS:          0
L1I PREFETCH  ACCESS:          0  HIT:          0  MISS:          0
L1I WRITEBACK ACCESS:          0  HIT:          0  MISS:          0
L1I PREFETCH  REQUESTED:          0  ISSUED:          0  USEFUL:          0  USELESS:          0
L2C TOTAL     ACCESS:   13625288  HIT:   13570479  MISS:      54809
L2C LOAD      ACCESS:   10082968  HIT:   10028503  MISS:      54465
L2C RFO       ACCESS:     332662  HIT:     332384  MISS:        278
L2C PREFETCH  ACCESS:          0  HIT:          0  MISS:          0
L2C WRITEBACK ACCESS:    3209658  HIT:    3209592  MISS:         66
L2C PREFETCH  REQUESTED:          0  ISSUED:          0  USEFUL:          0  USELESS:          0
LLC TOTAL     ACCESS:      74709  HIT:       3016  MISS:      71693
LLC LOAD      ACCESS:      54465  HIT:        851  MISS:      53614
LLC RFO       ACCESS:        278  HIT:        149  MISS:        129
LLC PREFETCH  ACCESS:          0  HIT:          0  MISS:          0
LLC WRITEBACK ACCESS:      19966  HIT:       2016  MISS:      17950
LLC PREFETCH  REQUESTED:          0  ISSUED:          0  USEFUL:          0  USELESS:          0
Major fault: 0 Minor fault: 1747

CPU 2 cumulative IPC: 1.35204 instructions: 1000000000 cycles: 739623064
L1D TOTAL     ACCESS:  266947789  HIT:  260970356  MISS:    5977433
L1D LOAD      ACCESS:  129779755  HIT:  123987073  MISS:    5792682
L1D RFO       ACCESS:  137168034  HIT:  136983283  MISS:     184751
L1D PREFETCH  ACCESS:          0  HIT:          0  MISS:          0
L1D WRITEBACK ACCESS:          0  HIT:          0  MISS:          0
L1D PREFETCH  REQUESTED:          0  ISSUED:          0  USEFUL:          0  USELESS:          0
L1I TOTAL     ACCESS:  233919181  HIT:  233914844  MISS:       4337
L1I LOAD      ACCESS:  233919181  HIT:  233914844  MISS:       4337
L1I RFO       ACCESS:          0  HIT:          0  MISS:          0
L1I PREFETCH  ACCESS:          0  HIT:          0  MISS:          0
L1I WRITEBACK ACCESS:          0  HIT:          0  MISS:          0
L1I PREFETCH  REQUESTED:          0  ISSUED:          0  USEFUL:          0  USELESS:          0
L2C TOTAL     ACCESS:    8671268  HIT:    6889489  MISS:    1781779
L2C LOAD      ACCESS:    5795927  HIT:    4195224  MISS:    1600703
L2C RFO       ACCESS:     184751  HIT:       4874  MISS:     179877
L2C PREFETCH  ACCESS:          0  HIT:          0  MISS:          0
L2C WRITEBACK ACCESS:    2690590  HIT:    2689391  MISS:       1199
L2C PREFETCH  REQUESTED:          0  ISSUED:          0  USEFUL:          0  USELESS:          0
LLC TOTAL     ACCESS:    2436012  HIT:    1917135  MISS:     518877
LLC LOAD      ACCESS:    1600699  HIT:    1204765  MISS:     395934
LLC RFO       ACCESS:     179877  HIT:      60329  MISS:     119548
LLC PREFETCH  ACCESS:          0  HIT:          0  MISS:          0
LLC WRITEBACK ACCESS:     655436  HIT:     652041  MISS:       3395
LLC PREFETCH  REQUESTED:          0  ISSUED:          0  USEFUL:          0  USELESS:          0
Major fault: 0 Minor fault: 1835

CPU 3 cumulative IPC: 0.599373 instructions: 1000000001 cycles: 1668409389
L1D TOTAL     ACCESS:  268525942  HIT:  267432448  MISS:    1093494
L1D LOAD      ACCESS:  189648318  HIT:  188852220  MISS:     796098
L1D RFO       ACCESS:   78877624  HIT:   78580228  MISS:     297396
L1D PREFETCH  ACCESS:          0  HIT:          0  MISS:          0
L1D WRITEBACK ACCESS:          0  HIT:          0  MISS:          0
L1D PREFETCH  REQUESTED:          0  ISSUED:          0  USEFUL:          0  USELESS:          0
L1I TOTAL     ACCESS:  230885991  HIT:  230861081  MISS:      24910
L1I LOAD      ACCESS:  230885991  HIT:  230861081  MISS:      24910
L1I RFO       ACCESS:          0  HIT:          0  MISS:          0
L1I PREFETCH  ACCESS:          0  HIT:          0  MISS:          0
L1I WRITEBACK ACCESS:          0  HIT:          0  MISS:          0
L1I PREFETCH  REQUESTED:          0  ISSUED:          0  USEFUL:          0  USELESS:          0
L2C TOTAL     ACCESS:    1754054  HIT:    1367331  MISS:     386723
L2C LOAD      ACCESS:     821002  HIT:     462878  MISS:     358124
L2C RFO       ACCESS:     297305  HIT:     270441  MISS:      26864
L2C PREFETCH  ACCESS:          0  HIT:          0  MISS:          0
L2C WRITEBACK ACCESS:     635747  HIT:     634012  MISS:       1735
L2C PREFETCH  REQUESTED:          0  ISSUED:          0  USEFUL:          0  USELESS:          0
LLC TOTAL     ACCESS:     710734  HIT:     237528  MISS:     473206
LLC LOAD      ACCESS:     358124  HIT:       8082  MISS:     350042
LLC RFO       ACCESS:      26864  HIT:       4375  MISS:      22489
LLC PREFETCH  ACCESS:          0  HIT:          0  MISS:          0
LLC WRITEBACK ACCESS:     325746  HIT:     225071  MISS:     100675
LLC PREFETCH  REQUESTED:          0  ISSUED:          0  USEFUL:          0  USELESS:          0
Major fault: 0 Minor fault: 40551

DRAM Statistics
 CHANNEL 0
 RQ ROW_BUFFER_HIT:    2752494  ROW_BUFFER_MISS:    3627676
 DBUS_CONGESTED:    8067813
 WQ ROW_BUFFER_HIT:     325023  ROW_BUFFER_MISS:    3078043  FULL:          0

 CHANNEL 1
 RQ ROW_BUFFER_HIT:    2752551  ROW_BUFFER_MISS:    3627115
 DBUS_CONGESTED:    8067813
 WQ ROW_BUFFER_HIT:     325922  ROW_BUFFER_MISS:    3076234  FULL:          0

 AVG_CONGESTED_CYCLE: 14
