
*** ChampSim Multicore Out-of-Order Simulator ***

Warmup Instructions: 200000000
Simulation Instructions: 1000000000
Number of CPUs: 4
LLC sets: 8192
LLC ways: 16
Off-chip DRAM Size: 8192 MB Channels: 2 Width: 64-bit Data Rate: 1600 MT/s

CPU 0 runs /scratch/user/djimenez/champsim-traces/speccpu2006/xz//481.wrf-1170B.champsimtrace.xz
CPU 1 runs /scratch/user/djimenez/champsim-traces/speccpu2006/xz//473.astar-153B.champsimtrace.xz
CPU 2 runs /scratch/user/djimenez/champsim-traces/speccpu2006/xz//482.sphinx3-417B.champsimtrace.xz
CPU 3 runs /scratch/user/djimenez/champsim-traces/speccpu2006/xz//456.hmmer-88B.champsimtrace.xz
Heartbeat CPU 2 instructions: 10000000 cycles: 4083415 heartbeat IPC: 2.44893 cumulative IPC: 2.44893 (Simulation time: 0 hr 1 min 26 sec) 
Heartbeat CPU 1 instructions: 10000002 cycles: 5810664 heartbeat IPC: 1.72097 cumulative IPC: 1.72097 (Simulation time: 0 hr 2 min 2 sec) 
Heartbeat CPU 0 instructions: 10000001 cycles: 6135574 heartbeat IPC: 1.62984 cumulative IPC: 1.62984 (Simulation time: 0 hr 2 min 8 sec) 
Heartbeat CPU 3 instructions: 10000001 cycles: 6240257 heartbeat IPC: 1.6025 cumulative IPC: 1.6025 (Simulation time: 0 hr 2 min 10 sec) 
Heartbeat CPU 2 instructions: 20000000 cycles: 8080867 heartbeat IPC: 2.50159 cumulative IPC: 2.47498 (Simulation time: 0 hr 2 min 50 sec) 
Heartbeat CPU 1 instructions: 20000000 cycles: 11599454 heartbeat IPC: 1.72748 cumulative IPC: 1.72422 (Simulation time: 0 hr 4 min 5 sec) 
Heartbeat CPU 2 instructions: 30000001 cycles: 11925982 heartbeat IPC: 2.6007 cumulative IPC: 2.51552 (Simulation time: 0 hr 4 min 13 sec) 
Heartbeat CPU 0 instructions: 20000000 cycles: 12265380 heartbeat IPC: 1.63137 cumulative IPC: 1.63061 (Simulation time: 0 hr 4 min 21 sec) 
Heartbeat CPU 3 instructions: 20000000 cycles: 12504279 heartbeat IPC: 1.59642 cumulative IPC: 1.59945 (Simulation time: 0 hr 4 min 26 sec) 
Heartbeat CPU 2 instructions: 40000000 cycles: 15768668 heartbeat IPC: 2.60235 cumulative IPC: 2.53668 (Simulation time: 0 hr 5 min 36 sec) 
Heartbeat CPU 1 instructions: 30000001 cycles: 17384724 heartbeat IPC: 1.72853 cumulative IPC: 1.72565 (Simulation time: 0 hr 6 min 12 sec) 
Heartbeat CPU 0 instructions: 30000002 cycles: 18394588 heartbeat IPC: 1.63153 cumulative IPC: 1.63091 (Simulation time: 0 hr 6 min 34 sec) 
Heartbeat CPU 3 instructions: 30000002 cycles: 18770897 heartbeat IPC: 1.59576 cumulative IPC: 1.59822 (Simulation time: 0 hr 6 min 42 sec) 
Heartbeat CPU 2 instructions: 50000002 cycles: 19546447 heartbeat IPC: 2.64706 cumulative IPC: 2.55801 (Simulation time: 0 hr 6 min 59 sec) 
Heartbeat CPU 1 instructions: 40000000 cycles: 23163810 heartbeat IPC: 1.73038 cumulative IPC: 1.72683 (Simulation time: 0 hr 8 min 18 sec) 
Heartbeat CPU 2 instructions: 60000000 cycles: 23458762 heartbeat IPC: 2.55603 cumulative IPC: 2.55768 (Simulation time: 0 hr 8 min 24 sec) 
Heartbeat CPU 0 instructions: 40000000 cycles: 24526005 heartbeat IPC: 1.63094 cumulative IPC: 1.63092 (Simulation time: 0 hr 8 min 47 sec) 
Heartbeat CPU 3 instructions: 40000000 cycles: 25009055 heartbeat IPC: 1.60304 cumulative IPC: 1.59942 (Simulation time: 0 hr 8 min 57 sec) 
Heartbeat CPU 2 instructions: 70000003 cycles: 27504300 heartbeat IPC: 2.47186 cumulative IPC: 2.54506 (Simulation time: 0 hr 9 min 49 sec) 
Heartbeat CPU 1 instructions: 50000000 cycles: 28917207 heartbeat IPC: 1.7381 cumulative IPC: 1.72907 (Simulation time: 0 hr 10 min 17 sec) 
Heartbeat CPU 0 instructions: 50000001 cycles: 30656819 heartbeat IPC: 1.6311 cumulative IPC: 1.63096 (Simulation time: 0 hr 10 min 52 sec) 
Heartbeat CPU 3 instructions: 50000002 cycles: 31274493 heartbeat IPC: 1.59606 cumulative IPC: 1.59875 (Simulation time: 0 hr 11 min 5 sec) 
Heartbeat CPU 2 instructions: 80000000 cycles: 31500806 heartbeat IPC: 2.50218 cumulative IPC: 2.53962 (Simulation time: 0 hr 11 min 10 sec) 
Heartbeat CPU 1 instructions: 60000000 cycles: 34610226 heartbeat IPC: 1.75654 cumulative IPC: 1.73359 (Simulation time: 0 hr 12 min 16 sec) 
Heartbeat CPU 2 instructions: 90000001 cycles: 35616230 heartbeat IPC: 2.42988 cumulative IPC: 2.52694 (Simulation time: 0 hr 12 min 37 sec) 
Heartbeat CPU 0 instructions: 60000000 cycles: 36786250 heartbeat IPC: 1.63147 cumulative IPC: 1.63104 (Simulation time: 0 hr 13 min 6 sec) 
Heartbeat CPU 3 instructions: 60000000 cycles: 37529184 heartbeat IPC: 1.5988 cumulative IPC: 1.59876 (Simulation time: 0 hr 13 min 21 sec) 
Heartbeat CPU 2 instructions: 100000000 cycles: 39556658 heartbeat IPC: 2.5378 cumulative IPC: 2.52802 (Simulation time: 0 hr 14 min 6 sec) 
Heartbeat CPU 1 instructions: 70000001 cycles: 40233437 heartbeat IPC: 1.77834 cumulative IPC: 1.73985 (Simulation time: 0 hr 14 min 20 sec) 
Heartbeat CPU 0 instructions: 70000000 cycles: 42916117 heartbeat IPC: 1.63136 cumulative IPC: 1.63109 (Simulation time: 0 hr 15 min 18 sec) 
Heartbeat CPU 2 instructions: 110000002 cycles: 43590276 heartbeat IPC: 2.47916 cumulative IPC: 2.5235 (Simulation time: 0 hr 15 min 34 sec) 
Heartbeat CPU 3 instructions: 70000000 cycles: 43783575 heartbeat IPC: 1.59888 cumulative IPC: 1.59877 (Simulation time: 0 hr 15 min 39 sec) 
Heartbeat CPU 1 instructions: 80000000 cycles: 45793431 heartbeat IPC: 1.79856 cumulative IPC: 1.74698 (Simulation time: 0 hr 16 min 23 sec) 
Heartbeat CPU 2 instructions: 120000000 cycles: 47674164 heartbeat IPC: 2.44865 cumulative IPC: 2.51709 (Simulation time: 0 hr 17 min 5 sec) 
Heartbeat CPU 0 instructions: 80000000 cycles: 49045437 heartbeat IPC: 1.6315 cumulative IPC: 1.63114 (Simulation time: 0 hr 17 min 36 sec) 
Heartbeat CPU 3 instructions: 80000000 cycles: 50045890 heartbeat IPC: 1.59685 cumulative IPC: 1.59853 (Simulation time: 0 hr 17 min 59 sec) 
Heartbeat CPU 1 instructions: 90000003 cycles: 51314423 heartbeat IPC: 1.81127 cumulative IPC: 1.75389 (Simulation time: 0 hr 18 min 26 sec) 
Heartbeat CPU 2 instructions: 130000001 cycles: 51852757 heartbeat IPC: 2.39315 cumulative IPC: 2.5071 (Simulation time: 0 hr 18 min 37 sec) 
Heartbeat CPU 0 instructions: 90000001 cycles: 55175427 heartbeat IPC: 1.63132 cumulative IPC: 1.63116 (Simulation time: 0 hr 19 min 51 sec) 
Heartbeat CPU 2 instructions: 140000000 cycles: 55902053 heartbeat IPC: 2.46956 cumulative IPC: 2.50438 (Simulation time: 0 hr 20 min 7 sec) 
Heartbeat CPU 3 instructions: 90000000 cycles: 56295303 heartbeat IPC: 1.60015 cumulative IPC: 1.59871 (Simulation time: 0 hr 20 min 16 sec) 
Heartbeat CPU 1 instructions: 100000000 cycles: 56904034 heartbeat IPC: 1.78903 cumulative IPC: 1.75734 (Simulation time: 0 hr 20 min 29 sec) 
Heartbeat CPU 2 instructions: 150000001 cycles: 59897947 heartbeat IPC: 2.50257 cumulative IPC: 2.50426 (Simulation time: 0 hr 21 min 35 sec) 
Heartbeat CPU 0 instructions: 100000000 cycles: 61306237 heartbeat IPC: 1.63111 cumulative IPC: 1.63116 (Simulation time: 0 hr 22 min 4 sec) 
Heartbeat CPU 1 instructions: 110000000 cycles: 62474062 heartbeat IPC: 1.79532 cumulative IPC: 1.76073 (Simulation time: 0 hr 22 min 28 sec) 
Heartbeat CPU 3 instructions: 100000000 cycles: 62557433 heartbeat IPC: 1.5969 cumulative IPC: 1.59853 (Simulation time: 0 hr 22 min 30 sec) 
Heartbeat CPU 2 instructions: 160000000 cycles: 63936948 heartbeat IPC: 2.47586 cumulative IPC: 2.50247 (Simulation time: 0 hr 22 min 58 sec) 
Heartbeat CPU 0 instructions: 110000001 cycles: 67436392 heartbeat IPC: 1.63128 cumulative IPC: 1.63117 (Simulation time: 0 hr 24 min 11 sec) 
Heartbeat CPU 2 instructions: 170000001 cycles: 67951768 heartbeat IPC: 2.49077 cumulative IPC: 2.50177 (Simulation time: 0 hr 24 min 22 sec) 
Heartbeat CPU 1 instructions: 120000000 cycles: 68068622 heartbeat IPC: 1.78745 cumulative IPC: 1.76293 (Simulation time: 0 hr 24 min 24 sec) 
Heartbeat CPU 3 instructions: 110000002 cycles: 68819718 heartbeat IPC: 1.59686 cumulative IPC: 1.59838 (Simulation time: 0 hr 24 min 41 sec) 
Heartbeat CPU 2 instructions: 180000000 cycles: 71937745 heartbeat IPC: 2.5088 cumulative IPC: 2.50216 (Simulation time: 0 hr 25 min 43 sec) 
Heartbeat CPU 0 instructions: 120000000 cycles: 73566820 heartbeat IPC: 1.63121 cumulative IPC: 1.63117 (Simulation time: 0 hr 26 min 18 sec) 
Heartbeat CPU 1 instructions: 130000002 cycles: 73692789 heartbeat IPC: 1.77804 cumulative IPC: 1.76408 (Simulation time: 0 hr 26 min 20 sec) 
Heartbeat CPU 3 instructions: 120000000 cycles: 75073549 heartbeat IPC: 1.59902 cumulative IPC: 1.59843 (Simulation time: 0 hr 26 min 49 sec) 
Heartbeat CPU 2 instructions: 190000000 cycles: 75917143 heartbeat IPC: 2.51294 cumulative IPC: 2.50273 (Simulation time: 0 hr 27 min 6 sec) 
Heartbeat CPU 1 instructions: 140000000 cycles: 79290446 heartbeat IPC: 1.78646 cumulative IPC: 1.76566 (Simulation time: 0 hr 28 min 15 sec) 
Heartbeat CPU 0 instructions: 130000000 cycles: 79696745 heartbeat IPC: 1.63134 cumulative IPC: 1.63118 (Simulation time: 0 hr 28 min 23 sec) 
Heartbeat CPU 2 instructions: 200000000 cycles: 79981433 heartbeat IPC: 2.46045 cumulative IPC: 2.50058 (Simulation time: 0 hr 28 min 28 sec) 
Heartbeat CPU 3 instructions: 130000003 cycles: 81333459 heartbeat IPC: 1.59747 cumulative IPC: 1.59836 (Simulation time: 0 hr 28 min 55 sec) 
Heartbeat CPU 2 instructions: 210000000 cycles: 83962082 heartbeat IPC: 2.51215 cumulative IPC: 0.119101 (Simulation time: 0 hr 29 min 47 sec) 
Heartbeat CPU 1 instructions: 150000002 cycles: 84895059 heartbeat IPC: 1.78424 cumulative IPC: 1.76689 (Simulation time: 0 hr 30 min 8 sec) 
Heartbeat CPU 0 instructions: 140000000 cycles: 85825232 heartbeat IPC: 1.63172 cumulative IPC: 1.63122 (Simulation time: 0 hr 30 min 27 sec) 
Heartbeat CPU 3 instructions: 140000000 cycles: 87577817 heartbeat IPC: 1.60145 cumulative IPC: 1.59858 (Simulation time: 0 hr 31 min 7 sec) 
Heartbeat CPU 2 instructions: 220000000 cycles: 87832420 heartbeat IPC: 2.58375 cumulative IPC: 0.227706 (Simulation time: 0 hr 31 min 13 sec) 
Heartbeat CPU 1 instructions: 160000000 cycles: 90458043 heartbeat IPC: 1.7976 cumulative IPC: 1.76878 (Simulation time: 0 hr 32 min 11 sec) 
Heartbeat CPU 2 instructions: 230000002 cycles: 91651187 heartbeat IPC: 2.61865 cumulative IPC: 0.327328 (Simulation time: 0 hr 32 min 38 sec) 
Heartbeat CPU 0 instructions: 150000003 cycles: 91953482 heartbeat IPC: 1.63179 cumulative IPC: 1.63126 (Simulation time: 0 hr 32 min 45 sec) 
Heartbeat CPU 3 instructions: 150000002 cycles: 93843867 heartbeat IPC: 1.5959 cumulative IPC: 1.5984 (Simulation time: 0 hr 33 min 26 sec) 
Heartbeat CPU 2 instructions: 240000000 cycles: 95568442 heartbeat IPC: 2.55281 cumulative IPC: 0.418548 (Simulation time: 0 hr 34 min 4 sec) 
Heartbeat CPU 1 instructions: 170000000 cycles: 96108764 heartbeat IPC: 1.76969 cumulative IPC: 1.76883 (Simulation time: 0 hr 34 min 16 sec) 
Heartbeat CPU 0 instructions: 160000000 cycles: 98081515 heartbeat IPC: 1.63184 cumulative IPC: 1.6313 (Simulation time: 0 hr 34 min 59 sec) 
Heartbeat CPU 2 instructions: 250000003 cycles: 99597469 heartbeat IPC: 2.48199 cumulative IPC: 0.502021 (Simulation time: 0 hr 35 min 30 sec) 
Heartbeat CPU 3 instructions: 160000000 cycles: 100108768 heartbeat IPC: 1.59619 cumulative IPC: 1.59826 (Simulation time: 0 hr 35 min 41 sec) 
Heartbeat CPU 1 instructions: 180000000 cycles: 101776046 heartbeat IPC: 1.76451 cumulative IPC: 1.76859 (Simulation time: 0 hr 36 min 17 sec) 
Heartbeat CPU 2 instructions: 260000000 cycles: 103559752 heartbeat IPC: 2.5238 cumulative IPC: 0.579376 (Simulation time: 0 hr 36 min 57 sec) 
Heartbeat CPU 0 instructions: 170000002 cycles: 104209432 heartbeat IPC: 1.63188 cumulative IPC: 1.63133 (Simulation time: 0 hr 37 min 12 sec) 
Heartbeat CPU 3 instructions: 170000001 cycles: 106359716 heartbeat IPC: 1.59976 cumulative IPC: 1.59835 (Simulation time: 0 hr 38 min 0 sec) 
Heartbeat CPU 1 instructions: 190000003 cycles: 107314034 heartbeat IPC: 1.80571 cumulative IPC: 1.7705 (Simulation time: 0 hr 38 min 22 sec) 
Heartbeat CPU 2 instructions: 270000000 cycles: 107405673 heartbeat IPC: 2.60016 cumulative IPC: 0.651735 (Simulation time: 0 hr 38 min 24 sec) 
Heartbeat CPU 0 instructions: 180000000 cycles: 110337927 heartbeat IPC: 1.63172 cumulative IPC: 1.63135 (Simulation time: 0 hr 39 min 29 sec) 
Heartbeat CPU 2 instructions: 280000000 cycles: 111326887 heartbeat IPC: 2.55023 cumulative IPC: 0.718605 (Simulation time: 0 hr 39 min 51 sec) 
Heartbeat CPU 3 instructions: 180000000 cycles: 112618774 heartbeat IPC: 1.59768 cumulative IPC: 1.59831 (Simulation time: 0 hr 40 min 20 sec) 
Heartbeat CPU 1 instructions: 200000000 cycles: 112902043 heartbeat IPC: 1.78955 cumulative IPC: 1.77145 (Simulation time: 0 hr 40 min 26 sec) 
Heartbeat CPU 2 instructions: 290000001 cycles: 115218915 heartbeat IPC: 2.56935 cumulative IPC: 0.781122 (Simulation time: 0 hr 41 min 16 sec) 
Heartbeat CPU 0 instructions: 190000000 cycles: 116466157 heartbeat IPC: 1.63179 cumulative IPC: 1.63138 (Simulation time: 0 hr 41 min 44 sec) 
Heartbeat CPU 1 instructions: 210000000 cycles: 118567446 heartbeat IPC: 1.7651 cumulative IPC: 0.0843402 (Simulation time: 0 hr 42 min 32 sec) 
Heartbeat CPU 3 instructions: 190000003 cycles: 118866470 heartbeat IPC: 1.60059 cumulative IPC: 1.59843 (Simulation time: 0 hr 42 min 38 sec) 
Heartbeat CPU 2 instructions: 300000000 cycles: 119055386 heartbeat IPC: 2.60656 cumulative IPC: 0.839945 (Simulation time: 0 hr 42 min 42 sec) 
Heartbeat CPU 0 instructions: 200000000 cycles: 122595414 heartbeat IPC: 1.63152 cumulative IPC: 1.63138 (Simulation time: 0 hr 44 min 0 sec) 
Heartbeat CPU 2 instructions: 310000003 cycles: 123071973 heartbeat IPC: 2.48968 cumulative IPC: 0.893786 (Simulation time: 0 hr 44 min 9 sec) 
Heartbeat CPU 1 instructions: 220000000 cycles: 124199765 heartbeat IPC: 1.77547 cumulative IPC: 0.161031 (Simulation time: 0 hr 44 min 34 sec) 
Heartbeat CPU 3 instructions: 200000000 cycles: 125122839 heartbeat IPC: 1.59837 cumulative IPC: 1.59843 (Simulation time: 0 hr 44 min 54 sec) 

Warmup complete CPU 0 instructions: 204122199 cycles: 125122848 (Simulation time: 0 hr 44 min 54 sec) 
Warmup complete CPU 1 instructions: 221635099 cycles: 125122848 (Simulation time: 0 hr 44 min 54 sec) 
Warmup complete CPU 2 instructions: 315207294 cycles: 125122848 (Simulation time: 0 hr 44 min 54 sec) 
Warmup complete CPU 3 instructions: 200000001 cycles: 125122848 (Simulation time: 0 hr 44 min 54 sec) 

Heartbeat CPU 2 instructions: 320000000 cycles: 130739282 heartbeat IPC: 1.30424 cumulative IPC: 0.853336 (Simulation time: 0 hr 46 min 1 sec) 
Heartbeat CPU 0 instructions: 210000002 cycles: 134223115 heartbeat IPC: 0.860015 cumulative IPC: 0.645893 (Simulation time: 0 hr 46 min 42 sec) 
Heartbeat CPU 3 instructions: 210000000 cycles: 134327126 heartbeat IPC: 1.08645 cumulative IPC: 1.08645 (Simulation time: 0 hr 46 min 44 sec) 
Heartbeat CPU 2 instructions: 330000003 cycles: 141969357 heartbeat IPC: 0.890466 cumulative IPC: 0.878088 (Simulation time: 0 hr 48 min 13 sec) 
Heartbeat CPU 1 instructions: 230000000 cycles: 142245207 heartbeat IPC: 0.554157 cumulative IPC: 0.488537 (Simulation time: 0 hr 48 min 17 sec) 
Heartbeat CPU 3 instructions: 220000000 cycles: 143427844 heartbeat IPC: 1.09881 cumulative IPC: 1.0926 (Simulation time: 0 hr 48 min 31 sec) 
Heartbeat CPU 0 instructions: 220000000 cycles: 149694215 heartbeat IPC: 0.646366 cumulative IPC: 0.646191 (Simulation time: 0 hr 49 min 46 sec) 
Heartbeat CPU 3 instructions: 230000001 cycles: 152449551 heartbeat IPC: 1.10844 cumulative IPC: 1.09783 (Simulation time: 0 hr 50 min 20 sec) 
Heartbeat CPU 2 instructions: 340000000 cycles: 152754560 heartbeat IPC: 0.927196 cumulative IPC: 0.897256 (Simulation time: 0 hr 50 min 24 sec) 
Heartbeat CPU 1 instructions: 240000000 cycles: 161377224 heartbeat IPC: 0.522684 cumulative IPC: 0.506557 (Simulation time: 0 hr 52 min 17 sec) 
Heartbeat CPU 3 instructions: 240000000 cycles: 161392913 heartbeat IPC: 1.11815 cumulative IPC: 1.10284 (Simulation time: 0 hr 52 min 17 sec) 
Heartbeat CPU 2 instructions: 350000003 cycles: 164040880 heartbeat IPC: 0.886029 cumulative IPC: 0.894 (Simulation time: 0 hr 52 min 50 sec) 
Heartbeat CPU 0 instructions: 230000000 cycles: 165156239 heartbeat IPC: 0.646746 cumulative IPC: 0.646405 (Simulation time: 0 hr 53 min 4 sec) 
Heartbeat CPU 3 instructions: 250000003 cycles: 170358983 heartbeat IPC: 1.11532 cumulative IPC: 1.10531 (Simulation time: 0 hr 54 min 19 sec) 
Heartbeat CPU 2 instructions: 360000000 cycles: 176217227 heartbeat IPC: 0.821264 cumulative IPC: 0.876666 (Simulation time: 0 hr 55 min 29 sec) 
Heartbeat CPU 3 instructions: 260000000 cycles: 179420057 heartbeat IPC: 1.10362 cumulative IPC: 1.10503 (Simulation time: 0 hr 56 min 8 sec) 
Heartbeat CPU 0 instructions: 240000000 cycles: 180629072 heartbeat IPC: 0.646294 cumulative IPC: 0.646374 (Simulation time: 0 hr 56 min 23 sec) 
Heartbeat CPU 1 instructions: 250000001 cycles: 181247193 heartbeat IPC: 0.503272 cumulative IPC: 0.505394 (Simulation time: 0 hr 56 min 30 sec) 
Heartbeat CPU 3 instructions: 270000000 cycles: 188605103 heartbeat IPC: 1.08873 cumulative IPC: 1.10267 (Simulation time: 0 hr 57 min 55 sec) 
Heartbeat CPU 2 instructions: 370000003 cycles: 189223315 heartbeat IPC: 0.768871 cumulative IPC: 0.854794 (Simulation time: 0 hr 58 min 1 sec) 
Heartbeat CPU 0 instructions: 250000000 cycles: 196116292 heartbeat IPC: 0.645694 cumulative IPC: 0.646226 (Simulation time: 0 hr 59 min 21 sec) 
Heartbeat CPU 3 instructions: 280000000 cycles: 197828816 heartbeat IPC: 1.08416 cumulative IPC: 1.10032 (Simulation time: 0 hr 59 min 40 sec) 
Heartbeat CPU 1 instructions: 260000000 cycles: 199874721 heartbeat IPC: 0.53684 cumulative IPC: 0.51323 (Simulation time: 1 hr 0 min 3 sec) 
Heartbeat CPU 2 instructions: 380000000 cycles: 204342859 heartbeat IPC: 0.661395 cumulative IPC: 0.817883 (Simulation time: 1 hr 0 min 54 sec) 
Heartbeat CPU 3 instructions: 290000000 cycles: 207137409 heartbeat IPC: 1.07428 cumulative IPC: 1.09737 (Simulation time: 1 hr 1 min 26 sec) 
Heartbeat CPU 0 instructions: 260000000 cycles: 211593070 heartbeat IPC: 0.646129 cumulative IPC: 0.646209 (Simulation time: 1 hr 2 min 16 sec) 
Heartbeat CPU 3 instructions: 300000000 cycles: 216423985 heartbeat IPC: 1.07682 cumulative IPC: 1.09528 (Simulation time: 1 hr 3 min 13 sec) 
Heartbeat CPU 1 instructions: 270000003 cycles: 218156301 heartbeat IPC: 0.546999 cumulative IPC: 0.519866 (Simulation time: 1 hr 3 min 32 sec) 
Heartbeat CPU 2 instructions: 390000003 cycles: 221228394 heartbeat IPC: 0.592223 cumulative IPC: 0.778235 (Simulation time: 1 hr 4 min 6 sec) 
Heartbeat CPU 3 instructions: 310000000 cycles: 225730886 heartbeat IPC: 1.07447 cumulative IPC: 1.09335 (Simulation time: 1 hr 4 min 58 sec) 
Heartbeat CPU 0 instructions: 270000002 cycles: 227073837 heartbeat IPC: 0.645963 cumulative IPC: 0.646171 (Simulation time: 1 hr 5 min 13 sec) 
Heartbeat CPU 3 instructions: 320000000 cycles: 235111074 heartbeat IPC: 1.06608 cumulative IPC: 1.09103 (Simulation time: 1 hr 6 min 43 sec) 
Heartbeat CPU 1 instructions: 280000000 cycles: 236831375 heartbeat IPC: 0.535473 cumulative IPC: 0.522475 (Simulation time: 1 hr 7 min 2 sec) 
Heartbeat CPU 2 instructions: 400000000 cycles: 237388159 heartbeat IPC: 0.618821 cumulative IPC: 0.755289 (Simulation time: 1 hr 7 min 8 sec) 
Heartbeat CPU 0 instructions: 280000000 cycles: 242593194 heartbeat IPC: 0.644356 cumulative IPC: 0.645932 (Simulation time: 1 hr 8 min 6 sec) 
Heartbeat CPU 3 instructions: 330000000 cycles: 244413877 heartbeat IPC: 1.07494 cumulative IPC: 1.08977 (Simulation time: 1 hr 8 min 28 sec) 
Heartbeat CPU 2 instructions: 410000000 cycles: 253138450 heartbeat IPC: 0.634909 cumulative IPC: 0.740478 (Simulation time: 1 hr 10 min 5 sec) 
Heartbeat CPU 3 instructions: 340000000 cycles: 253661217 heartbeat IPC: 1.08139 cumulative IPC: 1.08917 (Simulation time: 1 hr 10 min 10 sec) 
Heartbeat CPU 1 instructions: 290000001 cycles: 255436413 heartbeat IPC: 0.537489 cumulative IPC: 0.524618 (Simulation time: 1 hr 10 min 29 sec) 
Heartbeat CPU 0 instructions: 290000001 cycles: 258106211 heartbeat IPC: 0.64462 cumulative IPC: 0.645779 (Simulation time: 1 hr 10 min 57 sec) 
Heartbeat CPU 3 instructions: 350000000 cycles: 262990099 heartbeat IPC: 1.07194 cumulative IPC: 1.088 (Simulation time: 1 hr 11 min 50 sec) 
Heartbeat CPU 2 instructions: 420000000 cycles: 270997524 heartbeat IPC: 0.559939 cumulative IPC: 0.718375 (Simulation time: 1 hr 13 min 12 sec) 
Heartbeat CPU 3 instructions: 360000000 cycles: 272339578 heartbeat IPC: 1.06958 cumulative IPC: 1.08683 (Simulation time: 1 hr 13 min 27 sec) 
Heartbeat CPU 0 instructions: 300000000 cycles: 273621835 heartbeat IPC: 0.644512 cumulative IPC: 0.645646 (Simulation time: 1 hr 13 min 41 sec) 
Heartbeat CPU 1 instructions: 300000000 cycles: 274019970 heartbeat IPC: 0.53811 cumulative IPC: 0.526302 (Simulation time: 1 hr 13 min 46 sec) 
Heartbeat CPU 3 instructions: 370000000 cycles: 281548019 heartbeat IPC: 1.08596 cumulative IPC: 1.08678 (Simulation time: 1 hr 15 min 5 sec) 
Heartbeat CPU 2 instructions: 430000002 cycles: 288024785 heartbeat IPC: 0.587294 cumulative IPC: 0.704674 (Simulation time: 1 hr 16 min 15 sec) 
Heartbeat CPU 0 instructions: 310000003 cycles: 289137071 heartbeat IPC: 0.644528 cumulative IPC: 0.64554 (Simulation time: 1 hr 16 min 27 sec) 
Heartbeat CPU 3 instructions: 380000000 cycles: 290755931 heartbeat IPC: 1.08602 cumulative IPC: 1.08674 (Simulation time: 1 hr 16 min 44 sec) 
Heartbeat CPU 1 instructions: 310000002 cycles: 292540013 heartbeat IPC: 0.539956 cumulative IPC: 0.527813 (Simulation time: 1 hr 17 min 2 sec) 
Heartbeat CPU 3 instructions: 390000000 cycles: 299920743 heartbeat IPC: 1.09113 cumulative IPC: 1.08697 (Simulation time: 1 hr 18 min 22 sec) 
Heartbeat CPU 0 instructions: 320000000 cycles: 304735105 heartbeat IPC: 0.641106 cumulative IPC: 0.645155 (Simulation time: 1 hr 19 min 11 sec) 
Heartbeat CPU 2 instructions: 440000000 cycles: 307298964 heartbeat IPC: 0.518829 cumulative IPC: 0.685011 (Simulation time: 1 hr 19 min 37 sec) 
Heartbeat CPU 3 instructions: 400000000 cycles: 309150434 heartbeat IPC: 1.08346 cumulative IPC: 1.08679 (Simulation time: 1 hr 19 min 58 sec) 
Heartbeat CPU 1 instructions: 320000000 cycles: 311342813 heartbeat IPC: 0.531836 cumulative IPC: 0.528219 (Simulation time: 1 hr 20 min 22 sec) 
Heartbeat CPU 3 instructions: 410000002 cycles: 318194694 heartbeat IPC: 1.10567 cumulative IPC: 1.08768 (Simulation time: 1 hr 21 min 33 sec) 
Heartbeat CPU 0 instructions: 330000002 cycles: 320234357 heartbeat IPC: 0.645193 cumulative IPC: 0.645158 (Simulation time: 1 hr 21 min 54 sec) 
Heartbeat CPU 2 instructions: 450000001 cycles: 323514331 heartbeat IPC: 0.616699 cumulative IPC: 0.679428 (Simulation time: 1 hr 22 min 30 sec) 
Heartbeat CPU 3 instructions: 420000000 cycles: 327403065 heartbeat IPC: 1.08597 cumulative IPC: 1.0876 (Simulation time: 1 hr 23 min 11 sec) 
Heartbeat CPU 1 instructions: 330000003 cycles: 330218413 heartbeat IPC: 0.529785 cumulative IPC: 0.528363 (Simulation time: 1 hr 23 min 40 sec) 
Heartbeat CPU 0 instructions: 340000000 cycles: 335742239 heartbeat IPC: 0.644833 cumulative IPC: 0.645134 (Simulation time: 1 hr 24 min 39 sec) 
Heartbeat CPU 3 instructions: 430000000 cycles: 336605943 heartbeat IPC: 1.08662 cumulative IPC: 1.08756 (Simulation time: 1 hr 24 min 48 sec) 
Heartbeat CPU 2 instructions: 460000000 cycles: 342583341 heartbeat IPC: 0.524411 cumulative IPC: 0.665835 (Simulation time: 1 hr 25 min 50 sec) 
Heartbeat CPU 3 instructions: 440000000 cycles: 345546950 heartbeat IPC: 1.11844 cumulative IPC: 1.08881 (Simulation time: 1 hr 26 min 22 sec) 
Heartbeat CPU 1 instructions: 340000000 cycles: 348792467 heartbeat IPC: 0.538385 cumulative IPC: 0.529195 (Simulation time: 1 hr 26 min 58 sec) 
Heartbeat CPU 0 instructions: 350000003 cycles: 351255645 heartbeat IPC: 0.644604 cumulative IPC: 0.645098 (Simulation time: 1 hr 27 min 23 sec) 
Heartbeat CPU 3 instructions: 450000002 cycles: 354938771 heartbeat IPC: 1.06476 cumulative IPC: 1.08783 (Simulation time: 1 hr 28 min 1 sec) 
Heartbeat CPU 2 instructions: 470000000 cycles: 360000427 heartbeat IPC: 0.574149 cumulative IPC: 0.659036 (Simulation time: 1 hr 28 min 56 sec) 
Heartbeat CPU 3 instructions: 460000000 cycles: 364176781 heartbeat IPC: 1.08248 cumulative IPC: 1.08762 (Simulation time: 1 hr 29 min 39 sec) 
Heartbeat CPU 0 instructions: 360000000 cycles: 366745968 heartbeat IPC: 0.645564 cumulative IPC: 0.645128 (Simulation time: 1 hr 30 min 6 sec) 
Heartbeat CPU 1 instructions: 350000001 cycles: 367458529 heartbeat IPC: 0.535732 cumulative IPC: 0.529699 (Simulation time: 1 hr 30 min 13 sec) 
Heartbeat CPU 3 instructions: 470000002 cycles: 373432296 heartbeat IPC: 1.08044 cumulative IPC: 1.08735 (Simulation time: 1 hr 31 min 17 sec) 
Heartbeat CPU 2 instructions: 480000000 cycles: 379342156 heartbeat IPC: 0.517017 cumulative IPC: 0.64823 (Simulation time: 1 hr 32 min 18 sec) 
Heartbeat CPU 0 instructions: 370000000 cycles: 382242676 heartbeat IPC: 0.645298 cumulative IPC: 0.645138 (Simulation time: 1 hr 32 min 49 sec) 
Heartbeat CPU 3 instructions: 480000000 cycles: 382691027 heartbeat IPC: 1.08006 cumulative IPC: 1.08709 (Simulation time: 1 hr 32 min 54 sec) 
Heartbeat CPU 1 instructions: 360000000 cycles: 386651235 heartbeat IPC: 0.521031 cumulative IPC: 0.529063 (Simulation time: 1 hr 33 min 35 sec) 
Heartbeat CPU 3 instructions: 490000000 cycles: 391975076 heartbeat IPC: 1.07712 cumulative IPC: 1.08674 (Simulation time: 1 hr 34 min 28 sec) 
Heartbeat CPU 2 instructions: 490000000 cycles: 397299466 heartbeat IPC: 0.556876 cumulative IPC: 0.642203 (Simulation time: 1 hr 35 min 26 sec) 
Heartbeat CPU 0 instructions: 380000000 cycles: 397744286 heartbeat IPC: 0.645094 cumulative IPC: 0.645136 (Simulation time: 1 hr 35 min 30 sec) 
Heartbeat CPU 3 instructions: 500000000 cycles: 401122646 heartbeat IPC: 1.09319 cumulative IPC: 1.08696 (Simulation time: 1 hr 36 min 5 sec) 
Heartbeat CPU 1 instructions: 370000001 cycles: 405763103 heartbeat IPC: 0.523235 cumulative IPC: 0.528666 (Simulation time: 1 hr 36 min 53 sec) 
Heartbeat CPU 3 instructions: 510000002 cycles: 410303988 heartbeat IPC: 1.08917 cumulative IPC: 1.08703 (Simulation time: 1 hr 37 min 43 sec) 
Heartbeat CPU 0 instructions: 390000002 cycles: 413232264 heartbeat IPC: 0.645662 cumulative IPC: 0.645164 (Simulation time: 1 hr 38 min 13 sec) 
Heartbeat CPU 2 instructions: 500000000 cycles: 416635550 heartbeat IPC: 0.517168 cumulative IPC: 0.63391 (Simulation time: 1 hr 38 min 49 sec) 
Heartbeat CPU 3 instructions: 520000000 cycles: 419582521 heartbeat IPC: 1.07776 cumulative IPC: 1.08674 (Simulation time: 1 hr 39 min 22 sec) 
Heartbeat CPU 1 instructions: 380000000 cycles: 424554151 heartbeat IPC: 0.532168 cumulative IPC: 0.528886 (Simulation time: 1 hr 40 min 18 sec) 
Heartbeat CPU 0 instructions: 400000000 cycles: 428711356 heartbeat IPC: 0.646033 cumulative IPC: 0.645208 (Simulation time: 1 hr 41 min 3 sec) 
Heartbeat CPU 3 instructions: 530000000 cycles: 428791940 heartbeat IPC: 1.08584 cumulative IPC: 1.08671 (Simulation time: 1 hr 41 min 4 sec) 
Heartbeat CPU 2 instructions: 510000000 cycles: 433849800 heartbeat IPC: 0.580914 cumulative IPC: 0.630955 (Simulation time: 1 hr 42 min 2 sec) 
Heartbeat CPU 3 instructions: 540000000 cycles: 437934359 heartbeat IPC: 1.0938 cumulative IPC: 1.08692 (Simulation time: 1 hr 42 min 48 sec) 
Heartbeat CPU 1 instructions: 390000000 cycles: 443420421 heartbeat IPC: 0.530046 cumulative IPC: 0.528954 (Simulation time: 1 hr 43 min 50 sec) 
Heartbeat CPU 0 instructions: 410000001 cycles: 444180521 heartbeat IPC: 0.646447 cumulative IPC: 0.645268 (Simulation time: 1 hr 43 min 58 sec) 
Heartbeat CPU 3 instructions: 550000003 cycles: 447346553 heartbeat IPC: 1.06245 cumulative IPC: 1.0862 (Simulation time: 1 hr 44 min 33 sec) 
Heartbeat CPU 2 instructions: 520000000 cycles: 451341669 heartbeat IPC: 0.571694 cumulative IPC: 0.627777 (Simulation time: 1 hr 45 min 18 sec) 
Heartbeat CPU 3 instructions: 560000000 cycles: 456673727 heartbeat IPC: 1.07214 cumulative IPC: 1.08581 (Simulation time: 1 hr 46 min 18 sec) 
Heartbeat CPU 0 instructions: 420000000 cycles: 459662672 heartbeat IPC: 0.645905 cumulative IPC: 0.645298 (Simulation time: 1 hr 46 min 51 sec) 
Heartbeat CPU 1 instructions: 400000000 cycles: 462486854 heartbeat IPC: 0.524482 cumulative IPC: 0.528702 (Simulation time: 1 hr 47 min 22 sec) 
Heartbeat CPU 3 instructions: 570000000 cycles: 466033474 heartbeat IPC: 1.0684 cumulative IPC: 1.08533 (Simulation time: 1 hr 48 min 1 sec) 
Heartbeat CPU 2 instructions: 530000000 cycles: 468016715 heartbeat IPC: 0.599698 cumulative IPC: 0.626412 (Simulation time: 1 hr 48 min 23 sec) 
Heartbeat CPU 3 instructions: 580000000 cycles: 475031666 heartbeat IPC: 1.11133 cumulative IPC: 1.086 (Simulation time: 1 hr 49 min 43 sec) 
Heartbeat CPU 0 instructions: 430000002 cycles: 475140456 heartbeat IPC: 0.646087 cumulative IPC: 0.645333 (Simulation time: 1 hr 49 min 45 sec) 
Heartbeat CPU 1 instructions: 410000002 cycles: 481887162 heartbeat IPC: 0.515456 cumulative IPC: 0.527981 (Simulation time: 1 hr 50 min 56 sec) 
Heartbeat CPU 2 instructions: 540000000 cycles: 483700006 heartbeat IPC: 0.637621 cumulative IPC: 0.626902 (Simulation time: 1 hr 51 min 16 sec) 
Heartbeat CPU 3 instructions: 590000000 cycles: 484467899 heartbeat IPC: 1.05974 cumulative IPC: 1.08531 (Simulation time: 1 hr 51 min 24 sec) 
Heartbeat CPU 0 instructions: 440000000 cycles: 490633314 heartbeat IPC: 0.645459 cumulative IPC: 0.645338 (Simulation time: 1 hr 52 min 28 sec) 
Heartbeat CPU 3 instructions: 600000000 cycles: 493809590 heartbeat IPC: 1.07047 cumulative IPC: 1.08493 (Simulation time: 1 hr 53 min 3 sec) 
Heartbeat CPU 1 instructions: 420000000 cycles: 500857633 heartbeat IPC: 0.527135 cumulative IPC: 0.527939 (Simulation time: 1 hr 54 min 16 sec) 
Heartbeat CPU 2 instructions: 550000002 cycles: 501242675 heartbeat IPC: 0.570039 cumulative IPC: 0.62425 (Simulation time: 1 hr 54 min 21 sec) 
Heartbeat CPU 3 instructions: 610000000 cycles: 503189895 heartbeat IPC: 1.06606 cumulative IPC: 1.08446 (Simulation time: 1 hr 54 min 42 sec) 
Heartbeat CPU 0 instructions: 450000002 cycles: 506127583 heartbeat IPC: 0.6454 cumulative IPC: 0.645341 (Simulation time: 1 hr 55 min 13 sec) 
Heartbeat CPU 3 instructions: 620000000 cycles: 512551222 heartbeat IPC: 1.06822 cumulative IPC: 1.08407 (Simulation time: 1 hr 56 min 21 sec) 
Heartbeat CPU 2 instructions: 560000000 cycles: 516476271 heartbeat IPC: 0.656444 cumulative IPC: 0.625503 (Simulation time: 1 hr 57 min 4 sec) 
Heartbeat CPU 1 instructions: 430000003 cycles: 520069358 heartbeat IPC: 0.520516 cumulative IPC: 0.527578 (Simulation time: 1 hr 57 min 47 sec) 
Heartbeat CPU 3 instructions: 630000001 cycles: 521584762 heartbeat IPC: 1.10699 cumulative IPC: 1.08459 (Simulation time: 1 hr 58 min 6 sec) 
Heartbeat CPU 0 instructions: 460000000 cycles: 521605992 heartbeat IPC: 0.646061 cumulative IPC: 0.645369 (Simulation time: 1 hr 58 min 7 sec) 
Heartbeat CPU 2 instructions: 570000000 cycles: 526271368 heartbeat IPC: 1.02092 cumulative IPC: 0.635158 (Simulation time: 1 hr 59 min 1 sec) 
Heartbeat CPU 3 instructions: 640000000 cycles: 530499435 heartbeat IPC: 1.12175 cumulative IPC: 1.08541 (Simulation time: 1 hr 59 min 48 sec) 
Heartbeat CPU 0 instructions: 470000000 cycles: 537070618 heartbeat IPC: 0.646637 cumulative IPC: 0.645416 (Simulation time: 2 hr 1 min 3 sec) 
Heartbeat CPU 2 instructions: 580000000 cycles: 538395448 heartbeat IPC: 0.824805 cumulative IPC: 0.640722 (Simulation time: 2 hr 1 min 17 sec) 
Heartbeat CPU 1 instructions: 440000000 cycles: 539152208 heartbeat IPC: 0.524031 cumulative IPC: 0.527414 (Simulation time: 2 hr 1 min 25 sec) 
Heartbeat CPU 3 instructions: 650000000 cycles: 539493301 heartbeat IPC: 1.11187 cumulative IPC: 1.08598 (Simulation time: 2 hr 1 min 29 sec) 
Heartbeat CPU 3 instructions: 660000000 cycles: 548546866 heartbeat IPC: 1.10454 cumulative IPC: 1.08638 (Simulation time: 2 hr 3 min 16 sec) 
Heartbeat CPU 2 instructions: 590000003 cycles: 549991594 heartbeat IPC: 0.862356 cumulative IPC: 0.646771 (Simulation time: 2 hr 3 min 33 sec) 
Heartbeat CPU 0 instructions: 480000000 cycles: 552538326 heartbeat IPC: 0.646508 cumulative IPC: 0.645456 (Simulation time: 2 hr 4 min 5 sec) 
Heartbeat CPU 3 instructions: 670000000 cycles: 557560567 heartbeat IPC: 1.10942 cumulative IPC: 1.08686 (Simulation time: 2 hr 5 min 6 sec) 
Heartbeat CPU 1 instructions: 450000000 cycles: 558426347 heartbeat IPC: 0.51883 cumulative IPC: 0.527032 (Simulation time: 2 hr 5 min 16 sec) 
Heartbeat CPU 2 instructions: 600000000 cycles: 561393179 heartbeat IPC: 0.877071 cumulative IPC: 0.65279 (Simulation time: 2 hr 5 min 50 sec) 
Heartbeat CPU 3 instructions: 680000000 cycles: 566583632 heartbeat IPC: 1.10827 cumulative IPC: 1.0873 (Simulation time: 2 hr 6 min 53 sec) 
Heartbeat CPU 0 instructions: 490000002 cycles: 568012556 heartbeat IPC: 0.646236 cumulative IPC: 0.645483 (Simulation time: 2 hr 7 min 10 sec) 
Heartbeat CPU 2 instructions: 610000001 cycles: 572675182 heartbeat IPC: 0.886367 cumulative IPC: 0.658678 (Simulation time: 2 hr 8 min 7 sec) 
Heartbeat CPU 3 instructions: 690000001 cycles: 575566349 heartbeat IPC: 1.11325 cumulative IPC: 1.08782 (Simulation time: 2 hr 8 min 42 sec) 
Heartbeat CPU 1 instructions: 460000000 cycles: 577601487 heartbeat IPC: 0.521509 cumulative IPC: 0.526798 (Simulation time: 2 hr 9 min 3 sec) 
Heartbeat CPU 3 instructions: 700000000 cycles: 585444665 heartbeat IPC: 1.01232 cumulative IPC: 1.0862 (Simulation time: 2 hr 10 min 21 sec) 
Heartbeat CPU 2 instructions: 620000000 cycles: 586949148 heartbeat IPC: 0.700576 cumulative IPC: 0.659973 (Simulation time: 2 hr 10 min 34 sec) 
Heartbeat CPU 0 instructions: 500000000 cycles: 589113063 heartbeat IPC: 0.473922 cumulative IPC: 0.637681 (Simulation time: 2 hr 10 min 56 sec) 
Heartbeat CPU 3 instructions: 710000001 cycles: 595659939 heartbeat IPC: 0.978926 cumulative IPC: 1.08387 (Simulation time: 2 hr 12 min 9 sec) 
Heartbeat CPU 1 instructions: 470000001 cycles: 597621434 heartbeat IPC: 0.499502 cumulative IPC: 0.525642 (Simulation time: 2 hr 12 min 36 sec) 
Heartbeat CPU 2 instructions: 630000002 cycles: 601182115 heartbeat IPC: 0.702594 cumulative IPC: 0.661247 (Simulation time: 2 hr 13 min 21 sec) 
Heartbeat CPU 3 instructions: 720000000 cycles: 604928994 heartbeat IPC: 1.07886 cumulative IPC: 1.08377 (Simulation time: 2 hr 14 min 8 sec) 
Heartbeat CPU 0 instructions: 510000002 cycles: 609677747 heartbeat IPC: 0.486271 cumulative IPC: 0.631255 (Simulation time: 2 hr 15 min 5 sec) 
Heartbeat CPU 2 instructions: 640000000 cycles: 611721341 heartbeat IPC: 0.948836 cumulative IPC: 0.667476 (Simulation time: 2 hr 15 min 32 sec) 
Heartbeat CPU 3 instructions: 730000000 cycles: 613923012 heartbeat IPC: 1.11185 cumulative IPC: 1.08429 (Simulation time: 2 hr 15 min 57 sec) 
Heartbeat CPU 1 instructions: 480000000 cycles: 617852735 heartbeat IPC: 0.494284 cumulative IPC: 0.524354 (Simulation time: 2 hr 16 min 42 sec) 
Heartbeat CPU 2 instructions: 650000001 cycles: 622573463 heartbeat IPC: 0.921479 cumulative IPC: 0.673017 (Simulation time: 2 hr 17 min 37 sec) 
Heartbeat CPU 3 instructions: 740000000 cycles: 622930544 heartbeat IPC: 1.11018 cumulative IPC: 1.08476 (Simulation time: 2 hr 17 min 40 sec) 
Heartbeat CPU 0 instructions: 520000000 cycles: 629453890 heartbeat IPC: 0.50566 cumulative IPC: 0.62633 (Simulation time: 2 hr 18 min 57 sec) 
Heartbeat CPU 3 instructions: 750000003 cycles: 631890530 heartbeat IPC: 1.11607 cumulative IPC: 1.08531 (Simulation time: 2 hr 19 min 24 sec) 
Heartbeat CPU 2 instructions: 660000000 cycles: 632812423 heartbeat IPC: 0.976662 cumulative IPC: 0.679141 (Simulation time: 2 hr 19 min 35 sec) 
Heartbeat CPU 1 instructions: 490000000 cycles: 639061479 heartbeat IPC: 0.471504 cumulative IPC: 0.522173 (Simulation time: 2 hr 20 min 47 sec) 
Heartbeat CPU 3 instructions: 760000000 cycles: 640842254 heartbeat IPC: 1.1171 cumulative IPC: 1.08586 (Simulation time: 2 hr 21 min 6 sec) 
Heartbeat CPU 2 instructions: 670000002 cycles: 642681406 heartbeat IPC: 1.01328 cumulative IPC: 0.685512 (Simulation time: 2 hr 21 min 29 sec) 
Heartbeat CPU 0 instructions: 530000002 cycles: 649147938 heartbeat IPC: 0.507768 cumulative IPC: 0.621874 (Simulation time: 2 hr 22 min 41 sec) 
Heartbeat CPU 3 instructions: 770000000 cycles: 649803256 heartbeat IPC: 1.11595 cumulative IPC: 1.08638 (Simulation time: 2 hr 22 min 48 sec) 
Heartbeat CPU 2 instructions: 680000000 cycles: 653574656 heartbeat IPC: 0.918 cumulative IPC: 0.690305 (Simulation time: 2 hr 23 min 31 sec) 
Heartbeat CPU 3 instructions: 780000000 cycles: 658837063 heartbeat IPC: 1.10695 cumulative IPC: 1.08672 (Simulation time: 2 hr 24 min 29 sec) 
Heartbeat CPU 1 instructions: 500000000 cycles: 660928041 heartbeat IPC: 0.457319 cumulative IPC: 0.519526 (Simulation time: 2 hr 24 min 54 sec) 
Heartbeat CPU 2 instructions: 690000002 cycles: 664767987 heartbeat IPC: 0.893389 cumulative IPC: 0.694517 (Simulation time: 2 hr 25 min 36 sec) 
Heartbeat CPU 3 instructions: 790000001 cycles: 667871623 heartbeat IPC: 1.10686 cumulative IPC: 1.08706 (Simulation time: 2 hr 26 min 10 sec) 
Heartbeat CPU 0 instructions: 540000000 cycles: 668925578 heartbeat IPC: 0.505621 cumulative IPC: 0.617646 (Simulation time: 2 hr 26 min 20 sec) 
Heartbeat CPU 3 instructions: 800000000 cycles: 677072747 heartbeat IPC: 1.08682 cumulative IPC: 1.08706 (Simulation time: 2 hr 27 min 45 sec) 
Heartbeat CPU 2 instructions: 700000000 cycles: 677610950 heartbeat IPC: 0.778636 cumulative IPC: 0.696472 (Simulation time: 2 hr 27 min 51 sec) 
Heartbeat CPU 1 instructions: 510000003 cycles: 681250193 heartbeat IPC: 0.492074 cumulative IPC: 0.518523 (Simulation time: 2 hr 28 min 32 sec) 
Heartbeat CPU 3 instructions: 810000000 cycles: 686256961 heartbeat IPC: 1.08882 cumulative IPC: 1.08708 (Simulation time: 2 hr 29 min 27 sec) 
Heartbeat CPU 0 instructions: 550000001 cycles: 688707611 heartbeat IPC: 0.505509 cumulative IPC: 0.61371 (Simulation time: 2 hr 29 min 53 sec) 
Heartbeat CPU 2 instructions: 710000000 cycles: 691087124 heartbeat IPC: 0.74205 cumulative IPC: 0.697558 (Simulation time: 2 hr 30 min 17 sec) 
Heartbeat CPU 3 instructions: 820000000 cycles: 695557843 heartbeat IPC: 1.07517 cumulative IPC: 1.08689 (Simulation time: 2 hr 31 min 6 sec) 
Heartbeat CPU 1 instructions: 520000000 cycles: 702210223 heartbeat IPC: 0.477098 cumulative IPC: 0.517019 (Simulation time: 2 hr 32 min 19 sec) 
Heartbeat CPU 2 instructions: 720000000 cycles: 704438132 heartbeat IPC: 0.749007 cumulative IPC: 0.698743 (Simulation time: 2 hr 32 min 43 sec) 
Heartbeat CPU 3 instructions: 830000001 cycles: 704907174 heartbeat IPC: 1.0696 cumulative IPC: 1.08661 (Simulation time: 2 hr 32 min 48 sec) 
Heartbeat CPU 0 instructions: 560000000 cycles: 708527695 heartbeat IPC: 0.504539 cumulative IPC: 0.610001 (Simulation time: 2 hr 33 min 25 sec) 
Heartbeat CPU 3 instructions: 840000000 cycles: 714197404 heartbeat IPC: 1.0764 cumulative IPC: 1.08645 (Simulation time: 2 hr 34 min 27 sec) 
Heartbeat CPU 2 instructions: 730000003 cycles: 718612908 heartbeat IPC: 0.705479 cumulative IPC: 0.698904 (Simulation time: 2 hr 35 min 15 sec) 
Heartbeat CPU 1 instructions: 530000001 cycles: 722774901 heartbeat IPC: 0.486271 cumulative IPC: 0.515961 (Simulation time: 2 hr 35 min 58 sec) 
Heartbeat CPU 3 instructions: 850000000 cycles: 723462021 heartbeat IPC: 1.07938 cumulative IPC: 1.08634 (Simulation time: 2 hr 36 min 6 sec) 
Heartbeat CPU 0 instructions: 570000000 cycles: 728338800 heartbeat IPC: 0.504767 cumulative IPC: 0.606545 (Simulation time: 2 hr 36 min 58 sec) 
Heartbeat CPU 3 instructions: 860000000 cycles: 732831660 heartbeat IPC: 1.06728 cumulative IPC: 1.08605 (Simulation time: 2 hr 37 min 42 sec) 
Heartbeat CPU 2 instructions: 740000000 cycles: 734921130 heartbeat IPC: 0.613187 cumulative IPC: 0.696612 (Simulation time: 2 hr 38 min 3 sec) 
Heartbeat CPU 3 instructions: 870000001 cycles: 742280772 heartbeat IPC: 1.0583 cumulative IPC: 1.08562 (Simulation time: 2 hr 39 min 16 sec) 
Heartbeat CPU 1 instructions: 540000000 cycles: 743458807 heartbeat IPC: 0.483468 cumulative IPC: 0.514874 (Simulation time: 2 hr 39 min 29 sec) 
Heartbeat CPU 0 instructions: 580000000 cycles: 748166997 heartbeat IPC: 0.504332 cumulative IPC: 0.603292 (Simulation time: 2 hr 40 min 18 sec) 
Heartbeat CPU 2 instructions: 750000000 cycles: 751415418 heartbeat IPC: 0.60627 cumulative IPC: 0.694233 (Simulation time: 2 hr 40 min 51 sec) 
Heartbeat CPU 3 instructions: 880000000 cycles: 751668984 heartbeat IPC: 1.06517 cumulative IPC: 1.08532 (Simulation time: 2 hr 40 min 53 sec) 
Heartbeat CPU 3 instructions: 890000003 cycles: 760970513 heartbeat IPC: 1.07509 cumulative IPC: 1.08517 (Simulation time: 2 hr 42 min 34 sec) 
Heartbeat CPU 1 instructions: 550000000 cycles: 764725672 heartbeat IPC: 0.470215 cumulative IPC: 0.513389 (Simulation time: 2 hr 43 min 15 sec) 
Heartbeat CPU 2 instructions: 760000000 cycles: 764834817 heartbeat IPC: 0.74519 cumulative IPC: 0.695302 (Simulation time: 2 hr 43 min 16 sec) 
Heartbeat CPU 0 instructions: 590000000 cycles: 767990735 heartbeat IPC: 0.504446 cumulative IPC: 0.600244 (Simulation time: 2 hr 43 min 52 sec) 
Heartbeat CPU 3 instructions: 900000000 cycles: 770076482 heartbeat IPC: 1.09818 cumulative IPC: 1.08535 (Simulation time: 2 hr 44 min 17 sec) 
Heartbeat CPU 2 instructions: 770000003 cycles: 775096986 heartbeat IPC: 0.974453 cumulative IPC: 0.699709 (Simulation time: 2 hr 45 min 15 sec) 
Heartbeat CPU 3 instructions: 910000002 cycles: 779055925 heartbeat IPC: 1.11366 cumulative IPC: 1.08574 (Simulation time: 2 hr 46 min 2 sec) 
Heartbeat CPU 1 instructions: 560000000 cycles: 785361447 heartbeat IPC: 0.484595 cumulative IPC: 0.512489 (Simulation time: 2 hr 47 min 12 sec) 
Heartbeat CPU 2 instructions: 780000000 cycles: 785874988 heartbeat IPC: 0.927815 cumulative IPC: 0.70343 (Simulation time: 2 hr 47 min 18 sec) 
Heartbeat CPU 0 instructions: 600000000 cycles: 787685694 heartbeat IPC: 0.507744 cumulative IPC: 0.597495 (Simulation time: 2 hr 47 min 41 sec) 
Heartbeat CPU 3 instructions: 920000000 cycles: 787985822 heartbeat IPC: 1.11983 cumulative IPC: 1.0862 (Simulation time: 2 hr 47 min 44 sec) 
Heartbeat CPU 2 instructions: 790000003 cycles: 795239192 heartbeat IPC: 1.0679 cumulative IPC: 0.708523 (Simulation time: 2 hr 49 min 9 sec) 
Heartbeat CPU 3 instructions: 930000002 cycles: 796857844 heartbeat IPC: 1.12714 cumulative IPC: 1.08674 (Simulation time: 2 hr 49 min 27 sec) 
Heartbeat CPU 2 instructions: 800000000 cycles: 805469205 heartbeat IPC: 0.977516 cumulative IPC: 0.712568 (Simulation time: 2 hr 51 min 5 sec) 
Heartbeat CPU 1 instructions: 570000001 cycles: 805585092 heartbeat IPC: 0.494471 cumulative IPC: 0.511953 (Simulation time: 2 hr 51 min 6 sec) 
Heartbeat CPU 3 instructions: 940000000 cycles: 805727276 heartbeat IPC: 1.12747 cumulative IPC: 1.08727 (Simulation time: 2 hr 51 min 8 sec) 
Heartbeat CPU 0 instructions: 610000001 cycles: 807401780 heartbeat IPC: 0.5072 cumulative IPC: 0.594885 (Simulation time: 2 hr 51 min 27 sec) 
Heartbeat CPU 3 instructions: 950000001 cycles: 814655354 heartbeat IPC: 1.12006 cumulative IPC: 1.08769 (Simulation time: 2 hr 52 min 49 sec) 
Heartbeat CPU 2 instructions: 810000002 cycles: 815722984 heartbeat IPC: 0.97525 cumulative IPC: 0.716468 (Simulation time: 2 hr 53 min 1 sec) 
Heartbeat CPU 3 instructions: 960000000 cycles: 823628446 heartbeat IPC: 1.11444 cumulative IPC: 1.08804 (Simulation time: 2 hr 54 min 27 sec) 
Heartbeat CPU 1 instructions: 580000000 cycles: 825138688 heartbeat IPC: 0.511415 cumulative IPC: 0.511938 (Simulation time: 2 hr 54 min 44 sec) 
Heartbeat CPU 0 instructions: 620000000 cycles: 827132535 heartbeat IPC: 0.506823 cumulative IPC: 0.59241 (Simulation time: 2 hr 55 min 5 sec) 
Heartbeat CPU 2 instructions: 820000000 cycles: 827559633 heartbeat IPC: 0.844834 cumulative IPC: 0.718631 (Simulation time: 2 hr 55 min 10 sec) 
Heartbeat CPU 3 instructions: 970000001 cycles: 832668077 heartbeat IPC: 1.10624 cumulative IPC: 1.08827 (Simulation time: 2 hr 56 min 6 sec) 
Heartbeat CPU 2 instructions: 830000000 cycles: 838840165 heartbeat IPC: 0.886483 cumulative IPC: 0.721284 (Simulation time: 2 hr 57 min 13 sec) 
Heartbeat CPU 3 instructions: 980000000 cycles: 841661726 heartbeat IPC: 1.1119 cumulative IPC: 1.08857 (Simulation time: 2 hr 57 min 45 sec) 
Heartbeat CPU 1 instructions: 590000001 cycles: 845552807 heartbeat IPC: 0.489857 cumulative IPC: 0.511313 (Simulation time: 2 hr 58 min 25 sec) 
Heartbeat CPU 0 instructions: 630000003 cycles: 846935872 heartbeat IPC: 0.504966 cumulative IPC: 0.590011 (Simulation time: 2 hr 58 min 41 sec) 
Heartbeat CPU 2 instructions: 840000000 cycles: 850496198 heartbeat IPC: 0.857925 cumulative IPC: 0.723479 (Simulation time: 2 hr 59 min 18 sec) 
Heartbeat CPU 3 instructions: 990000001 cycles: 850755733 heartbeat IPC: 1.09963 cumulative IPC: 1.0887 (Simulation time: 2 hr 59 min 21 sec) 
Heartbeat CPU 3 instructions: 1000000000 cycles: 859882385 heartbeat IPC: 1.09569 cumulative IPC: 1.08879 (Simulation time: 3 hr 1 min 1 sec) 
Heartbeat CPU 2 instructions: 850000003 cycles: 862414320 heartbeat IPC: 0.839059 cumulative IPC: 0.725348 (Simulation time: 3 hr 1 min 27 sec) 
Heartbeat CPU 1 instructions: 600000000 cycles: 865671723 heartbeat IPC: 0.497045 cumulative IPC: 0.510925 (Simulation time: 3 hr 2 min 3 sec) 
Heartbeat CPU 0 instructions: 640000000 cycles: 866676862 heartbeat IPC: 0.50656 cumulative IPC: 0.58779 (Simulation time: 3 hr 2 min 13 sec) 
Heartbeat CPU 3 instructions: 1010000000 cycles: 869012888 heartbeat IPC: 1.09523 cumulative IPC: 1.08887 (Simulation time: 3 hr 2 min 38 sec) 
Heartbeat CPU 2 instructions: 860000000 cycles: 874448081 heartbeat IPC: 0.830995 cumulative IPC: 0.727044 (Simulation time: 3 hr 3 min 36 sec) 
Heartbeat CPU 3 instructions: 1020000000 cycles: 878161512 heartbeat IPC: 1.09306 cumulative IPC: 1.08892 (Simulation time: 3 hr 4 min 19 sec) 
Heartbeat CPU 2 instructions: 870000001 cycles: 885541805 heartbeat IPC: 0.901411 cumulative IPC: 0.729588 (Simulation time: 3 hr 5 min 45 sec) 
Heartbeat CPU 1 instructions: 610000000 cycles: 885941277 heartbeat IPC: 0.493351 cumulative IPC: 0.510457 (Simulation time: 3 hr 5 min 50 sec) 
Heartbeat CPU 0 instructions: 650000000 cycles: 886481576 heartbeat IPC: 0.50493 cumulative IPC: 0.585634 (Simulation time: 3 hr 5 min 57 sec) 
Heartbeat CPU 3 instructions: 1030000001 cycles: 887281655 heartbeat IPC: 1.09647 cumulative IPC: 1.08901 (Simulation time: 3 hr 6 min 5 sec) 
Heartbeat CPU 2 instructions: 880000000 cycles: 895877193 heartbeat IPC: 0.967549 cumulative IPC: 0.732779 (Simulation time: 3 hr 7 min 47 sec) 
Heartbeat CPU 3 instructions: 1040000000 cycles: 896259094 heartbeat IPC: 1.1139 cumulative IPC: 1.0893 (Simulation time: 3 hr 7 min 51 sec) 
Heartbeat CPU 3 instructions: 1050000000 cycles: 905178379 heartbeat IPC: 1.12117 cumulative IPC: 1.08967 (Simulation time: 3 hr 9 min 36 sec) 
Heartbeat CPU 1 instructions: 620000000 cycles: 905512780 heartbeat IPC: 0.510947 cumulative IPC: 0.510469 (Simulation time: 3 hr 9 min 40 sec) 
Heartbeat CPU 0 instructions: 660000000 cycles: 906190539 heartbeat IPC: 0.507383 cumulative IPC: 0.58366 (Simulation time: 3 hr 9 min 47 sec) 
Heartbeat CPU 2 instructions: 890000000 cycles: 907433611 heartbeat IPC: 0.86532 cumulative IPC: 0.734737 (Simulation time: 3 hr 10 min 1 sec) 
Heartbeat CPU 3 instructions: 1060000000 cycles: 914275506 heartbeat IPC: 1.09925 cumulative IPC: 1.08978 (Simulation time: 3 hr 11 min 17 sec) 
Heartbeat CPU 2 instructions: 900000000 cycles: 923423532 heartbeat IPC: 0.625394 cumulative IPC: 0.732547 (Simulation time: 3 hr 12 min 41 sec) 
Heartbeat CPU 3 instructions: 1070000001 cycles: 924633427 heartbeat IPC: 0.965445 cumulative IPC: 1.08817 (Simulation time: 3 hr 12 min 52 sec) 
Heartbeat CPU 1 instructions: 630000003 cycles: 926135047 heartbeat IPC: 0.484913 cumulative IPC: 0.509811 (Simulation time: 3 hr 13 min 6 sec) 
Heartbeat CPU 0 instructions: 670000000 cycles: 927398872 heartbeat IPC: 0.471513 cumulative IPC: 0.580695 (Simulation time: 3 hr 13 min 18 sec) 
Heartbeat CPU 3 instructions: 1080000000 cycles: 935167533 heartbeat IPC: 0.949297 cumulative IPC: 1.08636 (Simulation time: 3 hr 14 min 30 sec) 
Heartbeat CPU 0 instructions: 680000000 cycles: 941592824 heartbeat IPC: 0.704525 cumulative IPC: 0.582848 (Simulation time: 3 hr 15 min 39 sec) 
Heartbeat CPU 3 instructions: 1090000000 cycles: 945350362 heartbeat IPC: 0.982045 cumulative IPC: 1.08506 (Simulation time: 3 hr 16 min 16 sec) 
Heartbeat CPU 2 instructions: 910000000 cycles: 946227559 heartbeat IPC: 0.438519 cumulative IPC: 0.724381 (Simulation time: 3 hr 16 min 24 sec) 
Heartbeat CPU 1 instructions: 640000000 cycles: 946274958 heartbeat IPC: 0.496526 cumulative IPC: 0.509485 (Simulation time: 3 hr 16 min 25 sec) 
Heartbeat CPU 3 instructions: 1100000000 cycles: 955309654 heartbeat IPC: 1.00409 cumulative IPC: 1.08409 (Simulation time: 3 hr 17 min 50 sec) 
Heartbeat CPU 2 instructions: 920000000 cycles: 963496768 heartbeat IPC: 0.579065 cumulative IPC: 0.721388 (Simulation time: 3 hr 19 min 11 sec) 
Heartbeat CPU 0 instructions: 690000000 cycles: 964796195 heartbeat IPC: 0.430972 cumulative IPC: 0.578651 (Simulation time: 3 hr 19 min 25 sec) 
Heartbeat CPU 3 instructions: 1110000003 cycles: 965041238 heartbeat IPC: 1.02758 cumulative IPC: 1.08344 (Simulation time: 3 hr 19 min 28 sec) 
Heartbeat CPU 1 instructions: 650000000 cycles: 966162663 heartbeat IPC: 0.502823 cumulative IPC: 0.509328 (Simulation time: 3 hr 19 min 40 sec) 
Heartbeat CPU 3 instructions: 1120000000 cycles: 974656881 heartbeat IPC: 1.03997 cumulative IPC: 1.08295 (Simulation time: 3 hr 21 min 5 sec) 
Heartbeat CPU 2 instructions: 930000000 cycles: 976165149 heartbeat IPC: 0.789367 cumulative IPC: 0.7224 (Simulation time: 3 hr 21 min 20 sec) 
Heartbeat CPU 3 instructions: 1130000001 cycles: 984221893 heartbeat IPC: 1.04548 cumulative IPC: 1.08253 (Simulation time: 3 hr 22 min 45 sec) 
Heartbeat CPU 1 instructions: 660000000 cycles: 986174175 heartbeat IPC: 0.499712 cumulative IPC: 0.509104 (Simulation time: 3 hr 23 min 7 sec) 
Heartbeat CPU 2 instructions: 940000000 cycles: 987048723 heartbeat IPC: 0.918816 cumulative IPC: 0.72488 (Simulation time: 3 hr 23 min 16 sec) 
Heartbeat CPU 0 instructions: 700000000 cycles: 991957862 heartbeat IPC: 0.368166 cumulative IPC: 0.572056 (Simulation time: 3 hr 24 min 8 sec) 
Heartbeat CPU 3 instructions: 1140000000 cycles: 993655018 heartbeat IPC: 1.06009 cumulative IPC: 1.08229 (Simulation time: 3 hr 24 min 24 sec) 
Heartbeat CPU 2 instructions: 950000001 cycles: 998974633 heartbeat IPC: 0.838511 cumulative IPC: 0.726431 (Simulation time: 3 hr 25 min 19 sec) 
Heartbeat CPU 3 instructions: 1150000000 cycles: 1003215810 heartbeat IPC: 1.04594 cumulative IPC: 1.08189 (Simulation time: 3 hr 26 min 4 sec) 
Heartbeat CPU 1 instructions: 670000001 cycles: 1006400344 heartbeat IPC: 0.494409 cumulative IPC: 0.508767 (Simulation time: 3 hr 26 min 33 sec) 
Heartbeat CPU 3 instructions: 1160000000 cycles: 1012785011 heartbeat IPC: 1.04502 cumulative IPC: 1.08149 (Simulation time: 3 hr 27 min 36 sec) 
Heartbeat CPU 2 instructions: 960000000 cycles: 1013090966 heartbeat IPC: 0.708399 cumulative IPC: 0.726144 (Simulation time: 3 hr 27 min 38 sec) 
Heartbeat CPU 0 instructions: 710000003 cycles: 1019729616 heartbeat IPC: 0.360078 cumulative IPC: 0.565475 (Simulation time: 3 hr 28 min 43 sec) 
Heartbeat CPU 3 instructions: 1170000000 cycles: 1022598799 heartbeat IPC: 1.01897 cumulative IPC: 1.08081 (Simulation time: 3 hr 29 min 14 sec) 
Heartbeat CPU 1 instructions: 680000000 cycles: 1026688934 heartbeat IPC: 0.492888 cumulative IPC: 0.50841 (Simulation time: 3 hr 29 min 51 sec) 
Heartbeat CPU 2 instructions: 970000000 cycles: 1028299459 heartbeat IPC: 0.657527 cumulative IPC: 0.724989 (Simulation time: 3 hr 30 min 6 sec) 
Heartbeat CPU 3 instructions: 1180000000 cycles: 1032449467 heartbeat IPC: 1.01516 cumulative IPC: 1.0801 (Simulation time: 3 hr 30 min 47 sec) 
Heartbeat CPU 3 instructions: 1190000000 cycles: 1042532790 heartbeat IPC: 0.991737 cumulative IPC: 1.07913 (Simulation time: 3 hr 32 min 19 sec) 
Heartbeat CPU 0 instructions: 720000000 cycles: 1046708195 heartbeat IPC: 0.370664 cumulative IPC: 0.559772 (Simulation time: 3 hr 32 min 57 sec) 
Heartbeat CPU 1 instructions: 690000000 cycles: 1046994375 heartbeat IPC: 0.492479 cumulative IPC: 0.508059 (Simulation time: 3 hr 32 min 59 sec) 
Heartbeat CPU 2 instructions: 980000000 cycles: 1047607433 heartbeat IPC: 0.517921 cumulative IPC: 0.720655 (Simulation time: 3 hr 33 min 5 sec) 
Heartbeat CPU 3 instructions: 1200000000 cycles: 1053178370 heartbeat IPC: 0.939357 cumulative IPC: 1.07752 (Simulation time: 3 hr 34 min 0 sec) 
Finished CPU 3 instructions: 1000000000 cycles: 928055530 cumulative IPC: 1.07752 (Simulation time: 3 hr 34 min 0 sec) 
Heartbeat CPU 0 instructions: 730000000 cycles: 1055053852 heartbeat IPC: 1.19823 cumulative IPC: 0.565502 (Simulation time: 3 hr 34 min 19 sec) 
Heartbeat CPU 3 instructions: 1210000000 cycles: 1064393920 heartbeat IPC: 0.891619 cumulative IPC: 1.0753 (Simulation time: 3 hr 35 min 49 sec) 
Heartbeat CPU 0 instructions: 740000000 cycles: 1065893923 heartbeat IPC: 0.922503 cumulative IPC: 0.569616 (Simulation time: 3 hr 36 min 4 sec) 
Heartbeat CPU 1 instructions: 700000000 cycles: 1069071658 heartbeat IPC: 0.452954 cumulative IPC: 0.50677 (Simulation time: 3 hr 36 min 34 sec) 
Heartbeat CPU 2 instructions: 990000001 cycles: 1071663034 heartbeat IPC: 0.415704 cumulative IPC: 0.712904 (Simulation time: 3 hr 37 min 2 sec) 
Heartbeat CPU 3 instructions: 1220000000 cycles: 1074390839 heartbeat IPC: 1.00031 cumulative IPC: 1.07451 (Simulation time: 3 hr 37 min 32 sec) 
Heartbeat CPU 2 instructions: 1000000000 cycles: 1083397277 heartbeat IPC: 0.852207 cumulative IPC: 0.71461 (Simulation time: 3 hr 39 min 14 sec) 
Heartbeat CPU 3 instructions: 1230000001 cycles: 1083665832 heartbeat IPC: 1.07817 cumulative IPC: 1.07455 (Simulation time: 3 hr 39 min 17 sec) 
Heartbeat CPU 0 instructions: 750000003 cycles: 1085712729 heartbeat IPC: 0.504571 cumulative IPC: 0.568274 (Simulation time: 3 hr 39 min 39 sec) 
Heartbeat CPU 1 instructions: 710000001 cycles: 1089516910 heartbeat IPC: 0.489111 cumulative IPC: 0.506396 (Simulation time: 3 hr 40 min 56 sec) 
Heartbeat CPU 3 instructions: 1240000000 cycles: 1092949421 heartbeat IPC: 1.07717 cumulative IPC: 1.07457 (Simulation time: 3 hr 42 min 12 sec) 
Heartbeat CPU 2 instructions: 1010000001 cycles: 1095992969 heartbeat IPC: 0.793922 cumulative IPC: 0.715639 (Simulation time: 3 hr 43 min 28 sec) 
Heartbeat CPU 3 instructions: 1250000001 cycles: 1102144460 heartbeat IPC: 1.08754 cumulative IPC: 1.07469 (Simulation time: 3 hr 45 min 48 sec) 
Heartbeat CPU 0 instructions: 760000000 cycles: 1105460155 heartbeat IPC: 0.506395 cumulative IPC: 0.567027 (Simulation time: 3 hr 47 min 3 sec) 
Heartbeat CPU 1 instructions: 720000000 cycles: 1109551924 heartbeat IPC: 0.499126 cumulative IPC: 0.506248 (Simulation time: 3 hr 48 min 33 sec) 
Heartbeat CPU 2 instructions: 1020000000 cycles: 1110220588 heartbeat IPC: 0.702858 cumulative IPC: 0.715455 (Simulation time: 3 hr 48 min 49 sec) 
Heartbeat CPU 3 instructions: 1260000000 cycles: 1111572676 heartbeat IPC: 1.06065 cumulative IPC: 1.07456 (Simulation time: 3 hr 49 min 9 sec) 
Heartbeat CPU 3 instructions: 1270000000 cycles: 1121071471 heartbeat IPC: 1.05277 cumulative IPC: 1.07435 (Simulation time: 3 hr 50 min 49 sec) 
Heartbeat CPU 0 instructions: 770000000 cycles: 1125248443 heartbeat IPC: 0.505349 cumulative IPC: 0.565807 (Simulation time: 3 hr 51 min 32 sec) 
Heartbeat CPU 2 instructions: 1030000003 cycles: 1126606901 heartbeat IPC: 0.610266 cumulative IPC: 0.713733 (Simulation time: 3 hr 51 min 47 sec) 
Heartbeat CPU 1 instructions: 730000001 cycles: 1129871670 heartbeat IPC: 0.492132 cumulative IPC: 0.505962 (Simulation time: 3 hr 52 min 23 sec) 
Heartbeat CPU 3 instructions: 1280000000 cycles: 1130608800 heartbeat IPC: 1.04851 cumulative IPC: 1.07411 (Simulation time: 3 hr 52 min 31 sec) 
Heartbeat CPU 3 instructions: 1290000001 cycles: 1140186638 heartbeat IPC: 1.04408 cumulative IPC: 1.07382 (Simulation time: 3 hr 54 min 12 sec) 
Heartbeat CPU 2 instructions: 1040000000 cycles: 1143612295 heartbeat IPC: 0.588049 cumulative IPC: 0.711635 (Simulation time: 3 hr 54 min 47 sec) 
Heartbeat CPU 0 instructions: 780000000 cycles: 1145043939 heartbeat IPC: 0.505165 cumulative IPC: 0.56463 (Simulation time: 3 hr 55 min 1 sec) 
Heartbeat CPU 3 instructions: 1300000000 cycles: 1149746054 heartbeat IPC: 1.04609 cumulative IPC: 1.07357 (Simulation time: 3 hr 55 min 53 sec) 
Heartbeat CPU 1 instructions: 740000000 cycles: 1150174478 heartbeat IPC: 0.492543 cumulative IPC: 0.505696 (Simulation time: 3 hr 55 min 57 sec) 
Heartbeat CPU 3 instructions: 1310000001 cycles: 1159430618 heartbeat IPC: 1.03257 cumulative IPC: 1.07318 (Simulation time: 3 hr 57 min 33 sec) 
Heartbeat CPU 2 instructions: 1050000000 cycles: 1160239282 heartbeat IPC: 0.601432 cumulative IPC: 0.709865 (Simulation time: 3 hr 57 min 42 sec) 
Heartbeat CPU 0 instructions: 790000003 cycles: 1164819304 heartbeat IPC: 0.50568 cumulative IPC: 0.563509 (Simulation time: 3 hr 58 min 28 sec) 
Heartbeat CPU 3 instructions: 1320000000 cycles: 1169113332 heartbeat IPC: 1.03277 cumulative IPC: 1.07281 (Simulation time: 3 hr 59 min 13 sec) 
Heartbeat CPU 1 instructions: 750000000 cycles: 1171448250 heartbeat IPC: 0.470062 cumulative IPC: 0.504972 (Simulation time: 3 hr 59 min 36 sec) 
Heartbeat CPU 2 instructions: 1060000000 cycles: 1176229431 heartbeat IPC: 0.625385 cumulative IPC: 0.70858 (Simulation time: 4 hr 0 min 28 sec) 
Heartbeat CPU 3 instructions: 1330000002 cycles: 1178122813 heartbeat IPC: 1.10994 cumulative IPC: 1.07312 (Simulation time: 4 hr 0 min 48 sec) 
Heartbeat CPU 0 instructions: 800000000 cycles: 1184560289 heartbeat IPC: 0.50656 cumulative IPC: 0.562447 (Simulation time: 4 hr 1 min 59 sec) 
Heartbeat CPU 3 instructions: 1340000000 cycles: 1187031241 heartbeat IPC: 1.12253 cumulative IPC: 1.07354 (Simulation time: 4 hr 2 min 25 sec) 
Heartbeat CPU 2 instructions: 1070000000 cycles: 1190924220 heartbeat IPC: 0.680513 cumulative IPC: 0.708193 (Simulation time: 4 hr 3 min 5 sec) 
Heartbeat CPU 1 instructions: 760000000 cycles: 1193098996 heartbeat IPC: 0.461878 cumulative IPC: 0.504098 (Simulation time: 4 hr 3 min 27 sec) 
Heartbeat CPU 3 instructions: 1350000003 cycles: 1197173158 heartbeat IPC: 0.986007 cumulative IPC: 1.07271 (Simulation time: 4 hr 4 min 6 sec) 
Heartbeat CPU 0 instructions: 810000000 cycles: 1204330481 heartbeat IPC: 0.505812 cumulative IPC: 0.56141 (Simulation time: 4 hr 5 min 24 sec) 
Heartbeat CPU 3 instructions: 1360000000 cycles: 1206144785 heartbeat IPC: 1.11462 cumulative IPC: 1.07306 (Simulation time: 4 hr 5 min 42 sec) 
Heartbeat CPU 2 instructions: 1080000000 cycles: 1207461987 heartbeat IPC: 0.604677 cumulative IPC: 0.706611 (Simulation time: 4 hr 5 min 55 sec) 
Heartbeat CPU 1 instructions: 770000000 cycles: 1214698873 heartbeat IPC: 0.462966 cumulative IPC: 0.503283 (Simulation time: 4 hr 7 min 7 sec) 
Heartbeat CPU 3 instructions: 1370000000 cycles: 1215737740 heartbeat IPC: 1.04243 cumulative IPC: 1.07279 (Simulation time: 4 hr 7 min 16 sec) 
Heartbeat CPU 0 instructions: 820000000 cycles: 1223487350 heartbeat IPC: 0.522006 cumulative IPC: 0.560723 (Simulation time: 4 hr 8 min 23 sec) 
Heartbeat CPU 2 instructions: 1090000003 cycles: 1225846223 heartbeat IPC: 0.543944 cumulative IPC: 0.703894 (Simulation time: 4 hr 8 min 45 sec) 
Heartbeat CPU 3 instructions: 1380000000 cycles: 1226093014 heartbeat IPC: 0.965692 cumulative IPC: 1.07178 (Simulation time: 4 hr 8 min 48 sec) 
Heartbeat CPU 1 instructions: 780000000 cycles: 1236294540 heartbeat IPC: 0.463056 cumulative IPC: 0.502501 (Simulation time: 4 hr 10 min 19 sec) 
Heartbeat CPU 3 instructions: 1390000000 cycles: 1236721468 heartbeat IPC: 0.940871 cumulative IPC: 1.07053 (Simulation time: 4 hr 10 min 23 sec) 
Heartbeat CPU 0 instructions: 830000003 cycles: 1241117429 heartbeat IPC: 0.567213 cumulative IPC: 0.560825 (Simulation time: 4 hr 11 min 0 sec) 
Heartbeat CPU 3 instructions: 1400000000 cycles: 1247334433 heartbeat IPC: 0.942244 cumulative IPC: 1.06932 (Simulation time: 4 hr 11 min 55 sec) 
Heartbeat CPU 2 instructions: 1100000000 cycles: 1249756017 heartbeat IPC: 0.418239 cumulative IPC: 0.697821 (Simulation time: 4 hr 12 min 16 sec) 
Heartbeat CPU 1 instructions: 790000003 cycles: 1257619855 heartbeat IPC: 0.468926 cumulative IPC: 0.501869 (Simulation time: 4 hr 13 min 24 sec) 
Heartbeat CPU 3 instructions: 1410000000 cycles: 1258006488 heartbeat IPC: 0.937027 cumulative IPC: 1.06807 (Simulation time: 4 hr 13 min 27 sec) 
Heartbeat CPU 0 instructions: 840000000 cycles: 1259453223 heartbeat IPC: 0.545381 cumulative IPC: 0.560575 (Simulation time: 4 hr 13 min 40 sec) 
Heartbeat CPU 3 instructions: 1420000000 cycles: 1268755596 heartbeat IPC: 0.93031 cumulative IPC: 1.06678 (Simulation time: 4 hr 15 min 2 sec) 
Heartbeat CPU 2 instructions: 1110000001 cycles: 1275615688 heartbeat IPC: 0.386703 cumulative IPC: 0.690828 (Simulation time: 4 hr 16 min 1 sec) 
Heartbeat CPU 3 instructions: 1430000000 cycles: 1279519005 heartbeat IPC: 0.929074 cumulative IPC: 1.06549 (Simulation time: 4 hr 16 min 36 sec) 
Heartbeat CPU 1 instructions: 800000000 cycles: 1279585297 heartbeat IPC: 0.45526 cumulative IPC: 0.500982 (Simulation time: 4 hr 16 min 36 sec) 
Heartbeat CPU 0 instructions: 850000003 cycles: 1282842549 heartbeat IPC: 0.427546 cumulative IPC: 0.557888 (Simulation time: 4 hr 17 min 5 sec) 
Heartbeat CPU 3 instructions: 1440000000 cycles: 1290074971 heartbeat IPC: 0.947332 cumulative IPC: 1.06442 (Simulation time: 4 hr 18 min 15 sec) 
Heartbeat CPU 2 instructions: 1120000000 cycles: 1298549906 heartbeat IPC: 0.43603 cumulative IPC: 0.685848 (Simulation time: 4 hr 19 min 38 sec) 
Heartbeat CPU 3 instructions: 1450000002 cycles: 1300557072 heartbeat IPC: 0.954007 cumulative IPC: 1.06344 (Simulation time: 4 hr 19 min 59 sec) 
Heartbeat CPU 1 instructions: 810000001 cycles: 1300639034 heartbeat IPC: 0.474975 cumulative IPC: 0.500516 (Simulation time: 4 hr 20 min 0 sec) 
Heartbeat CPU 0 instructions: 860000000 cycles: 1302999821 heartbeat IPC: 0.496099 cumulative IPC: 0.55683 (Simulation time: 4 hr 20 min 23 sec) 
Heartbeat CPU 3 instructions: 1460000000 cycles: 1310484889 heartbeat IPC: 1.00727 cumulative IPC: 1.06297 (Simulation time: 4 hr 21 min 37 sec) 
Heartbeat CPU 2 instructions: 1130000003 cycles: 1314180091 heartbeat IPC: 0.639788 cumulative IPC: 0.685243 (Simulation time: 4 hr 22 min 13 sec) 
Heartbeat CPU 3 instructions: 1470000002 cycles: 1319865615 heartbeat IPC: 1.06602 cumulative IPC: 1.06299 (Simulation time: 4 hr 23 min 11 sec) 
Heartbeat CPU 1 instructions: 820000000 cycles: 1321830396 heartbeat IPC: 0.47189 cumulative IPC: 0.500009 (Simulation time: 4 hr 23 min 30 sec) 
Heartbeat CPU 0 instructions: 870000002 cycles: 1322553474 heartbeat IPC: 0.511414 cumulative IPC: 0.556089 (Simulation time: 4 hr 23 min 37 sec) 
Heartbeat CPU 2 instructions: 1140000000 cycles: 1328240065 heartbeat IPC: 0.711239 cumulative IPC: 0.685546 (Simulation time: 4 hr 24 min 35 sec) 
Heartbeat CPU 3 instructions: 1480000000 cycles: 1329253060 heartbeat IPC: 1.06525 cumulative IPC: 1.06301 (Simulation time: 4 hr 24 min 44 sec) 
Heartbeat CPU 3 instructions: 1490000001 cycles: 1338582399 heartbeat IPC: 1.07189 cumulative IPC: 1.06308 (Simulation time: 4 hr 26 min 19 sec) 
Heartbeat CPU 0 instructions: 880000000 cycles: 1341584036 heartbeat IPC: 0.52547 cumulative IPC: 0.55561 (Simulation time: 4 hr 26 min 51 sec) 
Heartbeat CPU 2 instructions: 1150000001 cycles: 1342046358 heartbeat IPC: 0.724307 cumulative IPC: 0.685986 (Simulation time: 4 hr 26 min 56 sec) 
Heartbeat CPU 1 instructions: 830000003 cycles: 1342789789 heartbeat IPC: 0.477113 cumulative IPC: 0.499615 (Simulation time: 4 hr 27 min 3 sec) 
Heartbeat CPU 3 instructions: 1500000000 cycles: 1347824703 heartbeat IPC: 1.08198 cumulative IPC: 1.06322 (Simulation time: 4 hr 27 min 51 sec) 
Heartbeat CPU 3 instructions: 1510000001 cycles: 1357211023 heartbeat IPC: 1.06538 cumulative IPC: 1.06324 (Simulation time: 4 hr 29 min 25 sec) 
Heartbeat CPU 2 instructions: 1160000000 cycles: 1359137340 heartbeat IPC: 0.585104 cumulative IPC: 0.684589 (Simulation time: 4 hr 29 min 44 sec) 
Heartbeat CPU 0 instructions: 890000000 cycles: 1359893542 heartbeat IPC: 0.546164 cumulative IPC: 0.55547 (Simulation time: 4 hr 29 min 52 sec) 
Heartbeat CPU 1 instructions: 840000000 cycles: 1363056752 heartbeat IPC: 0.493414 cumulative IPC: 0.499514 (Simulation time: 4 hr 30 min 26 sec) 
Heartbeat CPU 3 instructions: 1520000000 cycles: 1366591648 heartbeat IPC: 1.06603 cumulative IPC: 1.06326 (Simulation time: 4 hr 31 min 2 sec) 
Heartbeat CPU 3 instructions: 1530000000 cycles: 1376024001 heartbeat IPC: 1.06018 cumulative IPC: 1.06323 (Simulation time: 4 hr 32 min 41 sec) 
Heartbeat CPU 2 instructions: 1170000003 cycles: 1376116168 heartbeat IPC: 0.588969 cumulative IPC: 0.683291 (Simulation time: 4 hr 32 min 42 sec) 
Heartbeat CPU 0 instructions: 900000000 cycles: 1378268382 heartbeat IPC: 0.544222 cumulative IPC: 0.555305 (Simulation time: 4 hr 33 min 4 sec) 
Heartbeat CPU 1 instructions: 850000001 cycles: 1383047432 heartbeat IPC: 0.500233 cumulative IPC: 0.499525 (Simulation time: 4 hr 33 min 55 sec) 
Heartbeat CPU 3 instructions: 1540000000 cycles: 1385393041 heartbeat IPC: 1.06735 cumulative IPC: 1.06326 (Simulation time: 4 hr 34 min 19 sec) 
Heartbeat CPU 2 instructions: 1180000000 cycles: 1392707155 heartbeat IPC: 0.602737 cumulative IPC: 0.682237 (Simulation time: 4 hr 35 min 35 sec) 
Heartbeat CPU 3 instructions: 1550000000 cycles: 1394827275 heartbeat IPC: 1.05997 cumulative IPC: 1.06324 (Simulation time: 4 hr 35 min 57 sec) 
Heartbeat CPU 0 instructions: 910000000 cycles: 1396626490 heartbeat IPC: 0.544718 cumulative IPC: 0.555152 (Simulation time: 4 hr 36 min 15 sec) 
Heartbeat CPU 1 instructions: 860000000 cycles: 1403752983 heartbeat IPC: 0.482962 cumulative IPC: 0.499257 (Simulation time: 4 hr 37 min 30 sec) 
Heartbeat CPU 3 instructions: 1560000000 cycles: 1404195593 heartbeat IPC: 1.06743 cumulative IPC: 1.06327 (Simulation time: 4 hr 37 min 35 sec) 
Heartbeat CPU 2 instructions: 1190000003 cycles: 1408533428 heartbeat IPC: 0.631861 cumulative IPC: 0.681616 (Simulation time: 4 hr 38 min 20 sec) 
Heartbeat CPU 3 instructions: 1570000000 cycles: 1413434342 heartbeat IPC: 1.0824 cumulative IPC: 1.06341 (Simulation time: 4 hr 39 min 13 sec) 
Heartbeat CPU 0 instructions: 920000000 cycles: 1414967325 heartbeat IPC: 0.545231 cumulative IPC: 0.555011 (Simulation time: 4 hr 39 min 29 sec) 
Heartbeat CPU 2 instructions: 1200000000 cycles: 1421781899 heartbeat IPC: 0.754804 cumulative IPC: 0.682363 (Simulation time: 4 hr 40 min 43 sec) 
Heartbeat CPU 3 instructions: 1580000000 cycles: 1422590333 heartbeat IPC: 1.09218 cumulative IPC: 1.06361 (Simulation time: 4 hr 40 min 53 sec) 
Heartbeat CPU 1 instructions: 870000001 cycles: 1424678447 heartbeat IPC: 0.477887 cumulative IPC: 0.498913 (Simulation time: 4 hr 41 min 16 sec) 
Heartbeat CPU 3 instructions: 1590000000 cycles: 1431691614 heartbeat IPC: 1.09875 cumulative IPC: 1.06386 (Simulation time: 4 hr 42 min 35 sec) 
Heartbeat CPU 2 instructions: 1210000000 cycles: 1433251734 heartbeat IPC: 0.871852 cumulative IPC: 0.684025 (Simulation time: 4 hr 42 min 52 sec) 
Heartbeat CPU 0 instructions: 930000002 cycles: 1433324169 heartbeat IPC: 0.544756 cumulative IPC: 0.554867 (Simulation time: 4 hr 42 min 53 sec) 
Heartbeat CPU 3 instructions: 1600000000 cycles: 1440658731 heartbeat IPC: 1.11519 cumulative IPC: 1.06421 (Simulation time: 4 hr 44 min 18 sec) 
Heartbeat CPU 2 instructions: 1220000000 cycles: 1444337706 heartbeat IPC: 0.902041 cumulative IPC: 0.685857 (Simulation time: 4 hr 44 min 58 sec) 
Heartbeat CPU 1 instructions: 880000000 cycles: 1445004808 heartbeat IPC: 0.491972 cumulative IPC: 0.498806 (Simulation time: 4 hr 45 min 6 sec) 
Heartbeat CPU 3 instructions: 1610000003 cycles: 1449667870 heartbeat IPC: 1.10998 cumulative IPC: 1.06452 (Simulation time: 4 hr 46 min 0 sec) 
Heartbeat CPU 0 instructions: 940000000 cycles: 1451724618 heartbeat IPC: 0.543465 cumulative IPC: 0.554709 (Simulation time: 4 hr 46 min 23 sec) 
Heartbeat CPU 2 instructions: 1230000000 cycles: 1454819546 heartbeat IPC: 0.954031 cumulative IPC: 0.687971 (Simulation time: 4 hr 46 min 58 sec) 
Heartbeat CPU 3 instructions: 1620000000 cycles: 1458633245 heartbeat IPC: 1.1154 cumulative IPC: 1.06486 (Simulation time: 4 hr 47 min 41 sec) 
Heartbeat CPU 2 instructions: 1240000000 cycles: 1465154154 heartbeat IPC: 0.967623 cumulative IPC: 0.690128 (Simulation time: 4 hr 48 min 56 sec) 
Heartbeat CPU 1 instructions: 890000001 cycles: 1465926473 heartbeat IPC: 0.477973 cumulative IPC: 0.498481 (Simulation time: 4 hr 49 min 4 sec) 
Heartbeat CPU 3 instructions: 1630000000 cycles: 1467673429 heartbeat IPC: 1.10617 cumulative IPC: 1.06514 (Simulation time: 4 hr 49 min 23 sec) 
Heartbeat CPU 0 instructions: 950000001 cycles: 1470154256 heartbeat IPC: 0.542604 cumulative IPC: 0.554543 (Simulation time: 4 hr 49 min 52 sec) 
Heartbeat CPU 2 instructions: 1250000003 cycles: 1475883741 heartbeat IPC: 0.932003 cumulative IPC: 0.692049 (Simulation time: 4 hr 50 min 56 sec) 
Heartbeat CPU 3 instructions: 1640000000 cycles: 1476627155 heartbeat IPC: 1.11685 cumulative IPC: 1.06548 (Simulation time: 4 hr 51 min 4 sec) 
Heartbeat CPU 3 instructions: 1650000001 cycles: 1485651532 heartbeat IPC: 1.10811 cumulative IPC: 1.06576 (Simulation time: 4 hr 52 min 59 sec) 
Heartbeat CPU 2 instructions: 1260000000 cycles: 1486165056 heartbeat IPC: 0.972638 cumulative IPC: 0.694169 (Simulation time: 4 hr 53 min 6 sec) 
Heartbeat CPU 1 instructions: 900000000 cycles: 1487676383 heartbeat IPC: 0.459772 cumulative IPC: 0.497863 (Simulation time: 4 hr 53 min 24 sec) 
Heartbeat CPU 0 instructions: 960000000 cycles: 1488603374 heartbeat IPC: 0.542031 cumulative IPC: 0.554374 (Simulation time: 4 hr 53 min 33 sec) 
Heartbeat CPU 3 instructions: 1660000000 cycles: 1494653430 heartbeat IPC: 1.11088 cumulative IPC: 1.06606 (Simulation time: 4 hr 54 min 41 sec) 
Heartbeat CPU 2 instructions: 1270000000 cycles: 1496372330 heartbeat IPC: 0.979693 cumulative IPC: 0.696294 (Simulation time: 4 hr 55 min 2 sec) 
Heartbeat CPU 3 instructions: 1670000000 cycles: 1503631388 heartbeat IPC: 1.11384 cumulative IPC: 1.06637 (Simulation time: 4 hr 56 min 23 sec) 
Heartbeat CPU 2 instructions: 1280000000 cycles: 1506894570 heartbeat IPC: 0.950368 cumulative IPC: 0.698229 (Simulation time: 4 hr 57 min 1 sec) 
Heartbeat CPU 0 instructions: 970000002 cycles: 1507092481 heartbeat IPC: 0.540859 cumulative IPC: 0.554193 (Simulation time: 4 hr 57 min 3 sec) 
Heartbeat CPU 1 instructions: 910000003 cycles: 1509418621 heartbeat IPC: 0.459934 cumulative IPC: 0.497267 (Simulation time: 4 hr 57 min 28 sec) 
Heartbeat CPU 3 instructions: 1680000000 cycles: 1512614487 heartbeat IPC: 1.1132 cumulative IPC: 1.06667 (Simulation time: 4 hr 58 min 5 sec) 
Heartbeat CPU 2 instructions: 1290000000 cycles: 1517774976 heartbeat IPC: 0.919083 cumulative IPC: 0.699954 (Simulation time: 4 hr 59 min 2 sec) 
Heartbeat CPU 3 instructions: 1690000002 cycles: 1521570657 heartbeat IPC: 1.11655 cumulative IPC: 1.06699 (Simulation time: 4 hr 59 min 46 sec) 
Heartbeat CPU 0 instructions: 980000000 cycles: 1525664868 heartbeat IPC: 0.538434 cumulative IPC: 0.553984 (Simulation time: 5 hr 0 min 35 sec) 
Heartbeat CPU 2 instructions: 1300000000 cycles: 1527894544 heartbeat IPC: 0.988184 cumulative IPC: 0.702033 (Simulation time: 5 hr 1 min 4 sec) 
Heartbeat CPU 3 instructions: 1700000000 cycles: 1530594262 heartbeat IPC: 1.1082 cumulative IPC: 1.06726 (Simulation time: 5 hr 1 min 34 sec) 
Heartbeat CPU 1 instructions: 920000000 cycles: 1530831209 heartbeat IPC: 0.467015 cumulative IPC: 0.496806 (Simulation time: 5 hr 1 min 36 sec) 
Heartbeat CPU 3 instructions: 1710000000 cycles: 1541270682 heartbeat IPC: 0.936644 cumulative IPC: 1.06627 (Simulation time: 5 hr 3 min 30 sec) 
Heartbeat CPU 0 instructions: 990000000 cycles: 1544354693 heartbeat IPC: 0.535051 cumulative IPC: 0.553735 (Simulation time: 5 hr 4 min 12 sec) 
Heartbeat CPU 2 instructions: 1310000002 cycles: 1546105546 heartbeat IPC: 0.549119 cumulative IPC: 0.700074 (Simulation time: 5 hr 4 min 36 sec) 
Heartbeat CPU 3 instructions: 1720000000 cycles: 1551694346 heartbeat IPC: 0.959356 cumulative IPC: 1.06549 (Simulation time: 5 hr 5 min 37 sec) 
Heartbeat CPU 1 instructions: 930000001 cycles: 1552629264 heartbeat IPC: 0.458757 cumulative IPC: 0.496225 (Simulation time: 5 hr 5 min 46 sec) 
Finished CPU 2 instructions: 1000000001 cycles: 1428162434 cumulative IPC: 0.7002 (Simulation time: 5 hr 5 min 54 sec) 
Heartbeat CPU 0 instructions: 1000000000 cycles: 1557494071 heartbeat IPC: 0.761071 cumulative IPC: 0.555637 (Simulation time: 5 hr 6 min 40 sec) 
Heartbeat CPU 2 instructions: 1320000000 cycles: 1558484497 heartbeat IPC: 0.807823 cumulative IPC: 0.701004 (Simulation time: 5 hr 6 min 53 sec) 
Heartbeat CPU 3 instructions: 1730000001 cycles: 1560943738 heartbeat IPC: 1.08115 cumulative IPC: 1.06559 (Simulation time: 5 hr 7 min 20 sec) 
Heartbeat CPU 2 instructions: 1330000000 cycles: 1569276341 heartbeat IPC: 0.926626 cumulative IPC: 0.70269 (Simulation time: 5 hr 8 min 56 sec) 
Heartbeat CPU 0 instructions: 1010000000 cycles: 1570249244 heartbeat IPC: 0.783996 cumulative IPC: 0.557652 (Simulation time: 5 hr 9 min 9 sec) 
Heartbeat CPU 3 instructions: 1740000000 cycles: 1570282324 heartbeat IPC: 1.07083 cumulative IPC: 1.06563 (Simulation time: 5 hr 9 min 10 sec) 
Heartbeat CPU 1 instructions: 940000000 cycles: 1573660823 heartbeat IPC: 0.475476 cumulative IPC: 0.495924 (Simulation time: 5 hr 9 min 50 sec) 
Heartbeat CPU 3 instructions: 1750000003 cycles: 1579397320 heartbeat IPC: 1.09709 cumulative IPC: 1.06582 (Simulation time: 5 hr 11 min 1 sec) 
Heartbeat CPU 2 instructions: 1340000000 cycles: 1579634558 heartbeat IPC: 0.965417 cumulative IPC: 0.704561 (Simulation time: 5 hr 11 min 4 sec) 
Heartbeat CPU 0 instructions: 1020000000 cycles: 1582996203 heartbeat IPC: 0.784501 cumulative IPC: 0.559636 (Simulation time: 5 hr 11 min 46 sec) 
Heartbeat CPU 3 instructions: 1760000000 cycles: 1588459619 heartbeat IPC: 1.10347 cumulative IPC: 1.06606 (Simulation time: 5 hr 12 min 50 sec) 
Heartbeat CPU 2 instructions: 1350000001 cycles: 1590698028 heartbeat IPC: 0.903876 cumulative IPC: 0.706066 (Simulation time: 5 hr 13 min 15 sec) 
Heartbeat CPU 1 instructions: 950000001 cycles: 1594789877 heartbeat IPC: 0.473282 cumulative IPC: 0.495599 (Simulation time: 5 hr 14 min 1 sec) 
Heartbeat CPU 0 instructions: 1030000000 cycles: 1596406636 heartbeat IPC: 0.745688 cumulative IPC: 0.561331 (Simulation time: 5 hr 14 min 21 sec) 
Heartbeat CPU 3 instructions: 1770000001 cycles: 1597632492 heartbeat IPC: 1.09017 cumulative IPC: 1.06621 (Simulation time: 5 hr 14 min 35 sec) 
Heartbeat CPU 2 instructions: 1360000000 cycles: 1601189412 heartbeat IPC: 0.953163 cumulative IPC: 0.707822 (Simulation time: 5 hr 15 min 19 sec) 
Heartbeat CPU 3 instructions: 1780000000 cycles: 1606851767 heartbeat IPC: 1.08468 cumulative IPC: 1.06632 (Simulation time: 5 hr 16 min 26 sec) 
Heartbeat CPU 0 instructions: 1040000000 cycles: 1609534491 heartbeat IPC: 0.761739 cumulative IPC: 0.563104 (Simulation time: 5 hr 16 min 56 sec) 
Heartbeat CPU 2 instructions: 1370000001 cycles: 1612558233 heartbeat IPC: 0.879599 cumulative IPC: 0.709135 (Simulation time: 5 hr 17 min 32 sec) 
Heartbeat CPU 1 instructions: 960000000 cycles: 1616060832 heartbeat IPC: 0.470125 cumulative IPC: 0.495235 (Simulation time: 5 hr 18 min 13 sec) 
Heartbeat CPU 3 instructions: 1790000002 cycles: 1617173722 heartbeat IPC: 0.968809 cumulative IPC: 1.06565 (Simulation time: 5 hr 18 min 25 sec) 
Heartbeat CPU 0 instructions: 1050000001 cycles: 1622649451 heartbeat IPC: 0.762488 cumulative IPC: 0.56485 (Simulation time: 5 hr 19 min 27 sec) 
Heartbeat CPU 2 instructions: 1380000000 cycles: 1623544018 heartbeat IPC: 0.910267 cumulative IPC: 0.71061 (Simulation time: 5 hr 19 min 39 sec) 
Heartbeat CPU 3 instructions: 1800000000 cycles: 1627572928 heartbeat IPC: 0.961612 cumulative IPC: 1.06493 (Simulation time: 5 hr 20 min 26 sec) 
Heartbeat CPU 2 instructions: 1390000000 cycles: 1634559538 heartbeat IPC: 0.90781 cumulative IPC: 0.712049 (Simulation time: 5 hr 21 min 48 sec) 
Heartbeat CPU 0 instructions: 1060000000 cycles: 1635396043 heartbeat IPC: 0.784523 cumulative IPC: 0.566704 (Simulation time: 5 hr 21 min 59 sec) 
Heartbeat CPU 1 instructions: 970000000 cycles: 1636831034 heartbeat IPC: 0.481459 cumulative IPC: 0.495046 (Simulation time: 5 hr 22 min 16 sec) 
Heartbeat CPU 3 instructions: 1810000000 cycles: 1637093332 heartbeat IPC: 1.05038 cumulative IPC: 1.06484 (Simulation time: 5 hr 22 min 18 sec) 
Heartbeat CPU 2 instructions: 1400000000 cycles: 1645286835 heartbeat IPC: 0.932201 cumulative IPC: 0.713602 (Simulation time: 5 hr 23 min 53 sec) 
Heartbeat CPU 3 instructions: 1820000000 cycles: 1646220285 heartbeat IPC: 1.09566 cumulative IPC: 1.06502 (Simulation time: 5 hr 24 min 4 sec) 
Heartbeat CPU 0 instructions: 1070000002 cycles: 1648393470 heartbeat IPC: 0.769383 cumulative IPC: 0.568433 (Simulation time: 5 hr 24 min 30 sec) 
Heartbeat CPU 2 instructions: 1410000001 cycles: 1655606294 heartbeat IPC: 0.969043 cumulative IPC: 0.715325 (Simulation time: 5 hr 25 min 50 sec) 
Heartbeat CPU 3 instructions: 1830000002 cycles: 1655955520 heartbeat IPC: 1.0272 cumulative IPC: 1.06478 (Simulation time: 5 hr 25 min 54 sec) 
Heartbeat CPU 1 instructions: 980000000 cycles: 1657695796 heartbeat IPC: 0.479277 cumulative IPC: 0.494831 (Simulation time: 5 hr 26 min 11 sec) 
Heartbeat CPU 0 instructions: 1080000000 cycles: 1661877586 heartbeat IPC: 0.741613 cumulative IPC: 0.569953 (Simulation time: 5 hr 26 min 58 sec) 
Heartbeat CPU 3 instructions: 1840000000 cycles: 1666407074 heartbeat IPC: 0.956795 cumulative IPC: 1.06405 (Simulation time: 5 hr 27 min 50 sec) 
Heartbeat CPU 2 instructions: 1420000000 cycles: 1666916010 heartbeat IPC: 0.884195 cumulative IPC: 0.716564 (Simulation time: 5 hr 27 min 55 sec) 
Heartbeat CPU 0 instructions: 1090000000 cycles: 1675112522 heartbeat IPC: 0.755576 cumulative IPC: 0.571538 (Simulation time: 5 hr 29 min 26 sec) 
Heartbeat CPU 3 instructions: 1850000003 cycles: 1676697617 heartbeat IPC: 0.971766 cumulative IPC: 1.06344 (Simulation time: 5 hr 29 min 43 sec) 
Heartbeat CPU 1 instructions: 990000000 cycles: 1678376540 heartbeat IPC: 0.483542 cumulative IPC: 0.494681 (Simulation time: 5 hr 30 min 1 sec) 
Heartbeat CPU 2 instructions: 1430000003 cycles: 1678474705 heartbeat IPC: 0.86515 cumulative IPC: 0.717669 (Simulation time: 5 hr 30 min 2 sec) 
Heartbeat CPU 3 instructions: 1860000000 cycles: 1686975756 heartbeat IPC: 0.972938 cumulative IPC: 1.06284 (Simulation time: 5 hr 31 min 37 sec) 
Heartbeat CPU 0 instructions: 1100000000 cycles: 1688287136 heartbeat IPC: 0.759036 cumulative IPC: 0.573118 (Simulation time: 5 hr 31 min 53 sec) 
Heartbeat CPU 2 instructions: 1440000000 cycles: 1688427556 heartbeat IPC: 1.00474 cumulative IPC: 0.719497 (Simulation time: 5 hr 31 min 55 sec) 
Heartbeat CPU 3 instructions: 1870000003 cycles: 1697256660 heartbeat IPC: 0.972677 cumulative IPC: 1.06225 (Simulation time: 5 hr 33 min 33 sec) 
Heartbeat CPU 2 instructions: 1450000001 cycles: 1698491438 heartbeat IPC: 0.993652 cumulative IPC: 0.72125 (Simulation time: 5 hr 33 min 47 sec) 
Heartbeat CPU 1 instructions: 1000000000 cycles: 1699412520 heartbeat IPC: 0.475376 cumulative IPC: 0.494423 (Simulation time: 5 hr 33 min 58 sec) 
[...]
Heartbeat CPU 3 instructions: 2220000000 cycles: 2033082922 heartbeat IPC: 0.993417 cumulative IPC: 1.05872 (Simulation time: 6 hr 29 min 41 sec) 
Heartbeat CPU 0 instructions: 1340000000 cycles: 2040330021 heartbeat IPC: 0.851841 cumulative IPC: 0.593084 (Simulation time: 6 hr 30 min 50 sec) 
Heartbeat CPU 3 instructions: 2230000001 cycles: 2042959080 heartbeat IPC: 1.01254 cumulative IPC: 1.05848 (Simulation time: 6 hr 31 min 16 sec) 
Heartbeat CPU 1 instructions: 1160000000 cycles: 2043205999 heartbeat IPC: 0.461378 cumulative IPC: 0.48922 (Simulation time: 6 hr 31 min 18 sec) 
Heartbeat CPU 0 instructions: 1350000001 cycles: 2051203539 heartbeat IPC: 0.919666 cumulative IPC: 0.594927 (Simulation time: 6 hr 32 min 36 sec) 
Heartbeat CPU 2 instructions: 1680000000 cycles: 2052705675 heartbeat IPC: 0.461315 cumulative IPC: 0.708033 (Simulation time: 6 hr 32 min 52 sec) 
Heartbeat CPU 3 instructions: 2240000000 cycles: 2052778542 heartbeat IPC: 1.01839 cumulative IPC: 1.05828 (Simulation time: 6 hr 32 min 53 sec) 
Heartbeat CPU 0 instructions: 1360000000 cycles: 2062272336 heartbeat IPC: 0.90344 cumulative IPC: 0.59669 (Simulation time: 6 hr 34 min 23 sec) 
Heartbeat CPU 3 instructions: 2250000003 cycles: 2062512895 heartbeat IPC: 1.02729 cumulative IPC: 1.05812 (Simulation time: 6 hr 34 min 26 sec) 
Heartbeat CPU 1 instructions: 1170000001 cycles: 2064393604 heartbeat IPC: 0.471974 cumulative IPC: 0.489032 (Simulation time: 6 hr 34 min 44 sec) 
Heartbeat CPU 3 instructions: 2260000000 cycles: 2072354992 heartbeat IPC: 1.01604 cumulative IPC: 1.05791 (Simulation time: 6 hr 36 min 2 sec) 
Heartbeat CPU 0 instructions: 1370000002 cycles: 2073543182 heartbeat IPC: 0.887245 cumulative IPC: 0.598371 (Simulation time: 6 hr 36 min 13 sec) 
Heartbeat CPU 2 instructions: 1690000000 cycles: 2075891509 heartbeat IPC: 0.431298 cumulative IPC: 0.704744 (Simulation time: 6 hr 36 min 34 sec) 
Heartbeat CPU 3 instructions: 2270000000 cycles: 2082224705 heartbeat IPC: 1.0132 cumulative IPC: 1.05769 (Simulation time: 6 hr 37 min 37 sec) 
Heartbeat CPU 0 instructions: 1380000000 cycles: 2084548397 heartbeat IPC: 0.90866 cumulative IPC: 0.600114 (Simulation time: 6 hr 37 min 59 sec) 
Heartbeat CPU 1 instructions: 1180000000 cycles: 2085671526 heartbeat IPC: 0.469971 cumulative IPC: 0.488825 (Simulation time: 6 hr 38 min 10 sec) 
Heartbeat CPU 3 instructions: 2280000000 cycles: 2092056985 heartbeat IPC: 1.01706 cumulative IPC: 1.05748 (Simulation time: 6 hr 39 min 12 sec) 
Heartbeat CPU 0 instructions: 1390000001 cycles: 2095120249 heartbeat IPC: 0.945908 cumulative IPC: 0.601969 (Simulation time: 6 hr 39 min 43 sec) 
Heartbeat CPU 2 instructions: 1700000000 cycles: 2097317687 heartbeat IPC: 0.466719 cumulative IPC: 0.702158 (Simulation time: 6 hr 40 min 3 sec) 
Heartbeat CPU 3 instructions: 2290000000 cycles: 2102019925 heartbeat IPC: 1.00372 cumulative IPC: 1.05721 (Simulation time: 6 hr 40 min 47 sec) 
Heartbeat CPU 1 instructions: 1190000003 cycles: 2106519659 heartbeat IPC: 0.479659 cumulative IPC: 0.488728 (Simulation time: 6 hr 41 min 31 sec) 
Heartbeat CPU 0 instructions: 1400000000 cycles: 2106529594 heartbeat IPC: 0.876474 cumulative IPC: 0.60355 (Simulation time: 6 hr 41 min 32 sec) 
Heartbeat CPU 3 instructions: 2300000000 cycles: 2111935236 heartbeat IPC: 1.00854 cumulative IPC: 1.05697 (Simulation time: 6 hr 42 min 22 sec) 
Heartbeat CPU 0 instructions: 1410000002 cycles: 2118173598 heartbeat IPC: 0.858811 cumulative IPC: 0.605041 (Simulation time: 6 hr 43 min 22 sec) 
Heartbeat CPU 2 instructions: 1710000000 cycles: 2118655918 heartbeat IPC: 0.468642 cumulative IPC: 0.699659 (Simulation time: 6 hr 43 min 27 sec) 
Heartbeat CPU 3 instructions: 2310000000 cycles: 2121823557 heartbeat IPC: 1.01129 cumulative IPC: 1.05674 (Simulation time: 6 hr 43 min 56 sec) 
Heartbeat CPU 1 instructions: 1200000000 cycles: 2127896606 heartbeat IPC: 0.467793 cumulative IPC: 0.488505 (Simulation time: 6 hr 44 min 56 sec) 
Heartbeat CPU 0 instructions: 1420000000 cycles: 2128233774 heartbeat IPC: 0.994018 cumulative IPC: 0.606995 (Simulation time: 6 hr 45 min 0 sec) 
Heartbeat CPU 3 instructions: 2320000000 cycles: 2131744992 heartbeat IPC: 1.00792 cumulative IPC: 1.0565 (Simulation time: 6 hr 45 min 33 sec) 
Heartbeat CPU 0 instructions: 1430000003 cycles: 2138359450 heartbeat IPC: 0.987589 cumulative IPC: 0.608909 (Simulation time: 6 hr 46 min 37 sec) 
Heartbeat CPU 2 instructions: 1720000000 cycles: 2138510125 heartbeat IPC: 0.503672 cumulative IPC: 0.697726 (Simulation time: 6 hr 46 min 38 sec) 
Heartbeat CPU 3 instructions: 2330000000 cycles: 2141839595 heartbeat IPC: 0.990628 cumulative IPC: 1.05617 (Simulation time: 6 hr 47 min 8 sec) 
Heartbeat CPU 1 instructions: 1210000001 cycles: 2149389615 heartbeat IPC: 0.465268 cumulative IPC: 0.488258 (Simulation time: 6 hr 48 min 15 sec) 
Heartbeat CPU 3 instructions: 2340000000 cycles: 2151991256 heartbeat IPC: 0.98506 cumulative IPC: 1.05582 (Simulation time: 6 hr 48 min 37 sec) 
Heartbeat CPU 0 instructions: 1440000000 cycles: 2157124089 heartbeat IPC: 0.532917 cumulative IPC: 0.608207 (Simulation time: 6 hr 49 min 21 sec) 
Heartbeat CPU 2 instructions: 1730000002 cycles: 2158812780 heartbeat IPC: 0.492547 cumulative IPC: 0.695678 (Simulation time: 6 hr 49 min 38 sec) 
Heartbeat CPU 3 instructions: 2350000000 cycles: 2161964730 heartbeat IPC: 1.00266 cumulative IPC: 1.05556 (Simulation time: 6 hr 50 min 8 sec) 
Heartbeat CPU 1 instructions: 1220000000 cycles: 2171163307 heartbeat IPC: 0.45927 cumulative IPC: 0.48795 (Simulation time: 6 hr 51 min 37 sec) 
Heartbeat CPU 3 instructions: 2360000000 cycles: 2171674109 heartbeat IPC: 1.02993 cumulative IPC: 1.05543 (Simulation time: 6 hr 51 min 42 sec) 
Heartbeat CPU 2 instructions: 1740000000 cycles: 2173197603 heartbeat IPC: 0.695177 cumulative IPC: 0.695674 (Simulation time: 6 hr 51 min 58 sec) 
Finished CPU 1 instructions: 1000000002 cycles: 2049717009 cumulative IPC: 0.487872 (Simulation time: 6 hr 52 min 14 sec) 

CPU 0 Branch Prediction Accuracy: 99.0452% MPKI: 0.879837

CPU 1 Branch Prediction Accuracy: 94.6557% MPKI: 5.41012

CPU 2 Branch Prediction Accuracy: 97.0893% MPKI: 2.51653

CPU 3 Branch Prediction Accuracy: 99.5936% MPKI: 0.178302

ChampSim completed all CPUs

Total Simulation Statistics (not including warmup)

CPU 0 cumulative IPC: 0.607434 instructions: 1245068606 cycles: 2049717009
L1D TOTAL     ACCESS:  347559907  HIT:  338358932  MISS:    9200975
L1D LOAD      ACCESS:  208859530  HIT:  203188772  MISS:    5670758
L1D RFO       ACCESS:  138700377  HIT:  135170160  MISS:    3530217
L1D PREFETCH  ACCESS:          0  HIT:          0  MISS:          0
L1D WRITEBACK ACCESS:          0  HIT:          0  MISS:          0
L1I TOTAL     ACCESS:  396533697  HIT:  395997266  MISS:     536431
L1I LOAD      ACCESS:  396533697  HIT:  395997266  MISS:     536431
L1I RFO       ACCESS:          0  HIT:          0  MISS:          0
L1I PREFETCH  ACCESS:          0  HIT:          0  MISS:          0
L1I WRITEBACK ACCESS:          0  HIT:          0  MISS:          0
L2C TOTAL     ACCESS:   14451419  HIT:   10296782  MISS:    4154637
L2C LOAD      ACCESS:    6207140  HIT:    3370771  MISS:    2836369
L2C RFO       ACCESS:    3525597  HIT:    2210378  MISS:    1315219
L2C PREFETCH  ACCESS:          0  HIT:          0  MISS:          0
L2C WRITEBACK ACCESS:    4718682  HIT:    4715633  MISS:       3049
LLC TOTAL     ACCESS:    6519907  HIT:    3105287  MISS:    3414620
LLC LOAD      ACCESS:    2836351  HIT:     411243  MISS:    2425108
LLC RFO       ACCESS:    1315219  HIT:     369102  MISS:     946117
LLC PREFETCH  ACCESS:          0  HIT:          0  MISS:          0
LLC WRITEBACK ACCESS:    2368337  HIT:    2324942  MISS:      43395

CPU 1 cumulative IPC: 0.487872 instructions: 1000000002 cycles: 2049717009
L1D TOTAL     ACCESS:  345964734  HIT:  340073370  MISS:    5891364
L1D LOAD      ACCESS:  215616680  HIT:  210458443  MISS:    5158237
L1D RFO       ACCESS:  130348054  HIT:  129614927  MISS:     733127
L1D PREFETCH  ACCESS:          0  HIT:          0  MISS:          0
L1D WRITEBACK ACCESS:          0  HIT:          0  MISS:          0
L1I TOTAL     ACCESS:  274147565  HIT:  274147565  MISS:          0
L1I LOAD      ACCESS:  274147565  HIT:  274147565  MISS:          0
L1I RFO       ACCESS:          0  HIT:          0  MISS:          0
L1I PREFETCH  ACCESS:          0  HIT:          0  MISS:          0
L1I WRITEBACK ACCESS:          0  HIT:          0  MISS:          0
L2C TOTAL     ACCESS:    7909161  HIT:    5643927  MISS:    2265234
L2C LOAD      ACCESS:    5157968  HIT:    3260119  MISS:    1897849
L2C RFO       ACCESS:     733125  HIT:     366157  MISS:     366968
L2C PREFETCH  ACCESS:          0  HIT:          0  MISS:          0
L2C WRITEBACK ACCESS:    2018068  HIT:    2017651  MISS:        417
LLC TOTAL     ACCESS:    3700355  HIT:    1709319  MISS:    1991036
LLC LOAD      ACCESS:    1897849  HIT:     305910  MISS:    1591939
LLC RFO       ACCESS:     366968  HIT:      15955  MISS:     351013
LLC PREFETCH  ACCESS:          0  HIT:          0  MISS:          0
LLC WRITEBACK ACCESS:    1435538  HIT:    1387454  MISS:      48084

CPU 2 cumulative IPC: 0.695638 instructions: 1425861295 cycles: 2049717009
L1D TOTAL     ACCESS:  254685383  HIT:  228049829  MISS:   26635554
L1D LOAD      ACCESS:  219399483  HIT:  194274712  MISS:   25124771
L1D RFO       ACCESS:   35285900  HIT:   33775117  MISS:    1510783
L1D PREFETCH  ACCESS:          0  HIT:          0  MISS:          0
L1D WRITEBACK ACCESS:          0  HIT:          0  MISS:          0
L1I TOTAL     ACCESS:  376763059  HIT:  376760752  MISS:       2307
L1I LOAD      ACCESS:  376763059  HIT:  376760752  MISS:       2307
L1I RFO       ACCESS:          0  HIT:          0  MISS:          0
L1I PREFETCH  ACCESS:          0  HIT:          0  MISS:          0
L1I WRITEBACK ACCESS:          0  HIT:          0  MISS:          0
L2C TOTAL     ACCESS:   29054391  HIT:    8731871  MISS:   20322520
L2C LOAD      ACCESS:   25127062  HIT:    6053024  MISS:   19074038
L2C RFO       ACCESS:    1510712  HIT:     266064  MISS:    1244648
L2C PREFETCH  ACCESS:          0  HIT:          0  MISS:          0
L2C WRITEBACK ACCESS:    2416617  HIT:    2412783  MISS:       3834
LLC TOTAL     ACCESS:   22306633  HIT:   16717733  MISS:    5588900
LLC LOAD      ACCESS:   19074006  HIT:   13717428  MISS:    5356578
LLC RFO       ACCESS:    1244640  HIT:    1012426  MISS:     232214
LLC PREFETCH  ACCESS:          0  HIT:          0  MISS:          0
LLC WRITEBACK ACCESS:    1987987  HIT:    1987879  MISS:        108

CPU 3 cumulative IPC: 1.05543 instructions: 2163340174 cycles: 2049717009
L1D TOTAL     ACCESS:  827337580  HIT:  817098532  MISS:   10239048
L1D LOAD      ACCESS:  651952981  HIT:  647473619  MISS:    4479362
L1D RFO       ACCESS:  175384599  HIT:  169624913  MISS:    5759686
L1D PREFETCH  ACCESS:          0  HIT:          0  MISS:          0
L1D WRITEBACK ACCESS:          0  HIT:          0  MISS:          0
L1I TOTAL     ACCESS:  586532971  HIT:  586532969  MISS:          2
L1I LOAD      ACCESS:  586532971  HIT:  586532969  MISS:          2
L1I RFO       ACCESS:          0  HIT:          0  MISS:          0
L1I PREFETCH  ACCESS:          0  HIT:          0  MISS:          0
L1I WRITEBACK ACCESS:          0  HIT:          0  MISS:          0
L2C TOTAL     ACCESS:   16012087  HIT:    9589616  MISS:    6422471
L2C LOAD      ACCESS:    4474617  HIT:    3804681  MISS:     669936
L2C RFO       ACCESS:    5759684  HIT:       7746  MISS:    5751938
L2C PREFETCH  ACCESS:          0  HIT:          0  MISS:          0
L2C WRITEBACK ACCESS:    5777786  HIT:    5777189  MISS:        597
LLC TOTAL     ACCESS:   12186907  HIT:    9788348  MISS:    2398559
LLC LOAD      ACCESS:     669934  HIT:     607526  MISS:      62408
LLC RFO       ACCESS:    5751930  HIT:    3416075  MISS:    2335855
LLC PREFETCH  ACCESS:          0  HIT:          0  MISS:          0
LLC WRITEBACK ACCESS:    5765043  HIT:    5764747  MISS:        296

Region of Interest Statistics

CPU 0 cumulative IPC: 0.588279 instructions: 1000000000 cycles: 1699874192
L1D TOTAL     ACCESS:  289978936  HIT:  283024564  MISS:    6954372
L1D LOAD      ACCESS:  168103311  HIT:  164332683  MISS:    3770628
L1D RFO       ACCESS:  121875625  HIT:  118691881  MISS:    3183744
L1D PREFETCH  ACCESS:          0  HIT:          0  MISS:          0
L1D WRITEBACK ACCESS:          0  HIT:          0  MISS:          0
L1D PREFETCH  REQUESTED:          0  ISSUED:          0  USEFUL:          0  USELESS:          0
L1I TOTAL     ACCESS:  337994193  HIT:  337470135  MISS:     524058
L1I LOAD      ACCESS:  337994193  HIT:  337470135  MISS:     524058
L1I RFO       ACCESS:          0  HIT:          0  MISS:          0
L1I PREFETCH  ACCESS:          0  HIT:          0  MISS:          0
L1I WRITEBACK ACCESS:          0  HIT:          0  MISS:          0
L1I PREFETCH  REQUESTED:          0  ISSUED:          0  USEFUL:          0  USELESS:          0
L2C TOTAL     ACCESS:   11228503  HIT:    8515578  MISS:    2712925
L2C LOAD      ACCESS:    4294641  HIT:    2682491  MISS:    1612150
L2C RFO       ACCESS:    3179157  HIT:    2079418  MISS:    1099739
L2C PREFETCH  ACCESS:          0  HIT:          0  MISS:          0
L2C WRITEBACK ACCESS:    3754705  HIT:    3753669  MISS:       1036
L2C PREFETCH  REQUESTED:          0  ISSUED:          0  USEFUL:          0  USELESS:          0
LLC TOTAL     ACCESS:    4290300  HIT:    2133145  MISS:    2157155
LLC LOAD      ACCESS:    1612131  HIT:     285210  MISS:    1326921
LLC RFO       ACCESS:    1099739  HIT:     310084  MISS:     789655
LLC PREFETCH  ACCESS:          0  HIT:          0  MISS:          0
LLC WRITEBACK ACCESS:    1578430  HIT:    1537851  MISS:      40579
LLC PREFETCH  REQUESTED:          0  ISSUED:          0  USEFUL:          0  USELESS:          0
Major fault: 0 Minor fault: 28528

CPU 1 cumulative IPC: 0.487872 instructions: 1000000002 cycles: 2049717009
L1D TOTAL     ACCESS:  345964734  HIT:  340073370  MISS:    5891364
L1D LOAD      ACCESS:  215616680  HIT:  210458443  MISS:    5158237
L1D RFO       ACCESS:  130348054  HIT:  129614927  MISS:     733127
L1D PREFETCH  ACCESS:          0  HIT:          0  MISS:          0
L1D WRITEBACK ACCESS:          0  HIT:          0  MISS:          0
L1D PREFETCH  REQUESTED:          0  ISSUED:          0  USEFUL:          0  USELESS:          0
L1I TOTAL     ACCESS:  274147565  HIT:  274147565  MISS:          0
L1I LOAD      ACCESS:  274147565  HIT:  274147565  MISS:          0
L1I RFO       ACCESS:          0  HIT:          0  MISS:          0
L1I PREFETCH  ACCESS:          0  HIT:          0  MISS:          0
L1I WRITEBACK ACCESS:          0  HIT:          0  MISS:          0
L1I PREFETCH  REQUESTED:          0  ISSUED:          0  USEFUL:          0  USELESS:          0
L2C TOTAL     ACCESS:    7909161  HIT:    5643927  MISS:    2265234
L2C LOAD      ACCESS:    5157968  HIT:    3260119  MISS:    1897849
L2C RFO       ACCESS:     733125  HIT:     366157  MISS:     366968
L2C PREFETCH  ACCESS:          0  HIT:          0  MISS:          0
L2C WRITEBACK ACCESS:    2018068  HIT:    2017651  MISS:        417
L2C PREFETCH  REQUESTED:          0  ISSUED:          0  USEFUL:          0  USELESS:          0
LLC TOTAL     ACCESS:    3700355  HIT:    1709319  MISS:    1991036
LLC LOAD      ACCESS:    1897849  HIT:     305910  MISS:    1591939
LLC RFO       ACCESS:     366968  HIT:      15955  MISS:     351013
LLC PREFETCH  ACCESS:          0  HIT:          0  MISS:          0
LLC WRITEBACK ACCESS:    1435538  HIT:    1387454  MISS:      48084
LLC PREFETCH  REQUESTED:          0  ISSUED:          0  USEFUL:          0  USELESS:          0
Major fault: 0 Minor fault: 6414

CPU 2 cumulative IPC: 0.7002 instructions: 1000000001 cycles: 1428162434
L1D TOTAL     ACCESS:  179336252  HIT:  160324353  MISS:   19011899
L1D LOAD      ACCESS:  154077070  HIT:  136111065  MISS:   17966005
L1D RFO       ACCESS:   25259182  HIT:   24213288  MISS:    1045894
L1D PREFETCH  ACCESS:          0  HIT:          0  MISS:          0
L1D WRITEBACK ACCESS:          0  HIT:          0  MISS:          0
L1D PREFETCH  REQUESTED:          0  ISSUED:          0  USEFUL:          0  USELESS:          0
L1I TOTAL     ACCESS:  263359221  HIT:  263357481  MISS:       1740
L1I LOAD      ACCESS:  263359221  HIT:  263357481  MISS:       1740
L1I RFO       ACCESS:          0  HIT:          0  MISS:          0
L1I PREFETCH  ACCESS:          0  HIT:          0  MISS:          0
L1I WRITEBACK ACCESS:          0  HIT:          0  MISS:          0
L1I PREFETCH  REQUESTED:          0  ISSUED:          0  USEFUL:          0  USELESS:          0
L2C TOTAL     ACCESS:   20734685  HIT:    6324533  MISS:   14410152
L2C LOAD      ACCESS:   17967736  HIT:    4412632  MISS:   13555104
L2C RFO       ACCESS:    1045837  HIT:     193418  MISS:     852419
L2C PREFETCH  ACCESS:          0  HIT:          0  MISS:          0
L2C WRITEBACK ACCESS:    1721112  HIT:    1718483  MISS:       2629
L2C PREFETCH  REQUESTED:          0  ISSUED:          0  USEFUL:          0  USELESS:          0
LLC TOTAL     ACCESS:   15814428  HIT:   12116065  MISS:    3698363
LLC LOAD      ACCESS:   13555083  HIT:   10006616  MISS:    3548467
LLC RFO       ACCESS:     852413  HIT:     702616  MISS:     149797
LLC PREFETCH  ACCESS:          0  HIT:          0  MISS:          0
LLC WRITEBACK ACCESS:    1406932  HIT:    1406833  MISS:         99
LLC PREFETCH  REQUESTED:          0  ISSUED:          0  USEFUL:          0  USELESS:          0
Major fault: 0 Minor fault: 4668

CPU 3 cumulative IPC: 1.07752 instructions: 1000000000 cycles: 928055530
L1D TOTAL     ACCESS:  383226209  HIT:  378492678  MISS:    4733531
L1D LOAD      ACCESS:  301517355  HIT:  299446286  MISS:    2071069
L1D RFO       ACCESS:   81708854  HIT:   79046392  MISS:    2662462
L1D PREFETCH  ACCESS:          0  HIT:          0  MISS:          0
L1D WRITEBACK ACCESS:          0  HIT:          0  MISS:          0
L1D PREFETCH  REQUESTED:          0  ISSUED:          0  USEFUL:          0  USELESS:          0
L1I TOTAL     ACCESS:  271079183  HIT:  271079183  MISS:          0
L1I LOAD      ACCESS:  271079183  HIT:  271079183  MISS:          0
L1I RFO       ACCESS:          0  HIT:          0  MISS:          0
L1I PREFETCH  ACCESS:          0  HIT:          0  MISS:          0
L1I WRITEBACK ACCESS:          0  HIT:          0  MISS:          0
L1I PREFETCH  REQUESTED:          0  ISSUED:          0  USEFUL:          0  USELESS:          0
L2C TOTAL     ACCESS:    7402067  HIT:    4429064  MISS:    2973003
L2C LOAD      ACCESS:    2068791  HIT:    1755115  MISS:     313676
L2C RFO       ACCESS:    2662461  HIT:       3414  MISS:    2659047
L2C PREFETCH  ACCESS:          0  HIT:          0  MISS:          0
L2C WRITEBACK ACCESS:    2670815  HIT:    2670535  MISS:        280
L2C PREFETCH  REQUESTED:          0  ISSUED:          0  USEFUL:          0  USELESS:          0
LLC TOTAL     ACCESS:    5637778  HIT:    4809624  MISS:     828154
LLC LOAD      ACCESS:     313675  HIT:     291053  MISS:      22622
LLC RFO       ACCESS:    2659047  HIT:    1853643  MISS:     805404
LLC PREFETCH  ACCESS:          0  HIT:          0  MISS:          0
LLC WRITEBACK ACCESS:    2665056  HIT:    2664928  MISS:        128
LLC PREFETCH  REQUESTED:          0  ISSUED:          0  USEFUL:          0  USELESS:          0
Major fault: 0 Minor fault: 1379

DRAM Statistics
 CHANNEL 0
 RQ ROW_BUFFER_HIT:    2796219  ROW_BUFFER_MISS:    3861118
 DBUS_CONGESTED:    6890831
 WQ ROW_BUFFER_HIT:     389056  ROW_BUFFER_MISS:    2597469  FULL:          0

 CHANNEL 1
 RQ ROW_BUFFER_HIT:    2778639  ROW_BUFFER_MISS:    3858936
 DBUS_CONGESTED:    6890831
 WQ ROW_BUFFER_HIT:     390199  ROW_BUFFER_MISS:    2595797  FULL:          0

 AVG_CONGESTED_CYCLE: 13
