Initialize SIGNATURE TABLE
ST_SET: 1
ST_WAY: 256
ST_TAG_BIT: 16
ST_TAG_MASK: ffff

Initialize PATTERN TABLE
PT_SET: 512
PT_WAY: 4
SIG_DELTA_BIT: 7
C_SIG_BIT: 4
C_DELTA_BIT: 4

Initialize PREFETCH FILTER
FILTER_SET: 1024

Initialize PERCEPTRON
PERC_ENTRIES: 4096
PERC_FEATURES: 9

*** ChampSim Multicore Out-of-Order Simulator ***

Warmup Instructions: 200000000
Simulation Instructions: 1000000000
Number of CPUs: 1
LLC sets: 2048
LLC ways: 16
Off-chip DRAM Size: 4096 MB Channels: 1 Width: 64-bit Data Rate: 400 MT/s

CPU 0 runs /scratch/user/djimenez/champsim-traces/speccpu2017/xz/623.xalancbmk_s/623.xalancbmk_s-10B.champsimtrace.xz
Heartbeat CPU 0 instructions: 10000001 cycles: 4852380 heartbeat IPC: 2.06084 cumulative IPC: 2.06084 (Simulation time: 0 hr 0 min 20 sec) 
Heartbeat CPU 0 instructions: 20000000 cycles: 9636062 heartbeat IPC: 2.09044 cumulative IPC: 2.07554 (Simulation time: 0 hr 0 min 41 sec) 
Heartbeat CPU 0 instructions: 30000000 cycles: 14527263 heartbeat IPC: 2.04449 cumulative IPC: 2.06508 (Simulation time: 0 hr 1 min 2 sec) 
Heartbeat CPU 0 instructions: 40000000 cycles: 19436763 heartbeat IPC: 2.03687 cumulative IPC: 2.05796 (Simulation time: 0 hr 1 min 22 sec) 
Heartbeat CPU 0 instructions: 50000001 cycles: 24333712 heartbeat IPC: 2.04209 cumulative IPC: 2.05476 (Simulation time: 0 hr 1 min 44 sec) 
Heartbeat CPU 0 instructions: 60000000 cycles: 29132557 heartbeat IPC: 2.08383 cumulative IPC: 2.05955 (Simulation time: 0 hr 2 min 4 sec) 
Heartbeat CPU 0 instructions: 70000000 cycles: 34125550 heartbeat IPC: 2.00281 cumulative IPC: 2.05125 (Simulation time: 0 hr 2 min 25 sec) 
Heartbeat CPU 0 instructions: 80000000 cycles: 38910388 heartbeat IPC: 2.08993 cumulative IPC: 2.05601 (Simulation time: 0 hr 2 min 46 sec) 
Heartbeat CPU 0 instructions: 90000001 cycles: 43853213 heartbeat IPC: 2.02313 cumulative IPC: 2.0523 (Simulation time: 0 hr 3 min 6 sec) 
Heartbeat CPU 0 instructions: 100000000 cycles: 48793828 heartbeat IPC: 2.02404 cumulative IPC: 2.04944 (Simulation time: 0 hr 3 min 27 sec) 
Heartbeat CPU 0 instructions: 110000000 cycles: 53828194 heartbeat IPC: 1.98635 cumulative IPC: 2.04354 (Simulation time: 0 hr 3 min 47 sec) 
Heartbeat CPU 0 instructions: 120000000 cycles: 58621641 heartbeat IPC: 2.08618 cumulative IPC: 2.04703 (Simulation time: 0 hr 4 min 7 sec) 
Heartbeat CPU 0 instructions: 130000003 cycles: 63467873 heartbeat IPC: 2.06346 cumulative IPC: 2.04828 (Simulation time: 0 hr 4 min 28 sec) 
Heartbeat CPU 0 instructions: 140000000 cycles: 68469482 heartbeat IPC: 1.99936 cumulative IPC: 2.04471 (Simulation time: 0 hr 4 min 49 sec) 
Heartbeat CPU 0 instructions: 150000000 cycles: 73403326 heartbeat IPC: 2.02682 cumulative IPC: 2.0435 (Simulation time: 0 hr 5 min 9 sec) 
Heartbeat CPU 0 instructions: 160000000 cycles: 78278130 heartbeat IPC: 2.05136 cumulative IPC: 2.04399 (Simulation time: 0 hr 5 min 30 sec) 
Heartbeat CPU 0 instructions: 170000000 cycles: 83037236 heartbeat IPC: 2.10123 cumulative IPC: 2.04727 (Simulation time: 0 hr 5 min 51 sec) 
Heartbeat CPU 0 instructions: 180000000 cycles: 87915950 heartbeat IPC: 2.04972 cumulative IPC: 2.04741 (Simulation time: 0 hr 6 min 11 sec) 
Heartbeat CPU 0 instructions: 190000001 cycles: 92758842 heartbeat IPC: 2.06488 cumulative IPC: 2.04832 (Simulation time: 0 hr 6 min 31 sec) 
Heartbeat CPU 0 instructions: 200000000 cycles: 97702719 heartbeat IPC: 2.0227 cumulative IPC: 2.04703 (Simulation time: 0 hr 6 min 51 sec) 

Warmup complete CPU 0 instructions: 200000001 cycles: 97702720 (Simulation time: 0 hr 6 min 51 sec) 

Heartbeat CPU 0 instructions: 210000001 cycles: 142771081 heartbeat IPC: 0.221885 cumulative IPC: 0.221885 (Simulation time: 0 hr 7 min 38 sec) 
Heartbeat CPU 0 instructions: 220000000 cycles: 186866276 heartbeat IPC: 0.226782 cumulative IPC: 0.224307 (Simulation time: 0 hr 8 min 23 sec) 
Heartbeat CPU 0 instructions: 230000001 cycles: 226410152 heartbeat IPC: 0.252884 cumulative IPC: 0.233087 (Simulation time: 0 hr 9 min 6 sec) 
Heartbeat CPU 0 instructions: 240000000 cycles: 272829805 heartbeat IPC: 0.215426 cumulative IPC: 0.228406 (Simulation time: 0 hr 9 min 53 sec) 
Heartbeat CPU 0 instructions: 250000000 cycles: 318098598 heartbeat IPC: 0.220903 cumulative IPC: 0.226864 (Simulation time: 0 hr 10 min 40 sec) 
Heartbeat CPU 0 instructions: 260000000 cycles: 359331240 heartbeat IPC: 0.242526 cumulative IPC: 0.229333 (Simulation time: 0 hr 11 min 23 sec) 
Heartbeat CPU 0 instructions: 270000000 cycles: 404052103 heartbeat IPC: 0.223609 cumulative IPC: 0.228497 (Simulation time: 0 hr 12 min 9 sec) 
Heartbeat CPU 0 instructions: 280000000 cycles: 448806465 heartbeat IPC: 0.223442 cumulative IPC: 0.227853 (Simulation time: 0 hr 12 min 55 sec) 
Heartbeat CPU 0 instructions: 290000002 cycles: 490775180 heartbeat IPC: 0.238273 cumulative IPC: 0.228965 (Simulation time: 0 hr 13 min 40 sec) 
Heartbeat CPU 0 instructions: 300000000 cycles: 532941359 heartbeat IPC: 0.237157 cumulative IPC: 0.229759 (Simulation time: 0 hr 14 min 24 sec) 
Heartbeat CPU 0 instructions: 310000003 cycles: 577402852 heartbeat IPC: 0.224914 cumulative IPC: 0.22931 (Simulation time: 0 hr 15 min 10 sec) 
Heartbeat CPU 0 instructions: 320000000 cycles: 618460760 heartbeat IPC: 0.243558 cumulative IPC: 0.230433 (Simulation time: 0 hr 15 min 54 sec) 
Heartbeat CPU 0 instructions: 330000001 cycles: 663528474 heartbeat IPC: 0.221888 cumulative IPC: 0.229753 (Simulation time: 0 hr 16 min 40 sec) 
Heartbeat CPU 0 instructions: 340000000 cycles: 703922791 heartbeat IPC: 0.24756 cumulative IPC: 0.230939 (Simulation time: 0 hr 17 min 24 sec) 
Heartbeat CPU 0 instructions: 350000002 cycles: 749455770 heartbeat IPC: 0.219621 cumulative IPC: 0.230149 (Simulation time: 0 hr 18 min 10 sec) 
Heartbeat CPU 0 instructions: 360000000 cycles: 787990884 heartbeat IPC: 0.259504 cumulative IPC: 0.231787 (Simulation time: 0 hr 18 min 53 sec) 
Heartbeat CPU 0 instructions: 370000002 cycles: 831211684 heartbeat IPC: 0.23137 cumulative IPC: 0.231763 (Simulation time: 0 hr 19 min 38 sec) 
Heartbeat CPU 0 instructions: 380000000 cycles: 873952086 heartbeat IPC: 0.233971 cumulative IPC: 0.231884 (Simulation time: 0 hr 20 min 23 sec) 
Heartbeat CPU 0 instructions: 390000000 cycles: 920178542 heartbeat IPC: 0.216326 cumulative IPC: 0.23101 (Simulation time: 0 hr 21 min 10 sec) 
Heartbeat CPU 0 instructions: 400000000 cycles: 966270018 heartbeat IPC: 0.21696 cumulative IPC: 0.230264 (Simulation time: 0 hr 21 min 56 sec) 
Heartbeat CPU 0 instructions: 410000001 cycles: 1009692764 heartbeat IPC: 0.230294 cumulative IPC: 0.230266 (Simulation time: 0 hr 22 min 42 sec) 
Heartbeat CPU 0 instructions: 420000000 cycles: 1055049932 heartbeat IPC: 0.220472 cumulative IPC: 0.229802 (Simulation time: 0 hr 23 min 28 sec) 
Heartbeat CPU 0 instructions: 430000002 cycles: 1101029040 heartbeat IPC: 0.21749 cumulative IPC: 0.229237 (Simulation time: 0 hr 24 min 15 sec) 
Heartbeat CPU 0 instructions: 440000000 cycles: 1142018135 heartbeat IPC: 0.243967 cumulative IPC: 0.229816 (Simulation time: 0 hr 24 min 59 sec) 
Heartbeat CPU 0 instructions: 450000002 cycles: 1190936672 heartbeat IPC: 0.204422 cumulative IPC: 0.228679 (Simulation time: 0 hr 25 min 47 sec) 
Heartbeat CPU 0 instructions: 460000000 cycles: 1235639513 heartbeat IPC: 0.223699 cumulative IPC: 0.228484 (Simulation time: 0 hr 26 min 33 sec) 
Heartbeat CPU 0 instructions: 470000000 cycles: 1281011458 heartbeat IPC: 0.220401 cumulative IPC: 0.228174 (Simulation time: 0 hr 27 min 20 sec) 
Heartbeat CPU 0 instructions: 480000000 cycles: 1322759913 heartbeat IPC: 0.23953 cumulative IPC: 0.228561 (Simulation time: 0 hr 28 min 4 sec) 
Heartbeat CPU 0 instructions: 490000000 cycles: 1371376719 heartbeat IPC: 0.20569 cumulative IPC: 0.227688 (Simulation time: 0 hr 28 min 52 sec) 
Heartbeat CPU 0 instructions: 500000000 cycles: 1418414085 heartbeat IPC: 0.212597 cumulative IPC: 0.22715 (Simulation time: 0 hr 29 min 39 sec) 
Heartbeat CPU 0 instructions: 510000000 cycles: 1462624616 heartbeat IPC: 0.22619 cumulative IPC: 0.227119 (Simulation time: 0 hr 30 min 25 sec) 
Heartbeat CPU 0 instructions: 520000000 cycles: 1512168329 heartbeat IPC: 0.201842 cumulative IPC: 0.226234 (Simulation time: 0 hr 31 min 14 sec) 
Heartbeat CPU 0 instructions: 530000003 cycles: 1558881093 heartbeat IPC: 0.214074 cumulative IPC: 0.225845 (Simulation time: 0 hr 32 min 1 sec) 
Heartbeat CPU 0 instructions: 540000000 cycles: 1600728625 heartbeat IPC: 0.238963 cumulative IPC: 0.22621 (Simulation time: 0 hr 32 min 45 sec) 
Heartbeat CPU 0 instructions: 550000002 cycles: 1643052116 heartbeat IPC: 0.236275 cumulative IPC: 0.226486 (Simulation time: 0 hr 33 min 30 sec) 
Heartbeat CPU 0 instructions: 560000000 cycles: 1683756835 heartbeat IPC: 0.245672 cumulative IPC: 0.226978 (Simulation time: 0 hr 34 min 13 sec) 
Heartbeat CPU 0 instructions: 570000002 cycles: 1728464750 heartbeat IPC: 0.223674 cumulative IPC: 0.226888 (Simulation time: 0 hr 34 min 59 sec) 
Heartbeat CPU 0 instructions: 580000000 cycles: 1771710866 heartbeat IPC: 0.231235 cumulative IPC: 0.227 (Simulation time: 0 hr 35 min 44 sec) 
Heartbeat CPU 0 instructions: 590000002 cycles: 1815061470 heartbeat IPC: 0.230677 cumulative IPC: 0.227093 (Simulation time: 0 hr 36 min 30 sec) 
Heartbeat CPU 0 instructions: 600000000 cycles: 1858105369 heartbeat IPC: 0.232321 cumulative IPC: 0.227221 (Simulation time: 0 hr 37 min 15 sec) 
Heartbeat CPU 0 instructions: 610000002 cycles: 1902289819 heartbeat IPC: 0.226324 cumulative IPC: 0.227199 (Simulation time: 0 hr 38 min 0 sec) 
Heartbeat CPU 0 instructions: 620000000 cycles: 1947203401 heartbeat IPC: 0.22265 cumulative IPC: 0.227088 (Simulation time: 0 hr 38 min 46 sec) 
Heartbeat CPU 0 instructions: 630000000 cycles: 1988306645 heartbeat IPC: 0.24329 cumulative IPC: 0.227441 (Simulation time: 0 hr 39 min 30 sec) 
Heartbeat CPU 0 instructions: 640000000 cycles: 2032682506 heartbeat IPC: 0.225348 cumulative IPC: 0.227393 (Simulation time: 0 hr 40 min 16 sec) 
Heartbeat CPU 0 instructions: 650000001 cycles: 2080896717 heartbeat IPC: 0.207408 cumulative IPC: 0.226907 (Simulation time: 0 hr 41 min 4 sec) 
Heartbeat CPU 0 instructions: 660000000 cycles: 2117416009 heartbeat IPC: 0.273828 cumulative IPC: 0.227755 (Simulation time: 0 hr 41 min 45 sec) 
Heartbeat CPU 0 instructions: 670000003 cycles: 2161135928 heartbeat IPC: 0.228729 cumulative IPC: 0.227776 (Simulation time: 0 hr 42 min 31 sec) 
Heartbeat CPU 0 instructions: 680000000 cycles: 2206719059 heartbeat IPC: 0.219379 cumulative IPC: 0.227594 (Simulation time: 0 hr 43 min 18 sec) 
Heartbeat CPU 0 instructions: 690000000 cycles: 2251654921 heartbeat IPC: 0.222539 cumulative IPC: 0.227489 (Simulation time: 0 hr 44 min 4 sec) 
Heartbeat CPU 0 instructions: 700000000 cycles: 2294696649 heartbeat IPC: 0.232333 cumulative IPC: 0.227584 (Simulation time: 0 hr 44 min 49 sec) 
Heartbeat CPU 0 instructions: 710000001 cycles: 2334601602 heartbeat IPC: 0.250595 cumulative IPC: 0.227994 (Simulation time: 0 hr 45 min 32 sec) 
Heartbeat CPU 0 instructions: 720000000 cycles: 2372377032 heartbeat IPC: 0.264722 cumulative IPC: 0.228604 (Simulation time: 0 hr 46 min 14 sec) 
Heartbeat CPU 0 instructions: 730000002 cycles: 2416990524 heartbeat IPC: 0.224147 cumulative IPC: 0.228518 (Simulation time: 0 hr 47 min 0 sec) 
Heartbeat CPU 0 instructions: 740000000 cycles: 2458180907 heartbeat IPC: 0.242775 cumulative IPC: 0.228767 (Simulation time: 0 hr 47 min 44 sec) 
Heartbeat CPU 0 instructions: 750000001 cycles: 2502638747 heartbeat IPC: 0.224932 cumulative IPC: 0.228696 (Simulation time: 0 hr 48 min 30 sec) 
Heartbeat CPU 0 instructions: 760000000 cycles: 2547874782 heartbeat IPC: 0.221063 cumulative IPC: 0.228555 (Simulation time: 0 hr 49 min 16 sec) 
Heartbeat CPU 0 instructions: 770000002 cycles: 2594410270 heartbeat IPC: 0.21489 cumulative IPC: 0.228301 (Simulation time: 0 hr 50 min 3 sec) 
Heartbeat CPU 0 instructions: 780000000 cycles: 2636253986 heartbeat IPC: 0.238984 cumulative IPC: 0.228477 (Simulation time: 0 hr 50 min 47 sec) 
Heartbeat CPU 0 instructions: 790000000 cycles: 2679554302 heartbeat IPC: 0.230945 cumulative IPC: 0.228518 (Simulation time: 0 hr 51 min 33 sec) 
Heartbeat CPU 0 instructions: 800000000 cycles: 2718481958 heartbeat IPC: 0.256887 cumulative IPC: 0.22894 (Simulation time: 0 hr 52 min 15 sec) 
Heartbeat CPU 0 instructions: 810000000 cycles: 2759465657 heartbeat IPC: 0.243999 cumulative IPC: 0.229171 (Simulation time: 0 hr 52 min 59 sec) 
Heartbeat CPU 0 instructions: 820000000 cycles: 2802197905 heartbeat IPC: 0.234015 cumulative IPC: 0.229248 (Simulation time: 0 hr 53 min 44 sec) 
Heartbeat CPU 0 instructions: 830000000 cycles: 2851647370 heartbeat IPC: 0.202227 cumulative IPC: 0.228763 (Simulation time: 0 hr 54 min 33 sec) 
Heartbeat CPU 0 instructions: 840000000 cycles: 2893272223 heartbeat IPC: 0.240241 cumulative IPC: 0.228934 (Simulation time: 0 hr 55 min 17 sec) 
Heartbeat CPU 0 instructions: 850000000 cycles: 2939589030 heartbeat IPC: 0.215904 cumulative IPC: 0.228721 (Simulation time: 0 hr 56 min 4 sec) 
Heartbeat CPU 0 instructions: 860000000 cycles: 2983252258 heartbeat IPC: 0.229026 cumulative IPC: 0.228726 (Simulation time: 0 hr 56 min 49 sec) 
Heartbeat CPU 0 instructions: 870000002 cycles: 3028575280 heartbeat IPC: 0.220638 cumulative IPC: 0.228601 (Simulation time: 0 hr 57 min 36 sec) 
Heartbeat CPU 0 instructions: 880000000 cycles: 3070067335 heartbeat IPC: 0.24101 cumulative IPC: 0.228774 (Simulation time: 0 hr 58 min 20 sec) 
Heartbeat CPU 0 instructions: 890000000 cycles: 3111972989 heartbeat IPC: 0.238631 cumulative IPC: 0.228911 (Simulation time: 0 hr 59 min 4 sec) 
Heartbeat CPU 0 instructions: 900000000 cycles: 3158709003 heartbeat IPC: 0.213968 cumulative IPC: 0.228683 (Simulation time: 0 hr 59 min 51 sec) 
Heartbeat CPU 0 instructions: 910000001 cycles: 3201194694 heartbeat IPC: 0.235373 cumulative IPC: 0.228775 (Simulation time: 1 hr 0 min 36 sec) 
Heartbeat CPU 0 instructions: 920000000 cycles: 3245231753 heartbeat IPC: 0.227081 cumulative IPC: 0.228751 (Simulation time: 1 hr 1 min 22 sec) 
Heartbeat CPU 0 instructions: 930000001 cycles: 3290460643 heartbeat IPC: 0.221098 cumulative IPC: 0.228642 (Simulation time: 1 hr 2 min 8 sec) 
Heartbeat CPU 0 instructions: 940000000 cycles: 3332390255 heartbeat IPC: 0.238495 cumulative IPC: 0.22877 (Simulation time: 1 hr 2 min 52 sec) 
Heartbeat CPU 0 instructions: 950000001 cycles: 3381678758 heartbeat IPC: 0.202887 cumulative IPC: 0.228382 (Simulation time: 1 hr 3 min 41 sec) 
Heartbeat CPU 0 instructions: 960000000 cycles: 3428158255 heartbeat IPC: 0.215149 cumulative IPC: 0.228197 (Simulation time: 1 hr 4 min 28 sec) 
Heartbeat CPU 0 instructions: 970000000 cycles: 3473165942 heartbeat IPC: 0.222184 cumulative IPC: 0.228117 (Simulation time: 1 hr 5 min 14 sec) 
Heartbeat CPU 0 instructions: 980000000 cycles: 3520527155 heartbeat IPC: 0.211143 cumulative IPC: 0.227882 (Simulation time: 1 hr 6 min 2 sec) 
Heartbeat CPU 0 instructions: 990000000 cycles: 3562970614 heartbeat IPC: 0.235608 cumulative IPC: 0.227977 (Simulation time: 1 hr 6 min 46 sec) 
Heartbeat CPU 0 instructions: 1000000000 cycles: 3610565322 heartbeat IPC: 0.210107 cumulative IPC: 0.227734 (Simulation time: 1 hr 7 min 34 sec) 
Heartbeat CPU 0 instructions: 1010000000 cycles: 3656618635 heartbeat IPC: 0.21714 cumulative IPC: 0.227597 (Simulation time: 1 hr 8 min 21 sec) 
Heartbeat CPU 0 instructions: 1020000000 cycles: 3702944673 heartbeat IPC: 0.215861 cumulative IPC: 0.227447 (Simulation time: 1 hr 9 min 8 sec) 
Heartbeat CPU 0 instructions: 1030000003 cycles: 3746305179 heartbeat IPC: 0.230625 cumulative IPC: 0.227484 (Simulation time: 1 hr 9 min 53 sec) 
Heartbeat CPU 0 instructions: 1040000000 cycles: 3787115146 heartbeat IPC: 0.245038 cumulative IPC: 0.227679 (Simulation time: 1 hr 10 min 37 sec) 
Heartbeat CPU 0 instructions: 1050000000 cycles: 3831009874 heartbeat IPC: 0.227818 cumulative IPC: 0.22768 (Simulation time: 1 hr 11 min 22 sec) 
Heartbeat CPU 0 instructions: 1060000000 cycles: 3875697223 heartbeat IPC: 0.223777 cumulative IPC: 0.227634 (Simulation time: 1 hr 12 min 8 sec) 
Heartbeat CPU 0 instructions: 1070000002 cycles: 3923979421 heartbeat IPC: 0.207116 cumulative IPC: 0.227375 (Simulation time: 1 hr 12 min 56 sec) 
Heartbeat CPU 0 instructions: 1080000000 cycles: 3970821539 heartbeat IPC: 0.213483 cumulative IPC: 0.227207 (Simulation time: 1 hr 13 min 44 sec) 
Heartbeat CPU 0 instructions: 1090000001 cycles: 4012990825 heartbeat IPC: 0.237139 cumulative IPC: 0.227314 (Simulation time: 1 hr 14 min 28 sec) 
Heartbeat CPU 0 instructions: 1100000000 cycles: 4056636072 heartbeat IPC: 0.22912 cumulative IPC: 0.227334 (Simulation time: 1 hr 15 min 13 sec) 
Heartbeat CPU 0 instructions: 1110000000 cycles: 4097483654 heartbeat IPC: 0.244813 cumulative IPC: 0.227512 (Simulation time: 1 hr 15 min 57 sec) 
Heartbeat CPU 0 instructions: 1120000000 cycles: 4141543248 heartbeat IPC: 0.226965 cumulative IPC: 0.227507 (Simulation time: 1 hr 16 min 43 sec) 
Heartbeat CPU 0 instructions: 1130000002 cycles: 4183128230 heartbeat IPC: 0.240471 cumulative IPC: 0.227638 (Simulation time: 1 hr 17 min 27 sec) 
Heartbeat CPU 0 instructions: 1140000000 cycles: 4230676529 heartbeat IPC: 0.210312 cumulative IPC: 0.227439 (Simulation time: 1 hr 18 min 14 sec) 
Heartbeat CPU 0 instructions: 1150000002 cycles: 4266638342 heartbeat IPC: 0.278073 cumulative IPC: 0.227876 (Simulation time: 1 hr 18 min 55 sec) 
Heartbeat CPU 0 instructions: 1160000000 cycles: 4310457982 heartbeat IPC: 0.228208 cumulative IPC: 0.227879 (Simulation time: 1 hr 19 min 41 sec) 
Heartbeat CPU 0 instructions: 1170000000 cycles: 4356240516 heartbeat IPC: 0.218424 cumulative IPC: 0.227778 (Simulation time: 1 hr 20 min 27 sec) 
Heartbeat CPU 0 instructions: 1180000000 cycles: 4400432188 heartbeat IPC: 0.226287 cumulative IPC: 0.227762 (Simulation time: 1 hr 21 min 13 sec) 
Heartbeat CPU 0 instructions: 1190000001 cycles: 4443900813 heartbeat IPC: 0.230051 cumulative IPC: 0.227785 (Simulation time: 1 hr 21 min 58 sec) 
Heartbeat CPU 0 instructions: 1200000000 cycles: 4487792958 heartbeat IPC: 0.227831 cumulative IPC: 0.227786 (Simulation time: 1 hr 22 min 43 sec) 
Finished CPU 0 instructions: 1000000000 cycles: 4390090246 cumulative IPC: 0.227786 (Simulation time: 1 hr 22 min 43 sec) 

CPU 0 Branch Prediction Accuracy: 99.2793% MPKI: 1.70014

ChampSim completed all CPUs

Region of Interest Statistics

CPU 0 cumulative IPC: 0.227786 instructions: 1000000000 cycles: 4390090246
L1D TOTAL     ACCESS:  234229061  HIT:  206083195  MISS:   28145866
L1D LOAD      ACCESS:  187860646  HIT:  160299633  MISS:   27561013
L1D RFO       ACCESS:   46368415  HIT:   45783562  MISS:     584853
L1D PREFETCH  ACCESS:          0  HIT:          0  MISS:          0
L1D WRITEBACK ACCESS:          0  HIT:          0  MISS:          0
L1D PREFETCH  REQUESTED:          0  ISSUED:          0  USEFUL:          0  USELESS:          0
L1I TOTAL     ACCESS:  320603279  HIT:  317177214  MISS:    3426065
L1I LOAD      ACCESS:  320603279  HIT:  317177214  MISS:    3426065
L1I RFO       ACCESS:          0  HIT:          0  MISS:          0
L1I PREFETCH  ACCESS:          0  HIT:          0  MISS:          0
L1I WRITEBACK ACCESS:          0  HIT:          0  MISS:          0
L1I PREFETCH  REQUESTED:          0  ISSUED:          0  USEFUL:          0  USELESS:          0
L2C TOTAL     ACCESS:   49201807  HIT:   14799780  MISS:   34402027
L2C LOAD      ACCESS:   30986423  HIT:    8715071  MISS:   22271352
L2C RFO       ACCESS:     584783  HIT:     282226  MISS:     302557
L2C PREFETCH  ACCESS:   16414567  HIT:    4604379  MISS:   11810188
L2C WRITEBACK ACCESS:    1216034  HIT:    1198104  MISS:      17930
L2C PREFETCH  REQUESTED:   41829768  ISSUED:   41817653  USEFUL:    6321393  USELESS:    8609262
LLC TOTAL     ACCESS:   42707552  HIT:    7854066  MISS:   34853486
LLC LOAD      ACCESS:   18730998  HIT:    2867809  MISS:   15863189
LLC RFO       ACCESS:     301467  HIT:      85530  MISS:     215937
LLC PREFETCH  ACCESS:   23114414  HIT:    4341623  MISS:   18772791
LLC WRITEBACK ACCESS:     560673  HIT:     559104  MISS:       1569
LLC PREFETCH  REQUESTED:          0  ISSUED:          0  USEFUL:    1106222  USELESS:   21561080
Major fault: 0 Minor fault: 13314

Avg Lookahead Depth:	1.38181
TOTAL: 4.18298e+07	L2C: 2.81839e+07	LLC: 1.36459e+07	GOOD_L2C: 1.68897e+07
Printing all the perceptron weights to: perc_weights_0.csv

DRAM Statistics
 CHANNEL 0
 RQ ROW_BUFFER_HIT:   27709504  ROW_BUFFER_MISS:    7134192
 DBUS_CONGESTED:   28160728
 WQ ROW_BUFFER_HIT:      31642  ROW_BUFFER_MISS:     304964  FULL:          0

 AVG_CONGESTED_CYCLE: 71
