Initialize SIGNATURE TABLE
ST_SET: 1
ST_WAY: 256
ST_TAG_BIT: 16
ST_TAG_MASK: ffff

Initialize PATTERN TABLE
PT_SET: 512
PT_WAY: 4
SIG_DELTA_BIT: 7
C_SIG_BIT: 4
C_DELTA_BIT: 4

Initialize PREFETCH FILTER
FILTER_SET: 1024

Initialize PERCEPTRON
PERC_ENTRIES: 4096
PERC_FEATURES: 9

*** ChampSim Multicore Out-of-Order Simulator ***

Warmup Instructions: 200000000
Simulation Instructions: 1000000000
Number of CPUs: 1
LLC sets: 2048
LLC ways: 16
Off-chip DRAM Size: 4096 MB Channels: 1 Width: 64-bit Data Rate: 400 MT/s

CPU 0 runs /scratch/user/djimenez/champsim-traces/speccpu2017/xz/654.roms_s/654.roms_s-523B.champsimtrace.xz
Heartbeat CPU 0 instructions: 10000001 cycles: 4695390 heartbeat IPC: 2.12975 cumulative IPC: 2.12975 (Simulation time: 0 hr 0 min 18 sec) 
Heartbeat CPU 0 instructions: 20000000 cycles: 9182387 heartbeat IPC: 2.22866 cumulative IPC: 2.17808 (Simulation time: 0 hr 0 min 33 sec) 
Heartbeat CPU 0 instructions: 30000002 cycles: 14888060 heartbeat IPC: 1.75264 cumulative IPC: 2.01504 (Simulation time: 0 hr 0 min 58 sec) 
Heartbeat CPU 0 instructions: 40000000 cycles: 19637840 heartbeat IPC: 2.10536 cumulative IPC: 2.03688 (Simulation time: 0 hr 1 min 20 sec) 
Heartbeat CPU 0 instructions: 50000001 cycles: 24959443 heartbeat IPC: 1.87913 cumulative IPC: 2.00325 (Simulation time: 0 hr 1 min 45 sec) 
Heartbeat CPU 0 instructions: 60000000 cycles: 30172390 heartbeat IPC: 1.9183 cumulative IPC: 1.98857 (Simulation time: 0 hr 2 min 8 sec) 
Heartbeat CPU 0 instructions: 70000002 cycles: 35220668 heartbeat IPC: 1.98087 cumulative IPC: 1.98747 (Simulation time: 0 hr 2 min 31 sec) 
Heartbeat CPU 0 instructions: 80000000 cycles: 40342547 heartbeat IPC: 1.95241 cumulative IPC: 1.98302 (Simulation time: 0 hr 2 min 54 sec) 
Heartbeat CPU 0 instructions: 90000002 cycles: 45065206 heartbeat IPC: 2.11745 cumulative IPC: 1.99711 (Simulation time: 0 hr 3 min 12 sec) 
Heartbeat CPU 0 instructions: 100000000 cycles: 49488804 heartbeat IPC: 2.2606 cumulative IPC: 2.02066 (Simulation time: 0 hr 3 min 27 sec) 
Heartbeat CPU 0 instructions: 110000002 cycles: 55167157 heartbeat IPC: 1.76107 cumulative IPC: 1.99394 (Simulation time: 0 hr 3 min 52 sec) 
Heartbeat CPU 0 instructions: 120000000 cycles: 59942590 heartbeat IPC: 2.09405 cumulative IPC: 2.00192 (Simulation time: 0 hr 4 min 14 sec) 
Heartbeat CPU 0 instructions: 130000001 cycles: 65247591 heartbeat IPC: 1.88501 cumulative IPC: 1.99241 (Simulation time: 0 hr 4 min 38 sec) 
Heartbeat CPU 0 instructions: 140000000 cycles: 70443355 heartbeat IPC: 1.92464 cumulative IPC: 1.98741 (Simulation time: 0 hr 5 min 2 sec) 
Heartbeat CPU 0 instructions: 150000003 cycles: 75529992 heartbeat IPC: 1.96594 cumulative IPC: 1.98597 (Simulation time: 0 hr 5 min 24 sec) 
Heartbeat CPU 0 instructions: 160000000 cycles: 80637389 heartbeat IPC: 1.95794 cumulative IPC: 1.98419 (Simulation time: 0 hr 5 min 48 sec) 
Heartbeat CPU 0 instructions: 170000003 cycles: 85355924 heartbeat IPC: 2.1193 cumulative IPC: 1.99166 (Simulation time: 0 hr 6 min 6 sec) 
Heartbeat CPU 0 instructions: 180000000 cycles: 89688302 heartbeat IPC: 2.3082 cumulative IPC: 2.00695 (Simulation time: 0 hr 6 min 21 sec) 
Heartbeat CPU 0 instructions: 190000001 cycles: 95378641 heartbeat IPC: 1.75736 cumulative IPC: 1.99206 (Simulation time: 0 hr 6 min 46 sec) 
Heartbeat CPU 0 instructions: 200000000 cycles: 100189212 heartbeat IPC: 2.07876 cumulative IPC: 1.99622 (Simulation time: 0 hr 7 min 8 sec) 

Warmup complete CPU 0 instructions: 200000004 cycles: 100189214 (Simulation time: 0 hr 7 min 8 sec) 

Heartbeat CPU 0 instructions: 210000000 cycles: 124166901 heartbeat IPC: 0.417054 cumulative IPC: 0.417054 (Simulation time: 0 hr 7 min 49 sec) 
Heartbeat CPU 0 instructions: 220000000 cycles: 150725054 heartbeat IPC: 0.376532 cumulative IPC: 0.395759 (Simulation time: 0 hr 8 min 31 sec) 
Heartbeat CPU 0 instructions: 230000003 cycles: 175883640 heartbeat IPC: 0.397479 cumulative IPC: 0.39633 (Simulation time: 0 hr 9 min 11 sec) 
Heartbeat CPU 0 instructions: 240000000 cycles: 195606930 heartbeat IPC: 0.507015 cumulative IPC: 0.419209 (Simulation time: 0 hr 9 min 49 sec) 
Heartbeat CPU 0 instructions: 250000000 cycles: 216480904 heartbeat IPC: 0.479065 cumulative IPC: 0.429953 (Simulation time: 0 hr 10 min 25 sec) 
Heartbeat CPU 0 instructions: 260000000 cycles: 231272102 heartbeat IPC: 0.676078 cumulative IPC: 0.457726 (Simulation time: 0 hr 10 min 54 sec) 
Heartbeat CPU 0 instructions: 270000000 cycles: 267035148 heartbeat IPC: 0.279618 cumulative IPC: 0.419549 (Simulation time: 0 hr 11 min 45 sec) 
Heartbeat CPU 0 instructions: 280000000 cycles: 301285078 heartbeat IPC: 0.291971 cumulative IPC: 0.39782 (Simulation time: 0 hr 12 min 32 sec) 
Heartbeat CPU 0 instructions: 290000002 cycles: 325873135 heartbeat IPC: 0.406702 cumulative IPC: 0.398788 (Simulation time: 0 hr 13 min 13 sec) 
Heartbeat CPU 0 instructions: 300000000 cycles: 352425978 heartbeat IPC: 0.376607 cumulative IPC: 0.396453 (Simulation time: 0 hr 13 min 54 sec) 
Heartbeat CPU 0 instructions: 310000003 cycles: 377131502 heartbeat IPC: 0.404768 cumulative IPC: 0.397195 (Simulation time: 0 hr 14 min 35 sec) 
Heartbeat CPU 0 instructions: 320000000 cycles: 397143003 heartbeat IPC: 0.499712 cumulative IPC: 0.404103 (Simulation time: 0 hr 15 min 12 sec) 
Heartbeat CPU 0 instructions: 330000002 cycles: 418320697 heartbeat IPC: 0.472195 cumulative IPC: 0.408636 (Simulation time: 0 hr 15 min 49 sec) 
Heartbeat CPU 0 instructions: 340000000 cycles: 432331773 heartbeat IPC: 0.713721 cumulative IPC: 0.421506 (Simulation time: 0 hr 16 min 17 sec) 
Heartbeat CPU 0 instructions: 350000001 cycles: 468289871 heartbeat IPC: 0.278102 cumulative IPC: 0.407497 (Simulation time: 0 hr 17 min 8 sec) 
Heartbeat CPU 0 instructions: 360000000 cycles: 502393304 heartbeat IPC: 0.293226 cumulative IPC: 0.397808 (Simulation time: 0 hr 17 min 55 sec) 
Heartbeat CPU 0 instructions: 370000000 cycles: 527603137 heartbeat IPC: 0.396671 cumulative IPC: 0.397741 (Simulation time: 0 hr 18 min 37 sec) 
Heartbeat CPU 0 instructions: 380000000 cycles: 554151324 heartbeat IPC: 0.376674 cumulative IPC: 0.396509 (Simulation time: 0 hr 19 min 18 sec) 
Heartbeat CPU 0 instructions: 390000001 cycles: 578436911 heartbeat IPC: 0.411767 cumulative IPC: 0.397284 (Simulation time: 0 hr 19 min 58 sec) 
Heartbeat CPU 0 instructions: 400000000 cycles: 598710004 heartbeat IPC: 0.493265 cumulative IPC: 0.401187 (Simulation time: 0 hr 20 min 36 sec) 
Heartbeat CPU 0 instructions: 410000002 cycles: 620253193 heartbeat IPC: 0.464184 cumulative IPC: 0.403796 (Simulation time: 0 hr 21 min 13 sec) 
Heartbeat CPU 0 instructions: 420000000 cycles: 633527465 heartbeat IPC: 0.753337 cumulative IPC: 0.412496 (Simulation time: 0 hr 21 min 41 sec) 
Heartbeat CPU 0 instructions: 430000001 cycles: 669492454 heartbeat IPC: 0.278048 cumulative IPC: 0.404003 (Simulation time: 0 hr 22 min 32 sec) 
Heartbeat CPU 0 instructions: 440000000 cycles: 703681522 heartbeat IPC: 0.292491 cumulative IPC: 0.397685 (Simulation time: 0 hr 23 min 19 sec) 
Heartbeat CPU 0 instructions: 450000001 cycles: 729287914 heartbeat IPC: 0.390528 cumulative IPC: 0.397394 (Simulation time: 0 hr 24 min 1 sec) 
Heartbeat CPU 0 instructions: 460000000 cycles: 755894014 heartbeat IPC: 0.375854 cumulative IPC: 0.39652 (Simulation time: 0 hr 24 min 43 sec) 
Heartbeat CPU 0 instructions: 470000000 cycles: 779830547 heartbeat IPC: 0.417771 cumulative IPC: 0.397268 (Simulation time: 0 hr 25 min 22 sec) 
Heartbeat CPU 0 instructions: 480000000 cycles: 800243836 heartbeat IPC: 0.489877 cumulative IPC: 0.399969 (Simulation time: 0 hr 26 min 0 sec) 
Heartbeat CPU 0 instructions: 490000003 cycles: 822182167 heartbeat IPC: 0.455823 cumulative IPC: 0.401666 (Simulation time: 0 hr 26 min 38 sec) 
Heartbeat CPU 0 instructions: 500000000 cycles: 834771225 heartbeat IPC: 0.79434 cumulative IPC: 0.408395 (Simulation time: 0 hr 27 min 5 sec) 
Heartbeat CPU 0 instructions: 510000002 cycles: 870714357 heartbeat IPC: 0.278217 cumulative IPC: 0.402323 (Simulation time: 0 hr 27 min 55 sec) 
Heartbeat CPU 0 instructions: 520000000 cycles: 904835844 heartbeat IPC: 0.29307 cumulative IPC: 0.39769 (Simulation time: 0 hr 28 min 42 sec) 
Heartbeat CPU 0 instructions: 530000000 cycles: 931027163 heartbeat IPC: 0.381806 cumulative IPC: 0.397189 (Simulation time: 0 hr 29 min 25 sec) 
Heartbeat CPU 0 instructions: 540000000 cycles: 957607651 heartbeat IPC: 0.376216 cumulative IPC: 0.396539 (Simulation time: 0 hr 30 min 6 sec) 
Heartbeat CPU 0 instructions: 550000003 cycles: 981088622 heartbeat IPC: 0.425877 cumulative IPC: 0.397321 (Simulation time: 0 hr 30 min 46 sec) 
Heartbeat CPU 0 instructions: 560000000 cycles: 1001940839 heartbeat IPC: 0.479565 cumulative IPC: 0.399223 (Simulation time: 0 hr 31 min 24 sec) 
Heartbeat CPU 0 instructions: 570000000 cycles: 1024008352 heartbeat IPC: 0.453155 cumulative IPC: 0.400511 (Simulation time: 0 hr 32 min 2 sec) 
Heartbeat CPU 0 instructions: 580000000 cycles: 1036002368 heartbeat IPC: 0.833749 cumulative IPC: 0.406064 (Simulation time: 0 hr 32 min 28 sec) 
Heartbeat CPU 0 instructions: 590000003 cycles: 1071886239 heartbeat IPC: 0.278677 cumulative IPC: 0.40136 (Simulation time: 0 hr 33 min 19 sec) 
Heartbeat CPU 0 instructions: 600000000 cycles: 1105945706 heartbeat IPC: 0.293604 cumulative IPC: 0.397711 (Simulation time: 0 hr 34 min 6 sec) 
Heartbeat CPU 0 instructions: 610000003 cycles: 1132561406 heartbeat IPC: 0.375718 cumulative IPC: 0.397144 (Simulation time: 0 hr 34 min 48 sec) 
Heartbeat CPU 0 instructions: 620000000 cycles: 1159274315 heartbeat IPC: 0.374351 cumulative IPC: 0.396569 (Simulation time: 0 hr 35 min 30 sec) 
Heartbeat CPU 0 instructions: 630000003 cycles: 1182427364 heartbeat IPC: 0.431909 cumulative IPC: 0.397325 (Simulation time: 0 hr 36 min 10 sec) 
Heartbeat CPU 0 instructions: 640000000 cycles: 1203722261 heartbeat IPC: 0.469596 cumulative IPC: 0.398719 (Simulation time: 0 hr 36 min 48 sec) 
Heartbeat CPU 0 instructions: 650000001 cycles: 1225975603 heartbeat IPC: 0.449371 cumulative IPC: 0.399721 (Simulation time: 0 hr 37 min 26 sec) 
Heartbeat CPU 0 instructions: 660000000 cycles: 1237989500 heartbeat IPC: 0.832369 cumulative IPC: 0.404289 (Simulation time: 0 hr 37 min 52 sec) 
Heartbeat CPU 0 instructions: 670000001 cycles: 1273148807 heartbeat IPC: 0.28442 cumulative IPC: 0.400696 (Simulation time: 0 hr 38 min 42 sec) 
Heartbeat CPU 0 instructions: 680000000 cycles: 1307162591 heartbeat IPC: 0.293998 cumulative IPC: 0.397689 (Simulation time: 0 hr 39 min 29 sec) 
Heartbeat CPU 0 instructions: 690000003 cycles: 1334382315 heartbeat IPC: 0.367381 cumulative IPC: 0.397021 (Simulation time: 0 hr 40 min 12 sec) 
Heartbeat CPU 0 instructions: 700000000 cycles: 1361073628 heartbeat IPC: 0.374654 cumulative IPC: 0.396547 (Simulation time: 0 hr 40 min 54 sec) 
Heartbeat CPU 0 instructions: 710000002 cycles: 1383842859 heartbeat IPC: 0.439189 cumulative IPC: 0.397303 (Simulation time: 0 hr 41 min 33 sec) 
Heartbeat CPU 0 instructions: 720000000 cycles: 1405531356 heartbeat IPC: 0.461074 cumulative IPC: 0.398363 (Simulation time: 0 hr 42 min 11 sec) 
Heartbeat CPU 0 instructions: 730000003 cycles: 1427993962 heartbeat IPC: 0.445184 cumulative IPC: 0.399155 (Simulation time: 0 hr 42 min 50 sec) 
Heartbeat CPU 0 instructions: 740000000 cycles: 1439978208 heartbeat IPC: 0.834429 cumulative IPC: 0.403049 (Simulation time: 0 hr 43 min 16 sec) 
Heartbeat CPU 0 instructions: 750000000 cycles: 1474488774 heartbeat IPC: 0.289766 cumulative IPC: 0.400204 (Simulation time: 0 hr 44 min 5 sec) 
Heartbeat CPU 0 instructions: 760000000 cycles: 1508559737 heartbeat IPC: 0.293505 cumulative IPC: 0.397623 (Simulation time: 0 hr 44 min 52 sec) 
Heartbeat CPU 0 instructions: 770000002 cycles: 1536165470 heartbeat IPC: 0.362244 cumulative IPC: 0.396942 (Simulation time: 0 hr 45 min 36 sec) 
Heartbeat CPU 0 instructions: 780000000 cycles: 1562919692 heartbeat IPC: 0.373773 cumulative IPC: 0.396519 (Simulation time: 0 hr 46 min 17 sec) 
Heartbeat CPU 0 instructions: 790000002 cycles: 1585266855 heartbeat IPC: 0.447484 cumulative IPC: 0.397286 (Simulation time: 0 hr 46 min 57 sec) 
Heartbeat CPU 0 instructions: 800000000 cycles: 1607365836 heartbeat IPC: 0.452509 cumulative IPC: 0.398095 (Simulation time: 0 hr 47 min 35 sec) 
Heartbeat CPU 0 instructions: 810000000 cycles: 1629992495 heartbeat IPC: 0.441957 cumulative IPC: 0.398744 (Simulation time: 0 hr 48 min 13 sec) 
Heartbeat CPU 0 instructions: 820000000 cycles: 1641984285 heartbeat IPC: 0.833904 cumulative IPC: 0.402129 (Simulation time: 0 hr 48 min 40 sec) 
Heartbeat CPU 0 instructions: 830000000 cycles: 1675801988 heartbeat IPC: 0.295703 cumulative IPC: 0.399844 (Simulation time: 0 hr 49 min 28 sec) 
Heartbeat CPU 0 instructions: 840000000 cycles: 1709817901 heartbeat IPC: 0.29398 cumulative IPC: 0.397607 (Simulation time: 0 hr 50 min 15 sec) 
Heartbeat CPU 0 instructions: 850000001 cycles: 1738024450 heartbeat IPC: 0.354528 cumulative IPC: 0.396865 (Simulation time: 0 hr 50 min 59 sec) 
Heartbeat CPU 0 instructions: 860000000 cycles: 1764757047 heartbeat IPC: 0.374075 cumulative IPC: 0.396499 (Simulation time: 0 hr 51 min 41 sec) 
Heartbeat CPU 0 instructions: 870000003 cycles: 1786707158 heartbeat IPC: 0.455579 cumulative IPC: 0.397268 (Simulation time: 0 hr 52 min 20 sec) 
Heartbeat CPU 0 instructions: 880000000 cycles: 1809240082 heartbeat IPC: 0.443795 cumulative IPC: 0.397882 (Simulation time: 0 hr 52 min 58 sec) 
Heartbeat CPU 0 instructions: 890000002 cycles: 1831977889 heartbeat IPC: 0.439796 cumulative IPC: 0.398432 (Simulation time: 0 hr 53 min 37 sec) 
Heartbeat CPU 0 instructions: 900000000 cycles: 1844039966 heartbeat IPC: 0.829044 cumulative IPC: 0.40141 (Simulation time: 0 hr 54 min 3 sec) 
Heartbeat CPU 0 instructions: 910000001 cycles: 1877220946 heartbeat IPC: 0.301378 cumulative IPC: 0.399543 (Simulation time: 0 hr 54 min 51 sec) 
Heartbeat CPU 0 instructions: 920000000 cycles: 1911249412 heartbeat IPC: 0.293872 cumulative IPC: 0.397557 (Simulation time: 0 hr 55 min 39 sec) 
Heartbeat CPU 0 instructions: 930000000 cycles: 1939943682 heartbeat IPC: 0.348502 cumulative IPC: 0.396792 (Simulation time: 0 hr 56 min 22 sec) 
Heartbeat CPU 0 instructions: 940000000 cycles: 1966547506 heartbeat IPC: 0.375886 cumulative IPC: 0.396494 (Simulation time: 0 hr 57 min 4 sec) 
Heartbeat CPU 0 instructions: 950000000 cycles: 1988140223 heartbeat IPC: 0.463119 cumulative IPC: 0.397256 (Simulation time: 0 hr 57 min 43 sec) 
Heartbeat CPU 0 instructions: 960000000 cycles: 2011102890 heartbeat IPC: 0.435489 cumulative IPC: 0.397716 (Simulation time: 0 hr 58 min 21 sec) 
Heartbeat CPU 0 instructions: 970000002 cycles: 2033978902 heartbeat IPC: 0.437139 cumulative IPC: 0.398182 (Simulation time: 0 hr 59 min 1 sec) 
Heartbeat CPU 0 instructions: 980000000 cycles: 2046126240 heartbeat IPC: 0.823225 cumulative IPC: 0.400835 (Simulation time: 0 hr 59 min 27 sec) 
Heartbeat CPU 0 instructions: 990000000 cycles: 2078579666 heartbeat IPC: 0.308134 cumulative IPC: 0.399314 (Simulation time: 1 hr 0 min 14 sec) 
Heartbeat CPU 0 instructions: 1000000000 cycles: 2112703390 heartbeat IPC: 0.293051 cumulative IPC: 0.397513 (Simulation time: 1 hr 1 min 1 sec) 
Heartbeat CPU 0 instructions: 1010000000 cycles: 2141723996 heartbeat IPC: 0.344583 cumulative IPC: 0.39676 (Simulation time: 1 hr 1 min 45 sec) 
Heartbeat CPU 0 instructions: 1020000000 cycles: 2168327958 heartbeat IPC: 0.375884 cumulative IPC: 0.396492 (Simulation time: 1 hr 2 min 27 sec) 
Heartbeat CPU 0 instructions: 1030000003 cycles: 2189516027 heartbeat IPC: 0.471964 cumulative IPC: 0.397257 (Simulation time: 1 hr 3 min 6 sec) 
Heartbeat CPU 0 instructions: 1040000000 cycles: 2213004547 heartbeat IPC: 0.42574 cumulative IPC: 0.397574 (Simulation time: 1 hr 3 min 45 sec) 
Heartbeat CPU 0 instructions: 1050000000 cycles: 2236038035 heartbeat IPC: 0.43415 cumulative IPC: 0.397968 (Simulation time: 1 hr 4 min 24 sec) 
Heartbeat CPU 0 instructions: 1060000000 cycles: 2248171809 heartbeat IPC: 0.824146 cumulative IPC: 0.400376 (Simulation time: 1 hr 4 min 51 sec) 
Heartbeat CPU 0 instructions: 1070000002 cycles: 2280081274 heartbeat IPC: 0.313387 cumulative IPC: 0.399102 (Simulation time: 1 hr 5 min 37 sec) 
Heartbeat CPU 0 instructions: 1080000000 cycles: 2314155557 heartbeat IPC: 0.293476 cumulative IPC: 0.397477 (Simulation time: 1 hr 6 min 25 sec) 
Heartbeat CPU 0 instructions: 1090000000 cycles: 2343344310 heartbeat IPC: 0.342598 cumulative IPC: 0.396763 (Simulation time: 1 hr 7 min 9 sec) 
Heartbeat CPU 0 instructions: 1100000000 cycles: 2369736637 heartbeat IPC: 0.378898 cumulative IPC: 0.396555 (Simulation time: 1 hr 7 min 51 sec) 
Heartbeat CPU 0 instructions: 1110000000 cycles: 2390408139 heartbeat IPC: 0.483758 cumulative IPC: 0.397342 (Simulation time: 1 hr 8 min 29 sec) 
Heartbeat CPU 0 instructions: 1120000000 cycles: 2414309263 heartbeat IPC: 0.41839 cumulative IPC: 0.397559 (Simulation time: 1 hr 9 min 8 sec) 
Heartbeat CPU 0 instructions: 1130000003 cycles: 2437511794 heartbeat IPC: 0.430988 cumulative IPC: 0.397891 (Simulation time: 1 hr 9 min 48 sec) 
Heartbeat CPU 0 instructions: 1140000000 cycles: 2449826318 heartbeat IPC: 0.812049 cumulative IPC: 0.400062 (Simulation time: 1 hr 10 min 14 sec) 
Heartbeat CPU 0 instructions: 1150000000 cycles: 2480445053 heartbeat IPC: 0.326597 cumulative IPC: 0.399117 (Simulation time: 1 hr 10 min 59 sec) 
Heartbeat CPU 0 instructions: 1160000000 cycles: 2514663541 heartbeat IPC: 0.29224 cumulative IPC: 0.397602 (Simulation time: 1 hr 11 min 48 sec) 
Heartbeat CPU 0 instructions: 1170000001 cycles: 2544921532 heartbeat IPC: 0.330491 cumulative IPC: 0.396771 (Simulation time: 1 hr 12 min 32 sec) 
Heartbeat CPU 0 instructions: 1180000000 cycles: 2571428255 heartbeat IPC: 0.377263 cumulative IPC: 0.396562 (Simulation time: 1 hr 13 min 13 sec) 
Heartbeat CPU 0 instructions: 1190000003 cycles: 2591707282 heartbeat IPC: 0.49312 cumulative IPC: 0.397348 (Simulation time: 1 hr 13 min 52 sec) 
Heartbeat CPU 0 instructions: 1200000000 cycles: 2616423355 heartbeat IPC: 0.404595 cumulative IPC: 0.397419 (Simulation time: 1 hr 14 min 32 sec) 
Finished CPU 0 instructions: 1000000003 cycles: 2516234181 cumulative IPC: 0.397419 (Simulation time: 1 hr 14 min 32 sec) 

CPU 0 Branch Prediction Accuracy: 99.8508% MPKI: 0.096471

ChampSim completed all CPUs

Region of Interest Statistics

CPU 0 cumulative IPC: 0.397419 instructions: 1000000003 cycles: 2516234181
L1D TOTAL     ACCESS:  241142101  HIT:  215214909  MISS:   25927192
L1D LOAD      ACCESS:  221350760  HIT:  201252184  MISS:   20098576
L1D RFO       ACCESS:   19791341  HIT:   13962725  MISS:    5828616
L1D PREFETCH  ACCESS:          0  HIT:          0  MISS:          0
L1D WRITEBACK ACCESS:          0  HIT:          0  MISS:          0
L1D PREFETCH  REQUESTED:          0  ISSUED:          0  USEFUL:          0  USELESS:          0
L1I TOTAL     ACCESS:  256202428  HIT:  256202428  MISS:          0
L1I LOAD      ACCESS:  256202428  HIT:  256202428  MISS:          0
L1I RFO       ACCESS:          0  HIT:          0  MISS:          0
L1I PREFETCH  ACCESS:          0  HIT:          0  MISS:          0
L1I WRITEBACK ACCESS:          0  HIT:          0  MISS:          0
L1I PREFETCH  REQUESTED:          0  ISSUED:          0  USEFUL:          0  USELESS:          0
L2C TOTAL     ACCESS:   53132503  HIT:   29487493  MISS:   23645010
L2C LOAD      ACCESS:   20098572  HIT:   17599934  MISS:    2498638
L2C RFO       ACCESS:    5828616  HIT:         46  MISS:    5828570
L2C PREFETCH  ACCESS:   19730873  HIT:    4413348  MISS:   15317525
L2C WRITEBACK ACCESS:    7474442  HIT:    7474165  MISS:        277
L2C PREFETCH  REQUESTED:   29024170  ISSUED:   28844985  USEFUL:   17288387  USELESS:    1589062
LLC TOTAL     ACCESS:   31148486  HIT:    7489776  MISS:   23658710
LLC LOAD      ACCESS:     736607  HIT:       3262  MISS:     733345
LLC RFO       ACCESS:    5828551  HIT:          4  MISS:    5828547
LLC PREFETCH  ACCESS:   17157231  HIT:      60583  MISS:   17096648
LLC WRITEBACK ACCESS:    7426097  HIT:    7425927  MISS:        170
LLC PREFETCH  REQUESTED:          0  ISSUED:          0  USEFUL:       2207  USELESS:   20635054
Major fault: 0 Minor fault: 121289

Avg Lookahead Depth:	8.22772
TOTAL: 2.90242e+07	L2C: 2.8279e+07	LLC: 745181	GOOD_L2C: 2.07748e+07
Printing all the perceptron weights to: perc_weights_0.csv

DRAM Statistics
 CHANNEL 0
 RQ ROW_BUFFER_HIT:   17519447  ROW_BUFFER_MISS:    6139093
 DBUS_CONGESTED:   31238939
 WQ ROW_BUFFER_HIT:    2775107  ROW_BUFFER_MISS:    4659269  FULL:          0

 AVG_CONGESTED_CYCLE: 78
