Initialize SIGNATURE TABLE
ST_SET: 1
ST_WAY: 256
ST_TAG_BIT: 16
ST_TAG_MASK: ffff

Initialize PATTERN TABLE
PT_SET: 512
PT_WAY: 4
SIG_DELTA_BIT: 7
C_SIG_BIT: 4
C_DELTA_BIT: 4

Initialize PREFETCH FILTER
FILTER_SET: 1024

Initialize PERCEPTRON
PERC_ENTRIES: 4096
PERC_FEATURES: 9

*** ChampSim Multicore Out-of-Order Simulator ***

Warmup Instructions: 200000000
Simulation Instructions: 1000000000
Number of CPUs: 1
LLC sets: 2048
LLC ways: 16
Off-chip DRAM Size: 4096 MB Channels: 1 Width: 64-bit Data Rate: 400 MT/s

CPU 0 runs /scratch/user/djimenez/champsim-traces/speccpu2017/xz/654.roms_s/654.roms_s-1613B.champsimtrace.xz
Heartbeat CPU 0 instructions: 10000003 cycles: 4453788 heartbeat IPC: 2.24528 cumulative IPC: 2.24528 (Simulation time: 0 hr 0 min 21 sec) 
Heartbeat CPU 0 instructions: 20000000 cycles: 8907416 heartbeat IPC: 2.24536 cumulative IPC: 2.24532 (Simulation time: 0 hr 0 min 42 sec) 
Heartbeat CPU 0 instructions: 30000001 cycles: 13360975 heartbeat IPC: 2.2454 cumulative IPC: 2.24535 (Simulation time: 0 hr 1 min 2 sec) 
Heartbeat CPU 0 instructions: 40000000 cycles: 17814833 heartbeat IPC: 2.24524 cumulative IPC: 2.24532 (Simulation time: 0 hr 1 min 23 sec) 
Heartbeat CPU 0 instructions: 50000000 cycles: 22866533 heartbeat IPC: 1.97953 cumulative IPC: 2.1866 (Simulation time: 0 hr 1 min 45 sec) 
Heartbeat CPU 0 instructions: 60000000 cycles: 27319488 heartbeat IPC: 2.2457 cumulative IPC: 2.19623 (Simulation time: 0 hr 2 min 5 sec) 
Heartbeat CPU 0 instructions: 70000001 cycles: 31772479 heartbeat IPC: 2.24568 cumulative IPC: 2.20316 (Simulation time: 0 hr 2 min 26 sec) 
Heartbeat CPU 0 instructions: 80000000 cycles: 36225556 heartbeat IPC: 2.24564 cumulative IPC: 2.20839 (Simulation time: 0 hr 2 min 47 sec) 
Heartbeat CPU 0 instructions: 90000003 cycles: 40679023 heartbeat IPC: 2.24544 cumulative IPC: 2.21244 (Simulation time: 0 hr 3 min 8 sec) 
Heartbeat CPU 0 instructions: 100000000 cycles: 45132204 heartbeat IPC: 2.24559 cumulative IPC: 2.21571 (Simulation time: 0 hr 3 min 29 sec) 
Heartbeat CPU 0 instructions: 110000001 cycles: 49585320 heartbeat IPC: 2.24562 cumulative IPC: 2.2184 (Simulation time: 0 hr 3 min 49 sec) 
Heartbeat CPU 0 instructions: 120000000 cycles: 54640144 heartbeat IPC: 1.97831 cumulative IPC: 2.19619 (Simulation time: 0 hr 4 min 11 sec) 
Heartbeat CPU 0 instructions: 130000001 cycles: 59093844 heartbeat IPC: 2.24532 cumulative IPC: 2.19989 (Simulation time: 0 hr 4 min 32 sec) 
Heartbeat CPU 0 instructions: 140000000 cycles: 63547369 heartbeat IPC: 2.24541 cumulative IPC: 2.20308 (Simulation time: 0 hr 4 min 52 sec) 
Heartbeat CPU 0 instructions: 150000003 cycles: 68000986 heartbeat IPC: 2.24537 cumulative IPC: 2.20585 (Simulation time: 0 hr 5 min 13 sec) 
Heartbeat CPU 0 instructions: 160000000 cycles: 72454929 heartbeat IPC: 2.2452 cumulative IPC: 2.20827 (Simulation time: 0 hr 5 min 34 sec) 
Heartbeat CPU 0 instructions: 170000001 cycles: 76908659 heartbeat IPC: 2.24531 cumulative IPC: 2.21041 (Simulation time: 0 hr 5 min 55 sec) 
Heartbeat CPU 0 instructions: 180000000 cycles: 81362217 heartbeat IPC: 2.2454 cumulative IPC: 2.21233 (Simulation time: 0 hr 6 min 15 sec) 
Heartbeat CPU 0 instructions: 190000003 cycles: 85815901 heartbeat IPC: 2.24533 cumulative IPC: 2.21404 (Simulation time: 0 hr 6 min 36 sec) 
Heartbeat CPU 0 instructions: 200000000 cycles: 90867227 heartbeat IPC: 1.97968 cumulative IPC: 2.20101 (Simulation time: 0 hr 6 min 58 sec) 

Warmup complete CPU 0 instructions: 200000004 cycles: 90867228 (Simulation time: 0 hr 6 min 58 sec) 

Heartbeat CPU 0 instructions: 210000000 cycles: 104597281 heartbeat IPC: 0.728329 cumulative IPC: 0.728329 (Simulation time: 0 hr 7 min 30 sec) 
Heartbeat CPU 0 instructions: 220000000 cycles: 118344754 heartbeat IPC: 0.727406 cumulative IPC: 0.727867 (Simulation time: 0 hr 8 min 1 sec) 
Heartbeat CPU 0 instructions: 230000001 cycles: 132054877 heartbeat IPC: 0.729388 cumulative IPC: 0.728374 (Simulation time: 0 hr 8 min 33 sec) 
Heartbeat CPU 0 instructions: 240000000 cycles: 145805790 heartbeat IPC: 0.727224 cumulative IPC: 0.728086 (Simulation time: 0 hr 9 min 5 sec) 
Heartbeat CPU 0 instructions: 250000001 cycles: 159515334 heartbeat IPC: 0.729419 cumulative IPC: 0.728352 (Simulation time: 0 hr 9 min 37 sec) 
Heartbeat CPU 0 instructions: 260000000 cycles: 173212602 heartbeat IPC: 0.730072 cumulative IPC: 0.728638 (Simulation time: 0 hr 10 min 8 sec) 
Heartbeat CPU 0 instructions: 270000001 cycles: 203329249 heartbeat IPC: 0.332042 cumulative IPC: 0.622432 (Simulation time: 0 hr 10 min 53 sec) 
Heartbeat CPU 0 instructions: 280000000 cycles: 217045553 heartbeat IPC: 0.729059 cumulative IPC: 0.634023 (Simulation time: 0 hr 11 min 25 sec) 
Heartbeat CPU 0 instructions: 290000002 cycles: 230798753 heartbeat IPC: 0.727104 cumulative IPC: 0.643172 (Simulation time: 0 hr 11 min 57 sec) 
Heartbeat CPU 0 instructions: 300000000 cycles: 244495090 heartbeat IPC: 0.730122 cumulative IPC: 0.650924 (Simulation time: 0 hr 12 min 28 sec) 
Heartbeat CPU 0 instructions: 310000003 cycles: 258225152 heartbeat IPC: 0.728329 cumulative IPC: 0.657274 (Simulation time: 0 hr 13 min 0 sec) 
Heartbeat CPU 0 instructions: 320000000 cycles: 271942098 heartbeat IPC: 0.729025 cumulative IPC: 0.662709 (Simulation time: 0 hr 13 min 32 sec) 
Heartbeat CPU 0 instructions: 330000003 cycles: 285641705 heartbeat IPC: 0.729948 cumulative IPC: 0.667439 (Simulation time: 0 hr 14 min 4 sec) 
Heartbeat CPU 0 instructions: 340000000 cycles: 311648242 heartbeat IPC: 0.384519 cumulative IPC: 0.634112 (Simulation time: 0 hr 14 min 45 sec) 
Heartbeat CPU 0 instructions: 350000000 cycles: 329510530 heartbeat IPC: 0.559839 cumulative IPC: 0.628553 (Simulation time: 0 hr 15 min 20 sec) 
Heartbeat CPU 0 instructions: 360000000 cycles: 343247919 heartbeat IPC: 0.72794 cumulative IPC: 0.633963 (Simulation time: 0 hr 15 min 52 sec) 
Heartbeat CPU 0 instructions: 370000003 cycles: 356951997 heartbeat IPC: 0.72971 cumulative IPC: 0.638894 (Simulation time: 0 hr 16 min 23 sec) 
Heartbeat CPU 0 instructions: 380000000 cycles: 370654748 heartbeat IPC: 0.72978 cumulative IPC: 0.643345 (Simulation time: 0 hr 16 min 55 sec) 
Heartbeat CPU 0 instructions: 390000000 cycles: 384396603 heartbeat IPC: 0.727704 cumulative IPC: 0.647295 (Simulation time: 0 hr 17 min 27 sec) 
Heartbeat CPU 0 instructions: 400000000 cycles: 398101268 heartbeat IPC: 0.729679 cumulative IPC: 0.65097 (Simulation time: 0 hr 17 min 59 sec) 
Heartbeat CPU 0 instructions: 410000002 cycles: 411813428 heartbeat IPC: 0.72928 cumulative IPC: 0.654315 (Simulation time: 0 hr 18 min 30 sec) 
Heartbeat CPU 0 instructions: 420000000 cycles: 441942500 heartbeat IPC: 0.331905 cumulative IPC: 0.626646 (Simulation time: 0 hr 19 min 15 sec) 
Heartbeat CPU 0 instructions: 430000003 cycles: 455666536 heartbeat IPC: 0.728649 cumulative IPC: 0.630484 (Simulation time: 0 hr 19 min 47 sec) 
Heartbeat CPU 0 instructions: 440000000 cycles: 469436603 heartbeat IPC: 0.726213 cumulative IPC: 0.633966 (Simulation time: 0 hr 20 min 18 sec) 
Heartbeat CPU 0 instructions: 450000001 cycles: 483127319 heartbeat IPC: 0.730422 cumulative IPC: 0.637332 (Simulation time: 0 hr 20 min 50 sec) 
Heartbeat CPU 0 instructions: 460000000 cycles: 496865188 heartbeat IPC: 0.727915 cumulative IPC: 0.640397 (Simulation time: 0 hr 21 min 22 sec) 
Heartbeat CPU 0 instructions: 470000000 cycles: 510579173 heartbeat IPC: 0.729183 cumulative IPC: 0.643298 (Simulation time: 0 hr 21 min 54 sec) 
Heartbeat CPU 0 instructions: 480000000 cycles: 524280570 heartbeat IPC: 0.729853 cumulative IPC: 0.646035 (Simulation time: 0 hr 22 min 26 sec) 
Heartbeat CPU 0 instructions: 490000003 cycles: 554405747 heartbeat IPC: 0.331948 cumulative IPC: 0.625622 (Simulation time: 0 hr 23 min 10 sec) 
Heartbeat CPU 0 instructions: 500000000 cycles: 568085210 heartbeat IPC: 0.731023 cumulative IPC: 0.628644 (Simulation time: 0 hr 23 min 42 sec) 
Heartbeat CPU 0 instructions: 510000002 cycles: 581838583 heartbeat IPC: 0.727095 cumulative IPC: 0.631401 (Simulation time: 0 hr 24 min 14 sec) 
Heartbeat CPU 0 instructions: 520000000 cycles: 595551673 heartbeat IPC: 0.72923 cumulative IPC: 0.63406 (Simulation time: 0 hr 24 min 45 sec) 
Heartbeat CPU 0 instructions: 530000000 cycles: 609257353 heartbeat IPC: 0.729625 cumulative IPC: 0.636586 (Simulation time: 0 hr 25 min 17 sec) 
Heartbeat CPU 0 instructions: 540000000 cycles: 622982843 heartbeat IPC: 0.728571 cumulative IPC: 0.638959 (Simulation time: 0 hr 25 min 49 sec) 
Heartbeat CPU 0 instructions: 550000000 cycles: 636687476 heartbeat IPC: 0.72968 cumulative IPC: 0.641237 (Simulation time: 0 hr 26 min 21 sec) 
Heartbeat CPU 0 instructions: 560000000 cycles: 650410868 heartbeat IPC: 0.728683 cumulative IPC: 0.643381 (Simulation time: 0 hr 26 min 52 sec) 
Heartbeat CPU 0 instructions: 570000001 cycles: 680513034 heartbeat IPC: 0.332202 cumulative IPC: 0.627495 (Simulation time: 0 hr 27 min 37 sec) 
Heartbeat CPU 0 instructions: 580000000 cycles: 694240533 heartbeat IPC: 0.728465 cumulative IPC: 0.629793 (Simulation time: 0 hr 28 min 9 sec) 
Heartbeat CPU 0 instructions: 590000000 cycles: 708017775 heartbeat IPC: 0.725835 cumulative IPC: 0.631937 (Simulation time: 0 hr 28 min 41 sec) 
Heartbeat CPU 0 instructions: 600000000 cycles: 721710346 heartbeat IPC: 0.730323 cumulative IPC: 0.634072 (Simulation time: 0 hr 29 min 12 sec) 
Heartbeat CPU 0 instructions: 610000003 cycles: 735456930 heartbeat IPC: 0.727454 cumulative IPC: 0.636064 (Simulation time: 0 hr 29 min 44 sec) 
Heartbeat CPU 0 instructions: 620000000 cycles: 749155720 heartbeat IPC: 0.729991 cumulative IPC: 0.638018 (Simulation time: 0 hr 30 min 16 sec) 
Heartbeat CPU 0 instructions: 630000001 cycles: 762858419 heartbeat IPC: 0.729783 cumulative IPC: 0.639889 (Simulation time: 0 hr 30 min 48 sec) 
Heartbeat CPU 0 instructions: 640000000 cycles: 793012765 heartbeat IPC: 0.331627 cumulative IPC: 0.626651 (Simulation time: 0 hr 31 min 32 sec) 
Heartbeat CPU 0 instructions: 650000002 cycles: 806719553 heartbeat IPC: 0.729566 cumulative IPC: 0.628621 (Simulation time: 0 hr 32 min 4 sec) 
Heartbeat CPU 0 instructions: 660000000 cycles: 820475937 heartbeat IPC: 0.726935 cumulative IPC: 0.630475 (Simulation time: 0 hr 32 min 36 sec) 
Heartbeat CPU 0 instructions: 670000001 cycles: 834185588 heartbeat IPC: 0.729413 cumulative IPC: 0.6323 (Simulation time: 0 hr 33 min 8 sec) 
Heartbeat CPU 0 instructions: 680000000 cycles: 847897958 heartbeat IPC: 0.729268 cumulative IPC: 0.634056 (Simulation time: 0 hr 33 min 39 sec) 
Heartbeat CPU 0 instructions: 690000002 cycles: 861632476 heartbeat IPC: 0.728093 cumulative IPC: 0.635732 (Simulation time: 0 hr 34 min 11 sec) 
Heartbeat CPU 0 instructions: 700000000 cycles: 875331137 heartbeat IPC: 0.729998 cumulative IPC: 0.637378 (Simulation time: 0 hr 34 min 43 sec) 
Heartbeat CPU 0 instructions: 710000000 cycles: 891056754 heartbeat IPC: 0.635905 cumulative IPC: 0.637349 (Simulation time: 0 hr 35 min 16 sec) 
Heartbeat CPU 0 instructions: 720000000 cycles: 923135234 heartbeat IPC: 0.311735 cumulative IPC: 0.624799 (Simulation time: 0 hr 36 min 2 sec) 
Heartbeat CPU 0 instructions: 730000001 cycles: 950698886 heartbeat IPC: 0.362797 cumulative IPC: 0.6164 (Simulation time: 0 hr 36 min 42 sec) 
Heartbeat CPU 0 instructions: 740000000 cycles: 975936577 heartbeat IPC: 0.396233 cumulative IPC: 0.610122 (Simulation time: 0 hr 37 min 21 sec) 
Heartbeat CPU 0 instructions: 750000003 cycles: 1006653658 heartbeat IPC: 0.325552 cumulative IPC: 0.600577 (Simulation time: 0 hr 38 min 5 sec) 
Heartbeat CPU 0 instructions: 760000000 cycles: 1034389273 heartbeat IPC: 0.360547 cumulative IPC: 0.593521 (Simulation time: 0 hr 38 min 46 sec) 
Heartbeat CPU 0 instructions: 770000003 cycles: 1054936503 heartbeat IPC: 0.486684 cumulative IPC: 0.591244 (Simulation time: 0 hr 39 min 20 sec) 
Heartbeat CPU 0 instructions: 780000000 cycles: 1089960513 heartbeat IPC: 0.285518 cumulative IPC: 0.580526 (Simulation time: 0 hr 40 min 8 sec) 
Heartbeat CPU 0 instructions: 790000001 cycles: 1116736849 heartbeat IPC: 0.373464 cumulative IPC: 0.575122 (Simulation time: 0 hr 40 min 49 sec) 
Heartbeat CPU 0 instructions: 800000000 cycles: 1133628581 heartbeat IPC: 0.592006 cumulative IPC: 0.575395 (Simulation time: 0 hr 41 min 18 sec) 
Heartbeat CPU 0 instructions: 810000001 cycles: 1171677033 heartbeat IPC: 0.262823 cumulative IPC: 0.564392 (Simulation time: 0 hr 42 min 9 sec) 
Heartbeat CPU 0 instructions: 820000000 cycles: 1190643756 heartbeat IPC: 0.527239 cumulative IPC: 0.563751 (Simulation time: 0 hr 42 min 45 sec) 
Heartbeat CPU 0 instructions: 830000002 cycles: 1216551064 heartbeat IPC: 0.385992 cumulative IPC: 0.55966 (Simulation time: 0 hr 43 min 22 sec) 
Heartbeat CPU 0 instructions: 840000000 cycles: 1250129951 heartbeat IPC: 0.297806 cumulative IPC: 0.552075 (Simulation time: 0 hr 44 min 9 sec) 
Heartbeat CPU 0 instructions: 850000000 cycles: 1272931315 heartbeat IPC: 0.43857 cumulative IPC: 0.549886 (Simulation time: 0 hr 44 min 47 sec) 
Heartbeat CPU 0 instructions: 860000000 cycles: 1300321808 heartbeat IPC: 0.36509 cumulative IPC: 0.545701 (Simulation time: 0 hr 45 min 26 sec) 
Heartbeat CPU 0 instructions: 870000003 cycles: 1328923797 heartbeat IPC: 0.349626 cumulative IPC: 0.541171 (Simulation time: 0 hr 46 min 9 sec) 
Heartbeat CPU 0 instructions: 880000000 cycles: 1356360682 heartbeat IPC: 0.364473 cumulative IPC: 0.53734 (Simulation time: 0 hr 46 min 50 sec) 
Heartbeat CPU 0 instructions: 890000003 cycles: 1384091890 heartbeat IPC: 0.360605 cumulative IPC: 0.53355 (Simulation time: 0 hr 47 min 30 sec) 
Heartbeat CPU 0 instructions: 900000000 cycles: 1407831472 heartbeat IPC: 0.421237 cumulative IPC: 0.531525 (Simulation time: 0 hr 48 min 8 sec) 
Heartbeat CPU 0 instructions: 910000001 cycles: 1439873786 heartbeat IPC: 0.312087 cumulative IPC: 0.526313 (Simulation time: 0 hr 48 min 53 sec) 
Heartbeat CPU 0 instructions: 920000000 cycles: 1467511126 heartbeat IPC: 0.361829 cumulative IPC: 0.523011 (Simulation time: 0 hr 49 min 35 sec) 
Heartbeat CPU 0 instructions: 930000002 cycles: 1486820494 heartbeat IPC: 0.517883 cumulative IPC: 0.52294 (Simulation time: 0 hr 50 min 7 sec) 
Heartbeat CPU 0 instructions: 940000000 cycles: 1522933139 heartbeat IPC: 0.276911 cumulative IPC: 0.516736 (Simulation time: 0 hr 50 min 56 sec) 
Heartbeat CPU 0 instructions: 950000003 cycles: 1545258724 heartbeat IPC: 0.447917 cumulative IPC: 0.51568 (Simulation time: 0 hr 51 min 34 sec) 
Heartbeat CPU 0 instructions: 960000000 cycles: 1566097255 heartbeat IPC: 0.47988 cumulative IPC: 0.515174 (Simulation time: 0 hr 52 min 6 sec) 
Heartbeat CPU 0 instructions: 970000002 cycles: 1603464444 heartbeat IPC: 0.267615 cumulative IPC: 0.509058 (Simulation time: 0 hr 52 min 57 sec) 
Heartbeat CPU 0 instructions: 980000000 cycles: 1622505155 heartbeat IPC: 0.52519 cumulative IPC: 0.509259 (Simulation time: 0 hr 53 min 33 sec) 
Heartbeat CPU 0 instructions: 990000000 cycles: 1649796104 heartbeat IPC: 0.366422 cumulative IPC: 0.506758 (Simulation time: 0 hr 54 min 11 sec) 
Heartbeat CPU 0 instructions: 1000000000 cycles: 1681535972 heartbeat IPC: 0.315061 cumulative IPC: 0.502933 (Simulation time: 0 hr 54 min 57 sec) 
Heartbeat CPU 0 instructions: 1010000003 cycles: 1706003910 heartbeat IPC: 0.408698 cumulative IPC: 0.501506 (Simulation time: 0 hr 55 min 36 sec) 
Heartbeat CPU 0 instructions: 1020000000 cycles: 1733499322 heartbeat IPC: 0.363697 cumulative IPC: 0.499199 (Simulation time: 0 hr 56 min 15 sec) 
Heartbeat CPU 0 instructions: 1030000002 cycles: 1760678164 heartbeat IPC: 0.367933 cumulative IPC: 0.497062 (Simulation time: 0 hr 56 min 56 sec) 
Heartbeat CPU 0 instructions: 1040000000 cycles: 1789422818 heartbeat IPC: 0.347891 cumulative IPC: 0.494538 (Simulation time: 0 hr 57 min 39 sec) 
Heartbeat CPU 0 instructions: 1050000001 cycles: 1817215775 heartbeat IPC: 0.359803 cumulative IPC: 0.492369 (Simulation time: 0 hr 58 min 20 sec) 
Heartbeat CPU 0 instructions: 1060000000 cycles: 1839678946 heartbeat IPC: 0.445173 cumulative IPC: 0.491762 (Simulation time: 0 hr 58 min 55 sec) 
Heartbeat CPU 0 instructions: 1070000000 cycles: 1872919962 heartbeat IPC: 0.300833 cumulative IPC: 0.488201 (Simulation time: 0 hr 59 min 42 sec) 
Heartbeat CPU 0 instructions: 1080000000 cycles: 1900436247 heartbeat IPC: 0.363421 cumulative IPC: 0.486304 (Simulation time: 1 hr 0 min 23 sec) 
Heartbeat CPU 0 instructions: 1090000002 cycles: 1918541079 heartbeat IPC: 0.552339 cumulative IPC: 0.486958 (Simulation time: 1 hr 0 min 55 sec) 
Heartbeat CPU 0 instructions: 1100000000 cycles: 1955773277 heartbeat IPC: 0.268585 cumulative IPC: 0.482598 (Simulation time: 1 hr 1 min 45 sec) 
Heartbeat CPU 0 instructions: 1110000002 cycles: 1975751956 heartbeat IPC: 0.500534 cumulative IPC: 0.482788 (Simulation time: 1 hr 2 min 21 sec) 
Heartbeat CPU 0 instructions: 1120000000 cycles: 1999239207 heartbeat IPC: 0.425763 cumulative IPC: 0.482086 (Simulation time: 1 hr 2 min 56 sec) 
Heartbeat CPU 0 instructions: 1130000001 cycles: 2035198717 heartbeat IPC: 0.278091 cumulative IPC: 0.478314 (Simulation time: 1 hr 3 min 45 sec) 
Heartbeat CPU 0 instructions: 1140000000 cycles: 2055608570 heartbeat IPC: 0.489959 cumulative IPC: 0.478434 (Simulation time: 1 hr 4 min 21 sec) 
Heartbeat CPU 0 instructions: 1150000002 cycles: 2082969756 heartbeat IPC: 0.365481 cumulative IPC: 0.476883 (Simulation time: 1 hr 5 min 0 sec) 
Heartbeat CPU 0 instructions: 1160000000 cycles: 2113567275 heartbeat IPC: 0.326824 cumulative IPC: 0.474613 (Simulation time: 1 hr 5 min 45 sec) 
Heartbeat CPU 0 instructions: 1170000003 cycles: 2139093016 heartbeat IPC: 0.391762 cumulative IPC: 0.473581 (Simulation time: 1 hr 6 min 24 sec) 
Heartbeat CPU 0 instructions: 1180000000 cycles: 2166601942 heartbeat IPC: 0.363518 cumulative IPC: 0.472122 (Simulation time: 1 hr 7 min 4 sec) 
Heartbeat CPU 0 instructions: 1190000001 cycles: 2192397409 heartbeat IPC: 0.387665 cumulative IPC: 0.471085 (Simulation time: 1 hr 7 min 44 sec) 
Heartbeat CPU 0 instructions: 1200000000 cycles: 2222499304 heartbeat IPC: 0.332205 cumulative IPC: 0.469124 (Simulation time: 1 hr 8 min 27 sec) 
Finished CPU 0 instructions: 1000000000 cycles: 2131632086 cumulative IPC: 0.469124 (Simulation time: 1 hr 8 min 27 sec) 

CPU 0 Branch Prediction Accuracy: 99.9042% MPKI: 0.066502

ChampSim completed all CPUs

Region of Interest Statistics

CPU 0 cumulative IPC: 0.469124 instructions: 1000000000 cycles: 2131632086
L1D TOTAL     ACCESS:  223678309  HIT:  209253662  MISS:   14424647
L1D LOAD      ACCESS:  170308317  HIT:  160114969  MISS:   10193348
L1D RFO       ACCESS:   53369992  HIT:   49138693  MISS:    4231299
L1D PREFETCH  ACCESS:          0  HIT:          0  MISS:          0
L1D WRITEBACK ACCESS:          0  HIT:          0  MISS:          0
L1D PREFETCH  REQUESTED:          0  ISSUED:          0  USEFUL:          0  USELESS:          0
L1I TOTAL     ACCESS:  327045051  HIT:  327044952  MISS:         99
L1I LOAD      ACCESS:  327045051  HIT:  327044952  MISS:         99
L1I RFO       ACCESS:          0  HIT:          0  MISS:          0
L1I PREFETCH  ACCESS:          0  HIT:          0  MISS:          0
L1I WRITEBACK ACCESS:          0  HIT:          0  MISS:          0
L1I PREFETCH  REQUESTED:          0  ISSUED:          0  USEFUL:          0  USELESS:          0
L2C TOTAL     ACCESS:   28990639  HIT:   14459691  MISS:   14530948
L2C LOAD      ACCESS:   10193429  HIT:    8758798  MISS:    1434631
L2C RFO       ACCESS:    4231298  HIT:        532  MISS:    4230766
L2C PREFETCH  ACCESS:   10325903  HIT:    1462017  MISS:    8863886
L2C WRITEBACK ACCESS:    4240009  HIT:    4238344  MISS:       1665
L2C PREFETCH  REQUESTED:   13293649  ISSUED:   12988324  USEFUL:    8559819  USELESS:     755226
LLC TOTAL     ACCESS:   18820534  HIT:    4281608  MISS:   14538926
LLC LOAD      ACCESS:     530368  HIT:       3358  MISS:     527010
LLC RFO       ACCESS:    4230763  HIT:         10  MISS:    4230753
LLC PREFETCH  ACCESS:    9827828  HIT:      48229  MISS:    9779599
LLC WRITEBACK ACCESS:    4231575  HIT:    4230011  MISS:       1564
LLC PREFETCH  REQUESTED:          0  ISSUED:          0  USEFUL:       3075  USELESS:   10204840
Major fault: 0 Minor fault: 113658

Avg Lookahead Depth:	8.79962
TOTAL: 1.32936e+07	L2C: 1.29494e+07	LLC: 344292	GOOD_L2C: 9.72283e+06
Printing all the perceptron weights to: perc_weights_0.csv

DRAM Statistics
 CHANNEL 0
 RQ ROW_BUFFER_HIT:   11082177  ROW_BUFFER_MISS:    3455185
 DBUS_CONGESTED:   18405924
 WQ ROW_BUFFER_HIT:    1740912  ROW_BUFFER_MISS:    2493877  FULL:          0

 AVG_CONGESTED_CYCLE: 78
