
*** ChampSim Multicore Out-of-Order Simulator ***

Warmup Instructions: 200000000
Simulation Instructions: 1000000000
Number of CPUs: 1
LLC sets: 2048
LLC ways: 16
Off-chip DRAM Size: 4096 MB Channels: 1 Width: 64-bit Data Rate: 1600 MT/s

CPU 0 runs /scratch/user/djimenez/champsim-traces/speccpu2006/xz/454.calculix-460B.champsimtrace.xz
Heartbeat CPU 0 instructions: 10000000 cycles: 3330491 heartbeat IPC: 3.00256 cumulative IPC: 3.00256 (Simulation time: 0 hr 0 min 16 sec) 
Heartbeat CPU 0 instructions: 20000000 cycles: 6547507 heartbeat IPC: 3.10847 cumulative IPC: 3.0546 (Simulation time: 0 hr 0 min 32 sec) 
Heartbeat CPU 0 instructions: 30000001 cycles: 9841835 heartbeat IPC: 3.03552 cumulative IPC: 3.04821 (Simulation time: 0 hr 0 min 47 sec) 
Heartbeat CPU 0 instructions: 40000000 cycles: 13070192 heartbeat IPC: 3.09755 cumulative IPC: 3.0604 (Simulation time: 0 hr 1 min 3 sec) 
Heartbeat CPU 0 instructions: 50000000 cycles: 16323690 heartbeat IPC: 3.07361 cumulative IPC: 3.06303 (Simulation time: 0 hr 1 min 19 sec) 
Heartbeat CPU 0 instructions: 60000000 cycles: 19578366 heartbeat IPC: 3.0725 cumulative IPC: 3.06461 (Simulation time: 0 hr 1 min 35 sec) 
Heartbeat CPU 0 instructions: 70000000 cycles: 24018770 heartbeat IPC: 2.25205 cumulative IPC: 2.91439 (Simulation time: 0 hr 1 min 53 sec) 
Heartbeat CPU 0 instructions: 80000000 cycles: 28806689 heartbeat IPC: 2.08859 cumulative IPC: 2.77713 (Simulation time: 0 hr 2 min 12 sec) 
Heartbeat CPU 0 instructions: 90000000 cycles: 32383336 heartbeat IPC: 2.79591 cumulative IPC: 2.77921 (Simulation time: 0 hr 2 min 28 sec) 
Heartbeat CPU 0 instructions: 100000000 cycles: 35563019 heartbeat IPC: 3.14497 cumulative IPC: 2.81191 (Simulation time: 0 hr 2 min 44 sec) 
Heartbeat CPU 0 instructions: 110000000 cycles: 38744265 heartbeat IPC: 3.14342 cumulative IPC: 2.83913 (Simulation time: 0 hr 2 min 59 sec) 
Heartbeat CPU 0 instructions: 120000000 cycles: 41917032 heartbeat IPC: 3.15182 cumulative IPC: 2.8628 (Simulation time: 0 hr 3 min 15 sec) 
Heartbeat CPU 0 instructions: 130000001 cycles: 45088057 heartbeat IPC: 3.15355 cumulative IPC: 2.88325 (Simulation time: 0 hr 3 min 31 sec) 
Heartbeat CPU 0 instructions: 140000000 cycles: 48257903 heartbeat IPC: 3.15473 cumulative IPC: 2.90108 (Simulation time: 0 hr 3 min 47 sec) 
Heartbeat CPU 0 instructions: 150000000 cycles: 51422341 heartbeat IPC: 3.16012 cumulative IPC: 2.91702 (Simulation time: 0 hr 4 min 2 sec) 
Heartbeat CPU 0 instructions: 160000000 cycles: 54592976 heartbeat IPC: 3.15394 cumulative IPC: 2.93078 (Simulation time: 0 hr 4 min 18 sec) 
Heartbeat CPU 0 instructions: 170000000 cycles: 57777035 heartbeat IPC: 3.14065 cumulative IPC: 2.94235 (Simulation time: 0 hr 4 min 34 sec) 
Heartbeat CPU 0 instructions: 180000000 cycles: 60955926 heartbeat IPC: 3.14575 cumulative IPC: 2.95295 (Simulation time: 0 hr 4 min 50 sec) 
Heartbeat CPU 0 instructions: 190000002 cycles: 64136140 heartbeat IPC: 3.14444 cumulative IPC: 2.96245 (Simulation time: 0 hr 5 min 5 sec) 
Heartbeat CPU 0 instructions: 200000000 cycles: 67383332 heartbeat IPC: 3.07958 cumulative IPC: 2.96809 (Simulation time: 0 hr 5 min 21 sec) 

Warmup complete CPU 0 instructions: 200000002 cycles: 67383333 (Simulation time: 0 hr 5 min 21 sec) 

Heartbeat CPU 0 instructions: 210000001 cycles: 73935035 heartbeat IPC: 1.52632 cumulative IPC: 1.52632 (Simulation time: 0 hr 5 min 40 sec) 
Heartbeat CPU 0 instructions: 220000000 cycles: 80331941 heartbeat IPC: 1.56326 cumulative IPC: 1.54457 (Simulation time: 0 hr 5 min 59 sec) 
Heartbeat CPU 0 instructions: 230000003 cycles: 86510339 heartbeat IPC: 1.61854 cumulative IPC: 1.56846 (Simulation time: 0 hr 6 min 18 sec) 
Heartbeat CPU 0 instructions: 240000000 cycles: 92662407 heartbeat IPC: 1.62547 cumulative IPC: 1.58234 (Simulation time: 0 hr 6 min 37 sec) 
Heartbeat CPU 0 instructions: 250000000 cycles: 98069457 heartbeat IPC: 1.84944 cumulative IPC: 1.6294 (Simulation time: 0 hr 6 min 55 sec) 
Heartbeat CPU 0 instructions: 260000000 cycles: 103501671 heartbeat IPC: 1.84087 cumulative IPC: 1.66121 (Simulation time: 0 hr 7 min 13 sec) 
Heartbeat CPU 0 instructions: 270000002 cycles: 109592242 heartbeat IPC: 1.64188 cumulative IPC: 1.65842 (Simulation time: 0 hr 7 min 32 sec) 
Heartbeat CPU 0 instructions: 280000000 cycles: 119705840 heartbeat IPC: 0.988768 cumulative IPC: 1.52898 (Simulation time: 0 hr 7 min 57 sec) 
Heartbeat CPU 0 instructions: 290000001 cycles: 128286053 heartbeat IPC: 1.16547 cumulative IPC: 1.47777 (Simulation time: 0 hr 8 min 20 sec) 
Heartbeat CPU 0 instructions: 300000000 cycles: 134175182 heartbeat IPC: 1.69804 cumulative IPC: 1.49719 (Simulation time: 0 hr 8 min 38 sec) 
Heartbeat CPU 0 instructions: 310000002 cycles: 140522855 heartbeat IPC: 1.57538 cumulative IPC: 1.50397 (Simulation time: 0 hr 8 min 57 sec) 
Heartbeat CPU 0 instructions: 320000000 cycles: 146481173 heartbeat IPC: 1.67833 cumulative IPC: 1.51711 (Simulation time: 0 hr 9 min 16 sec) 
Heartbeat CPU 0 instructions: 330000002 cycles: 153437572 heartbeat IPC: 1.43753 cumulative IPC: 1.51068 (Simulation time: 0 hr 9 min 35 sec) 
Heartbeat CPU 0 instructions: 340000000 cycles: 160153399 heartbeat IPC: 1.48902 cumulative IPC: 1.50911 (Simulation time: 0 hr 9 min 55 sec) 
Heartbeat CPU 0 instructions: 350000001 cycles: 166374622 heartbeat IPC: 1.6074 cumulative IPC: 1.51528 (Simulation time: 0 hr 10 min 14 sec) 
Heartbeat CPU 0 instructions: 360000000 cycles: 172505937 heartbeat IPC: 1.63097 cumulative IPC: 1.52203 (Simulation time: 0 hr 10 min 32 sec) 
Heartbeat CPU 0 instructions: 370000000 cycles: 178422174 heartbeat IPC: 1.69026 cumulative IPC: 1.531 (Simulation time: 0 hr 10 min 51 sec) 
Heartbeat CPU 0 instructions: 380000000 cycles: 184614286 heartbeat IPC: 1.61496 cumulative IPC: 1.53543 (Simulation time: 0 hr 11 min 10 sec) 
Heartbeat CPU 0 instructions: 390000002 cycles: 190747371 heartbeat IPC: 1.6305 cumulative IPC: 1.54016 (Simulation time: 0 hr 11 min 29 sec) 
Heartbeat CPU 0 instructions: 400000000 cycles: 197068182 heartbeat IPC: 1.58208 cumulative IPC: 1.5422 (Simulation time: 0 hr 11 min 47 sec) 
Heartbeat CPU 0 instructions: 410000000 cycles: 203414361 heartbeat IPC: 1.57575 cumulative IPC: 1.54377 (Simulation time: 0 hr 12 min 6 sec) 
Heartbeat CPU 0 instructions: 420000000 cycles: 209748992 heartbeat IPC: 1.57862 cumulative IPC: 1.54532 (Simulation time: 0 hr 12 min 25 sec) 
Heartbeat CPU 0 instructions: 430000003 cycles: 215742013 heartbeat IPC: 1.66861 cumulative IPC: 1.5503 (Simulation time: 0 hr 12 min 44 sec) 
Heartbeat CPU 0 instructions: 440000000 cycles: 222373081 heartbeat IPC: 1.50805 cumulative IPC: 1.54849 (Simulation time: 0 hr 13 min 3 sec) 
Heartbeat CPU 0 instructions: 450000001 cycles: 228903839 heartbeat IPC: 1.53122 cumulative IPC: 1.54779 (Simulation time: 0 hr 13 min 22 sec) 
Heartbeat CPU 0 instructions: 460000000 cycles: 235043727 heartbeat IPC: 1.62869 cumulative IPC: 1.55075 (Simulation time: 0 hr 13 min 41 sec) 
Heartbeat CPU 0 instructions: 470000001 cycles: 240370267 heartbeat IPC: 1.87739 cumulative IPC: 1.56081 (Simulation time: 0 hr 13 min 59 sec) 
Heartbeat CPU 0 instructions: 480000000 cycles: 245789638 heartbeat IPC: 1.84523 cumulative IPC: 1.56945 (Simulation time: 0 hr 14 min 18 sec) 
Heartbeat CPU 0 instructions: 490000001 cycles: 253647115 heartbeat IPC: 1.27267 cumulative IPC: 1.55693 (Simulation time: 0 hr 14 min 39 sec) 
Heartbeat CPU 0 instructions: 500000000 cycles: 263442209 heartbeat IPC: 1.02092 cumulative IPC: 1.53015 (Simulation time: 0 hr 15 min 3 sec) 
Heartbeat CPU 0 instructions: 510000001 cycles: 270355997 heartbeat IPC: 1.44639 cumulative IPC: 1.5273 (Simulation time: 0 hr 15 min 24 sec) 
Heartbeat CPU 0 instructions: 520000000 cycles: 276239630 heartbeat IPC: 1.69963 cumulative IPC: 1.53215 (Simulation time: 0 hr 15 min 42 sec) 
Heartbeat CPU 0 instructions: 530000001 cycles: 282551332 heartbeat IPC: 1.58436 cumulative IPC: 1.53369 (Simulation time: 0 hr 16 min 1 sec) 
Heartbeat CPU 0 instructions: 540000000 cycles: 289065689 heartbeat IPC: 1.53507 cumulative IPC: 1.53373 (Simulation time: 0 hr 16 min 20 sec) 
Heartbeat CPU 0 instructions: 550000003 cycles: 294974690 heartbeat IPC: 1.69233 cumulative IPC: 1.53784 (Simulation time: 0 hr 16 min 39 sec) 
Heartbeat CPU 0 instructions: 560000000 cycles: 301842879 heartbeat IPC: 1.45599 cumulative IPC: 1.53545 (Simulation time: 0 hr 16 min 58 sec) 
Heartbeat CPU 0 instructions: 570000001 cycles: 308334832 heartbeat IPC: 1.54037 cumulative IPC: 1.53558 (Simulation time: 0 hr 17 min 18 sec) 
Heartbeat CPU 0 instructions: 580000000 cycles: 314548053 heartbeat IPC: 1.60947 cumulative IPC: 1.53744 (Simulation time: 0 hr 17 min 36 sec) 
Heartbeat CPU 0 instructions: 590000001 cycles: 320723940 heartbeat IPC: 1.6192 cumulative IPC: 1.53943 (Simulation time: 0 hr 17 min 55 sec) 
Heartbeat CPU 0 instructions: 600000000 cycles: 326898012 heartbeat IPC: 1.61968 cumulative IPC: 1.54134 (Simulation time: 0 hr 18 min 14 sec) 
Heartbeat CPU 0 instructions: 610000002 cycles: 332745677 heartbeat IPC: 1.71008 cumulative IPC: 1.54506 (Simulation time: 0 hr 18 min 33 sec) 
Heartbeat CPU 0 instructions: 620000000 cycles: 338623480 heartbeat IPC: 1.70132 cumulative IPC: 1.54844 (Simulation time: 0 hr 18 min 51 sec) 
Heartbeat CPU 0 instructions: 630000001 cycles: 344685859 heartbeat IPC: 1.64952 cumulative IPC: 1.55065 (Simulation time: 0 hr 19 min 10 sec) 
Heartbeat CPU 0 instructions: 640000000 cycles: 350831193 heartbeat IPC: 1.62725 cumulative IPC: 1.55231 (Simulation time: 0 hr 19 min 29 sec) 
Heartbeat CPU 0 instructions: 650000003 cycles: 357184970 heartbeat IPC: 1.57387 cumulative IPC: 1.55279 (Simulation time: 0 hr 19 min 48 sec) 
Heartbeat CPU 0 instructions: 660000000 cycles: 363358365 heartbeat IPC: 1.61985 cumulative IPC: 1.55419 (Simulation time: 0 hr 20 min 7 sec) 
Heartbeat CPU 0 instructions: 670000000 cycles: 369851955 heartbeat IPC: 1.53998 cumulative IPC: 1.55388 (Simulation time: 0 hr 20 min 26 sec) 
Heartbeat CPU 0 instructions: 680000000 cycles: 375819274 heartbeat IPC: 1.67579 cumulative IPC: 1.55624 (Simulation time: 0 hr 20 min 44 sec) 
Heartbeat CPU 0 instructions: 690000002 cycles: 381782011 heartbeat IPC: 1.67708 cumulative IPC: 1.55853 (Simulation time: 0 hr 21 min 3 sec) 
Heartbeat CPU 0 instructions: 700000000 cycles: 387113949 heartbeat IPC: 1.87549 cumulative IPC: 1.56382 (Simulation time: 0 hr 21 min 21 sec) 
Heartbeat CPU 0 instructions: 710000000 cycles: 395366549 heartbeat IPC: 1.21174 cumulative IPC: 1.55496 (Simulation time: 0 hr 21 min 43 sec) 
Heartbeat CPU 0 instructions: 720000000 cycles: 404929831 heartbeat IPC: 1.04567 cumulative IPC: 1.54053 (Simulation time: 0 hr 22 min 7 sec) 
Heartbeat CPU 0 instructions: 730000002 cycles: 411474879 heartbeat IPC: 1.52787 cumulative IPC: 1.54029 (Simulation time: 0 hr 22 min 27 sec) 
Heartbeat CPU 0 instructions: 740000000 cycles: 417665648 heartbeat IPC: 1.61531 cumulative IPC: 1.54161 (Simulation time: 0 hr 22 min 46 sec) 
Heartbeat CPU 0 instructions: 750000000 cycles: 423636851 heartbeat IPC: 1.6747 cumulative IPC: 1.54384 (Simulation time: 0 hr 23 min 4 sec) 
Heartbeat CPU 0 instructions: 760000000 cycles: 430079866 heartbeat IPC: 1.55207 cumulative IPC: 1.54399 (Simulation time: 0 hr 23 min 23 sec) 
Heartbeat CPU 0 instructions: 770000000 cycles: 436148971 heartbeat IPC: 1.64769 cumulative IPC: 1.5457 (Simulation time: 0 hr 23 min 42 sec) 
Heartbeat CPU 0 instructions: 780000000 cycles: 442424897 heartbeat IPC: 1.59339 cumulative IPC: 1.5465 (Simulation time: 0 hr 24 min 1 sec) 
Heartbeat CPU 0 instructions: 790000001 cycles: 449036624 heartbeat IPC: 1.51246 cumulative IPC: 1.54591 (Simulation time: 0 hr 24 min 20 sec) 
Heartbeat CPU 0 instructions: 800000000 cycles: 455558880 heartbeat IPC: 1.53321 cumulative IPC: 1.54569 (Simulation time: 0 hr 24 min 39 sec) 
Heartbeat CPU 0 instructions: 810000000 cycles: 461758462 heartbeat IPC: 1.61301 cumulative IPC: 1.54675 (Simulation time: 0 hr 24 min 58 sec) 
Heartbeat CPU 0 instructions: 820000000 cycles: 467922646 heartbeat IPC: 1.62227 cumulative IPC: 1.54791 (Simulation time: 0 hr 25 min 17 sec) 
Heartbeat CPU 0 instructions: 830000002 cycles: 474076922 heartbeat IPC: 1.62489 cumulative IPC: 1.54908 (Simulation time: 0 hr 25 min 36 sec) 
Heartbeat CPU 0 instructions: 840000000 cycles: 480018606 heartbeat IPC: 1.68302 cumulative IPC: 1.55101 (Simulation time: 0 hr 25 min 54 sec) 
Heartbeat CPU 0 instructions: 850000000 cycles: 486000783 heartbeat IPC: 1.67163 cumulative IPC: 1.55273 (Simulation time: 0 hr 26 min 13 sec) 
Heartbeat CPU 0 instructions: 860000000 cycles: 492510201 heartbeat IPC: 1.53624 cumulative IPC: 1.55248 (Simulation time: 0 hr 26 min 32 sec) 
Heartbeat CPU 0 instructions: 870000000 cycles: 499015005 heartbeat IPC: 1.53733 cumulative IPC: 1.55225 (Simulation time: 0 hr 26 min 51 sec) 
Heartbeat CPU 0 instructions: 880000000 cycles: 505246240 heartbeat IPC: 1.60482 cumulative IPC: 1.553 (Simulation time: 0 hr 27 min 10 sec) 
Heartbeat CPU 0 instructions: 890000001 cycles: 511030811 heartbeat IPC: 1.72874 cumulative IPC: 1.55529 (Simulation time: 0 hr 27 min 28 sec) 
Heartbeat CPU 0 instructions: 900000000 cycles: 516871467 heartbeat IPC: 1.71214 cumulative IPC: 1.55733 (Simulation time: 0 hr 27 min 47 sec) 
Heartbeat CPU 0 instructions: 910000002 cycles: 522613051 heartbeat IPC: 1.74168 cumulative IPC: 1.55965 (Simulation time: 0 hr 28 min 5 sec) 
Heartbeat CPU 0 instructions: 920000000 cycles: 532381104 heartbeat IPC: 1.02375 cumulative IPC: 1.54839 (Simulation time: 0 hr 28 min 29 sec) 
Heartbeat CPU 0 instructions: 930000003 cycles: 540491864 heartbeat IPC: 1.23293 cumulative IPC: 1.54299 (Simulation time: 0 hr 28 min 51 sec) 
Heartbeat CPU 0 instructions: 940000000 cycles: 546375725 heartbeat IPC: 1.69956 cumulative IPC: 1.54491 (Simulation time: 0 hr 29 min 10 sec) 
Heartbeat CPU 0 instructions: 950000003 cycles: 552624777 heartbeat IPC: 1.60024 cumulative IPC: 1.54562 (Simulation time: 0 hr 29 min 29 sec) 
Heartbeat CPU 0 instructions: 960000000 cycles: 558993946 heartbeat IPC: 1.57006 cumulative IPC: 1.54594 (Simulation time: 0 hr 29 min 48 sec) 
Heartbeat CPU 0 instructions: 970000000 cycles: 564879334 heartbeat IPC: 1.69912 cumulative IPC: 1.54775 (Simulation time: 0 hr 30 min 7 sec) 
Heartbeat CPU 0 instructions: 980000000 cycles: 571306830 heartbeat IPC: 1.55582 cumulative IPC: 1.54785 (Simulation time: 0 hr 30 min 26 sec) 
Heartbeat CPU 0 instructions: 990000002 cycles: 577568903 heartbeat IPC: 1.59692 cumulative IPC: 1.54846 (Simulation time: 0 hr 30 min 45 sec) 
Heartbeat CPU 0 instructions: 1000000000 cycles: 583453324 heartbeat IPC: 1.6994 cumulative IPC: 1.55018 (Simulation time: 0 hr 31 min 3 sec) 
Heartbeat CPU 0 instructions: 1010000001 cycles: 590257773 heartbeat IPC: 1.46963 cumulative IPC: 1.54913 (Simulation time: 0 hr 31 min 23 sec) 
Heartbeat CPU 0 instructions: 1020000000 cycles: 596477002 heartbeat IPC: 1.60792 cumulative IPC: 1.54982 (Simulation time: 0 hr 31 min 41 sec) 
Heartbeat CPU 0 instructions: 1030000001 cycles: 602656766 heartbeat IPC: 1.61818 cumulative IPC: 1.55061 (Simulation time: 0 hr 32 min 0 sec) 
Heartbeat CPU 0 instructions: 1040000000 cycles: 608809497 heartbeat IPC: 1.62529 cumulative IPC: 1.55146 (Simulation time: 0 hr 32 min 19 sec) 
Heartbeat CPU 0 instructions: 1050000001 cycles: 614949219 heartbeat IPC: 1.62874 cumulative IPC: 1.55232 (Simulation time: 0 hr 32 min 38 sec) 
Heartbeat CPU 0 instructions: 1060000000 cycles: 620683581 heartbeat IPC: 1.74387 cumulative IPC: 1.55431 (Simulation time: 0 hr 32 min 56 sec) 
Heartbeat CPU 0 instructions: 1070000001 cycles: 626242756 heartbeat IPC: 1.79883 cumulative IPC: 1.55674 (Simulation time: 0 hr 33 min 14 sec) 
Heartbeat CPU 0 instructions: 1080000000 cycles: 632294418 heartbeat IPC: 1.65244 cumulative IPC: 1.55777 (Simulation time: 0 hr 33 min 33 sec) 
Heartbeat CPU 0 instructions: 1090000003 cycles: 638668066 heartbeat IPC: 1.56896 cumulative IPC: 1.55789 (Simulation time: 0 hr 33 min 52 sec) 
Heartbeat CPU 0 instructions: 1100000000 cycles: 644788414 heartbeat IPC: 1.63389 cumulative IPC: 1.5587 (Simulation time: 0 hr 34 min 11 sec) 
Heartbeat CPU 0 instructions: 1110000001 cycles: 650235505 heartbeat IPC: 1.83584 cumulative IPC: 1.56129 (Simulation time: 0 hr 34 min 29 sec) 
Heartbeat CPU 0 instructions: 1120000000 cycles: 655918440 heartbeat IPC: 1.75965 cumulative IPC: 1.5632 (Simulation time: 0 hr 34 min 47 sec) 
Heartbeat CPU 0 instructions: 1130000000 cycles: 664819256 heartbeat IPC: 1.12349 cumulative IPC: 1.55665 (Simulation time: 0 hr 35 min 10 sec) 
Heartbeat CPU 0 instructions: 1140000000 cycles: 673393518 heartbeat IPC: 1.16628 cumulative IPC: 1.55113 (Simulation time: 0 hr 35 min 33 sec) 
Heartbeat CPU 0 instructions: 1150000002 cycles: 679366314 heartbeat IPC: 1.67426 cumulative IPC: 1.55233 (Simulation time: 0 hr 35 min 52 sec) 
Heartbeat CPU 0 instructions: 1160000000 cycles: 685598557 heartbeat IPC: 1.60456 cumulative IPC: 1.55286 (Simulation time: 0 hr 36 min 11 sec) 
Heartbeat CPU 0 instructions: 1170000000 cycles: 691908949 heartbeat IPC: 1.58469 cumulative IPC: 1.55318 (Simulation time: 0 hr 36 min 30 sec) 
Heartbeat CPU 0 instructions: 1180000000 cycles: 697801667 heartbeat IPC: 1.69701 cumulative IPC: 1.55452 (Simulation time: 0 hr 36 min 49 sec) 
Heartbeat CPU 0 instructions: 1190000002 cycles: 704246093 heartbeat IPC: 1.55173 cumulative IPC: 1.5545 (Simulation time: 0 hr 37 min 8 sec) 
Heartbeat CPU 0 instructions: 1200000000 cycles: 710497274 heartbeat IPC: 1.5997 cumulative IPC: 1.55493 (Simulation time: 0 hr 37 min 27 sec) 
Finished CPU 0 instructions: 1000000000 cycles: 643113971 cumulative IPC: 1.55493 (Simulation time: 0 hr 37 min 27 sec) 

CPU 0 Branch Prediction Accuracy: 98.8547% MPKI: 0.563134

ChampSim completed all CPUs

Region of Interest Statistics

CPU 0 cumulative IPC: 1.55493 instructions: 1000000000 cycles: 643113971
L1D TOTAL     ACCESS:  173791145  HIT:  161273766  MISS:   12517379
L1D LOAD      ACCESS:  149185974  HIT:  136823069  MISS:   12362905
L1D RFO       ACCESS:   24605171  HIT:   24450697  MISS:     154474
L1D PREFETCH  ACCESS:          0  HIT:          0  MISS:          0
L1D WRITEBACK ACCESS:          0  HIT:          0  MISS:          0
L1D PREFETCH  REQUESTED:          0  ISSUED:          0  USEFUL:          0  USELESS:          0
L1I TOTAL     ACCESS:  206030802  HIT:  206029668  MISS:       1134
L1I LOAD      ACCESS:  206030802  HIT:  206029668  MISS:       1134
L1I RFO       ACCESS:          0  HIT:          0  MISS:          0
L1I PREFETCH  ACCESS:          0  HIT:          0  MISS:          0
L1I WRITEBACK ACCESS:          0  HIT:          0  MISS:          0
L1I PREFETCH  REQUESTED:          0  ISSUED:          0  USEFUL:          0  USELESS:          0
L2C TOTAL     ACCESS:   14873846  HIT:    5382138  MISS:    9491708
L2C LOAD      ACCESS:   12364035  HIT:    3045051  MISS:    9318984
L2C RFO       ACCESS:     154474  HIT:       9462  MISS:     145012
L2C PREFETCH  ACCESS:          0  HIT:          0  MISS:          0
L2C WRITEBACK ACCESS:    2355337  HIT:    2327625  MISS:      27712
L2C PREFETCH  REQUESTED:          0  ISSUED:          0  USEFUL:          0  USELESS:          0
LLC TOTAL     ACCESS:   11379813  HIT:   10513330  MISS:     866483
LLC LOAD      ACCESS:    9318976  HIT:    8501091  MISS:     817885
LLC RFO       ACCESS:     145012  HIT:      96679  MISS:      48333
LLC PREFETCH  ACCESS:          0  HIT:          0  MISS:          0
LLC WRITEBACK ACCESS:    1915825  HIT:    1915560  MISS:        265
LLC PREFETCH  REQUESTED:          0  ISSUED:          0  USEFUL:          0  USELESS:          0
Major fault: 0 Minor fault: 4249

DRAM Statistics
 CHANNEL 0
 RQ ROW_BUFFER_HIT:     819683  ROW_BUFFER_MISS:      46312
 DBUS_CONGESTED:     364638
 WQ ROW_BUFFER_HIT:      67096  ROW_BUFFER_MISS:      46850  FULL:          0

 AVG_CONGESTED_CYCLE: 11
