
*** ChampSim Multicore Out-of-Order Simulator ***

Warmup Instructions: 200000000
Simulation Instructions: 1000000000
Number of CPUs: 1
LLC sets: 2048
LLC ways: 16
Off-chip DRAM Size: 4096 MB Channels: 1 Width: 64-bit Data Rate: 1600 MT/s

CPU 0 runs /scratch/user/djimenez/champsim-traces/speccpu2006/xz/456.hmmer-327B.champsimtrace.xz
Heartbeat CPU 0 instructions: 10000002 cycles: 6251457 heartbeat IPC: 1.59963 cumulative IPC: 1.59963 (Simulation time: 0 hr 0 min 25 sec) 
Heartbeat CPU 0 instructions: 20000000 cycles: 12483883 heartbeat IPC: 1.60451 cumulative IPC: 1.60207 (Simulation time: 0 hr 0 min 50 sec) 
Heartbeat CPU 0 instructions: 30000000 cycles: 18718451 heartbeat IPC: 1.60396 cumulative IPC: 1.6027 (Simulation time: 0 hr 1 min 15 sec) 
Heartbeat CPU 0 instructions: 40000000 cycles: 24965980 heartbeat IPC: 1.60063 cumulative IPC: 1.60218 (Simulation time: 0 hr 1 min 40 sec) 
Heartbeat CPU 0 instructions: 50000000 cycles: 31212984 heartbeat IPC: 1.60077 cumulative IPC: 1.6019 (Simulation time: 0 hr 2 min 5 sec) 
Heartbeat CPU 0 instructions: 60000000 cycles: 37456906 heartbeat IPC: 1.60156 cumulative IPC: 1.60184 (Simulation time: 0 hr 2 min 30 sec) 
Heartbeat CPU 0 instructions: 70000002 cycles: 43703928 heartbeat IPC: 1.60076 cumulative IPC: 1.60169 (Simulation time: 0 hr 2 min 55 sec) 
Heartbeat CPU 0 instructions: 80000000 cycles: 49947434 heartbeat IPC: 1.60166 cumulative IPC: 1.60168 (Simulation time: 0 hr 3 min 20 sec) 
Heartbeat CPU 0 instructions: 90000002 cycles: 56186999 heartbeat IPC: 1.60268 cumulative IPC: 1.60179 (Simulation time: 0 hr 3 min 46 sec) 
Heartbeat CPU 0 instructions: 100000000 cycles: 62431239 heartbeat IPC: 1.60148 cumulative IPC: 1.60176 (Simulation time: 0 hr 4 min 11 sec) 
Heartbeat CPU 0 instructions: 110000001 cycles: 68678335 heartbeat IPC: 1.60074 cumulative IPC: 1.60167 (Simulation time: 0 hr 4 min 36 sec) 
Heartbeat CPU 0 instructions: 120000000 cycles: 74923582 heartbeat IPC: 1.60122 cumulative IPC: 1.60163 (Simulation time: 0 hr 5 min 1 sec) 
Heartbeat CPU 0 instructions: 130000001 cycles: 81160723 heartbeat IPC: 1.6033 cumulative IPC: 1.60176 (Simulation time: 0 hr 5 min 26 sec) 
Heartbeat CPU 0 instructions: 140000000 cycles: 87393433 heartbeat IPC: 1.60444 cumulative IPC: 1.60195 (Simulation time: 0 hr 5 min 51 sec) 
Heartbeat CPU 0 instructions: 150000001 cycles: 93641072 heartbeat IPC: 1.6006 cumulative IPC: 1.60186 (Simulation time: 0 hr 6 min 16 sec) 
Heartbeat CPU 0 instructions: 160000000 cycles: 99878695 heartbeat IPC: 1.60317 cumulative IPC: 1.60194 (Simulation time: 0 hr 6 min 41 sec) 
Heartbeat CPU 0 instructions: 170000000 cycles: 106123170 heartbeat IPC: 1.60142 cumulative IPC: 1.60191 (Simulation time: 0 hr 7 min 6 sec) 
Heartbeat CPU 0 instructions: 180000000 cycles: 112337440 heartbeat IPC: 1.6092 cumulative IPC: 1.60232 (Simulation time: 0 hr 7 min 30 sec) 
Heartbeat CPU 0 instructions: 190000000 cycles: 118591321 heartbeat IPC: 1.59901 cumulative IPC: 1.60214 (Simulation time: 0 hr 7 min 56 sec) 
Heartbeat CPU 0 instructions: 200000000 cycles: 124841316 heartbeat IPC: 1.6 cumulative IPC: 1.60203 (Simulation time: 0 hr 8 min 21 sec) 

Warmup complete CPU 0 instructions: 200000001 cycles: 124841318 (Simulation time: 0 hr 8 min 21 sec) 

Heartbeat CPU 0 instructions: 210000000 cycles: 134685274 heartbeat IPC: 1.01585 cumulative IPC: 1.01585 (Simulation time: 0 hr 8 min 52 sec) 
Heartbeat CPU 0 instructions: 220000000 cycles: 144630551 heartbeat IPC: 1.0055 cumulative IPC: 1.01065 (Simulation time: 0 hr 9 min 23 sec) 
Heartbeat CPU 0 instructions: 230000003 cycles: 154418563 heartbeat IPC: 1.02166 cumulative IPC: 1.01429 (Simulation time: 0 hr 9 min 54 sec) 
Heartbeat CPU 0 instructions: 240000000 cycles: 164342057 heartbeat IPC: 1.00771 cumulative IPC: 1.01264 (Simulation time: 0 hr 10 min 24 sec) 
Heartbeat CPU 0 instructions: 250000002 cycles: 174124153 heartbeat IPC: 1.02228 cumulative IPC: 1.01455 (Simulation time: 0 hr 10 min 55 sec) 
Heartbeat CPU 0 instructions: 260000000 cycles: 184019177 heartbeat IPC: 1.01061 cumulative IPC: 1.01389 (Simulation time: 0 hr 11 min 26 sec) 
Heartbeat CPU 0 instructions: 270000000 cycles: 193925352 heartbeat IPC: 1.00947 cumulative IPC: 1.01326 (Simulation time: 0 hr 11 min 57 sec) 
Heartbeat CPU 0 instructions: 280000000 cycles: 203769560 heartbeat IPC: 1.01583 cumulative IPC: 1.01358 (Simulation time: 0 hr 12 min 28 sec) 
Heartbeat CPU 0 instructions: 290000002 cycles: 213675361 heartbeat IPC: 1.00951 cumulative IPC: 1.01313 (Simulation time: 0 hr 12 min 59 sec) 
Heartbeat CPU 0 instructions: 300000000 cycles: 223484001 heartbeat IPC: 1.01951 cumulative IPC: 1.01376 (Simulation time: 0 hr 13 min 30 sec) 
Heartbeat CPU 0 instructions: 310000001 cycles: 233381014 heartbeat IPC: 1.01041 cumulative IPC: 1.01345 (Simulation time: 0 hr 14 min 1 sec) 
Heartbeat CPU 0 instructions: 320000000 cycles: 243199730 heartbeat IPC: 1.01846 cumulative IPC: 1.01387 (Simulation time: 0 hr 14 min 32 sec) 
Heartbeat CPU 0 instructions: 330000002 cycles: 253126669 heartbeat IPC: 1.00736 cumulative IPC: 1.01337 (Simulation time: 0 hr 15 min 3 sec) 
Heartbeat CPU 0 instructions: 340000000 cycles: 262964942 heartbeat IPC: 1.01644 cumulative IPC: 1.01358 (Simulation time: 0 hr 15 min 34 sec) 
Heartbeat CPU 0 instructions: 350000003 cycles: 272854661 heartbeat IPC: 1.01115 cumulative IPC: 1.01342 (Simulation time: 0 hr 16 min 5 sec) 
Heartbeat CPU 0 instructions: 360000000 cycles: 282659773 heartbeat IPC: 1.01988 cumulative IPC: 1.01382 (Simulation time: 0 hr 16 min 36 sec) 
Heartbeat CPU 0 instructions: 370000001 cycles: 292562864 heartbeat IPC: 1.00979 cumulative IPC: 1.01358 (Simulation time: 0 hr 17 min 7 sec) 
Heartbeat CPU 0 instructions: 380000000 cycles: 302356670 heartbeat IPC: 1.02105 cumulative IPC: 1.014 (Simulation time: 0 hr 17 min 38 sec) 
Heartbeat CPU 0 instructions: 390000000 cycles: 312256335 heartbeat IPC: 1.01014 cumulative IPC: 1.01379 (Simulation time: 0 hr 18 min 9 sec) 
Heartbeat CPU 0 instructions: 400000000 cycles: 322152378 heartbeat IPC: 1.0105 cumulative IPC: 1.01363 (Simulation time: 0 hr 18 min 40 sec) 
Heartbeat CPU 0 instructions: 410000000 cycles: 332013756 heartbeat IPC: 1.01406 cumulative IPC: 1.01365 (Simulation time: 0 hr 19 min 11 sec) 
Heartbeat CPU 0 instructions: 420000000 cycles: 340854084 heartbeat IPC: 1.13118 cumulative IPC: 1.01846 (Simulation time: 0 hr 19 min 40 sec) 
Heartbeat CPU 0 instructions: 430000002 cycles: 350663556 heartbeat IPC: 1.01942 cumulative IPC: 1.0185 (Simulation time: 0 hr 20 min 11 sec) 
Heartbeat CPU 0 instructions: 440000000 cycles: 360369231 heartbeat IPC: 1.03032 cumulative IPC: 1.01899 (Simulation time: 0 hr 20 min 42 sec) 
Heartbeat CPU 0 instructions: 450000001 cycles: 369417892 heartbeat IPC: 1.10514 cumulative IPC: 1.02217 (Simulation time: 0 hr 21 min 12 sec) 
Heartbeat CPU 0 instructions: 460000000 cycles: 378402952 heartbeat IPC: 1.11296 cumulative IPC: 1.02539 (Simulation time: 0 hr 21 min 42 sec) 
Heartbeat CPU 0 instructions: 470000001 cycles: 388180064 heartbeat IPC: 1.0228 cumulative IPC: 1.0253 (Simulation time: 0 hr 22 min 13 sec) 
Heartbeat CPU 0 instructions: 480000000 cycles: 397517251 heartbeat IPC: 1.07099 cumulative IPC: 1.02686 (Simulation time: 0 hr 22 min 43 sec) 
Heartbeat CPU 0 instructions: 490000000 cycles: 407421793 heartbeat IPC: 1.00964 cumulative IPC: 1.02626 (Simulation time: 0 hr 23 min 14 sec) 
Heartbeat CPU 0 instructions: 500000000 cycles: 417206013 heartbeat IPC: 1.02205 cumulative IPC: 1.02612 (Simulation time: 0 hr 23 min 45 sec) 
Heartbeat CPU 0 instructions: 510000002 cycles: 427127635 heartbeat IPC: 1.0079 cumulative IPC: 1.02552 (Simulation time: 0 hr 24 min 16 sec) 
Heartbeat CPU 0 instructions: 520000000 cycles: 436953628 heartbeat IPC: 1.01771 cumulative IPC: 1.02527 (Simulation time: 0 hr 24 min 47 sec) 
Heartbeat CPU 0 instructions: 530000003 cycles: 446852960 heartbeat IPC: 1.01017 cumulative IPC: 1.02481 (Simulation time: 0 hr 25 min 18 sec) 
Heartbeat CPU 0 instructions: 540000000 cycles: 456632262 heartbeat IPC: 1.02257 cumulative IPC: 1.02474 (Simulation time: 0 hr 25 min 49 sec) 
Heartbeat CPU 0 instructions: 550000001 cycles: 466567434 heartbeat IPC: 1.00653 cumulative IPC: 1.02421 (Simulation time: 0 hr 26 min 20 sec) 
Heartbeat CPU 0 instructions: 560000000 cycles: 476411022 heartbeat IPC: 1.01589 cumulative IPC: 1.02398 (Simulation time: 0 hr 26 min 51 sec) 
Heartbeat CPU 0 instructions: 570000001 cycles: 486287319 heartbeat IPC: 1.01253 cumulative IPC: 1.02367 (Simulation time: 0 hr 27 min 22 sec) 
Heartbeat CPU 0 instructions: 580000000 cycles: 496165465 heartbeat IPC: 1.01234 cumulative IPC: 1.02336 (Simulation time: 0 hr 27 min 53 sec) 
Heartbeat CPU 0 instructions: 590000000 cycles: 505974000 heartbeat IPC: 1.01952 cumulative IPC: 1.02327 (Simulation time: 0 hr 28 min 24 sec) 
Heartbeat CPU 0 instructions: 600000000 cycles: 515848570 heartbeat IPC: 1.0127 cumulative IPC: 1.023 (Simulation time: 0 hr 28 min 55 sec) 
Heartbeat CPU 0 instructions: 610000000 cycles: 525723579 heartbeat IPC: 1.01266 cumulative IPC: 1.02274 (Simulation time: 0 hr 29 min 26 sec) 
Heartbeat CPU 0 instructions: 620000000 cycles: 535522949 heartbeat IPC: 1.02047 cumulative IPC: 1.02269 (Simulation time: 0 hr 29 min 57 sec) 
Heartbeat CPU 0 instructions: 630000002 cycles: 545363722 heartbeat IPC: 1.01618 cumulative IPC: 1.02254 (Simulation time: 0 hr 30 min 28 sec) 
Heartbeat CPU 0 instructions: 640000000 cycles: 555164320 heartbeat IPC: 1.02035 cumulative IPC: 1.02249 (Simulation time: 0 hr 30 min 59 sec) 
Heartbeat CPU 0 instructions: 650000000 cycles: 565034613 heartbeat IPC: 1.01314 cumulative IPC: 1.02228 (Simulation time: 0 hr 31 min 29 sec) 
Heartbeat CPU 0 instructions: 660000000 cycles: 574946894 heartbeat IPC: 1.00885 cumulative IPC: 1.02198 (Simulation time: 0 hr 32 min 0 sec) 
Heartbeat CPU 0 instructions: 670000003 cycles: 584769058 heartbeat IPC: 1.01811 cumulative IPC: 1.0219 (Simulation time: 0 hr 32 min 31 sec) 
Heartbeat CPU 0 instructions: 680000000 cycles: 594627232 heartbeat IPC: 1.01439 cumulative IPC: 1.02174 (Simulation time: 0 hr 33 min 2 sec) 
Heartbeat CPU 0 instructions: 690000000 cycles: 604524295 heartbeat IPC: 1.0104 cumulative IPC: 1.02151 (Simulation time: 0 hr 33 min 33 sec) 
Heartbeat CPU 0 instructions: 700000000 cycles: 614311524 heartbeat IPC: 1.02174 cumulative IPC: 1.02151 (Simulation time: 0 hr 34 min 4 sec) 
Heartbeat CPU 0 instructions: 710000001 cycles: 624164411 heartbeat IPC: 1.01493 cumulative IPC: 1.02138 (Simulation time: 0 hr 34 min 35 sec) 
Heartbeat CPU 0 instructions: 720000000 cycles: 633949531 heartbeat IPC: 1.02196 cumulative IPC: 1.02139 (Simulation time: 0 hr 35 min 6 sec) 
Heartbeat CPU 0 instructions: 730000001 cycles: 643484749 heartbeat IPC: 1.04874 cumulative IPC: 1.0219 (Simulation time: 0 hr 35 min 37 sec) 
Heartbeat CPU 0 instructions: 740000000 cycles: 653312634 heartbeat IPC: 1.01751 cumulative IPC: 1.02182 (Simulation time: 0 hr 36 min 8 sec) 
Heartbeat CPU 0 instructions: 750000001 cycles: 663208864 heartbeat IPC: 1.01049 cumulative IPC: 1.02161 (Simulation time: 0 hr 36 min 39 sec) 
Heartbeat CPU 0 instructions: 760000000 cycles: 673044925 heartbeat IPC: 1.01667 cumulative IPC: 1.02152 (Simulation time: 0 hr 37 min 10 sec) 
Heartbeat CPU 0 instructions: 770000000 cycles: 682954865 heartbeat IPC: 1.00909 cumulative IPC: 1.0213 (Simulation time: 0 hr 37 min 41 sec) 
Heartbeat CPU 0 instructions: 780000000 cycles: 692770554 heartbeat IPC: 1.01878 cumulative IPC: 1.02125 (Simulation time: 0 hr 38 min 12 sec) 
Heartbeat CPU 0 instructions: 790000001 cycles: 702726034 heartbeat IPC: 1.00447 cumulative IPC: 1.02096 (Simulation time: 0 hr 38 min 42 sec) 
Heartbeat CPU 0 instructions: 800000000 cycles: 712519173 heartbeat IPC: 1.02112 cumulative IPC: 1.02097 (Simulation time: 0 hr 39 min 13 sec) 
Heartbeat CPU 0 instructions: 810000001 cycles: 722329840 heartbeat IPC: 1.0193 cumulative IPC: 1.02094 (Simulation time: 0 hr 39 min 44 sec) 
Heartbeat CPU 0 instructions: 820000000 cycles: 732131425 heartbeat IPC: 1.02024 cumulative IPC: 1.02093 (Simulation time: 0 hr 40 min 15 sec) 
Heartbeat CPU 0 instructions: 830000001 cycles: 742087494 heartbeat IPC: 1.00441 cumulative IPC: 1.02066 (Simulation time: 0 hr 40 min 46 sec) 
Heartbeat CPU 0 instructions: 840000000 cycles: 751341811 heartbeat IPC: 1.08058 cumulative IPC: 1.02155 (Simulation time: 0 hr 41 min 17 sec) 
Heartbeat CPU 0 instructions: 850000001 cycles: 760913673 heartbeat IPC: 1.04473 cumulative IPC: 1.0219 (Simulation time: 0 hr 41 min 47 sec) 
Heartbeat CPU 0 instructions: 860000000 cycles: 770061026 heartbeat IPC: 1.09321 cumulative IPC: 1.02291 (Simulation time: 0 hr 42 min 17 sec) 
Heartbeat CPU 0 instructions: 870000000 cycles: 779184299 heartbeat IPC: 1.0961 cumulative IPC: 1.02393 (Simulation time: 0 hr 42 min 47 sec) 
Heartbeat CPU 0 instructions: 880000000 cycles: 788461828 heartbeat IPC: 1.07787 cumulative IPC: 1.02468 (Simulation time: 0 hr 43 min 18 sec) 
Heartbeat CPU 0 instructions: 890000002 cycles: 797918861 heartbeat IPC: 1.05741 cumulative IPC: 1.02514 (Simulation time: 0 hr 43 min 48 sec) 
Heartbeat CPU 0 instructions: 900000000 cycles: 807369496 heartbeat IPC: 1.05813 cumulative IPC: 1.0256 (Simulation time: 0 hr 44 min 19 sec) 
Heartbeat CPU 0 instructions: 910000003 cycles: 816789334 heartbeat IPC: 1.06159 cumulative IPC: 1.02609 (Simulation time: 0 hr 44 min 49 sec) 
Heartbeat CPU 0 instructions: 920000000 cycles: 826186252 heartbeat IPC: 1.06418 cumulative IPC: 1.0266 (Simulation time: 0 hr 45 min 20 sec) 
Heartbeat CPU 0 instructions: 930000003 cycles: 835405160 heartbeat IPC: 1.08473 cumulative IPC: 1.02735 (Simulation time: 0 hr 45 min 50 sec) 
Heartbeat CPU 0 instructions: 940000000 cycles: 844266882 heartbeat IPC: 1.12845 cumulative IPC: 1.0286 (Simulation time: 0 hr 46 min 20 sec) 
Heartbeat CPU 0 instructions: 950000002 cycles: 853452252 heartbeat IPC: 1.08869 cumulative IPC: 1.02936 (Simulation time: 0 hr 46 min 50 sec) 
Heartbeat CPU 0 instructions: 960000000 cycles: 862919362 heartbeat IPC: 1.05629 cumulative IPC: 1.0297 (Simulation time: 0 hr 47 min 20 sec) 
Heartbeat CPU 0 instructions: 970000000 cycles: 871781276 heartbeat IPC: 1.12842 cumulative IPC: 1.03087 (Simulation time: 0 hr 47 min 50 sec) 
Heartbeat CPU 0 instructions: 980000000 cycles: 880610619 heartbeat IPC: 1.13259 cumulative IPC: 1.03206 (Simulation time: 0 hr 48 min 20 sec) 
Heartbeat CPU 0 instructions: 990000002 cycles: 889451143 heartbeat IPC: 1.13115 cumulative IPC: 1.03321 (Simulation time: 0 hr 48 min 50 sec) 
Heartbeat CPU 0 instructions: 1000000000 cycles: 898324843 heartbeat IPC: 1.12693 cumulative IPC: 1.03428 (Simulation time: 0 hr 49 min 20 sec) 
Heartbeat CPU 0 instructions: 1010000000 cycles: 907156962 heartbeat IPC: 1.13223 cumulative IPC: 1.03539 (Simulation time: 0 hr 49 min 49 sec) 
Heartbeat CPU 0 instructions: 1020000000 cycles: 915993338 heartbeat IPC: 1.13169 cumulative IPC: 1.03646 (Simulation time: 0 hr 50 min 19 sec) 
Heartbeat CPU 0 instructions: 1030000003 cycles: 924815624 heartbeat IPC: 1.13349 cumulative IPC: 1.03753 (Simulation time: 0 hr 50 min 49 sec) 
Heartbeat CPU 0 instructions: 1040000000 cycles: 934013856 heartbeat IPC: 1.08717 cumulative IPC: 1.0381 (Simulation time: 0 hr 51 min 19 sec) 
Heartbeat CPU 0 instructions: 1050000000 cycles: 943380240 heartbeat IPC: 1.06765 cumulative IPC: 1.03844 (Simulation time: 0 hr 51 min 49 sec) 
Heartbeat CPU 0 instructions: 1060000000 cycles: 952809915 heartbeat IPC: 1.06048 cumulative IPC: 1.03869 (Simulation time: 0 hr 52 min 20 sec) 
Heartbeat CPU 0 instructions: 1070000000 cycles: 961639761 heartbeat IPC: 1.13252 cumulative IPC: 1.03968 (Simulation time: 0 hr 52 min 49 sec) 
Heartbeat CPU 0 instructions: 1080000000 cycles: 970620215 heartbeat IPC: 1.11353 cumulative IPC: 1.04046 (Simulation time: 0 hr 53 min 19 sec) 
Heartbeat CPU 0 instructions: 1090000000 cycles: 979472542 heartbeat IPC: 1.12965 cumulative IPC: 1.04138 (Simulation time: 0 hr 53 min 49 sec) 
Heartbeat CPU 0 instructions: 1100000000 cycles: 988298571 heartbeat IPC: 1.13301 cumulative IPC: 1.04232 (Simulation time: 0 hr 54 min 19 sec) 
Heartbeat CPU 0 instructions: 1110000001 cycles: 997294262 heartbeat IPC: 1.11164 cumulative IPC: 1.04304 (Simulation time: 0 hr 54 min 49 sec) 
Heartbeat CPU 0 instructions: 1120000000 cycles: 1006200042 heartbeat IPC: 1.12287 cumulative IPC: 1.04384 (Simulation time: 0 hr 55 min 18 sec) 
Heartbeat CPU 0 instructions: 1130000003 cycles: 1015025970 heartbeat IPC: 1.13303 cumulative IPC: 1.04473 (Simulation time: 0 hr 55 min 48 sec) 
Heartbeat CPU 0 instructions: 1140000000 cycles: 1023832927 heartbeat IPC: 1.13547 cumulative IPC: 1.04562 (Simulation time: 0 hr 56 min 18 sec) 
Heartbeat CPU 0 instructions: 1150000002 cycles: 1032662772 heartbeat IPC: 1.13252 cumulative IPC: 1.04646 (Simulation time: 0 hr 56 min 48 sec) 
Heartbeat CPU 0 instructions: 1160000000 cycles: 1042041818 heartbeat IPC: 1.06621 cumulative IPC: 1.04666 (Simulation time: 0 hr 57 min 18 sec) 
Heartbeat CPU 0 instructions: 1170000000 cycles: 1051526073 heartbeat IPC: 1.05438 cumulative IPC: 1.04674 (Simulation time: 0 hr 57 min 49 sec) 
Heartbeat CPU 0 instructions: 1180000000 cycles: 1060362095 heartbeat IPC: 1.13173 cumulative IPC: 1.04754 (Simulation time: 0 hr 58 min 18 sec) 
Heartbeat CPU 0 instructions: 1190000001 cycles: 1069598564 heartbeat IPC: 1.08266 cumulative IPC: 1.04789 (Simulation time: 0 hr 58 min 49 sec) 
Heartbeat CPU 0 instructions: 1200000000 cycles: 1079371425 heartbeat IPC: 1.02324 cumulative IPC: 1.04764 (Simulation time: 0 hr 59 min 19 sec) 
Finished CPU 0 instructions: 1000000000 cycles: 954530126 cumulative IPC: 1.04764 (Simulation time: 0 hr 59 min 19 sec) 

CPU 0 Branch Prediction Accuracy: 99.5945% MPKI: 0.177783

ChampSim completed all CPUs

Region of Interest Statistics

CPU 0 cumulative IPC: 1.04764 instructions: 1000000000 cycles: 954530126
L1D TOTAL     ACCESS:  388644334  HIT:  383839626  MISS:    4804708
L1D LOAD      ACCESS:  308929192  HIT:  306786456  MISS:    2142736
L1D RFO       ACCESS:   79715142  HIT:   77053170  MISS:    2661972
L1D PREFETCH  ACCESS:          0  HIT:          0  MISS:          0
L1D WRITEBACK ACCESS:          0  HIT:          0  MISS:          0
L1D PREFETCH  REQUESTED:          0  ISSUED:          0  USEFUL:          0  USELESS:          0
L1I TOTAL     ACCESS:  273438264  HIT:  273438254  MISS:         10
L1I LOAD      ACCESS:  273438264  HIT:  273438254  MISS:         10
L1I RFO       ACCESS:          0  HIT:          0  MISS:          0
L1I PREFETCH  ACCESS:          0  HIT:          0  MISS:          0
L1I WRITEBACK ACCESS:          0  HIT:          0  MISS:          0
L1I PREFETCH  REQUESTED:          0  ISSUED:          0  USEFUL:          0  USELESS:          0
L2C TOTAL     ACCESS:    7472163  HIT:    4551695  MISS:    2920468
L2C LOAD      ACCESS:    2140723  HIT:    1878899  MISS:     261824
L2C RFO       ACCESS:    2661971  HIT:       3621  MISS:    2658350
L2C PREFETCH  ACCESS:          0  HIT:          0  MISS:          0
L2C WRITEBACK ACCESS:    2669469  HIT:    2669175  MISS:        294
L2C PREFETCH  REQUESTED:          0  ISSUED:          0  USEFUL:          0  USELESS:          0
LLC TOTAL     ACCESS:    5583593  HIT:    3681805  MISS:    1901788
LLC LOAD      ACCESS:     261824  HIT:     226111  MISS:      35713
LLC RFO       ACCESS:    2658350  HIT:     792404  MISS:    1865946
LLC PREFETCH  ACCESS:          0  HIT:          0  MISS:          0
LLC WRITEBACK ACCESS:    2663419  HIT:    2663290  MISS:        129
LLC PREFETCH  REQUESTED:          0  ISSUED:          0  USEFUL:          0  USELESS:          0
Major fault: 0 Minor fault: 2501

DRAM Statistics
 CHANNEL 0
 RQ ROW_BUFFER_HIT:    1512359  ROW_BUFFER_MISS:     389116
 DBUS_CONGESTED:    1769760
 WQ ROW_BUFFER_HIT:    1266340  ROW_BUFFER_MISS:     606811  FULL:          0

 AVG_CONGESTED_CYCLE: 14
