
*** ChampSim Multicore Out-of-Order Simulator ***

Warmup Instructions: 200000000
Simulation Instructions: 1000000000
Number of CPUs: 1
LLC sets: 2048
LLC ways: 16
Off-chip DRAM Size: 4096 MB Channels: 1 Width: 64-bit Data Rate: 1600 MT/s

CPU 0 runs /scratch/user/djimenez/champsim-traces/speccpu2006/xz/465.tonto-1914B.champsimtrace.xz
Heartbeat CPU 0 instructions: 10000001 cycles: 5000327 heartbeat IPC: 1.99987 cumulative IPC: 1.99987 (Simulation time: 0 hr 0 min 18 sec) 
Heartbeat CPU 0 instructions: 20000000 cycles: 9849196 heartbeat IPC: 2.06234 cumulative IPC: 2.03062 (Simulation time: 0 hr 0 min 37 sec) 
Heartbeat CPU 0 instructions: 30000003 cycles: 15017808 heartbeat IPC: 1.93476 cumulative IPC: 1.99763 (Simulation time: 0 hr 0 min 57 sec) 
Heartbeat CPU 0 instructions: 40000000 cycles: 20237792 heartbeat IPC: 1.91571 cumulative IPC: 1.9765 (Simulation time: 0 hr 1 min 16 sec) 
Heartbeat CPU 0 instructions: 50000003 cycles: 25382492 heartbeat IPC: 1.94375 cumulative IPC: 1.96986 (Simulation time: 0 hr 1 min 35 sec) 
Heartbeat CPU 0 instructions: 60000000 cycles: 30303571 heartbeat IPC: 2.03207 cumulative IPC: 1.97996 (Simulation time: 0 hr 1 min 54 sec) 
Heartbeat CPU 0 instructions: 70000000 cycles: 35151790 heartbeat IPC: 2.06261 cumulative IPC: 1.99136 (Simulation time: 0 hr 2 min 12 sec) 
Heartbeat CPU 0 instructions: 80000000 cycles: 40130778 heartbeat IPC: 2.00844 cumulative IPC: 1.99348 (Simulation time: 0 hr 2 min 31 sec) 
Heartbeat CPU 0 instructions: 90000002 cycles: 45354273 heartbeat IPC: 1.91443 cumulative IPC: 1.98438 (Simulation time: 0 hr 2 min 51 sec) 
Heartbeat CPU 0 instructions: 100000000 cycles: 50577267 heartbeat IPC: 1.91461 cumulative IPC: 1.97717 (Simulation time: 0 hr 3 min 11 sec) 
Heartbeat CPU 0 instructions: 110000003 cycles: 55905161 heartbeat IPC: 1.87691 cumulative IPC: 1.96762 (Simulation time: 0 hr 3 min 31 sec) 
Heartbeat CPU 0 instructions: 120000000 cycles: 60763333 heartbeat IPC: 2.05839 cumulative IPC: 1.97488 (Simulation time: 0 hr 3 min 49 sec) 
Heartbeat CPU 0 instructions: 130000000 cycles: 65695826 heartbeat IPC: 2.02737 cumulative IPC: 1.97882 (Simulation time: 0 hr 4 min 7 sec) 
Heartbeat CPU 0 instructions: 140000000 cycles: 70572622 heartbeat IPC: 2.05053 cumulative IPC: 1.98377 (Simulation time: 0 hr 4 min 26 sec) 
Heartbeat CPU 0 instructions: 150000000 cycles: 75364777 heartbeat IPC: 2.08674 cumulative IPC: 1.99032 (Simulation time: 0 hr 4 min 45 sec) 
Heartbeat CPU 0 instructions: 160000000 cycles: 80515487 heartbeat IPC: 1.94148 cumulative IPC: 1.9872 (Simulation time: 0 hr 5 min 4 sec) 
Heartbeat CPU 0 instructions: 170000003 cycles: 85732777 heartbeat IPC: 1.9167 cumulative IPC: 1.98291 (Simulation time: 0 hr 5 min 24 sec) 
Heartbeat CPU 0 instructions: 180000000 cycles: 90954544 heartbeat IPC: 1.91506 cumulative IPC: 1.97901 (Simulation time: 0 hr 5 min 44 sec) 
Heartbeat CPU 0 instructions: 190000001 cycles: 96180938 heartbeat IPC: 1.91337 cumulative IPC: 1.97544 (Simulation time: 0 hr 6 min 4 sec) 
Heartbeat CPU 0 instructions: 200000000 cycles: 101380188 heartbeat IPC: 1.92335 cumulative IPC: 1.97277 (Simulation time: 0 hr 6 min 23 sec) 

Warmup complete CPU 0 instructions: 200000001 cycles: 101380205 (Simulation time: 0 hr 6 min 23 sec) 

Heartbeat CPU 0 instructions: 210000000 cycles: 113429985 heartbeat IPC: 0.829889 cumulative IPC: 0.829891 (Simulation time: 0 hr 6 min 49 sec) 
Heartbeat CPU 0 instructions: 220000000 cycles: 125906451 heartbeat IPC: 0.801509 cumulative IPC: 0.815453 (Simulation time: 0 hr 7 min 15 sec) 
Heartbeat CPU 0 instructions: 230000001 cycles: 139396483 heartbeat IPC: 0.741288 cumulative IPC: 0.789136 (Simulation time: 0 hr 7 min 43 sec) 
Heartbeat CPU 0 instructions: 240000000 cycles: 150963670 heartbeat IPC: 0.864514 cumulative IPC: 0.806721 (Simulation time: 0 hr 8 min 9 sec) 
Heartbeat CPU 0 instructions: 250000001 cycles: 165032738 heartbeat IPC: 0.710779 cumulative IPC: 0.785515 (Simulation time: 0 hr 8 min 37 sec) 
Heartbeat CPU 0 instructions: 260000000 cycles: 175650979 heartbeat IPC: 0.941776 cumulative IPC: 0.807855 (Simulation time: 0 hr 9 min 3 sec) 
Heartbeat CPU 0 instructions: 270000001 cycles: 189040734 heartbeat IPC: 0.74684 cumulative IPC: 0.798535 (Simulation time: 0 hr 9 min 31 sec) 
Heartbeat CPU 0 instructions: 280000000 cycles: 203096697 heartbeat IPC: 0.711442 cumulative IPC: 0.7865 (Simulation time: 0 hr 9 min 59 sec) 
Heartbeat CPU 0 instructions: 290000001 cycles: 214038761 heartbeat IPC: 0.913904 cumulative IPC: 0.798874 (Simulation time: 0 hr 10 min 25 sec) 
Heartbeat CPU 0 instructions: 300000000 cycles: 224485509 heartbeat IPC: 0.957236 cumulative IPC: 0.812313 (Simulation time: 0 hr 10 min 51 sec) 
Heartbeat CPU 0 instructions: 310000000 cycles: 239327124 heartbeat IPC: 0.673781 cumulative IPC: 0.797408 (Simulation time: 0 hr 11 min 19 sec) 
Heartbeat CPU 0 instructions: 320000000 cycles: 253602087 heartbeat IPC: 0.700527 cumulative IPC: 0.788323 (Simulation time: 0 hr 11 min 47 sec) 
Heartbeat CPU 0 instructions: 330000003 cycles: 265989038 heartbeat IPC: 0.807301 cumulative IPC: 0.789751 (Simulation time: 0 hr 12 min 14 sec) 
Heartbeat CPU 0 instructions: 340000000 cycles: 279281496 heartbeat IPC: 0.752306 cumulative IPC: 0.786953 (Simulation time: 0 hr 12 min 42 sec) 
Heartbeat CPU 0 instructions: 350000002 cycles: 290337386 heartbeat IPC: 0.904495 cumulative IPC: 0.793831 (Simulation time: 0 hr 13 min 8 sec) 
Heartbeat CPU 0 instructions: 360000000 cycles: 304930867 heartbeat IPC: 0.685237 cumulative IPC: 0.786045 (Simulation time: 0 hr 13 min 36 sec) 
Heartbeat CPU 0 instructions: 370000002 cycles: 315823265 heartbeat IPC: 0.918072 cumulative IPC: 0.792751 (Simulation time: 0 hr 14 min 2 sec) 
Heartbeat CPU 0 instructions: 380000000 cycles: 328199616 heartbeat IPC: 0.807992 cumulative IPC: 0.793583 (Simulation time: 0 hr 14 min 29 sec) 
Heartbeat CPU 0 instructions: 390000003 cycles: 342965747 heartbeat IPC: 0.677226 cumulative IPC: 0.786471 (Simulation time: 0 hr 14 min 58 sec) 
Heartbeat CPU 0 instructions: 400000000 cycles: 354090788 heartbeat IPC: 0.898873 cumulative IPC: 0.791419 (Simulation time: 0 hr 15 min 24 sec) 
Heartbeat CPU 0 instructions: 410000003 cycles: 364445221 heartbeat IPC: 0.96577 cumulative IPC: 0.798282 (Simulation time: 0 hr 15 min 49 sec) 
Heartbeat CPU 0 instructions: 420000000 cycles: 378628049 heartbeat IPC: 0.705078 cumulative IPC: 0.793514 (Simulation time: 0 hr 16 min 18 sec) 
Heartbeat CPU 0 instructions: 430000003 cycles: 393388437 heartbeat IPC: 0.677489 cumulative IPC: 0.787649 (Simulation time: 0 hr 16 min 46 sec) 
Heartbeat CPU 0 instructions: 440000000 cycles: 405151349 heartbeat IPC: 0.850129 cumulative IPC: 0.790068 (Simulation time: 0 hr 17 min 12 sec) 
Heartbeat CPU 0 instructions: 450000003 cycles: 416458868 heartbeat IPC: 0.884368 cumulative IPC: 0.793453 (Simulation time: 0 hr 17 min 38 sec) 
Heartbeat CPU 0 instructions: 460000000 cycles: 430104914 heartbeat IPC: 0.732813 cumulative IPC: 0.790935 (Simulation time: 0 hr 18 min 6 sec) 
Heartbeat CPU 0 instructions: 470000002 cycles: 440779689 heartbeat IPC: 0.936788 cumulative IPC: 0.795523 (Simulation time: 0 hr 18 min 32 sec) 
Heartbeat CPU 0 instructions: 480000000 cycles: 450616203 heartbeat IPC: 1.01662 cumulative IPC: 0.80175 (Simulation time: 0 hr 18 min 57 sec) 
Heartbeat CPU 0 instructions: 490000000 cycles: 464066740 heartbeat IPC: 0.743465 cumulative IPC: 0.799589 (Simulation time: 0 hr 19 min 24 sec) 
Heartbeat CPU 0 instructions: 500000000 cycles: 477016012 heartbeat IPC: 0.772244 cumulative IPC: 0.798646 (Simulation time: 0 hr 19 min 51 sec) 
Heartbeat CPU 0 instructions: 510000002 cycles: 487578347 heartbeat IPC: 0.946761 cumulative IPC: 0.802697 (Simulation time: 0 hr 20 min 17 sec) 
Heartbeat CPU 0 instructions: 520000000 cycles: 497657460 heartbeat IPC: 0.992151 cumulative IPC: 0.807515 (Simulation time: 0 hr 20 min 43 sec) 
Heartbeat CPU 0 instructions: 530000000 cycles: 507351010 heartbeat IPC: 1.03161 cumulative IPC: 0.812866 (Simulation time: 0 hr 21 min 8 sec) 
Heartbeat CPU 0 instructions: 540000000 cycles: 521172328 heartbeat IPC: 0.72352 cumulative IPC: 0.809925 (Simulation time: 0 hr 21 min 36 sec) 
Heartbeat CPU 0 instructions: 550000001 cycles: 534849187 heartbeat IPC: 0.731162 cumulative IPC: 0.80744 (Simulation time: 0 hr 22 min 3 sec) 
Heartbeat CPU 0 instructions: 560000000 cycles: 546728816 heartbeat IPC: 0.841777 cumulative IPC: 0.808356 (Simulation time: 0 hr 22 min 29 sec) 
Heartbeat CPU 0 instructions: 570000000 cycles: 557103378 heartbeat IPC: 0.963896 cumulative IPC: 0.811896 (Simulation time: 0 hr 22 min 55 sec) 
Heartbeat CPU 0 instructions: 580000000 cycles: 567032514 heartbeat IPC: 1.00714 cumulative IPC: 0.81606 (Simulation time: 0 hr 23 min 21 sec) 
Heartbeat CPU 0 instructions: 590000000 cycles: 576954806 heartbeat IPC: 1.00783 cumulative IPC: 0.820061 (Simulation time: 0 hr 23 min 46 sec) 
Heartbeat CPU 0 instructions: 600000000 cycles: 587405380 heartbeat IPC: 0.956885 cumulative IPC: 0.823003 (Simulation time: 0 hr 24 min 12 sec) 
Heartbeat CPU 0 instructions: 610000000 cycles: 601053929 heartbeat IPC: 0.732679 cumulative IPC: 0.820535 (Simulation time: 0 hr 24 min 39 sec) 
Heartbeat CPU 0 instructions: 620000000 cycles: 614840693 heartbeat IPC: 0.725333 cumulative IPC: 0.817979 (Simulation time: 0 hr 25 min 7 sec) 
Heartbeat CPU 0 instructions: 630000000 cycles: 627922204 heartbeat IPC: 0.764438 cumulative IPC: 0.816649 (Simulation time: 0 hr 25 min 34 sec) 
Heartbeat CPU 0 instructions: 640000000 cycles: 638918898 heartbeat IPC: 0.909364 cumulative IPC: 0.818546 (Simulation time: 0 hr 26 min 0 sec) 
Heartbeat CPU 0 instructions: 650000002 cycles: 650200255 heartbeat IPC: 0.886418 cumulative IPC: 0.819941 (Simulation time: 0 hr 26 min 26 sec) 
Heartbeat CPU 0 instructions: 660000000 cycles: 661200486 heartbeat IPC: 0.909072 cumulative IPC: 0.821692 (Simulation time: 0 hr 26 min 52 sec) 
Heartbeat CPU 0 instructions: 670000002 cycles: 674703805 heartbeat IPC: 0.740559 cumulative IPC: 0.819781 (Simulation time: 0 hr 27 min 20 sec) 
Heartbeat CPU 0 instructions: 680000000 cycles: 685158113 heartbeat IPC: 0.956543 cumulative IPC: 0.822231 (Simulation time: 0 hr 27 min 45 sec) 
Heartbeat CPU 0 instructions: 690000003 cycles: 695217710 heartbeat IPC: 0.994076 cumulative IPC: 0.825142 (Simulation time: 0 hr 28 min 11 sec) 
Heartbeat CPU 0 instructions: 700000000 cycles: 709029689 heartbeat IPC: 0.724009 cumulative IPC: 0.822843 (Simulation time: 0 hr 28 min 38 sec) 
Heartbeat CPU 0 instructions: 710000002 cycles: 721590067 heartbeat IPC: 0.796155 cumulative IPC: 0.822302 (Simulation time: 0 hr 29 min 5 sec) 
Heartbeat CPU 0 instructions: 720000000 cycles: 731837505 heartbeat IPC: 0.975854 cumulative IPC: 0.824798 (Simulation time: 0 hr 29 min 31 sec) 
Heartbeat CPU 0 instructions: 730000003 cycles: 741913738 heartbeat IPC: 0.992435 cumulative IPC: 0.827435 (Simulation time: 0 hr 29 min 56 sec) 
Heartbeat CPU 0 instructions: 740000000 cycles: 752230851 heartbeat IPC: 0.969263 cumulative IPC: 0.829683 (Simulation time: 0 hr 30 min 22 sec) 
Heartbeat CPU 0 instructions: 750000000 cycles: 765878343 heartbeat IPC: 0.732735 cumulative IPC: 0.827692 (Simulation time: 0 hr 30 min 49 sec) 
Heartbeat CPU 0 instructions: 760000000 cycles: 779680052 heartbeat IPC: 0.724548 cumulative IPC: 0.825594 (Simulation time: 0 hr 31 min 17 sec) 
Heartbeat CPU 0 instructions: 770000001 cycles: 791111514 heartbeat IPC: 0.874779 cumulative IPC: 0.826409 (Simulation time: 0 hr 31 min 43 sec) 
Heartbeat CPU 0 instructions: 780000000 cycles: 801389060 heartbeat IPC: 0.972995 cumulative IPC: 0.828561 (Simulation time: 0 hr 32 min 8 sec) 
Heartbeat CPU 0 instructions: 790000003 cycles: 811382496 heartbeat IPC: 1.00066 cumulative IPC: 0.830983 (Simulation time: 0 hr 32 min 34 sec) 
Heartbeat CPU 0 instructions: 800000000 cycles: 821222821 heartbeat IPC: 1.01623 cumulative IPC: 0.833516 (Simulation time: 0 hr 32 min 59 sec) 
Heartbeat CPU 0 instructions: 810000000 cycles: 832140424 heartbeat IPC: 0.915952 cumulative IPC: 0.834747 (Simulation time: 0 hr 33 min 25 sec) 
Heartbeat CPU 0 instructions: 820000000 cycles: 846016245 heartbeat IPC: 0.720678 cumulative IPC: 0.832622 (Simulation time: 0 hr 33 min 53 sec) 
Heartbeat CPU 0 instructions: 830000000 cycles: 859625658 heartbeat IPC: 0.734786 cumulative IPC: 0.830866 (Simulation time: 0 hr 34 min 20 sec) 
Heartbeat CPU 0 instructions: 840000000 cycles: 872365072 heartbeat IPC: 0.784965 cumulative IPC: 0.830107 (Simulation time: 0 hr 34 min 47 sec) 
Heartbeat CPU 0 instructions: 850000002 cycles: 883275474 heartbeat IPC: 0.916557 cumulative IPC: 0.831313 (Simulation time: 0 hr 35 min 13 sec) 
Heartbeat CPU 0 instructions: 860000000 cycles: 894820129 heartbeat IPC: 0.866202 cumulative IPC: 0.831821 (Simulation time: 0 hr 35 min 40 sec) 
Heartbeat CPU 0 instructions: 870000002 cycles: 905812162 heartbeat IPC: 0.90975 cumulative IPC: 0.832886 (Simulation time: 0 hr 36 min 5 sec) 
Heartbeat CPU 0 instructions: 880000000 cycles: 917587582 heartbeat IPC: 0.849226 cumulative IPC: 0.833122 (Simulation time: 0 hr 36 min 32 sec) 
Heartbeat CPU 0 instructions: 890000000 cycles: 930318786 heartbeat IPC: 0.785472 cumulative IPC: 0.83239 (Simulation time: 0 hr 36 min 59 sec) 
Heartbeat CPU 0 instructions: 900000000 cycles: 940789074 heartbeat IPC: 0.955084 cumulative IPC: 0.83392 (Simulation time: 0 hr 37 min 24 sec) 
Heartbeat CPU 0 instructions: 910000000 cycles: 950936784 heartbeat IPC: 0.985444 cumulative IPC: 0.83573 (Simulation time: 0 hr 37 min 50 sec) 
Heartbeat CPU 0 instructions: 920000000 cycles: 960498106 heartbeat IPC: 1.04588 cumulative IPC: 0.838069 (Simulation time: 0 hr 38 min 15 sec) 
Heartbeat CPU 0 instructions: 930000001 cycles: 973880008 heartbeat IPC: 0.747278 cumulative IPC: 0.836676 (Simulation time: 0 hr 38 min 42 sec) 
Heartbeat CPU 0 instructions: 940000000 cycles: 987180343 heartbeat IPC: 0.751861 cumulative IPC: 0.835403 (Simulation time: 0 hr 39 min 10 sec) 
Heartbeat CPU 0 instructions: 950000001 cycles: 998974379 heartbeat IPC: 0.847886 cumulative IPC: 0.835567 (Simulation time: 0 hr 39 min 36 sec) 
Heartbeat CPU 0 instructions: 960000000 cycles: 1009366447 heartbeat IPC: 0.962272 cumulative IPC: 0.837017 (Simulation time: 0 hr 40 min 2 sec) 
Heartbeat CPU 0 instructions: 970000002 cycles: 1019274787 heartbeat IPC: 1.00925 cumulative IPC: 0.838876 (Simulation time: 0 hr 40 min 27 sec) 
Heartbeat CPU 0 instructions: 980000000 cycles: 1029233524 heartbeat IPC: 1.00414 cumulative IPC: 0.84065 (Simulation time: 0 hr 40 min 53 sec) 
Heartbeat CPU 0 instructions: 990000000 cycles: 1038881581 heartbeat IPC: 1.03648 cumulative IPC: 0.842665 (Simulation time: 0 hr 41 min 18 sec) 
Heartbeat CPU 0 instructions: 1000000000 cycles: 1050249486 heartbeat IPC: 0.87967 cumulative IPC: 0.843109 (Simulation time: 0 hr 41 min 44 sec) 
Heartbeat CPU 0 instructions: 1010000000 cycles: 1063730016 heartbeat IPC: 0.741811 cumulative IPC: 0.84169 (Simulation time: 0 hr 42 min 12 sec) 
Heartbeat CPU 0 instructions: 1020000000 cycles: 1076866859 heartbeat IPC: 0.761218 cumulative IPC: 0.840606 (Simulation time: 0 hr 42 min 38 sec) 
Heartbeat CPU 0 instructions: 1030000000 cycles: 1089665189 heartbeat IPC: 0.781352 cumulative IPC: 0.839839 (Simulation time: 0 hr 43 min 6 sec) 
Heartbeat CPU 0 instructions: 1040000000 cycles: 1100792579 heartbeat IPC: 0.898683 cumulative IPC: 0.840494 (Simulation time: 0 hr 43 min 31 sec) 
Heartbeat CPU 0 instructions: 1050000000 cycles: 1110993639 heartbeat IPC: 0.98029 cumulative IPC: 0.841906 (Simulation time: 0 hr 43 min 57 sec) 
Heartbeat CPU 0 instructions: 1060000000 cycles: 1120888787 heartbeat IPC: 1.0106 cumulative IPC: 0.843544 (Simulation time: 0 hr 44 min 23 sec) 
Heartbeat CPU 0 instructions: 1070000001 cycles: 1130724307 heartbeat IPC: 1.01672 cumulative IPC: 0.845198 (Simulation time: 0 hr 44 min 48 sec) 
Heartbeat CPU 0 instructions: 1080000000 cycles: 1140720426 heartbeat IPC: 1.00039 cumulative IPC: 0.846691 (Simulation time: 0 hr 45 min 14 sec) 
Heartbeat CPU 0 instructions: 1090000001 cycles: 1150579336 heartbeat IPC: 1.01431 cumulative IPC: 0.848266 (Simulation time: 0 hr 45 min 39 sec) 
Heartbeat CPU 0 instructions: 1100000000 cycles: 1160266607 heartbeat IPC: 1.03228 cumulative IPC: 0.84995 (Simulation time: 0 hr 46 min 5 sec) 
Heartbeat CPU 0 instructions: 1110000000 cycles: 1173728551 heartbeat IPC: 0.742835 cumulative IPC: 0.848605 (Simulation time: 0 hr 46 min 32 sec) 
Heartbeat CPU 0 instructions: 1120000000 cycles: 1186908791 heartbeat IPC: 0.758712 cumulative IPC: 0.847513 (Simulation time: 0 hr 46 min 59 sec) 
Heartbeat CPU 0 instructions: 1130000000 cycles: 1200382641 heartbeat IPC: 0.742178 cumulative IPC: 0.846222 (Simulation time: 0 hr 47 min 26 sec) 
Heartbeat CPU 0 instructions: 1140000000 cycles: 1213279788 heartbeat IPC: 0.775365 cumulative IPC: 0.8454 (Simulation time: 0 hr 47 min 53 sec) 
Heartbeat CPU 0 instructions: 1150000002 cycles: 1224909750 heartbeat IPC: 0.859848 cumulative IPC: 0.84555 (Simulation time: 0 hr 48 min 20 sec) 
Heartbeat CPU 0 instructions: 1160000000 cycles: 1235711673 heartbeat IPC: 0.925761 cumulative IPC: 0.846313 (Simulation time: 0 hr 48 min 45 sec) 
Heartbeat CPU 0 instructions: 1170000003 cycles: 1245852678 heartbeat IPC: 0.986096 cumulative IPC: 0.847552 (Simulation time: 0 hr 49 min 11 sec) 
Heartbeat CPU 0 instructions: 1180000000 cycles: 1257956873 heartbeat IPC: 0.82616 cumulative IPC: 0.847328 (Simulation time: 0 hr 49 min 38 sec) 
Heartbeat CPU 0 instructions: 1190000003 cycles: 1272731152 heartbeat IPC: 0.676852 cumulative IPC: 0.845178 (Simulation time: 0 hr 50 min 8 sec) 
Heartbeat CPU 0 instructions: 1200000000 cycles: 1285053091 heartbeat IPC: 0.81156 cumulative IPC: 0.844828 (Simulation time: 0 hr 50 min 34 sec) 
Finished CPU 0 instructions: 1000000000 cycles: 1183672894 cumulative IPC: 0.844828 (Simulation time: 0 hr 50 min 34 sec) 

CPU 0 Branch Prediction Accuracy: 97.8786% MPKI: 2.13997

ChampSim completed all CPUs

Region of Interest Statistics

CPU 0 cumulative IPC: 0.844828 instructions: 1000000000 cycles: 1183672894
L1D TOTAL     ACCESS:  298459618  HIT:  291926008  MISS:    6533610
L1D LOAD      ACCESS:  210276486  HIT:  207073144  MISS:    3203342
L1D RFO       ACCESS:   88183132  HIT:   84852864  MISS:    3330268
L1D PREFETCH  ACCESS:          0  HIT:          0  MISS:          0
L1D WRITEBACK ACCESS:          0  HIT:          0  MISS:          0
L1D PREFETCH  REQUESTED:          0  ISSUED:          0  USEFUL:          0  USELESS:          0
L1I TOTAL     ACCESS:  241684618  HIT:  240103144  MISS:    1581474
L1I LOAD      ACCESS:  241684618  HIT:  240103144  MISS:    1581474
L1I RFO       ACCESS:          0  HIT:          0  MISS:          0
L1I PREFETCH  ACCESS:          0  HIT:          0  MISS:          0
L1I WRITEBACK ACCESS:          0  HIT:          0  MISS:          0
L1I PREFETCH  REQUESTED:          0  ISSUED:          0  USEFUL:          0  USELESS:          0
L2C TOTAL     ACCESS:   11840876  HIT:   11018127  MISS:     822749
L2C LOAD      ACCESS:    4784715  HIT:    4336930  MISS:     447785
L2C RFO       ACCESS:    3330079  HIT:    2955761  MISS:     374318
L2C PREFETCH  ACCESS:          0  HIT:          0  MISS:          0
L2C WRITEBACK ACCESS:    3726082  HIT:    3725436  MISS:        646
L2C PREFETCH  REQUESTED:          0  ISSUED:          0  USEFUL:          0  USELESS:          0
LLC TOTAL     ACCESS:    1262503  HIT:    1259618  MISS:       2885
LLC LOAD      ACCESS:     447785  HIT:     445262  MISS:       2523
LLC RFO       ACCESS:     374317  HIT:     373956  MISS:        361
LLC PREFETCH  ACCESS:          0  HIT:          0  MISS:          0
LLC WRITEBACK ACCESS:     440401  HIT:     440400  MISS:          1
LLC PREFETCH  REQUESTED:          0  ISSUED:          0  USEFUL:          0  USELESS:          0
Major fault: 0 Minor fault: 650

DRAM Statistics
 CHANNEL 0
 RQ ROW_BUFFER_HIT:       1821  ROW_BUFFER_MISS:       1045
 DBUS_CONGESTED:        293
 WQ ROW_BUFFER_HIT:          0  ROW_BUFFER_MISS:          0  FULL:          0

 AVG_CONGESTED_CYCLE: 11
