
*** ChampSim Multicore Out-of-Order Simulator ***

Warmup Instructions: 200000000
Simulation Instructions: 1000000000
Number of CPUs: 1
LLC sets: 2048
LLC ways: 16
Off-chip DRAM Size: 4096 MB Channels: 1 Width: 64-bit Data Rate: 1600 MT/s

CPU 0 runs /scratch/user/djimenez/champsim-traces/speccpu2006/xz/483.xalancbmk-736B.champsimtrace.xz
Heartbeat CPU 0 instructions: 10000002 cycles: 5326511 heartbeat IPC: 1.8774 cumulative IPC: 1.8774 (Simulation time: 0 hr 0 min 15 sec) 
Heartbeat CPU 0 instructions: 20000000 cycles: 10649923 heartbeat IPC: 1.87849 cumulative IPC: 1.87795 (Simulation time: 0 hr 0 min 30 sec) 
Heartbeat CPU 0 instructions: 30000001 cycles: 15977147 heartbeat IPC: 1.87715 cumulative IPC: 1.87768 (Simulation time: 0 hr 0 min 44 sec) 
Heartbeat CPU 0 instructions: 40000000 cycles: 21224423 heartbeat IPC: 1.90575 cumulative IPC: 1.88462 (Simulation time: 0 hr 0 min 58 sec) 
Heartbeat CPU 0 instructions: 50000002 cycles: 26488796 heartbeat IPC: 1.89956 cumulative IPC: 1.88759 (Simulation time: 0 hr 1 min 10 sec) 
Heartbeat CPU 0 instructions: 60000000 cycles: 31750729 heartbeat IPC: 1.90044 cumulative IPC: 1.88972 (Simulation time: 0 hr 1 min 22 sec) 
Heartbeat CPU 0 instructions: 70000002 cycles: 36988298 heartbeat IPC: 1.90928 cumulative IPC: 1.89249 (Simulation time: 0 hr 1 min 34 sec) 
Heartbeat CPU 0 instructions: 80000000 cycles: 42222343 heartbeat IPC: 1.91057 cumulative IPC: 1.89473 (Simulation time: 0 hr 1 min 46 sec) 
Heartbeat CPU 0 instructions: 90000000 cycles: 47496016 heartbeat IPC: 1.89621 cumulative IPC: 1.8949 (Simulation time: 0 hr 1 min 58 sec) 
Heartbeat CPU 0 instructions: 100000000 cycles: 52758047 heartbeat IPC: 1.90041 cumulative IPC: 1.89545 (Simulation time: 0 hr 2 min 10 sec) 
Heartbeat CPU 0 instructions: 110000000 cycles: 58014436 heartbeat IPC: 1.90245 cumulative IPC: 1.89608 (Simulation time: 0 hr 2 min 22 sec) 
Heartbeat CPU 0 instructions: 120000000 cycles: 63238295 heartbeat IPC: 1.91429 cumulative IPC: 1.89758 (Simulation time: 0 hr 2 min 34 sec) 
Heartbeat CPU 0 instructions: 130000001 cycles: 68443318 heartbeat IPC: 1.92122 cumulative IPC: 1.89938 (Simulation time: 0 hr 2 min 46 sec) 
Heartbeat CPU 0 instructions: 140000000 cycles: 73548688 heartbeat IPC: 1.95872 cumulative IPC: 1.9035 (Simulation time: 0 hr 2 min 58 sec) 
Heartbeat CPU 0 instructions: 150000000 cycles: 78515844 heartbeat IPC: 2.01322 cumulative IPC: 1.91044 (Simulation time: 0 hr 3 min 10 sec) 
Heartbeat CPU 0 instructions: 160000000 cycles: 83400762 heartbeat IPC: 2.04712 cumulative IPC: 1.91845 (Simulation time: 0 hr 3 min 22 sec) 
Heartbeat CPU 0 instructions: 170000002 cycles: 88232905 heartbeat IPC: 2.06948 cumulative IPC: 1.92672 (Simulation time: 0 hr 3 min 34 sec) 
Heartbeat CPU 0 instructions: 180000000 cycles: 92907989 heartbeat IPC: 2.139 cumulative IPC: 1.9374 (Simulation time: 0 hr 3 min 46 sec) 
Heartbeat CPU 0 instructions: 190000000 cycles: 98254999 heartbeat IPC: 1.8702 cumulative IPC: 1.93374 (Simulation time: 0 hr 4 min 3 sec) 
Heartbeat CPU 0 instructions: 200000000 cycles: 103795552 heartbeat IPC: 1.80487 cumulative IPC: 1.92686 (Simulation time: 0 hr 4 min 22 sec) 

Warmup complete CPU 0 instructions: 200000002 cycles: 103795553 (Simulation time: 0 hr 4 min 22 sec) 

Heartbeat CPU 0 instructions: 210000003 cycles: 123494947 heartbeat IPC: 0.50763 cumulative IPC: 0.50763 (Simulation time: 0 hr 4 min 53 sec) 
Heartbeat CPU 0 instructions: 220000000 cycles: 139468403 heartbeat IPC: 0.626038 cumulative IPC: 0.56065 (Simulation time: 0 hr 5 min 22 sec) 
Heartbeat CPU 0 instructions: 230000000 cycles: 159247129 heartbeat IPC: 0.505594 cumulative IPC: 0.541013 (Simulation time: 0 hr 5 min 52 sec) 
Heartbeat CPU 0 instructions: 240000000 cycles: 177644767 heartbeat IPC: 0.543548 cumulative IPC: 0.541644 (Simulation time: 0 hr 6 min 23 sec) 
Heartbeat CPU 0 instructions: 250000000 cycles: 195630996 heartbeat IPC: 0.555981 cumulative IPC: 0.544452 (Simulation time: 0 hr 6 min 54 sec) 
Heartbeat CPU 0 instructions: 260000000 cycles: 210699690 heartbeat IPC: 0.663628 cumulative IPC: 0.561251 (Simulation time: 0 hr 7 min 22 sec) 
Heartbeat CPU 0 instructions: 270000001 cycles: 225926489 heartbeat IPC: 0.656737 cumulative IPC: 0.573155 (Simulation time: 0 hr 7 min 47 sec) 
Heartbeat CPU 0 instructions: 280000000 cycles: 246231361 heartbeat IPC: 0.492493 cumulative IPC: 0.561656 (Simulation time: 0 hr 8 min 19 sec) 
Heartbeat CPU 0 instructions: 290000002 cycles: 263311753 heartbeat IPC: 0.585467 cumulative IPC: 0.564206 (Simulation time: 0 hr 8 min 50 sec) 
Heartbeat CPU 0 instructions: 300000000 cycles: 275844029 heartbeat IPC: 0.797939 cumulative IPC: 0.581232 (Simulation time: 0 hr 9 min 15 sec) 
Heartbeat CPU 0 instructions: 310000003 cycles: 293972483 heartbeat IPC: 0.551619 cumulative IPC: 0.578409 (Simulation time: 0 hr 9 min 43 sec) 
Heartbeat CPU 0 instructions: 320000000 cycles: 311192007 heartbeat IPC: 0.580736 cumulative IPC: 0.578602 (Simulation time: 0 hr 10 min 13 sec) 
Heartbeat CPU 0 instructions: 330000001 cycles: 327304162 heartbeat IPC: 0.62065 cumulative IPC: 0.581633 (Simulation time: 0 hr 10 min 43 sec) 
Heartbeat CPU 0 instructions: 340000000 cycles: 342557505 heartbeat IPC: 0.655594 cumulative IPC: 0.586358 (Simulation time: 0 hr 11 min 12 sec) 
Heartbeat CPU 0 instructions: 350000001 cycles: 355358681 heartbeat IPC: 0.781178 cumulative IPC: 0.596272 (Simulation time: 0 hr 11 min 38 sec) 
Heartbeat CPU 0 instructions: 360000000 cycles: 366047705 heartbeat IPC: 0.935539 cumulative IPC: 0.6101 (Simulation time: 0 hr 12 min 1 sec) 
Heartbeat CPU 0 instructions: 370000002 cycles: 378298848 heartbeat IPC: 0.816251 cumulative IPC: 0.6193 (Simulation time: 0 hr 12 min 24 sec) 
Heartbeat CPU 0 instructions: 380000000 cycles: 398641914 heartbeat IPC: 0.491568 cumulative IPC: 0.610487 (Simulation time: 0 hr 12 min 54 sec) 
Heartbeat CPU 0 instructions: 390000003 cycles: 417008358 heartbeat IPC: 0.544471 cumulative IPC: 0.606616 (Simulation time: 0 hr 13 min 24 sec) 
Heartbeat CPU 0 instructions: 400000000 cycles: 436664991 heartbeat IPC: 0.508734 cumulative IPC: 0.600836 (Simulation time: 0 hr 13 min 56 sec) 
Heartbeat CPU 0 instructions: 410000000 cycles: 453660168 heartbeat IPC: 0.588402 cumulative IPC: 0.600232 (Simulation time: 0 hr 14 min 26 sec) 
Heartbeat CPU 0 instructions: 420000000 cycles: 467476126 heartbeat IPC: 0.723801 cumulative IPC: 0.604926 (Simulation time: 0 hr 14 min 53 sec) 
Heartbeat CPU 0 instructions: 430000000 cycles: 479770388 heartbeat IPC: 0.813388 cumulative IPC: 0.611743 (Simulation time: 0 hr 15 min 16 sec) 
Heartbeat CPU 0 instructions: 440000000 cycles: 499027555 heartbeat IPC: 0.519287 cumulative IPC: 0.607238 (Simulation time: 0 hr 15 min 47 sec) 
Heartbeat CPU 0 instructions: 450000002 cycles: 515306578 heartbeat IPC: 0.614288 cumulative IPC: 0.607517 (Simulation time: 0 hr 16 min 16 sec) 
Heartbeat CPU 0 instructions: 460000000 cycles: 530791198 heartbeat IPC: 0.645802 cumulative IPC: 0.608905 (Simulation time: 0 hr 16 min 45 sec) 
Heartbeat CPU 0 instructions: 470000002 cycles: 545605900 heartbeat IPC: 0.675005 cumulative IPC: 0.611122 (Simulation time: 0 hr 17 min 14 sec) 
Heartbeat CPU 0 instructions: 480000000 cycles: 560123993 heartbeat IPC: 0.688796 cumulative IPC: 0.613593 (Simulation time: 0 hr 17 min 42 sec) 
Heartbeat CPU 0 instructions: 490000000 cycles: 574315198 heartbeat IPC: 0.704662 cumulative IPC: 0.61634 (Simulation time: 0 hr 18 min 10 sec) 
Heartbeat CPU 0 instructions: 500000000 cycles: 588182224 heartbeat IPC: 0.721135 cumulative IPC: 0.61934 (Simulation time: 0 hr 18 min 38 sec) 
Heartbeat CPU 0 instructions: 510000001 cycles: 600194738 heartbeat IPC: 0.832465 cumulative IPC: 0.624497 (Simulation time: 0 hr 19 min 3 sec) 
Heartbeat CPU 0 instructions: 520000000 cycles: 610517449 heartbeat IPC: 0.968738 cumulative IPC: 0.63151 (Simulation time: 0 hr 19 min 26 sec) 
Heartbeat CPU 0 instructions: 530000001 cycles: 621161966 heartbeat IPC: 0.939451 cumulative IPC: 0.637846 (Simulation time: 0 hr 19 min 50 sec) 
Heartbeat CPU 0 instructions: 540000000 cycles: 632118674 heartbeat IPC: 0.912683 cumulative IPC: 0.643546 (Simulation time: 0 hr 20 min 13 sec) 
Heartbeat CPU 0 instructions: 550000000 cycles: 643194213 heartbeat IPC: 0.902891 cumulative IPC: 0.648871 (Simulation time: 0 hr 20 min 36 sec) 
Heartbeat CPU 0 instructions: 560000000 cycles: 655221031 heartbeat IPC: 0.831475 cumulative IPC: 0.652853 (Simulation time: 0 hr 21 min 0 sec) 
Heartbeat CPU 0 instructions: 570000002 cycles: 675790044 heartbeat IPC: 0.486168 cumulative IPC: 0.646859 (Simulation time: 0 hr 21 min 28 sec) 
Heartbeat CPU 0 instructions: 580000000 cycles: 695719857 heartbeat IPC: 0.501761 cumulative IPC: 0.641974 (Simulation time: 0 hr 22 min 0 sec) 
Heartbeat CPU 0 instructions: 590000000 cycles: 715127211 heartbeat IPC: 0.515269 cumulative IPC: 0.637952 (Simulation time: 0 hr 22 min 31 sec) 
Heartbeat CPU 0 instructions: 600000000 cycles: 732458984 heartbeat IPC: 0.576975 cumulative IPC: 0.636271 (Simulation time: 0 hr 23 min 1 sec) 
Heartbeat CPU 0 instructions: 610000002 cycles: 748670297 heartbeat IPC: 0.616853 cumulative IPC: 0.635782 (Simulation time: 0 hr 23 min 31 sec) 
Heartbeat CPU 0 instructions: 620000000 cycles: 763982295 heartbeat IPC: 0.653082 cumulative IPC: 0.636184 (Simulation time: 0 hr 24 min 0 sec) 
Heartbeat CPU 0 instructions: 630000000 cycles: 776786856 heartbeat IPC: 0.780972 cumulative IPC: 0.638938 (Simulation time: 0 hr 24 min 26 sec) 
Heartbeat CPU 0 instructions: 640000000 cycles: 787509231 heartbeat IPC: 0.932629 cumulative IPC: 0.643544 (Simulation time: 0 hr 24 min 49 sec) 
Heartbeat CPU 0 instructions: 650000000 cycles: 799807537 heartbeat IPC: 0.81312 cumulative IPC: 0.646541 (Simulation time: 0 hr 25 min 13 sec) 
Heartbeat CPU 0 instructions: 660000000 cycles: 819028528 heartbeat IPC: 0.520265 cumulative IPC: 0.643147 (Simulation time: 0 hr 25 min 41 sec) 
Heartbeat CPU 0 instructions: 670000002 cycles: 835818055 heartbeat IPC: 0.595609 cumulative IPC: 0.642057 (Simulation time: 0 hr 26 min 11 sec) 
Heartbeat CPU 0 instructions: 680000000 cycles: 851640501 heartbeat IPC: 0.632013 cumulative IPC: 0.641844 (Simulation time: 0 hr 26 min 41 sec) 
Heartbeat CPU 0 instructions: 690000003 cycles: 866792878 heartbeat IPC: 0.659963 cumulative IPC: 0.642204 (Simulation time: 0 hr 27 min 9 sec) 
Heartbeat CPU 0 instructions: 700000000 cycles: 881509425 heartbeat IPC: 0.679507 cumulative IPC: 0.64291 (Simulation time: 0 hr 27 min 38 sec) 
Heartbeat CPU 0 instructions: 710000002 cycles: 895756681 heartbeat IPC: 0.70189 cumulative IPC: 0.643971 (Simulation time: 0 hr 28 min 6 sec) 
Heartbeat CPU 0 instructions: 720000000 cycles: 907666347 heartbeat IPC: 0.839654 cumulative IPC: 0.64687 (Simulation time: 0 hr 28 min 31 sec) 
Heartbeat CPU 0 instructions: 730000002 cycles: 917977945 heartbeat IPC: 0.969782 cumulative IPC: 0.65096 (Simulation time: 0 hr 28 min 54 sec) 
Heartbeat CPU 0 instructions: 740000000 cycles: 928925681 heartbeat IPC: 0.913431 cumulative IPC: 0.654442 (Simulation time: 0 hr 29 min 18 sec) 
Heartbeat CPU 0 instructions: 750000000 cycles: 940396333 heartbeat IPC: 0.87179 cumulative IPC: 0.657422 (Simulation time: 0 hr 29 min 41 sec) 
Heartbeat CPU 0 instructions: 760000000 cycles: 953143647 heartbeat IPC: 0.784479 cumulative IPC: 0.659329 (Simulation time: 0 hr 30 min 5 sec) 
Heartbeat CPU 0 instructions: 770000003 cycles: 974731257 heartbeat IPC: 0.463229 cumulative IPC: 0.654469 (Simulation time: 0 hr 30 min 36 sec) 
Heartbeat CPU 0 instructions: 780000000 cycles: 991172553 heartbeat IPC: 0.608224 cumulative IPC: 0.653612 (Simulation time: 0 hr 31 min 6 sec) 
Heartbeat CPU 0 instructions: 790000000 cycles: 1007500535 heartbeat IPC: 0.612446 cumulative IPC: 0.652868 (Simulation time: 0 hr 31 min 32 sec) 
Heartbeat CPU 0 instructions: 800000000 cycles: 1025313173 heartbeat IPC: 0.561399 cumulative IPC: 0.6511 (Simulation time: 0 hr 32 min 4 sec) 
Heartbeat CPU 0 instructions: 810000002 cycles: 1041745133 heartbeat IPC: 0.60857 cumulative IPC: 0.650355 (Simulation time: 0 hr 32 min 34 sec) 
Heartbeat CPU 0 instructions: 820000000 cycles: 1053968488 heartbeat IPC: 0.818106 cumulative IPC: 0.652513 (Simulation time: 0 hr 32 min 58 sec) 
Heartbeat CPU 0 instructions: 830000000 cycles: 1069014992 heartbeat IPC: 0.664606 cumulative IPC: 0.652701 (Simulation time: 0 hr 33 min 23 sec) 
Heartbeat CPU 0 instructions: 840000000 cycles: 1089609900 heartbeat IPC: 0.485557 cumulative IPC: 0.649209 (Simulation time: 0 hr 33 min 56 sec) 
Heartbeat CPU 0 instructions: 850000003 cycles: 1106858661 heartbeat IPC: 0.579752 cumulative IPC: 0.648015 (Simulation time: 0 hr 34 min 26 sec) 
Heartbeat CPU 0 instructions: 860000000 cycles: 1121333344 heartbeat IPC: 0.690861 cumulative IPC: 0.648625 (Simulation time: 0 hr 34 min 54 sec) 
Heartbeat CPU 0 instructions: 870000003 cycles: 1133341970 heartbeat IPC: 0.832735 cumulative IPC: 0.650772 (Simulation time: 0 hr 35 min 17 sec) 
Heartbeat CPU 0 instructions: 880000000 cycles: 1155532294 heartbeat IPC: 0.450647 cumulative IPC: 0.64655 (Simulation time: 0 hr 35 min 49 sec) 
Heartbeat CPU 0 instructions: 890000003 cycles: 1170811874 heartbeat IPC: 0.654468 cumulative IPC: 0.646663 (Simulation time: 0 hr 36 min 17 sec) 
Heartbeat CPU 0 instructions: 900000000 cycles: 1189571753 heartbeat IPC: 0.533052 cumulative IPC: 0.6447 (Simulation time: 0 hr 36 min 48 sec) 
Heartbeat CPU 0 instructions: 910000001 cycles: 1208297268 heartbeat IPC: 0.534031 cumulative IPC: 0.642824 (Simulation time: 0 hr 37 min 17 sec) 
Heartbeat CPU 0 instructions: 920000000 cycles: 1224117650 heartbeat IPC: 0.632096 cumulative IPC: 0.642672 (Simulation time: 0 hr 37 min 47 sec) 
Heartbeat CPU 0 instructions: 930000001 cycles: 1239344677 heartbeat IPC: 0.656727 cumulative IPC: 0.642861 (Simulation time: 0 hr 38 min 15 sec) 
Heartbeat CPU 0 instructions: 940000000 cycles: 1254089077 heartbeat IPC: 0.678224 cumulative IPC: 0.643314 (Simulation time: 0 hr 38 min 43 sec) 
Heartbeat CPU 0 instructions: 950000002 cycles: 1268348570 heartbeat IPC: 0.701287 cumulative IPC: 0.644024 (Simulation time: 0 hr 39 min 11 sec) 
Heartbeat CPU 0 instructions: 960000000 cycles: 1282266489 heartbeat IPC: 0.718498 cumulative IPC: 0.644903 (Simulation time: 0 hr 39 min 39 sec) 
Heartbeat CPU 0 instructions: 970000002 cycles: 1295956098 heartbeat IPC: 0.730481 cumulative IPC: 0.645886 (Simulation time: 0 hr 40 min 6 sec) 
Heartbeat CPU 0 instructions: 980000000 cycles: 1309509718 heartbeat IPC: 0.73781 cumulative IPC: 0.646919 (Simulation time: 0 hr 40 min 34 sec) 
Heartbeat CPU 0 instructions: 990000000 cycles: 1323028307 heartbeat IPC: 0.739722 cumulative IPC: 0.647948 (Simulation time: 0 hr 41 min 1 sec) 
Heartbeat CPU 0 instructions: 1000000000 cycles: 1336475182 heartbeat IPC: 0.743667 cumulative IPC: 0.648993 (Simulation time: 0 hr 41 min 28 sec) 
Heartbeat CPU 0 instructions: 1010000002 cycles: 1349734447 heartbeat IPC: 0.75419 cumulative IPC: 0.650112 (Simulation time: 0 hr 41 min 55 sec) 
Heartbeat CPU 0 instructions: 1020000000 cycles: 1362909021 heartbeat IPC: 0.759038 cumulative IPC: 0.651252 (Simulation time: 0 hr 42 min 22 sec) 
Heartbeat CPU 0 instructions: 1030000002 cycles: 1373794139 heartbeat IPC: 0.918686 cumulative IPC: 0.653544 (Simulation time: 0 hr 42 min 46 sec) 
Heartbeat CPU 0 instructions: 1040000000 cycles: 1384264403 heartbeat IPC: 0.955086 cumulative IPC: 0.65601 (Simulation time: 0 hr 43 min 9 sec) 
Heartbeat CPU 0 instructions: 1050000001 cycles: 1395015745 heartbeat IPC: 0.930117 cumulative IPC: 0.658292 (Simulation time: 0 hr 43 min 32 sec) 
Heartbeat CPU 0 instructions: 1060000000 cycles: 1405789367 heartbeat IPC: 0.928193 cumulative IPC: 0.660525 (Simulation time: 0 hr 43 min 55 sec) 
Heartbeat CPU 0 instructions: 1070000001 cycles: 1416534520 heartbeat IPC: 0.930652 cumulative IPC: 0.662736 (Simulation time: 0 hr 44 min 19 sec) 
Heartbeat CPU 0 instructions: 1080000000 cycles: 1427209020 heartbeat IPC: 0.936812 cumulative IPC: 0.664947 (Simulation time: 0 hr 44 min 42 sec) 
Heartbeat CPU 0 instructions: 1090000002 cycles: 1437922001 heartbeat IPC: 0.933447 cumulative IPC: 0.667103 (Simulation time: 0 hr 45 min 6 sec) 
Heartbeat CPU 0 instructions: 1100000000 cycles: 1448690641 heartbeat IPC: 0.928622 cumulative IPC: 0.669197 (Simulation time: 0 hr 45 min 29 sec) 
Heartbeat CPU 0 instructions: 1110000001 cycles: 1459709696 heartbeat IPC: 0.907519 cumulative IPC: 0.671134 (Simulation time: 0 hr 45 min 52 sec) 
Heartbeat CPU 0 instructions: 1120000000 cycles: 1471342532 heartbeat IPC: 0.859636 cumulative IPC: 0.672737 (Simulation time: 0 hr 46 min 15 sec) 
Heartbeat CPU 0 instructions: 1130000000 cycles: 1484931935 heartbeat IPC: 0.735868 cumulative IPC: 0.673359 (Simulation time: 0 hr 46 min 40 sec) 
Heartbeat CPU 0 instructions: 1140000000 cycles: 1506574421 heartbeat IPC: 0.462054 cumulative IPC: 0.670098 (Simulation time: 0 hr 47 min 12 sec) 
Heartbeat CPU 0 instructions: 1150000000 cycles: 1523563556 heartbeat IPC: 0.588611 cumulative IPC: 0.669123 (Simulation time: 0 hr 47 min 42 sec) 
Heartbeat CPU 0 instructions: 1160000000 cycles: 1537048320 heartbeat IPC: 0.741578 cumulative IPC: 0.669805 (Simulation time: 0 hr 48 min 8 sec) 
Heartbeat CPU 0 instructions: 1170000001 cycles: 1550254776 heartbeat IPC: 0.757205 cumulative IPC: 0.670603 (Simulation time: 0 hr 48 min 32 sec) 
Heartbeat CPU 0 instructions: 1180000000 cycles: 1570284411 heartbeat IPC: 0.49926 cumulative IPC: 0.668263 (Simulation time: 0 hr 49 min 4 sec) 
Heartbeat CPU 0 instructions: 1190000000 cycles: 1587162364 heartbeat IPC: 0.592489 cumulative IPC: 0.667401 (Simulation time: 0 hr 49 min 34 sec) 
Heartbeat CPU 0 instructions: 1200000000 cycles: 1600430525 heartbeat IPC: 0.753684 cumulative IPC: 0.668166 (Simulation time: 0 hr 50 min 0 sec) 
Finished CPU 0 instructions: 1000000002 cycles: 1496634985 cumulative IPC: 0.668166 (Simulation time: 0 hr 50 min 0 sec) 

CPU 0 Branch Prediction Accuracy: 99.2953% MPKI: 1.51217

ChampSim completed all CPUs

Region of Interest Statistics

CPU 0 cumulative IPC: 0.668166 instructions: 1000000002 cycles: 1496634985
L1D TOTAL     ACCESS:  195299100  HIT:  173958030  MISS:   21341070
L1D LOAD      ACCESS:  133128264  HIT:  113770286  MISS:   19357978
L1D RFO       ACCESS:   62170836  HIT:   60187744  MISS:    1983092
L1D PREFETCH  ACCESS:          0  HIT:          0  MISS:          0
L1D WRITEBACK ACCESS:          0  HIT:          0  MISS:          0
L1D PREFETCH  REQUESTED:          0  ISSUED:          0  USEFUL:          0  USELESS:          0
L1I TOTAL     ACCESS:  337515429  HIT:  336743145  MISS:     772284
L1I LOAD      ACCESS:  337515429  HIT:  336743145  MISS:     772284
L1I RFO       ACCESS:          0  HIT:          0  MISS:          0
L1I PREFETCH  ACCESS:          0  HIT:          0  MISS:          0
L1I WRITEBACK ACCESS:          0  HIT:          0  MISS:          0
L1I PREFETCH  REQUESTED:          0  ISSUED:          0  USEFUL:          0  USELESS:          0
L2C TOTAL     ACCESS:   25116533  HIT:   22379113  MISS:    2737420
L2C LOAD      ACCESS:   20129914  HIT:   19045091  MISS:    1084823
L2C RFO       ACCESS:    1982989  HIT:     332251  MISS:    1650738
L2C PREFETCH  ACCESS:          0  HIT:          0  MISS:          0
L2C WRITEBACK ACCESS:    3003630  HIT:    3001771  MISS:       1859
L2C PREFETCH  REQUESTED:          0  ISSUED:          0  USEFUL:          0  USELESS:          0
LLC TOTAL     ACCESS:    4883071  HIT:    2893569  MISS:    1989502
LLC LOAD      ACCESS:    1084822  HIT:     605336  MISS:     479486
LLC RFO       ACCESS:    1650738  HIT:     146705  MISS:    1504033
LLC PREFETCH  ACCESS:          0  HIT:          0  MISS:          0
LLC WRITEBACK ACCESS:    2147511  HIT:    2141528  MISS:       5983
LLC PREFETCH  REQUESTED:          0  ISSUED:          0  USEFUL:          0  USELESS:          0
Major fault: 0 Minor fault: 41595

DRAM Statistics
 CHANNEL 0
 RQ ROW_BUFFER_HIT:     979094  ROW_BUFFER_MISS:    1004074
 DBUS_CONGESTED:    2108262
 WQ ROW_BUFFER_HIT:     402387  ROW_BUFFER_MISS:    1394614  FULL:          0

 AVG_CONGESTED_CYCLE: 14
