Initialize SIGNATURE TABLE
ST_SET: 1
ST_WAY: 256
ST_TAG_BIT: 16
ST_TAG_MASK: ffff

Initialize PATTERN TABLE
PT_SET: 512
PT_WAY: 4
SIG_DELTA_BIT: 7
C_SIG_BIT: 4
C_DELTA_BIT: 4

Initialize PREFETCH FILTER
FILTER_SET: 1024

Initialize PERCEPTRON
PERC_ENTRIES: 4096
PERC_FEATURES: 9

*** ChampSim Multicore Out-of-Order Simulator ***

Warmup Instructions: 200000000
Simulation Instructions: 1000000000
Number of CPUs: 1
LLC sets: 2048
LLC ways: 16
Off-chip DRAM Size: 4096 MB Channels: 1 Width: 64-bit Data Rate: 1600 MT/s

CPU 0 runs /scratch/user/djimenez/champsim-traces/speccpu2006/xz/401.bzip2-277B.champsimtrace.xz
Heartbeat CPU 0 instructions: 10000001 cycles: 3341275 heartbeat IPC: 2.99287 cumulative IPC: 2.99287 (Simulation time: 0 hr 0 min 8 sec) 
Heartbeat CPU 0 instructions: 20000000 cycles: 6933684 heartbeat IPC: 2.78365 cumulative IPC: 2.88447 (Simulation time: 0 hr 0 min 17 sec) 
Heartbeat CPU 0 instructions: 30000002 cycles: 11891619 heartbeat IPC: 2.01697 cumulative IPC: 2.52279 (Simulation time: 0 hr 0 min 29 sec) 
Heartbeat CPU 0 instructions: 40000000 cycles: 16844578 heartbeat IPC: 2.01899 cumulative IPC: 2.37465 (Simulation time: 0 hr 0 min 40 sec) 
Heartbeat CPU 0 instructions: 50000002 cycles: 21701247 heartbeat IPC: 2.05902 cumulative IPC: 2.30402 (Simulation time: 0 hr 0 min 52 sec) 
Heartbeat CPU 0 instructions: 60000000 cycles: 26700866 heartbeat IPC: 2.00015 cumulative IPC: 2.24712 (Simulation time: 0 hr 1 min 4 sec) 
Heartbeat CPU 0 instructions: 70000000 cycles: 31001062 heartbeat IPC: 2.32548 cumulative IPC: 2.25799 (Simulation time: 0 hr 1 min 22 sec) 
Heartbeat CPU 0 instructions: 80000000 cycles: 34358157 heartbeat IPC: 2.97877 cumulative IPC: 2.32841 (Simulation time: 0 hr 1 min 30 sec) 
Heartbeat CPU 0 instructions: 90000000 cycles: 37838288 heartbeat IPC: 2.87346 cumulative IPC: 2.37854 (Simulation time: 0 hr 1 min 38 sec) 
Heartbeat CPU 0 instructions: 100000000 cycles: 42769920 heartbeat IPC: 2.02773 cumulative IPC: 2.33809 (Simulation time: 0 hr 1 min 50 sec) 
Heartbeat CPU 0 instructions: 110000000 cycles: 47466176 heartbeat IPC: 2.12936 cumulative IPC: 2.31744 (Simulation time: 0 hr 2 min 2 sec) 
Heartbeat CPU 0 instructions: 120000000 cycles: 52346638 heartbeat IPC: 2.04899 cumulative IPC: 2.29241 (Simulation time: 0 hr 2 min 14 sec) 
Heartbeat CPU 0 instructions: 130000001 cycles: 57264494 heartbeat IPC: 2.03341 cumulative IPC: 2.27017 (Simulation time: 0 hr 2 min 26 sec) 
Heartbeat CPU 0 instructions: 140000000 cycles: 61238842 heartbeat IPC: 2.51614 cumulative IPC: 2.28613 (Simulation time: 0 hr 2 min 43 sec) 
Heartbeat CPU 0 instructions: 150000002 cycles: 64825230 heartbeat IPC: 2.78832 cumulative IPC: 2.31391 (Simulation time: 0 hr 2 min 51 sec) 
Heartbeat CPU 0 instructions: 160000000 cycles: 68658066 heartbeat IPC: 2.60903 cumulative IPC: 2.33039 (Simulation time: 0 hr 3 min 0 sec) 
Heartbeat CPU 0 instructions: 170000001 cycles: 73599464 heartbeat IPC: 2.02372 cumulative IPC: 2.3098 (Simulation time: 0 hr 3 min 12 sec) 
Heartbeat CPU 0 instructions: 180000000 cycles: 78347212 heartbeat IPC: 2.10626 cumulative IPC: 2.29747 (Simulation time: 0 hr 3 min 25 sec) 
Heartbeat CPU 0 instructions: 190000001 cycles: 83260961 heartbeat IPC: 2.03511 cumulative IPC: 2.28198 (Simulation time: 0 hr 3 min 37 sec) 
Heartbeat CPU 0 instructions: 200000000 cycles: 88074799 heartbeat IPC: 2.07734 cumulative IPC: 2.2708 (Simulation time: 0 hr 3 min 51 sec) 

Warmup complete CPU 0 instructions: 200000003 cycles: 88074812 (Simulation time: 0 hr 3 min 51 sec) 

Heartbeat CPU 0 instructions: 210000001 cycles: 96512050 heartbeat IPC: 1.18522 cumulative IPC: 1.18522 (Simulation time: 0 hr 4 min 14 sec) 
Heartbeat CPU 0 instructions: 220000000 cycles: 104007353 heartbeat IPC: 1.33417 cumulative IPC: 1.25529 (Simulation time: 0 hr 4 min 34 sec) 
Heartbeat CPU 0 instructions: 230000000 cycles: 113865285 heartbeat IPC: 1.01441 cumulative IPC: 1.16322 (Simulation time: 0 hr 4 min 53 sec) 
Heartbeat CPU 0 instructions: 240000000 cycles: 126240005 heartbeat IPC: 0.808099 cumulative IPC: 1.04808 (Simulation time: 0 hr 5 min 11 sec) 
Heartbeat CPU 0 instructions: 250000002 cycles: 138278936 heartbeat IPC: 0.830639 cumulative IPC: 0.995934 (Simulation time: 0 hr 5 min 30 sec) 
Heartbeat CPU 0 instructions: 260000000 cycles: 149966914 heartbeat IPC: 0.85558 cumulative IPC: 0.969429 (Simulation time: 0 hr 5 min 48 sec) 
Heartbeat CPU 0 instructions: 270000002 cycles: 160479618 heartbeat IPC: 0.95123 cumulative IPC: 0.966787 (Simulation time: 0 hr 6 min 10 sec) 
Heartbeat CPU 0 instructions: 280000000 cycles: 169177915 heartbeat IPC: 1.14965 cumulative IPC: 0.986399 (Simulation time: 0 hr 6 min 32 sec) 
Heartbeat CPU 0 instructions: 290000002 cycles: 177084812 heartbeat IPC: 1.26472 cumulative IPC: 1.01112 (Simulation time: 0 hr 6 min 52 sec) 
Heartbeat CPU 0 instructions: 300000000 cycles: 188627877 heartbeat IPC: 0.866321 cumulative IPC: 0.9945 (Simulation time: 0 hr 7 min 11 sec) 
Heartbeat CPU 0 instructions: 310000001 cycles: 200047599 heartbeat IPC: 0.875678 cumulative IPC: 0.982382 (Simulation time: 0 hr 7 min 30 sec) 
Heartbeat CPU 0 instructions: 320000000 cycles: 211587204 heartbeat IPC: 0.866581 cumulative IPC: 0.971562 (Simulation time: 0 hr 7 min 49 sec) 
Heartbeat CPU 0 instructions: 330000001 cycles: 221641406 heartbeat IPC: 0.994609 cumulative IPC: 0.973297 (Simulation time: 0 hr 8 min 11 sec) 
Heartbeat CPU 0 instructions: 340000000 cycles: 229984143 heartbeat IPC: 1.19865 cumulative IPC: 0.986545 (Simulation time: 0 hr 8 min 32 sec) 
Heartbeat CPU 0 instructions: 350000001 cycles: 237398051 heartbeat IPC: 1.34882 cumulative IPC: 1.00453 (Simulation time: 0 hr 8 min 51 sec) 
Heartbeat CPU 0 instructions: 360000000 cycles: 248395251 heartbeat IPC: 0.909322 cumulative IPC: 0.998001 (Simulation time: 0 hr 9 min 9 sec) 
Heartbeat CPU 0 instructions: 370000002 cycles: 260775870 heartbeat IPC: 0.807714 cumulative IPC: 0.98436 (Simulation time: 0 hr 9 min 27 sec) 
Heartbeat CPU 0 instructions: 380000000 cycles: 272180211 heartbeat IPC: 0.876859 cumulative IPC: 0.977701 (Simulation time: 0 hr 9 min 46 sec) 
Heartbeat CPU 0 instructions: 390000000 cycles: 284937127 heartbeat IPC: 0.783889 cumulative IPC: 0.965142 (Simulation time: 0 hr 10 min 4 sec) 
Heartbeat CPU 0 instructions: 400000000 cycles: 297196799 heartbeat IPC: 0.815683 cumulative IPC: 0.95638 (Simulation time: 0 hr 10 min 23 sec) 
Heartbeat CPU 0 instructions: 410000003 cycles: 305348684 heartbeat IPC: 1.22671 cumulative IPC: 0.966522 (Simulation time: 0 hr 10 min 47 sec) 
Heartbeat CPU 0 instructions: 420000000 cycles: 314017999 heartbeat IPC: 1.15349 cumulative IPC: 0.973696 (Simulation time: 0 hr 11 min 7 sec) 
Heartbeat CPU 0 instructions: 430000003 cycles: 323783577 heartbeat IPC: 1.02401 cumulative IPC: 0.97578 (Simulation time: 0 hr 11 min 26 sec) 
Heartbeat CPU 0 instructions: 440000000 cycles: 335799031 heartbeat IPC: 0.832261 cumulative IPC: 0.968819 (Simulation time: 0 hr 11 min 44 sec) 
Heartbeat CPU 0 instructions: 450000000 cycles: 347904358 heartbeat IPC: 0.826083 cumulative IPC: 0.962169 (Simulation time: 0 hr 12 min 2 sec) 
Heartbeat CPU 0 instructions: 460000000 cycles: 360359703 heartbeat IPC: 0.802868 cumulative IPC: 0.954882 (Simulation time: 0 hr 12 min 20 sec) 
Heartbeat CPU 0 instructions: 470000001 cycles: 372717315 heartbeat IPC: 0.809218 cumulative IPC: 0.948558 (Simulation time: 0 hr 12 min 39 sec) 
Heartbeat CPU 0 instructions: 480000000 cycles: 382429017 heartbeat IPC: 1.02969 cumulative IPC: 0.951235 (Simulation time: 0 hr 13 min 2 sec) 
Heartbeat CPU 0 instructions: 490000000 cycles: 391925952 heartbeat IPC: 1.05297 cumulative IPC: 0.954415 (Simulation time: 0 hr 13 min 24 sec) 
Heartbeat CPU 0 instructions: 500000000 cycles: 401666114 heartbeat IPC: 1.02668 cumulative IPC: 0.956659 (Simulation time: 0 hr 13 min 44 sec) 
Heartbeat CPU 0 instructions: 510000000 cycles: 413681919 heartbeat IPC: 0.832237 cumulative IPC: 0.952068 (Simulation time: 0 hr 14 min 2 sec) 
Heartbeat CPU 0 instructions: 520000000 cycles: 426000430 heartbeat IPC: 0.811786 cumulative IPC: 0.946954 (Simulation time: 0 hr 14 min 20 sec) 
Heartbeat CPU 0 instructions: 530000000 cycles: 438507120 heartbeat IPC: 0.799572 cumulative IPC: 0.941694 (Simulation time: 0 hr 14 min 38 sec) 
Heartbeat CPU 0 instructions: 540000000 cycles: 451123687 heartbeat IPC: 0.792609 cumulative IPC: 0.936513 (Simulation time: 0 hr 14 min 57 sec) 
Heartbeat CPU 0 instructions: 550000001 cycles: 463741676 heartbeat IPC: 0.792519 cumulative IPC: 0.931677 (Simulation time: 0 hr 15 min 15 sec) 
Heartbeat CPU 0 instructions: 560000000 cycles: 473783250 heartbeat IPC: 0.99586 cumulative IPC: 0.933347 (Simulation time: 0 hr 15 min 37 sec) 
Heartbeat CPU 0 instructions: 570000001 cycles: 483740914 heartbeat IPC: 1.00425 cumulative IPC: 0.935132 (Simulation time: 0 hr 15 min 59 sec) 
Heartbeat CPU 0 instructions: 580000000 cycles: 494072196 heartbeat IPC: 0.967934 cumulative IPC: 0.935967 (Simulation time: 0 hr 16 min 20 sec) 
Heartbeat CPU 0 instructions: 590000000 cycles: 505517474 heartbeat IPC: 0.873723 cumulative IPC: 0.93426 (Simulation time: 0 hr 16 min 39 sec) 
Heartbeat CPU 0 instructions: 600000000 cycles: 517467100 heartbeat IPC: 0.836846 cumulative IPC: 0.931549 (Simulation time: 0 hr 16 min 57 sec) 
Heartbeat CPU 0 instructions: 610000002 cycles: 529796270 heartbeat IPC: 0.811085 cumulative IPC: 0.928187 (Simulation time: 0 hr 17 min 15 sec) 
Heartbeat CPU 0 instructions: 620000000 cycles: 542011967 heartbeat IPC: 0.818619 cumulative IPC: 0.925238 (Simulation time: 0 hr 17 min 34 sec) 
Heartbeat CPU 0 instructions: 630000001 cycles: 552458170 heartbeat IPC: 0.957286 cumulative IPC: 0.925959 (Simulation time: 0 hr 17 min 55 sec) 
Heartbeat CPU 0 instructions: 640000000 cycles: 561834574 heartbeat IPC: 1.06651 cumulative IPC: 0.928741 (Simulation time: 0 hr 18 min 18 sec) 
Heartbeat CPU 0 instructions: 650000001 cycles: 571143023 heartbeat IPC: 1.07429 cumulative IPC: 0.931545 (Simulation time: 0 hr 18 min 38 sec) 
Heartbeat CPU 0 instructions: 660000000 cycles: 582364894 heartbeat IPC: 0.891117 cumulative IPC: 0.930628 (Simulation time: 0 hr 18 min 57 sec) 
Heartbeat CPU 0 instructions: 670000002 cycles: 594616930 heartbeat IPC: 0.816191 cumulative IPC: 0.92786 (Simulation time: 0 hr 19 min 15 sec) 
Heartbeat CPU 0 instructions: 680000000 cycles: 607087106 heartbeat IPC: 0.801913 cumulative IPC: 0.924834 (Simulation time: 0 hr 19 min 33 sec) 
Heartbeat CPU 0 instructions: 690000001 cycles: 619596637 heartbeat IPC: 0.799391 cumulative IPC: 0.921881 (Simulation time: 0 hr 19 min 51 sec) 
Heartbeat CPU 0 instructions: 700000000 cycles: 632192599 heartbeat IPC: 0.793905 cumulative IPC: 0.918919 (Simulation time: 0 hr 20 min 9 sec) 
Heartbeat CPU 0 instructions: 710000001 cycles: 642248310 heartbeat IPC: 0.99446 cumulative IPC: 0.920289 (Simulation time: 0 hr 20 min 32 sec) 
Heartbeat CPU 0 instructions: 720000000 cycles: 654337569 heartbeat IPC: 0.82718 cumulative IPC: 0.918302 (Simulation time: 0 hr 20 min 56 sec) 
Heartbeat CPU 0 instructions: 730000002 cycles: 669539493 heartbeat IPC: 0.657812 cumulative IPC: 0.911491 (Simulation time: 0 hr 21 min 20 sec) 
Heartbeat CPU 0 instructions: 740000000 cycles: 682404755 heartbeat IPC: 0.777287 cumulative IPC: 0.908586 (Simulation time: 0 hr 21 min 39 sec) 
Heartbeat CPU 0 instructions: 750000003 cycles: 695234723 heartbeat IPC: 0.779425 cumulative IPC: 0.905857 (Simulation time: 0 hr 21 min 57 sec) 
Heartbeat CPU 0 instructions: 760000000 cycles: 707746000 heartbeat IPC: 0.799279 cumulative IPC: 0.903705 (Simulation time: 0 hr 22 min 15 sec) 
Heartbeat CPU 0 instructions: 770000000 cycles: 720473527 heartbeat IPC: 0.785699 cumulative IPC: 0.90133 (Simulation time: 0 hr 22 min 33 sec) 
Heartbeat CPU 0 instructions: 780000000 cycles: 733149414 heartbeat IPC: 0.788899 cumulative IPC: 0.899121 (Simulation time: 0 hr 22 min 52 sec) 
Heartbeat CPU 0 instructions: 790000000 cycles: 743984346 heartbeat IPC: 0.922941 cumulative IPC: 0.899514 (Simulation time: 0 hr 23 min 13 sec) 
Heartbeat CPU 0 instructions: 800000000 cycles: 754275004 heartbeat IPC: 0.971755 cumulative IPC: 0.90063 (Simulation time: 0 hr 23 min 36 sec) 
Heartbeat CPU 0 instructions: 810000000 cycles: 767142771 heartbeat IPC: 0.777136 cumulative IPC: 0.89829 (Simulation time: 0 hr 23 min 59 sec) 
Heartbeat CPU 0 instructions: 820000000 cycles: 779508325 heartbeat IPC: 0.808698 cumulative IPC: 0.896688 (Simulation time: 0 hr 24 min 19 sec) 
Heartbeat CPU 0 instructions: 830000000 cycles: 792443906 heartbeat IPC: 0.773062 cumulative IPC: 0.894417 (Simulation time: 0 hr 24 min 37 sec) 
Heartbeat CPU 0 instructions: 840000000 cycles: 804932107 heartbeat IPC: 0.800756 cumulative IPC: 0.892786 (Simulation time: 0 hr 24 min 55 sec) 
Heartbeat CPU 0 instructions: 850000000 cycles: 817827068 heartbeat IPC: 0.775497 cumulative IPC: 0.890713 (Simulation time: 0 hr 25 min 13 sec) 
Heartbeat CPU 0 instructions: 860000000 cycles: 830496548 heartbeat IPC: 0.789298 cumulative IPC: 0.888983 (Simulation time: 0 hr 25 min 32 sec) 
Heartbeat CPU 0 instructions: 870000000 cycles: 843302156 heartbeat IPC: 0.780908 cumulative IPC: 0.88715 (Simulation time: 0 hr 25 min 50 sec) 
Heartbeat CPU 0 instructions: 880000000 cycles: 852319856 heartbeat IPC: 1.10893 cumulative IPC: 0.889767 (Simulation time: 0 hr 26 min 15 sec) 
Heartbeat CPU 0 instructions: 890000003 cycles: 867259479 heartbeat IPC: 0.669361 cumulative IPC: 0.885541 (Simulation time: 0 hr 26 min 39 sec) 
Heartbeat CPU 0 instructions: 900000000 cycles: 881244143 heartbeat IPC: 0.715069 cumulative IPC: 0.882535 (Simulation time: 0 hr 27 min 1 sec) 
Heartbeat CPU 0 instructions: 910000002 cycles: 893948272 heartbeat IPC: 0.787146 cumulative IPC: 0.881032 (Simulation time: 0 hr 27 min 20 sec) 
Heartbeat CPU 0 instructions: 920000000 cycles: 906620546 heartbeat IPC: 0.789124 cumulative IPC: 0.879609 (Simulation time: 0 hr 27 min 38 sec) 
Heartbeat CPU 0 instructions: 930000001 cycles: 919322499 heartbeat IPC: 0.787281 cumulative IPC: 0.878198 (Simulation time: 0 hr 27 min 56 sec) 
Heartbeat CPU 0 instructions: 940000000 cycles: 932078299 heartbeat IPC: 0.783957 cumulative IPC: 0.876774 (Simulation time: 0 hr 28 min 14 sec) 
Heartbeat CPU 0 instructions: 950000002 cycles: 944852574 heartbeat IPC: 0.782823 cumulative IPC: 0.875373 (Simulation time: 0 hr 28 min 33 sec) 
Heartbeat CPU 0 instructions: 960000000 cycles: 955087499 heartbeat IPC: 0.977047 cumulative IPC: 0.876573 (Simulation time: 0 hr 28 min 55 sec) 
Heartbeat CPU 0 instructions: 970000002 cycles: 967221892 heartbeat IPC: 0.824104 cumulative IPC: 0.875849 (Simulation time: 0 hr 29 min 19 sec) 
Heartbeat CPU 0 instructions: 980000000 cycles: 980806594 heartbeat IPC: 0.736122 cumulative IPC: 0.873723 (Simulation time: 0 hr 29 min 42 sec) 
Heartbeat CPU 0 instructions: 990000003 cycles: 993540214 heartbeat IPC: 0.785323 cumulative IPC: 0.872479 (Simulation time: 0 hr 30 min 1 sec) 
Heartbeat CPU 0 instructions: 1000000000 cycles: 1006450041 heartbeat IPC: 0.774603 cumulative IPC: 0.871104 (Simulation time: 0 hr 30 min 19 sec) 
Heartbeat CPU 0 instructions: 1010000000 cycles: 1018963699 heartbeat IPC: 0.799127 cumulative IPC: 0.870136 (Simulation time: 0 hr 30 min 37 sec) 
Heartbeat CPU 0 instructions: 1020000000 cycles: 1031743770 heartbeat IPC: 0.782468 cumulative IPC: 0.868949 (Simulation time: 0 hr 30 min 56 sec) 
Heartbeat CPU 0 instructions: 1030000003 cycles: 1044499544 heartbeat IPC: 0.783959 cumulative IPC: 0.867815 (Simulation time: 0 hr 31 min 14 sec) 
Heartbeat CPU 0 instructions: 1040000000 cycles: 1057028664 heartbeat IPC: 0.79814 cumulative IPC: 0.866914 (Simulation time: 0 hr 31 min 33 sec) 
Heartbeat CPU 0 instructions: 1050000003 cycles: 1066647548 heartbeat IPC: 1.03962 cumulative IPC: 0.868612 (Simulation time: 0 hr 31 min 58 sec) 
Heartbeat CPU 0 instructions: 1060000000 cycles: 1080559483 heartbeat IPC: 0.718807 cumulative IPC: 0.866512 (Simulation time: 0 hr 32 min 21 sec) 
Heartbeat CPU 0 instructions: 1070000000 cycles: 1094284452 heartbeat IPC: 0.728599 cumulative IPC: 0.864631 (Simulation time: 0 hr 32 min 43 sec) 
Heartbeat CPU 0 instructions: 1080000000 cycles: 1107063718 heartbeat IPC: 0.782518 cumulative IPC: 0.863601 (Simulation time: 0 hr 33 min 1 sec) 
Heartbeat CPU 0 instructions: 1090000000 cycles: 1119452464 heartbeat IPC: 0.807184 cumulative IPC: 0.862924 (Simulation time: 0 hr 33 min 19 sec) 
Heartbeat CPU 0 instructions: 1100000000 cycles: 1132286837 heartbeat IPC: 0.779158 cumulative IPC: 0.861894 (Simulation time: 0 hr 33 min 37 sec) 
Heartbeat CPU 0 instructions: 1110000000 cycles: 1144983144 heartbeat IPC: 0.787631 cumulative IPC: 0.861002 (Simulation time: 0 hr 33 min 56 sec) 
Heartbeat CPU 0 instructions: 1120000000 cycles: 1157787002 heartbeat IPC: 0.781015 cumulative IPC: 0.860044 (Simulation time: 0 hr 34 min 14 sec) 
Heartbeat CPU 0 instructions: 1130000001 cycles: 1166902068 heartbeat IPC: 1.09708 cumulative IPC: 0.862047 (Simulation time: 0 hr 34 min 38 sec) 
Heartbeat CPU 0 instructions: 1140000000 cycles: 1178399790 heartbeat IPC: 0.869737 cumulative IPC: 0.862128 (Simulation time: 0 hr 35 min 0 sec) 
Heartbeat CPU 0 instructions: 1150000002 cycles: 1190175758 heartbeat IPC: 0.849187 cumulative IPC: 0.86199 (Simulation time: 0 hr 35 min 22 sec) 
Heartbeat CPU 0 instructions: 1160000000 cycles: 1202846499 heartbeat IPC: 0.78922 cumulative IPC: 0.861163 (Simulation time: 0 hr 35 min 40 sec) 
Heartbeat CPU 0 instructions: 1170000001 cycles: 1215468436 heartbeat IPC: 0.792271 cumulative IPC: 0.860392 (Simulation time: 0 hr 35 min 58 sec) 
Heartbeat CPU 0 instructions: 1180000000 cycles: 1228212903 heartbeat IPC: 0.784654 cumulative IPC: 0.859545 (Simulation time: 0 hr 36 min 16 sec) 
Heartbeat CPU 0 instructions: 1190000001 cycles: 1240797991 heartbeat IPC: 0.794591 cumulative IPC: 0.858836 (Simulation time: 0 hr 36 min 35 sec) 
Heartbeat CPU 0 instructions: 1200000000 cycles: 1252374896 heartbeat IPC: 0.863789 cumulative IPC: 0.858885 (Simulation time: 0 hr 36 min 55 sec) 
Finished CPU 0 instructions: 1000000001 cycles: 1164300101 cumulative IPC: 0.858885 (Simulation time: 0 hr 36 min 55 sec) 

CPU 0 Branch Prediction Accuracy: 92.3512% MPKI: 12.2202

ChampSim completed all CPUs

Region of Interest Statistics

CPU 0 cumulative IPC: 0.858885 instructions: 1000000001 cycles: 1164300101
L1D TOTAL     ACCESS:  249168097  HIT:  240919099  MISS:    8248998
L1D LOAD      ACCESS:  146492525  HIT:  139131522  MISS:    7361003
L1D RFO       ACCESS:  102675572  HIT:  101787577  MISS:     887995
L1D PREFETCH  ACCESS:          0  HIT:          0  MISS:          0
L1D WRITEBACK ACCESS:          0  HIT:          0  MISS:          0
L1D PREFETCH  REQUESTED:          0  ISSUED:          0  USEFUL:          0  USELESS:          0
L1I TOTAL     ACCESS:  208746035  HIT:  208746034  MISS:          1
L1I LOAD      ACCESS:  208746035  HIT:  208746034  MISS:          1
L1I RFO       ACCESS:          0  HIT:          0  MISS:          0
L1I PREFETCH  ACCESS:          0  HIT:          0  MISS:          0
L1I WRITEBACK ACCESS:          0  HIT:          0  MISS:          0
L1I PREFETCH  REQUESTED:          0  ISSUED:          0  USEFUL:          0  USELESS:          0
L2C TOTAL     ACCESS:   12102407  HIT:    5773065  MISS:    6329342
L2C LOAD      ACCESS:    7360988  HIT:    3142987  MISS:    4218001
L2C RFO       ACCESS:     887995  HIT:     152863  MISS:     735132
L2C PREFETCH  ACCESS:    2308657  HIT:     933512  MISS:    1375145
L2C WRITEBACK ACCESS:    1544767  HIT:    1543703  MISS:       1064
L2C PREFETCH  REQUESTED:    3268457  ISSUED:    3268457  USEFUL:    1369567  USELESS:     273930
LLC TOTAL     ACCESS:    8048844  HIT:    5926279  MISS:    2122565
LLC LOAD      ACCESS:    4214489  HIT:    3376180  MISS:     838309
LLC RFO       ACCESS:     735128  HIT:     188153  MISS:     546975
LLC PREFETCH  ACCESS:    1772954  HIT:    1037965  MISS:     734989
LLC WRITEBACK ACCESS:    1326273  HIT:    1323981  MISS:       2292
LLC PREFETCH  REQUESTED:          0  ISSUED:          0  USEFUL:     335209  USELESS:     527480
Major fault: 0 Minor fault: 4162

Avg Lookahead Depth:	1.30266
TOTAL: 3.26846e+06	L2C: 2.56974e+06	LLC: 698716	GOOD_L2C: 1.5903e+06
Printing all the perceptron weights to: perc_weights_0.csv

DRAM Statistics
 CHANNEL 0
 RQ ROW_BUFFER_HIT:     934456  ROW_BUFFER_MISS:    1184293
 DBUS_CONGESTED:    1501741
 WQ ROW_BUFFER_HIT:     533416  ROW_BUFFER_MISS:     664220  FULL:          0

 AVG_CONGESTED_CYCLE: 14
