Initialize SIGNATURE TABLE
ST_SET: 1
ST_WAY: 256
ST_TAG_BIT: 16
ST_TAG_MASK: ffff

Initialize PATTERN TABLE
PT_SET: 512
PT_WAY: 4
SIG_DELTA_BIT: 7
C_SIG_BIT: 4
C_DELTA_BIT: 4

Initialize PREFETCH FILTER
FILTER_SET: 1024

Initialize PERCEPTRON
PERC_ENTRIES: 4096
PERC_FEATURES: 9

*** ChampSim Multicore Out-of-Order Simulator ***

Warmup Instructions: 200000000
Simulation Instructions: 1000000000
Number of CPUs: 1
LLC sets: 2048
LLC ways: 16
Off-chip DRAM Size: 4096 MB Channels: 1 Width: 64-bit Data Rate: 1600 MT/s

CPU 0 runs /scratch/user/djimenez/champsim-traces/speccpu2006/xz/429.mcf-51B.champsimtrace.xz
Heartbeat CPU 0 instructions: 10000000 cycles: 5764094 heartbeat IPC: 1.73488 cumulative IPC: 1.73488 (Simulation time: 0 hr 0 min 19 sec) 
Heartbeat CPU 0 instructions: 20000000 cycles: 11518291 heartbeat IPC: 1.73786 cumulative IPC: 1.73637 (Simulation time: 0 hr 0 min 37 sec) 
Heartbeat CPU 0 instructions: 30000000 cycles: 17325120 heartbeat IPC: 1.72211 cumulative IPC: 1.73159 (Simulation time: 0 hr 0 min 55 sec) 
Heartbeat CPU 0 instructions: 40000000 cycles: 23070539 heartbeat IPC: 1.74052 cumulative IPC: 1.73381 (Simulation time: 0 hr 1 min 13 sec) 
Heartbeat CPU 0 instructions: 50000000 cycles: 29082686 heartbeat IPC: 1.6633 cumulative IPC: 1.71924 (Simulation time: 0 hr 1 min 31 sec) 
Heartbeat CPU 0 instructions: 60000000 cycles: 35138856 heartbeat IPC: 1.65121 cumulative IPC: 1.70751 (Simulation time: 0 hr 1 min 49 sec) 
Heartbeat CPU 0 instructions: 70000001 cycles: 40993922 heartbeat IPC: 1.70792 cumulative IPC: 1.70757 (Simulation time: 0 hr 2 min 7 sec) 
Heartbeat CPU 0 instructions: 80000000 cycles: 46972394 heartbeat IPC: 1.67267 cumulative IPC: 1.70313 (Simulation time: 0 hr 2 min 24 sec) 
Heartbeat CPU 0 instructions: 90000001 cycles: 52731310 heartbeat IPC: 1.73644 cumulative IPC: 1.70677 (Simulation time: 0 hr 2 min 42 sec) 
Heartbeat CPU 0 instructions: 100000000 cycles: 58451280 heartbeat IPC: 1.74826 cumulative IPC: 1.71083 (Simulation time: 0 hr 3 min 0 sec) 
Heartbeat CPU 0 instructions: 110000000 cycles: 64643248 heartbeat IPC: 1.615 cumulative IPC: 1.70165 (Simulation time: 0 hr 3 min 17 sec) 
Heartbeat CPU 0 instructions: 120000000 cycles: 70720243 heartbeat IPC: 1.64555 cumulative IPC: 1.69683 (Simulation time: 0 hr 3 min 34 sec) 
Heartbeat CPU 0 instructions: 130000003 cycles: 76827787 heartbeat IPC: 1.63732 cumulative IPC: 1.6921 (Simulation time: 0 hr 3 min 51 sec) 
Heartbeat CPU 0 instructions: 140000000 cycles: 82874275 heartbeat IPC: 1.65385 cumulative IPC: 1.68931 (Simulation time: 0 hr 4 min 9 sec) 
Heartbeat CPU 0 instructions: 150000002 cycles: 88823005 heartbeat IPC: 1.68103 cumulative IPC: 1.68875 (Simulation time: 0 hr 4 min 26 sec) 
Heartbeat CPU 0 instructions: 160000000 cycles: 94968764 heartbeat IPC: 1.62714 cumulative IPC: 1.68476 (Simulation time: 0 hr 4 min 43 sec) 
Heartbeat CPU 0 instructions: 170000000 cycles: 100957086 heartbeat IPC: 1.66992 cumulative IPC: 1.68388 (Simulation time: 0 hr 5 min 0 sec) 
Heartbeat CPU 0 instructions: 180000000 cycles: 106916423 heartbeat IPC: 1.67804 cumulative IPC: 1.68356 (Simulation time: 0 hr 5 min 18 sec) 
Heartbeat CPU 0 instructions: 190000001 cycles: 113016910 heartbeat IPC: 1.63921 cumulative IPC: 1.68116 (Simulation time: 0 hr 5 min 34 sec) 
Heartbeat CPU 0 instructions: 200000000 cycles: 118934096 heartbeat IPC: 1.68999 cumulative IPC: 1.6816 (Simulation time: 0 hr 5 min 52 sec) 

Warmup complete CPU 0 instructions: 200000002 cycles: 118934098 (Simulation time: 0 hr 5 min 52 sec) 

Heartbeat CPU 0 instructions: 210000001 cycles: 196655086 heartbeat IPC: 0.128665 cumulative IPC: 0.128665 (Simulation time: 0 hr 6 min 40 sec) 
Heartbeat CPU 0 instructions: 220000000 cycles: 288382874 heartbeat IPC: 0.109018 cumulative IPC: 0.11803 (Simulation time: 0 hr 7 min 34 sec) 
Heartbeat CPU 0 instructions: 230000002 cycles: 368699929 heartbeat IPC: 0.124507 cumulative IPC: 0.120113 (Simulation time: 0 hr 8 min 24 sec) 
Heartbeat CPU 0 instructions: 240000000 cycles: 446285815 heartbeat IPC: 0.128889 cumulative IPC: 0.122193 (Simulation time: 0 hr 9 min 13 sec) 
Heartbeat CPU 0 instructions: 250000003 cycles: 542575856 heartbeat IPC: 0.103853 cumulative IPC: 0.118024 (Simulation time: 0 hr 10 min 9 sec) 
Heartbeat CPU 0 instructions: 260000000 cycles: 634930266 heartbeat IPC: 0.108278 cumulative IPC: 0.11628 (Simulation time: 0 hr 11 min 3 sec) 
Heartbeat CPU 0 instructions: 270000003 cycles: 730897237 heartbeat IPC: 0.104203 cumulative IPC: 0.114386 (Simulation time: 0 hr 11 min 59 sec) 
Heartbeat CPU 0 instructions: 280000000 cycles: 811637314 heartbeat IPC: 0.123854 cumulative IPC: 0.11549 (Simulation time: 0 hr 12 min 49 sec) 
Heartbeat CPU 0 instructions: 290000002 cycles: 897159524 heartbeat IPC: 0.116929 cumulative IPC: 0.115648 (Simulation time: 0 hr 13 min 42 sec) 
Heartbeat CPU 0 instructions: 300000000 cycles: 977014897 heartbeat IPC: 0.125226 cumulative IPC: 0.116539 (Simulation time: 0 hr 14 min 32 sec) 
Heartbeat CPU 0 instructions: 310000003 cycles: 1066836480 heartbeat IPC: 0.111332 cumulative IPC: 0.116046 (Simulation time: 0 hr 15 min 26 sec) 
Heartbeat CPU 0 instructions: 320000000 cycles: 1153516051 heartbeat IPC: 0.115367 cumulative IPC: 0.115989 (Simulation time: 0 hr 16 min 18 sec) 
Heartbeat CPU 0 instructions: 330000001 cycles: 1245497784 heartbeat IPC: 0.108717 cumulative IPC: 0.115395 (Simulation time: 0 hr 17 min 10 sec) 
Heartbeat CPU 0 instructions: 340000000 cycles: 1331324749 heartbeat IPC: 0.116513 cumulative IPC: 0.115474 (Simulation time: 0 hr 18 min 1 sec) 
Heartbeat CPU 0 instructions: 350000000 cycles: 1411388371 heartbeat IPC: 0.124901 cumulative IPC: 0.116058 (Simulation time: 0 hr 18 min 51 sec) 
Heartbeat CPU 0 instructions: 360000000 cycles: 1490701961 heartbeat IPC: 0.126082 cumulative IPC: 0.116638 (Simulation time: 0 hr 19 min 41 sec) 
Heartbeat CPU 0 instructions: 370000003 cycles: 1576183813 heartbeat IPC: 0.116984 cumulative IPC: 0.116658 (Simulation time: 0 hr 20 min 34 sec) 
Heartbeat CPU 0 instructions: 380000000 cycles: 1653827088 heartbeat IPC: 0.128794 cumulative IPC: 0.117272 (Simulation time: 0 hr 21 min 25 sec) 
Heartbeat CPU 0 instructions: 390000000 cycles: 1732524728 heartbeat IPC: 0.127069 cumulative IPC: 0.11775 (Simulation time: 0 hr 22 min 15 sec) 
Heartbeat CPU 0 instructions: 400000000 cycles: 1816585004 heartbeat IPC: 0.118962 cumulative IPC: 0.11781 (Simulation time: 0 hr 23 min 8 sec) 
Heartbeat CPU 0 instructions: 410000003 cycles: 1905536685 heartbeat IPC: 0.112421 cumulative IPC: 0.117542 (Simulation time: 0 hr 24 min 2 sec) 
Heartbeat CPU 0 instructions: 420000000 cycles: 1990785795 heartbeat IPC: 0.117303 cumulative IPC: 0.117531 (Simulation time: 0 hr 24 min 55 sec) 
Heartbeat CPU 0 instructions: 430000002 cycles: 2086333926 heartbeat IPC: 0.104659 cumulative IPC: 0.116906 (Simulation time: 0 hr 25 min 52 sec) 
Heartbeat CPU 0 instructions: 440000000 cycles: 2165228871 heartbeat IPC: 0.126751 cumulative IPC: 0.117285 (Simulation time: 0 hr 26 min 41 sec) 
Heartbeat CPU 0 instructions: 450000000 cycles: 2240488704 heartbeat IPC: 0.132873 cumulative IPC: 0.117838 (Simulation time: 0 hr 27 min 30 sec) 
Heartbeat CPU 0 instructions: 460000000 cycles: 2321346136 heartbeat IPC: 0.123674 cumulative IPC: 0.118052 (Simulation time: 0 hr 28 min 21 sec) 
Heartbeat CPU 0 instructions: 470000000 cycles: 2415073466 heartbeat IPC: 0.106692 cumulative IPC: 0.117589 (Simulation time: 0 hr 29 min 17 sec) 
Heartbeat CPU 0 instructions: 480000000 cycles: 2528201406 heartbeat IPC: 0.0883955 cumulative IPC: 0.116218 (Simulation time: 0 hr 30 min 20 sec) 
Heartbeat CPU 0 instructions: 490000002 cycles: 2607785326 heartbeat IPC: 0.125654 cumulative IPC: 0.11652 (Simulation time: 0 hr 31 min 8 sec) 
Heartbeat CPU 0 instructions: 500000000 cycles: 2696810530 heartbeat IPC: 0.112328 cumulative IPC: 0.116375 (Simulation time: 0 hr 32 min 1 sec) 
Heartbeat CPU 0 instructions: 510000000 cycles: 2771984052 heartbeat IPC: 0.133026 cumulative IPC: 0.116847 (Simulation time: 0 hr 32 min 48 sec) 
Heartbeat CPU 0 instructions: 520000000 cycles: 2858885648 heartbeat IPC: 0.115073 cumulative IPC: 0.11679 (Simulation time: 0 hr 33 min 40 sec) 
Heartbeat CPU 0 instructions: 530000002 cycles: 2933765438 heartbeat IPC: 0.133547 cumulative IPC: 0.117236 (Simulation time: 0 hr 34 min 28 sec) 
Heartbeat CPU 0 instructions: 540000000 cycles: 3023852509 heartbeat IPC: 0.111004 cumulative IPC: 0.117043 (Simulation time: 0 hr 35 min 21 sec) 
Heartbeat CPU 0 instructions: 550000000 cycles: 3096453165 heartbeat IPC: 0.13774 cumulative IPC: 0.117548 (Simulation time: 0 hr 36 min 8 sec) 
Heartbeat CPU 0 instructions: 560000000 cycles: 3179520449 heartbeat IPC: 0.120384 cumulative IPC: 0.117625 (Simulation time: 0 hr 36 min 59 sec) 
Heartbeat CPU 0 instructions: 570000000 cycles: 3253350114 heartbeat IPC: 0.135447 cumulative IPC: 0.118044 (Simulation time: 0 hr 37 min 47 sec) 
Heartbeat CPU 0 instructions: 580000000 cycles: 3327928222 heartbeat IPC: 0.134088 cumulative IPC: 0.118417 (Simulation time: 0 hr 38 min 34 sec) 
Heartbeat CPU 0 instructions: 590000000 cycles: 3413590263 heartbeat IPC: 0.116738 cumulative IPC: 0.118374 (Simulation time: 0 hr 39 min 26 sec) 
Heartbeat CPU 0 instructions: 600000000 cycles: 3498634801 heartbeat IPC: 0.117585 cumulative IPC: 0.118354 (Simulation time: 0 hr 40 min 18 sec) 
Heartbeat CPU 0 instructions: 610000000 cycles: 3572075167 heartbeat IPC: 0.136165 cumulative IPC: 0.118732 (Simulation time: 0 hr 41 min 4 sec) 
Heartbeat CPU 0 instructions: 620000000 cycles: 3664362258 heartbeat IPC: 0.108358 cumulative IPC: 0.118462 (Simulation time: 0 hr 41 min 59 sec) 
Heartbeat CPU 0 instructions: 630000000 cycles: 3736398752 heartbeat IPC: 0.138819 cumulative IPC: 0.118868 (Simulation time: 0 hr 42 min 44 sec) 
Heartbeat CPU 0 instructions: 640000000 cycles: 3823911900 heartbeat IPC: 0.114269 cumulative IPC: 0.118759 (Simulation time: 0 hr 43 min 38 sec) 
Heartbeat CPU 0 instructions: 650000000 cycles: 3905885011 heartbeat IPC: 0.121991 cumulative IPC: 0.118829 (Simulation time: 0 hr 44 min 28 sec) 
Heartbeat CPU 0 instructions: 660000000 cycles: 3988223926 heartbeat IPC: 0.121449 cumulative IPC: 0.118885 (Simulation time: 0 hr 45 min 19 sec) 
Heartbeat CPU 0 instructions: 670000000 cycles: 4073975597 heartbeat IPC: 0.116616 cumulative IPC: 0.118836 (Simulation time: 0 hr 46 min 12 sec) 
Heartbeat CPU 0 instructions: 680000000 cycles: 4151715134 heartbeat IPC: 0.128635 cumulative IPC: 0.119025 (Simulation time: 0 hr 47 min 1 sec) 
Heartbeat CPU 0 instructions: 690000001 cycles: 4224717423 heartbeat IPC: 0.136982 cumulative IPC: 0.119344 (Simulation time: 0 hr 47 min 47 sec) 
Heartbeat CPU 0 instructions: 700000000 cycles: 4308876792 heartbeat IPC: 0.118822 cumulative IPC: 0.119333 (Simulation time: 0 hr 48 min 38 sec) 
Heartbeat CPU 0 instructions: 710000002 cycles: 4405700257 heartbeat IPC: 0.103281 cumulative IPC: 0.118971 (Simulation time: 0 hr 49 min 34 sec) 
Heartbeat CPU 0 instructions: 720000000 cycles: 4482319744 heartbeat IPC: 0.130515 cumulative IPC: 0.119174 (Simulation time: 0 hr 50 min 22 sec) 
Heartbeat CPU 0 instructions: 730000002 cycles: 4566221535 heartbeat IPC: 0.119187 cumulative IPC: 0.119174 (Simulation time: 0 hr 51 min 14 sec) 
Heartbeat CPU 0 instructions: 740000000 cycles: 4639138900 heartbeat IPC: 0.137142 cumulative IPC: 0.119464 (Simulation time: 0 hr 52 min 3 sec) 
Heartbeat CPU 0 instructions: 750000000 cycles: 4724700782 heartbeat IPC: 0.116874 cumulative IPC: 0.119416 (Simulation time: 0 hr 52 min 56 sec) 
Heartbeat CPU 0 instructions: 760000000 cycles: 4795942636 heartbeat IPC: 0.140367 cumulative IPC: 0.119735 (Simulation time: 0 hr 53 min 45 sec) 
Heartbeat CPU 0 instructions: 770000002 cycles: 4887542849 heartbeat IPC: 0.10917 cumulative IPC: 0.119532 (Simulation time: 0 hr 54 min 40 sec) 
Heartbeat CPU 0 instructions: 780000000 cycles: 4960634717 heartbeat IPC: 0.136814 cumulative IPC: 0.119793 (Simulation time: 0 hr 55 min 28 sec) 
Heartbeat CPU 0 instructions: 790000001 cycles: 5046968922 heartbeat IPC: 0.115829 cumulative IPC: 0.119723 (Simulation time: 0 hr 56 min 22 sec) 
Heartbeat CPU 0 instructions: 800000000 cycles: 5116550876 heartbeat IPC: 0.143715 cumulative IPC: 0.120057 (Simulation time: 0 hr 57 min 11 sec) 
Heartbeat CPU 0 instructions: 810000000 cycles: 5197089675 heartbeat IPC: 0.124164 cumulative IPC: 0.120122 (Simulation time: 0 hr 58 min 3 sec) 
Heartbeat CPU 0 instructions: 820000000 cycles: 5283836879 heartbeat IPC: 0.115277 cumulative IPC: 0.120041 (Simulation time: 0 hr 58 min 57 sec) 
Heartbeat CPU 0 instructions: 830000001 cycles: 5363099274 heartbeat IPC: 0.126163 cumulative IPC: 0.120134 (Simulation time: 0 hr 59 min 48 sec) 
Heartbeat CPU 0 instructions: 840000000 cycles: 5447426346 heartbeat IPC: 0.118586 cumulative IPC: 0.120109 (Simulation time: 1 hr 0 min 41 sec) 
Heartbeat CPU 0 instructions: 850000001 cycles: 5531668733 heartbeat IPC: 0.118705 cumulative IPC: 0.120087 (Simulation time: 1 hr 1 min 35 sec) 
Heartbeat CPU 0 instructions: 860000000 cycles: 5609631141 heartbeat IPC: 0.128267 cumulative IPC: 0.120203 (Simulation time: 1 hr 2 min 25 sec) 
Heartbeat CPU 0 instructions: 870000000 cycles: 5696356444 heartbeat IPC: 0.115307 cumulative IPC: 0.120127 (Simulation time: 1 hr 3 min 18 sec) 
Heartbeat CPU 0 instructions: 880000000 cycles: 5765929240 heartbeat IPC: 0.143734 cumulative IPC: 0.120418 (Simulation time: 1 hr 4 min 7 sec) 
Heartbeat CPU 0 instructions: 890000001 cycles: 5856343050 heartbeat IPC: 0.110603 cumulative IPC: 0.120263 (Simulation time: 1 hr 5 min 1 sec) 
Heartbeat CPU 0 instructions: 900000000 cycles: 5939860266 heartbeat IPC: 0.119736 cumulative IPC: 0.120256 (Simulation time: 1 hr 5 min 53 sec) 
Heartbeat CPU 0 instructions: 910000000 cycles: 6020153738 heartbeat IPC: 0.124543 cumulative IPC: 0.120314 (Simulation time: 1 hr 6 min 43 sec) 
Heartbeat CPU 0 instructions: 920000000 cycles: 6099083871 heartbeat IPC: 0.126694 cumulative IPC: 0.120398 (Simulation time: 1 hr 7 min 29 sec) 
Heartbeat CPU 0 instructions: 930000001 cycles: 6185640381 heartbeat IPC: 0.115531 cumulative IPC: 0.120329 (Simulation time: 1 hr 8 min 23 sec) 
Heartbeat CPU 0 instructions: 940000000 cycles: 6257937143 heartbeat IPC: 0.138319 cumulative IPC: 0.120541 (Simulation time: 1 hr 9 min 10 sec) 
Heartbeat CPU 0 instructions: 950000002 cycles: 6348962271 heartbeat IPC: 0.10986 cumulative IPC: 0.120385 (Simulation time: 1 hr 10 min 4 sec) 
Heartbeat CPU 0 instructions: 960000000 cycles: 6434495700 heartbeat IPC: 0.116913 cumulative IPC: 0.120338 (Simulation time: 1 hr 10 min 55 sec) 
Heartbeat CPU 0 instructions: 970000000 cycles: 6507684088 heartbeat IPC: 0.136634 cumulative IPC: 0.120524 (Simulation time: 1 hr 11 min 43 sec) 
Heartbeat CPU 0 instructions: 980000000 cycles: 6599056406 heartbeat IPC: 0.109442 cumulative IPC: 0.120368 (Simulation time: 1 hr 12 min 38 sec) 
Heartbeat CPU 0 instructions: 990000001 cycles: 6675955799 heartbeat IPC: 0.13004 cumulative IPC: 0.120482 (Simulation time: 1 hr 13 min 27 sec) 
Heartbeat CPU 0 instructions: 1000000000 cycles: 6766892608 heartbeat IPC: 0.109966 cumulative IPC: 0.120338 (Simulation time: 1 hr 14 min 21 sec) 
Heartbeat CPU 0 instructions: 1010000001 cycles: 6847253517 heartbeat IPC: 0.124439 cumulative IPC: 0.120387 (Simulation time: 1 hr 15 min 11 sec) 
Heartbeat CPU 0 instructions: 1020000000 cycles: 6938637463 heartbeat IPC: 0.109428 cumulative IPC: 0.12024 (Simulation time: 1 hr 16 min 6 sec) 
Heartbeat CPU 0 instructions: 1030000003 cycles: 7012290780 heartbeat IPC: 0.135771 cumulative IPC: 0.120406 (Simulation time: 1 hr 16 min 54 sec) 
Heartbeat CPU 0 instructions: 1040000000 cycles: 7097149219 heartbeat IPC: 0.117843 cumulative IPC: 0.120375 (Simulation time: 1 hr 17 min 46 sec) 
Heartbeat CPU 0 instructions: 1050000002 cycles: 7184832079 heartbeat IPC: 0.114047 cumulative IPC: 0.120296 (Simulation time: 1 hr 18 min 39 sec) 
Heartbeat CPU 0 instructions: 1060000000 cycles: 7257905593 heartbeat IPC: 0.136848 cumulative IPC: 0.120466 (Simulation time: 1 hr 19 min 27 sec) 
Heartbeat CPU 0 instructions: 1070000000 cycles: 7351120675 heartbeat IPC: 0.107279 cumulative IPC: 0.120296 (Simulation time: 1 hr 20 min 22 sec) 
Heartbeat CPU 0 instructions: 1080000000 cycles: 7429134695 heartbeat IPC: 0.128182 cumulative IPC: 0.12038 (Simulation time: 1 hr 21 min 9 sec) 
Heartbeat CPU 0 instructions: 1090000002 cycles: 7508146027 heartbeat IPC: 0.126564 cumulative IPC: 0.120446 (Simulation time: 1 hr 21 min 59 sec) 
Heartbeat CPU 0 instructions: 1100000000 cycles: 7587803521 heartbeat IPC: 0.125537 cumulative IPC: 0.1205 (Simulation time: 1 hr 22 min 50 sec) 
Heartbeat CPU 0 instructions: 1110000003 cycles: 7680447328 heartbeat IPC: 0.10794 cumulative IPC: 0.120346 (Simulation time: 1 hr 23 min 43 sec) 
Heartbeat CPU 0 instructions: 1120000000 cycles: 7774742329 heartbeat IPC: 0.10605 cumulative IPC: 0.12017 (Simulation time: 1 hr 24 min 39 sec) 
Heartbeat CPU 0 instructions: 1130000003 cycles: 7853591509 heartbeat IPC: 0.126824 cumulative IPC: 0.120238 (Simulation time: 1 hr 25 min 29 sec) 
Heartbeat CPU 0 instructions: 1140000000 cycles: 7941167589 heartbeat IPC: 0.114186 cumulative IPC: 0.12017 (Simulation time: 1 hr 26 min 21 sec) 
Heartbeat CPU 0 instructions: 1150000000 cycles: 8026480789 heartbeat IPC: 0.117215 cumulative IPC: 0.120138 (Simulation time: 1 hr 27 min 13 sec) 
Heartbeat CPU 0 instructions: 1160000000 cycles: 8105671529 heartbeat IPC: 0.126277 cumulative IPC: 0.120199 (Simulation time: 1 hr 28 min 2 sec) 
Heartbeat CPU 0 instructions: 1170000000 cycles: 8199772368 heartbeat IPC: 0.106269 cumulative IPC: 0.120037 (Simulation time: 1 hr 28 min 55 sec) 
Heartbeat CPU 0 instructions: 1180000000 cycles: 8279454014 heartbeat IPC: 0.125499 cumulative IPC: 0.12009 (Simulation time: 1 hr 29 min 42 sec) 
Heartbeat CPU 0 instructions: 1190000003 cycles: 8364336821 heartbeat IPC: 0.11781 cumulative IPC: 0.120067 (Simulation time: 1 hr 30 min 32 sec) 
Heartbeat CPU 0 instructions: 1200000000 cycles: 8453854551 heartbeat IPC: 0.11171 cumulative IPC: 0.119977 (Simulation time: 1 hr 31 min 25 sec) 
Finished CPU 0 instructions: 1000000000 cycles: 8334920466 cumulative IPC: 0.119977 (Simulation time: 1 hr 31 min 25 sec) 

CPU 0 Branch Prediction Accuracy: 93.9478% MPKI: 14.3508

ChampSim completed all CPUs

Region of Interest Statistics

CPU 0 cumulative IPC: 0.119977 instructions: 1000000000 cycles: 8334920466
L1D TOTAL     ACCESS:  256187922  HIT:  150542206  MISS:  105645716
L1D LOAD      ACCESS:  211111597  HIT:  109209656  MISS:  101901941
L1D RFO       ACCESS:   45076325  HIT:   41332550  MISS:    3743775
L1D PREFETCH  ACCESS:          0  HIT:          0  MISS:          0
L1D WRITEBACK ACCESS:          0  HIT:          0  MISS:          0
L1D PREFETCH  REQUESTED:          0  ISSUED:          0  USEFUL:          0  USELESS:          0
L1I TOTAL     ACCESS:  241292249  HIT:  241292249  MISS:          0
L1I LOAD      ACCESS:  241292249  HIT:  241292249  MISS:          0
L1I RFO       ACCESS:          0  HIT:          0  MISS:          0
L1I PREFETCH  ACCESS:          0  HIT:          0  MISS:          0
L1I WRITEBACK ACCESS:          0  HIT:          0  MISS:          0
L1I PREFETCH  REQUESTED:          0  ISSUED:          0  USEFUL:          0  USELESS:          0
L2C TOTAL     ACCESS:  143157107  HIT:   63592041  MISS:   79565066
L2C LOAD      ACCESS:  101900158  HIT:   29550481  MISS:   72349677
L2C RFO       ACCESS:    3743672  HIT:    2109306  MISS:    1634366
L2C PREFETCH  ACCESS:   12466306  HIT:    6892514  MISS:    5573792
L2C WRITEBACK ACCESS:   25046971  HIT:   25039740  MISS:       7231
L2C PREFETCH  REQUESTED:   36672450  ISSUED:   36672450  USEFUL:    3454247  USELESS:    3338470
LLC TOTAL     ACCESS:  106337485  HIT:   42704622  MISS:   63632863
LLC LOAD      ACCESS:   72258142  HIT:   20835102  MISS:   51423040
LLC RFO       ACCESS:    1634317  HIT:     506475  MISS:    1127842
LLC PREFETCH  ACCESS:   15356373  HIT:    4322523  MISS:   11033850
LLC WRITEBACK ACCESS:   17088653  HIT:   17040522  MISS:      48131
LLC PREFETCH  REQUESTED:          0  ISSUED:          0  USEFUL:    4210970  USELESS:   10023807
Major fault: 0 Minor fault: 290996

Avg Lookahead Depth:	0.314236
TOTAL: 3.66724e+07	L2C: 2.12488e+07	LLC: 1.54237e+07	GOOD_L2C: 1.38773e+07
Printing all the perceptron weights to: perc_weights_0.csv

DRAM Statistics
 CHANNEL 0
 RQ ROW_BUFFER_HIT:   17948641  ROW_BUFFER_MISS:   45620241
 DBUS_CONGESTED:   32869298
 WQ ROW_BUFFER_HIT:    2002525  ROW_BUFFER_MISS:   13615929  FULL:          0

 AVG_CONGESTED_CYCLE: 12
