Initialize SIGNATURE TABLE
ST_SET: 1
ST_WAY: 256
ST_TAG_BIT: 16
ST_TAG_MASK: ffff

Initialize PATTERN TABLE
PT_SET: 512
PT_WAY: 4
SIG_DELTA_BIT: 7
C_SIG_BIT: 4
C_DELTA_BIT: 4

Initialize PREFETCH FILTER
FILTER_SET: 1024

Initialize PERCEPTRON
PERC_ENTRIES: 4096
PERC_FEATURES: 9

*** ChampSim Multicore Out-of-Order Simulator ***

Warmup Instructions: 200000000
Simulation Instructions: 1000000000
Number of CPUs: 1
LLC sets: 2048
LLC ways: 16
Off-chip DRAM Size: 4096 MB Channels: 1 Width: 64-bit Data Rate: 1600 MT/s

CPU 0 runs /scratch/user/djimenez/champsim-traces/speccpu2006/xz/435.gromacs-228B.champsimtrace.xz
Heartbeat CPU 0 instructions: 10000000 cycles: 4738329 heartbeat IPC: 2.11045 cumulative IPC: 2.11045 (Simulation time: 0 hr 0 min 22 sec) 
Heartbeat CPU 0 instructions: 20000000 cycles: 9478024 heartbeat IPC: 2.10984 cumulative IPC: 2.11014 (Simulation time: 0 hr 0 min 44 sec) 
Heartbeat CPU 0 instructions: 30000002 cycles: 14217580 heartbeat IPC: 2.1099 cumulative IPC: 2.11006 (Simulation time: 0 hr 1 min 6 sec) 
Heartbeat CPU 0 instructions: 40000000 cycles: 18957892 heartbeat IPC: 2.10957 cumulative IPC: 2.10994 (Simulation time: 0 hr 1 min 28 sec) 
Heartbeat CPU 0 instructions: 50000003 cycles: 23700130 heartbeat IPC: 2.10871 cumulative IPC: 2.10969 (Simulation time: 0 hr 1 min 50 sec) 
Heartbeat CPU 0 instructions: 60000000 cycles: 28687024 heartbeat IPC: 2.00526 cumulative IPC: 2.09154 (Simulation time: 0 hr 2 min 12 sec) 
Heartbeat CPU 0 instructions: 70000002 cycles: 32889494 heartbeat IPC: 2.37955 cumulative IPC: 2.12834 (Simulation time: 0 hr 2 min 31 sec) 
Heartbeat CPU 0 instructions: 80000000 cycles: 37276355 heartbeat IPC: 2.27953 cumulative IPC: 2.14613 (Simulation time: 0 hr 2 min 52 sec) 
Heartbeat CPU 0 instructions: 90000001 cycles: 41194945 heartbeat IPC: 2.55194 cumulative IPC: 2.18473 (Simulation time: 0 hr 3 min 11 sec) 
Heartbeat CPU 0 instructions: 100000000 cycles: 45189847 heartbeat IPC: 2.50319 cumulative IPC: 2.21289 (Simulation time: 0 hr 3 min 30 sec) 
Heartbeat CPU 0 instructions: 110000001 cycles: 49923588 heartbeat IPC: 2.11249 cumulative IPC: 2.20337 (Simulation time: 0 hr 3 min 52 sec) 
Heartbeat CPU 0 instructions: 120000000 cycles: 54656198 heartbeat IPC: 2.113 cumulative IPC: 2.19554 (Simulation time: 0 hr 4 min 14 sec) 
Heartbeat CPU 0 instructions: 130000002 cycles: 59388447 heartbeat IPC: 2.11316 cumulative IPC: 2.18898 (Simulation time: 0 hr 4 min 36 sec) 
Heartbeat CPU 0 instructions: 140000000 cycles: 64120502 heartbeat IPC: 2.11325 cumulative IPC: 2.18339 (Simulation time: 0 hr 4 min 58 sec) 
Heartbeat CPU 0 instructions: 150000000 cycles: 68853284 heartbeat IPC: 2.11292 cumulative IPC: 2.17855 (Simulation time: 0 hr 5 min 20 sec) 
Heartbeat CPU 0 instructions: 160000000 cycles: 73588599 heartbeat IPC: 2.11179 cumulative IPC: 2.17425 (Simulation time: 0 hr 5 min 42 sec) 
Heartbeat CPU 0 instructions: 170000000 cycles: 78319957 heartbeat IPC: 2.11356 cumulative IPC: 2.17058 (Simulation time: 0 hr 6 min 4 sec) 
Heartbeat CPU 0 instructions: 180000000 cycles: 83053982 heartbeat IPC: 2.11237 cumulative IPC: 2.16727 (Simulation time: 0 hr 6 min 26 sec) 
Heartbeat CPU 0 instructions: 190000003 cycles: 87790717 heartbeat IPC: 2.11116 cumulative IPC: 2.16424 (Simulation time: 0 hr 6 min 48 sec) 
Heartbeat CPU 0 instructions: 200000000 cycles: 92531552 heartbeat IPC: 2.10933 cumulative IPC: 2.16142 (Simulation time: 0 hr 7 min 10 sec) 

Warmup complete CPU 0 instructions: 200000002 cycles: 92531553 (Simulation time: 0 hr 7 min 10 sec) 

Heartbeat CPU 0 instructions: 210000002 cycles: 98824584 heartbeat IPC: 1.58906 cumulative IPC: 1.58906 (Simulation time: 0 hr 7 min 34 sec) 
Heartbeat CPU 0 instructions: 220000000 cycles: 105119287 heartbeat IPC: 1.58864 cumulative IPC: 1.58885 (Simulation time: 0 hr 7 min 58 sec) 
Heartbeat CPU 0 instructions: 230000000 cycles: 111416362 heartbeat IPC: 1.58804 cumulative IPC: 1.58858 (Simulation time: 0 hr 8 min 22 sec) 
Heartbeat CPU 0 instructions: 240000000 cycles: 117707368 heartbeat IPC: 1.58957 cumulative IPC: 1.58883 (Simulation time: 0 hr 8 min 45 sec) 
Heartbeat CPU 0 instructions: 250000001 cycles: 124011321 heartbeat IPC: 1.58631 cumulative IPC: 1.58832 (Simulation time: 0 hr 9 min 9 sec) 
Heartbeat CPU 0 instructions: 260000000 cycles: 132862405 heartbeat IPC: 1.1298 cumulative IPC: 1.48769 (Simulation time: 0 hr 9 min 35 sec) 
Heartbeat CPU 0 instructions: 270000003 cycles: 140265518 heartbeat IPC: 1.35078 cumulative IPC: 1.46646 (Simulation time: 0 hr 9 min 59 sec) 
Heartbeat CPU 0 instructions: 280000000 cycles: 148247666 heartbeat IPC: 1.2528 cumulative IPC: 1.43585 (Simulation time: 0 hr 10 min 24 sec) 
Heartbeat CPU 0 instructions: 290000001 cycles: 156307246 heartbeat IPC: 1.24076 cumulative IPC: 1.4112 (Simulation time: 0 hr 10 min 48 sec) 
Heartbeat CPU 0 instructions: 300000000 cycles: 162866330 heartbeat IPC: 1.5246 cumulative IPC: 1.42177 (Simulation time: 0 hr 11 min 11 sec) 
Heartbeat CPU 0 instructions: 310000002 cycles: 169253849 heartbeat IPC: 1.56555 cumulative IPC: 1.43374 (Simulation time: 0 hr 11 min 35 sec) 
Heartbeat CPU 0 instructions: 320000000 cycles: 175650358 heartbeat IPC: 1.56335 cumulative IPC: 1.44372 (Simulation time: 0 hr 11 min 59 sec) 
Heartbeat CPU 0 instructions: 330000001 cycles: 182043842 heartbeat IPC: 1.56409 cumulative IPC: 1.45231 (Simulation time: 0 hr 12 min 23 sec) 
Heartbeat CPU 0 instructions: 340000000 cycles: 188437472 heartbeat IPC: 1.56406 cumulative IPC: 1.45976 (Simulation time: 0 hr 12 min 46 sec) 
Heartbeat CPU 0 instructions: 350000002 cycles: 194831681 heartbeat IPC: 1.56392 cumulative IPC: 1.46627 (Simulation time: 0 hr 13 min 10 sec) 
Heartbeat CPU 0 instructions: 360000000 cycles: 201242031 heartbeat IPC: 1.55998 cumulative IPC: 1.4718 (Simulation time: 0 hr 13 min 34 sec) 
Heartbeat CPU 0 instructions: 370000002 cycles: 207664971 heartbeat IPC: 1.55692 cumulative IPC: 1.47655 (Simulation time: 0 hr 13 min 58 sec) 
Heartbeat CPU 0 instructions: 380000000 cycles: 214085943 heartbeat IPC: 1.5574 cumulative IPC: 1.48082 (Simulation time: 0 hr 14 min 22 sec) 
Heartbeat CPU 0 instructions: 390000000 cycles: 220430511 heartbeat IPC: 1.57615 cumulative IPC: 1.48555 (Simulation time: 0 hr 14 min 46 sec) 
Heartbeat CPU 0 instructions: 400000000 cycles: 226732023 heartbeat IPC: 1.58692 cumulative IPC: 1.49031 (Simulation time: 0 hr 15 min 10 sec) 
Heartbeat CPU 0 instructions: 410000000 cycles: 233025892 heartbeat IPC: 1.58885 cumulative IPC: 1.49472 (Simulation time: 0 hr 15 min 33 sec) 
Heartbeat CPU 0 instructions: 420000000 cycles: 239320136 heartbeat IPC: 1.58875 cumulative IPC: 1.49875 (Simulation time: 0 hr 15 min 57 sec) 
Heartbeat CPU 0 instructions: 430000001 cycles: 245614501 heartbeat IPC: 1.58872 cumulative IPC: 1.50245 (Simulation time: 0 hr 16 min 21 sec) 
Heartbeat CPU 0 instructions: 440000000 cycles: 251908255 heartbeat IPC: 1.58888 cumulative IPC: 1.50587 (Simulation time: 0 hr 16 min 45 sec) 
Heartbeat CPU 0 instructions: 450000002 cycles: 258212444 heartbeat IPC: 1.58625 cumulative IPC: 1.50892 (Simulation time: 0 hr 17 min 8 sec) 
Heartbeat CPU 0 instructions: 460000000 cycles: 267057822 heartbeat IPC: 1.13053 cumulative IPC: 1.48975 (Simulation time: 0 hr 17 min 34 sec) 
Heartbeat CPU 0 instructions: 470000000 cycles: 274724459 heartbeat IPC: 1.30435 cumulative IPC: 1.48195 (Simulation time: 0 hr 17 min 58 sec) 
Heartbeat CPU 0 instructions: 480000000 cycles: 282847148 heartbeat IPC: 1.23112 cumulative IPC: 1.47124 (Simulation time: 0 hr 18 min 23 sec) 
Heartbeat CPU 0 instructions: 490000001 cycles: 290445609 heartbeat IPC: 1.31606 cumulative IPC: 1.46528 (Simulation time: 0 hr 18 min 46 sec) 
Heartbeat CPU 0 instructions: 500000000 cycles: 297051876 heartbeat IPC: 1.51371 cumulative IPC: 1.46685 (Simulation time: 0 hr 19 min 10 sec) 
Heartbeat CPU 0 instructions: 510000000 cycles: 303441213 heartbeat IPC: 1.56511 cumulative IPC: 1.46982 (Simulation time: 0 hr 19 min 34 sec) 
Heartbeat CPU 0 instructions: 520000000 cycles: 309837595 heartbeat IPC: 1.56338 cumulative IPC: 1.47258 (Simulation time: 0 hr 19 min 58 sec) 
Heartbeat CPU 0 instructions: 530000002 cycles: 316226297 heartbeat IPC: 1.56526 cumulative IPC: 1.47522 (Simulation time: 0 hr 20 min 21 sec) 
Heartbeat CPU 0 instructions: 540000000 cycles: 322622223 heartbeat IPC: 1.56349 cumulative IPC: 1.47768 (Simulation time: 0 hr 20 min 45 sec) 
Heartbeat CPU 0 instructions: 550000002 cycles: 329015207 heartbeat IPC: 1.56422 cumulative IPC: 1.48002 (Simulation time: 0 hr 21 min 9 sec) 
Heartbeat CPU 0 instructions: 560000000 cycles: 335424047 heartbeat IPC: 1.56034 cumulative IPC: 1.48214 (Simulation time: 0 hr 21 min 33 sec) 
Heartbeat CPU 0 instructions: 570000000 cycles: 341853531 heartbeat IPC: 1.55533 cumulative IPC: 1.48402 (Simulation time: 0 hr 21 min 57 sec) 
Heartbeat CPU 0 instructions: 580000000 cycles: 348264746 heartbeat IPC: 1.55977 cumulative IPC: 1.48592 (Simulation time: 0 hr 22 min 21 sec) 
Heartbeat CPU 0 instructions: 590000002 cycles: 354598015 heartbeat IPC: 1.57896 cumulative IPC: 1.48817 (Simulation time: 0 hr 22 min 45 sec) 
Heartbeat CPU 0 instructions: 600000000 cycles: 360889924 heartbeat IPC: 1.58934 cumulative IPC: 1.49054 (Simulation time: 0 hr 23 min 9 sec) 
Heartbeat CPU 0 instructions: 610000002 cycles: 367189680 heartbeat IPC: 1.58736 cumulative IPC: 1.49276 (Simulation time: 0 hr 23 min 32 sec) 
Heartbeat CPU 0 instructions: 620000000 cycles: 373482551 heartbeat IPC: 1.5891 cumulative IPC: 1.49492 (Simulation time: 0 hr 23 min 56 sec) 
Heartbeat CPU 0 instructions: 630000000 cycles: 379778460 heartbeat IPC: 1.58833 cumulative IPC: 1.49697 (Simulation time: 0 hr 24 min 20 sec) 
Heartbeat CPU 0 instructions: 640000000 cycles: 386075918 heartbeat IPC: 1.58794 cumulative IPC: 1.49892 (Simulation time: 0 hr 24 min 44 sec) 
Heartbeat CPU 0 instructions: 650000003 cycles: 392377111 heartbeat IPC: 1.587 cumulative IPC: 1.50077 (Simulation time: 0 hr 25 min 7 sec) 
Heartbeat CPU 0 instructions: 660000000 cycles: 401423493 heartbeat IPC: 1.10541 cumulative IPC: 1.48919 (Simulation time: 0 hr 25 min 33 sec) 
Heartbeat CPU 0 instructions: 670000000 cycles: 408955568 heartbeat IPC: 1.32766 cumulative IPC: 1.48535 (Simulation time: 0 hr 25 min 57 sec) 
Heartbeat CPU 0 instructions: 680000000 cycles: 417430554 heartbeat IPC: 1.17994 cumulative IPC: 1.47738 (Simulation time: 0 hr 26 min 23 sec) 
Heartbeat CPU 0 instructions: 690000001 cycles: 424681483 heartbeat IPC: 1.37913 cumulative IPC: 1.47524 (Simulation time: 0 hr 26 min 45 sec) 
Heartbeat CPU 0 instructions: 700000000 cycles: 431230856 heartbeat IPC: 1.52686 cumulative IPC: 1.47624 (Simulation time: 0 hr 27 min 9 sec) 
Heartbeat CPU 0 instructions: 710000002 cycles: 437617792 heartbeat IPC: 1.5657 cumulative IPC: 1.47789 (Simulation time: 0 hr 27 min 33 sec) 
Heartbeat CPU 0 instructions: 720000000 cycles: 444010692 heartbeat IPC: 1.56423 cumulative IPC: 1.47946 (Simulation time: 0 hr 27 min 57 sec) 
Heartbeat CPU 0 instructions: 730000000 cycles: 450399754 heartbeat IPC: 1.56517 cumulative IPC: 1.48099 (Simulation time: 0 hr 28 min 21 sec) 
Heartbeat CPU 0 instructions: 740000000 cycles: 456789321 heartbeat IPC: 1.56505 cumulative IPC: 1.48247 (Simulation time: 0 hr 28 min 45 sec) 
Heartbeat CPU 0 instructions: 750000000 cycles: 463190598 heartbeat IPC: 1.56219 cumulative IPC: 1.48384 (Simulation time: 0 hr 29 min 8 sec) 
Heartbeat CPU 0 instructions: 760000000 cycles: 469605868 heartbeat IPC: 1.55878 cumulative IPC: 1.48512 (Simulation time: 0 hr 29 min 32 sec) 
Heartbeat CPU 0 instructions: 770000001 cycles: 476033800 heartbeat IPC: 1.55571 cumulative IPC: 1.4863 (Simulation time: 0 hr 29 min 56 sec) 
Heartbeat CPU 0 instructions: 780000000 cycles: 482434612 heartbeat IPC: 1.5623 cumulative IPC: 1.48755 (Simulation time: 0 hr 30 min 20 sec) 
Heartbeat CPU 0 instructions: 790000000 cycles: 488754361 heartbeat IPC: 1.58234 cumulative IPC: 1.48906 (Simulation time: 0 hr 30 min 44 sec) 
Heartbeat CPU 0 instructions: 800000000 cycles: 495048765 heartbeat IPC: 1.58871 cumulative IPC: 1.49062 (Simulation time: 0 hr 31 min 8 sec) 
Heartbeat CPU 0 instructions: 810000002 cycles: 501346917 heartbeat IPC: 1.58777 cumulative IPC: 1.49212 (Simulation time: 0 hr 31 min 32 sec) 
Heartbeat CPU 0 instructions: 820000000 cycles: 507644137 heartbeat IPC: 1.588 cumulative IPC: 1.49357 (Simulation time: 0 hr 31 min 55 sec) 
Heartbeat CPU 0 instructions: 830000000 cycles: 513934925 heartbeat IPC: 1.58963 cumulative IPC: 1.495 (Simulation time: 0 hr 32 min 19 sec) 
Heartbeat CPU 0 instructions: 840000000 cycles: 520230993 heartbeat IPC: 1.58829 cumulative IPC: 1.49638 (Simulation time: 0 hr 32 min 43 sec) 
Heartbeat CPU 0 instructions: 850000000 cycles: 526535292 heartbeat IPC: 1.58622 cumulative IPC: 1.49768 (Simulation time: 0 hr 33 min 7 sec) 
Heartbeat CPU 0 instructions: 860000000 cycles: 535778881 heartbeat IPC: 1.08183 cumulative IPC: 1.48901 (Simulation time: 0 hr 33 min 33 sec) 
Heartbeat CPU 0 instructions: 870000000 cycles: 543238341 heartbeat IPC: 1.34058 cumulative IPC: 1.48655 (Simulation time: 0 hr 33 min 57 sec) 
Heartbeat CPU 0 instructions: 880000000 cycles: 552118754 heartbeat IPC: 1.12607 cumulative IPC: 1.47959 (Simulation time: 0 hr 34 min 23 sec) 
Heartbeat CPU 0 instructions: 890000000 cycles: 565226131 heartbeat IPC: 0.762929 cumulative IPC: 1.45972 (Simulation time: 0 hr 34 min 49 sec) 
Heartbeat CPU 0 instructions: 900000000 cycles: 578174627 heartbeat IPC: 0.77229 cumulative IPC: 1.44139 (Simulation time: 0 hr 35 min 14 sec) 
Heartbeat CPU 0 instructions: 910000002 cycles: 592748842 heartbeat IPC: 0.686143 cumulative IPC: 1.41938 (Simulation time: 0 hr 35 min 39 sec) 
Heartbeat CPU 0 instructions: 920000000 cycles: 604371166 heartbeat IPC: 0.860413 cumulative IPC: 1.40669 (Simulation time: 0 hr 36 min 5 sec) 
Heartbeat CPU 0 instructions: 930000003 cycles: 618285496 heartbeat IPC: 0.718684 cumulative IPC: 1.38848 (Simulation time: 0 hr 36 min 30 sec) 
Heartbeat CPU 0 instructions: 940000000 cycles: 630997999 heartbeat IPC: 0.786627 cumulative IPC: 1.37427 (Simulation time: 0 hr 36 min 55 sec) 
Heartbeat CPU 0 instructions: 950000003 cycles: 645334622 heartbeat IPC: 0.697515 cumulative IPC: 1.35672 (Simulation time: 0 hr 37 min 20 sec) 
Heartbeat CPU 0 instructions: 960000000 cycles: 657161785 heartbeat IPC: 0.845511 cumulative IPC: 1.34601 (Simulation time: 0 hr 37 min 45 sec) 
Heartbeat CPU 0 instructions: 970000000 cycles: 670497150 heartbeat IPC: 0.749886 cumulative IPC: 1.33226 (Simulation time: 0 hr 38 min 10 sec) 
Heartbeat CPU 0 instructions: 980000000 cycles: 684518265 heartbeat IPC: 0.71321 cumulative IPC: 1.3176 (Simulation time: 0 hr 38 min 36 sec) 
Heartbeat CPU 0 instructions: 990000000 cycles: 693348656 heartbeat IPC: 1.13245 cumulative IPC: 1.31488 (Simulation time: 0 hr 39 min 0 sec) 
Heartbeat CPU 0 instructions: 1000000000 cycles: 704473067 heartbeat IPC: 0.898924 cumulative IPC: 1.30731 (Simulation time: 0 hr 39 min 24 sec) 
Heartbeat CPU 0 instructions: 1010000003 cycles: 713848095 heartbeat IPC: 1.06666 cumulative IPC: 1.30368 (Simulation time: 0 hr 39 min 48 sec) 
Heartbeat CPU 0 instructions: 1020000000 cycles: 724774064 heartbeat IPC: 0.91525 cumulative IPC: 1.29697 (Simulation time: 0 hr 40 min 12 sec) 
Heartbeat CPU 0 instructions: 1030000003 cycles: 734491494 heartbeat IPC: 1.02908 cumulative IPC: 1.29292 (Simulation time: 0 hr 40 min 36 sec) 
Heartbeat CPU 0 instructions: 1040000000 cycles: 744868816 heartbeat IPC: 0.963639 cumulative IPC: 1.28768 (Simulation time: 0 hr 41 min 0 sec) 
Heartbeat CPU 0 instructions: 1050000002 cycles: 755188272 heartbeat IPC: 0.969044 cumulative IPC: 1.28272 (Simulation time: 0 hr 41 min 24 sec) 
Heartbeat CPU 0 instructions: 1060000000 cycles: 764826032 heartbeat IPC: 1.03759 cumulative IPC: 1.2792 (Simulation time: 0 hr 41 min 48 sec) 
Heartbeat CPU 0 instructions: 1070000001 cycles: 775875243 heartbeat IPC: 0.905042 cumulative IPC: 1.27315 (Simulation time: 0 hr 42 min 12 sec) 
Heartbeat CPU 0 instructions: 1080000000 cycles: 784897297 heartbeat IPC: 1.10839 cumulative IPC: 1.271 (Simulation time: 0 hr 42 min 36 sec) 
Heartbeat CPU 0 instructions: 1090000000 cycles: 796238496 heartbeat IPC: 0.881741 cumulative IPC: 1.26473 (Simulation time: 0 hr 43 min 0 sec) 
Heartbeat CPU 0 instructions: 1100000000 cycles: 805377984 heartbeat IPC: 1.09415 cumulative IPC: 1.26254 (Simulation time: 0 hr 43 min 24 sec) 
Heartbeat CPU 0 instructions: 1110000000 cycles: 816931889 heartbeat IPC: 0.865508 cumulative IPC: 1.25621 (Simulation time: 0 hr 43 min 49 sec) 
Heartbeat CPU 0 instructions: 1120000000 cycles: 825799632 heartbeat IPC: 1.12768 cumulative IPC: 1.25466 (Simulation time: 0 hr 44 min 13 sec) 
Heartbeat CPU 0 instructions: 1130000000 cycles: 837246906 heartbeat IPC: 0.87357 cumulative IPC: 1.2488 (Simulation time: 0 hr 44 min 37 sec) 
Heartbeat CPU 0 instructions: 1140000000 cycles: 846134823 heartbeat IPC: 1.12512 cumulative IPC: 1.24734 (Simulation time: 0 hr 45 min 1 sec) 
Heartbeat CPU 0 instructions: 1150000000 cycles: 857490737 heartbeat IPC: 0.880598 cumulative IPC: 1.2419 (Simulation time: 0 hr 45 min 25 sec) 
Heartbeat CPU 0 instructions: 1160000000 cycles: 866814766 heartbeat IPC: 1.0725 cumulative IPC: 1.23986 (Simulation time: 0 hr 45 min 49 sec) 
Heartbeat CPU 0 instructions: 1170000001 cycles: 877648960 heartbeat IPC: 0.923004 cumulative IPC: 1.23548 (Simulation time: 0 hr 46 min 13 sec) 
Heartbeat CPU 0 instructions: 1180000000 cycles: 887286156 heartbeat IPC: 1.03765 cumulative IPC: 1.23309 (Simulation time: 0 hr 46 min 37 sec) 
Heartbeat CPU 0 instructions: 1190000001 cycles: 898009492 heartbeat IPC: 0.932546 cumulative IPC: 1.22908 (Simulation time: 0 hr 47 min 1 sec) 
Heartbeat CPU 0 instructions: 1200000000 cycles: 907210151 heartbeat IPC: 1.08688 cumulative IPC: 1.22748 (Simulation time: 0 hr 47 min 25 sec) 
Finished CPU 0 instructions: 1000000000 cycles: 814678609 cumulative IPC: 1.22748 (Simulation time: 0 hr 47 min 25 sec) 

CPU 0 Branch Prediction Accuracy: 95.2289% MPKI: 1.65961

ChampSim completed all CPUs

Region of Interest Statistics

CPU 0 cumulative IPC: 1.22748 instructions: 1000000000 cycles: 814678609
L1D TOTAL     ACCESS:  268407620  HIT:  259383169  MISS:    9024451
L1D LOAD      ACCESS:  142147278  HIT:  133490619  MISS:    8656659
L1D RFO       ACCESS:  126260342  HIT:  125892550  MISS:     367792
L1D PREFETCH  ACCESS:          0  HIT:          0  MISS:          0
L1D WRITEBACK ACCESS:          0  HIT:          0  MISS:          0
L1D PREFETCH  REQUESTED:          0  ISSUED:          0  USEFUL:          0  USELESS:          0
L1I TOTAL     ACCESS:  239107818  HIT:  239104249  MISS:       3569
L1I LOAD      ACCESS:  239107818  HIT:  239104249  MISS:       3569
L1I RFO       ACCESS:          0  HIT:          0  MISS:          0
L1I PREFETCH  ACCESS:          0  HIT:          0  MISS:          0
L1I WRITEBACK ACCESS:          0  HIT:          0  MISS:          0
L1I PREFETCH  REQUESTED:          0  ISSUED:          0  USEFUL:          0  USELESS:          0
L2C TOTAL     ACCESS:   18778427  HIT:   16618185  MISS:    2160242
L2C LOAD      ACCESS:    8656585  HIT:    7956029  MISS:     700556
L2C RFO       ACCESS:     367776  HIT:     141087  MISS:     226689
L2C PREFETCH  ACCESS:    7001707  HIT:    5770245  MISS:    1231462
L2C WRITEBACK ACCESS:    2752359  HIT:    2750824  MISS:       1535
L2C PREFETCH  REQUESTED:    8742213  ISSUED:    8741703  USEFUL:    1231132  USELESS:     275523
LLC TOTAL     ACCESS:    3085634  HIT:    2596799  MISS:     488835
LLC LOAD      ACCESS:     691807  HIT:     675927  MISS:      15880
LLC RFO       ACCESS:     226672  HIT:      83391  MISS:     143281
LLC PREFETCH  ACCESS:    1474537  HIT:    1144877  MISS:     329660
LLC WRITEBACK ACCESS:     692618  HIT:     692604  MISS:         14
LLC PREFETCH  REQUESTED:          0  ISSUED:          0  USEFUL:      43819  USELESS:     369626
Major fault: 0 Minor fault: 2295

Avg Lookahead Depth:	1.69183
TOTAL: 8.74221e+06	L2C: 7.71522e+06	LLC: 1.02699e+06	GOOD_L2C: 3.21661e+06
Printing all the perceptron weights to: perc_weights_0.csv

DRAM Statistics
 CHANNEL 0
 RQ ROW_BUFFER_HIT:     412466  ROW_BUFFER_MISS:      76120
 DBUS_CONGESTED:     259630
 WQ ROW_BUFFER_HIT:      95758  ROW_BUFFER_MISS:      73500  FULL:          0

 AVG_CONGESTED_CYCLE: 14
