Initialize SIGNATURE TABLE
ST_SET: 1
ST_WAY: 256
ST_TAG_BIT: 16
ST_TAG_MASK: ffff

Initialize PATTERN TABLE
PT_SET: 512
PT_WAY: 4
SIG_DELTA_BIT: 7
C_SIG_BIT: 4
C_DELTA_BIT: 4

Initialize PREFETCH FILTER
FILTER_SET: 1024

Initialize PERCEPTRON
PERC_ENTRIES: 4096
PERC_FEATURES: 9

*** ChampSim Multicore Out-of-Order Simulator ***

Warmup Instructions: 200000000
Simulation Instructions: 1000000000
Number of CPUs: 1
LLC sets: 2048
LLC ways: 16
Off-chip DRAM Size: 4096 MB Channels: 1 Width: 64-bit Data Rate: 1600 MT/s

CPU 0 runs /scratch/user/djimenez/champsim-traces/speccpu2006/xz/435.gromacs-111B.champsimtrace.xz
Heartbeat CPU 0 instructions: 10000001 cycles: 5263298 heartbeat IPC: 1.89995 cumulative IPC: 1.89995 (Simulation time: 0 hr 0 min 19 sec) 
Heartbeat CPU 0 instructions: 20000000 cycles: 10295365 heartbeat IPC: 1.98725 cumulative IPC: 1.94262 (Simulation time: 0 hr 0 min 40 sec) 
Heartbeat CPU 0 instructions: 30000000 cycles: 15508317 heartbeat IPC: 1.9183 cumulative IPC: 1.93445 (Simulation time: 0 hr 0 min 59 sec) 
Heartbeat CPU 0 instructions: 40000000 cycles: 20560719 heartbeat IPC: 1.97926 cumulative IPC: 1.94546 (Simulation time: 0 hr 1 min 19 sec) 
Heartbeat CPU 0 instructions: 50000002 cycles: 25744763 heartbeat IPC: 1.929 cumulative IPC: 1.94214 (Simulation time: 0 hr 1 min 39 sec) 
Heartbeat CPU 0 instructions: 60000000 cycles: 30863904 heartbeat IPC: 1.95345 cumulative IPC: 1.94402 (Simulation time: 0 hr 1 min 59 sec) 
Heartbeat CPU 0 instructions: 70000001 cycles: 35972590 heartbeat IPC: 1.95745 cumulative IPC: 1.94593 (Simulation time: 0 hr 2 min 19 sec) 
Heartbeat CPU 0 instructions: 80000000 cycles: 41165764 heartbeat IPC: 1.9256 cumulative IPC: 1.94336 (Simulation time: 0 hr 2 min 38 sec) 
Heartbeat CPU 0 instructions: 90000001 cycles: 46192389 heartbeat IPC: 1.98941 cumulative IPC: 1.94837 (Simulation time: 0 hr 2 min 58 sec) 
Heartbeat CPU 0 instructions: 100000000 cycles: 51404763 heartbeat IPC: 1.91851 cumulative IPC: 1.94535 (Simulation time: 0 hr 3 min 18 sec) 
Heartbeat CPU 0 instructions: 110000002 cycles: 56410697 heartbeat IPC: 1.99763 cumulative IPC: 1.94998 (Simulation time: 0 hr 3 min 38 sec) 
Heartbeat CPU 0 instructions: 120000000 cycles: 61604189 heartbeat IPC: 1.92549 cumulative IPC: 1.94792 (Simulation time: 0 hr 3 min 58 sec) 
Heartbeat CPU 0 instructions: 130000002 cycles: 66683926 heartbeat IPC: 1.96861 cumulative IPC: 1.9495 (Simulation time: 0 hr 4 min 18 sec) 
Heartbeat CPU 0 instructions: 140000000 cycles: 71804047 heartbeat IPC: 1.95308 cumulative IPC: 1.94975 (Simulation time: 0 hr 4 min 37 sec) 
Heartbeat CPU 0 instructions: 150000000 cycles: 76945798 heartbeat IPC: 1.94486 cumulative IPC: 1.94942 (Simulation time: 0 hr 4 min 57 sec) 
Heartbeat CPU 0 instructions: 160000000 cycles: 82029600 heartbeat IPC: 1.96703 cumulative IPC: 1.95052 (Simulation time: 0 hr 5 min 17 sec) 
Heartbeat CPU 0 instructions: 170000001 cycles: 87236833 heartbeat IPC: 1.92041 cumulative IPC: 1.94872 (Simulation time: 0 hr 5 min 36 sec) 
Heartbeat CPU 0 instructions: 180000000 cycles: 92325424 heartbeat IPC: 1.96518 cumulative IPC: 1.94963 (Simulation time: 0 hr 5 min 56 sec) 
Heartbeat CPU 0 instructions: 190000000 cycles: 97435179 heartbeat IPC: 1.95704 cumulative IPC: 1.95001 (Simulation time: 0 hr 6 min 16 sec) 
Heartbeat CPU 0 instructions: 200000000 cycles: 102616825 heartbeat IPC: 1.92989 cumulative IPC: 1.949 (Simulation time: 0 hr 6 min 35 sec) 

Warmup complete CPU 0 instructions: 200000001 cycles: 102616828 (Simulation time: 0 hr 6 min 35 sec) 

Heartbeat CPU 0 instructions: 210000003 cycles: 111816621 heartbeat IPC: 1.08698 cumulative IPC: 1.08698 (Simulation time: 0 hr 6 min 59 sec) 
Heartbeat CPU 0 instructions: 220000000 cycles: 123226132 heartbeat IPC: 0.876462 cumulative IPC: 0.970435 (Simulation time: 0 hr 7 min 22 sec) 
Heartbeat CPU 0 instructions: 230000000 cycles: 133380676 heartbeat IPC: 0.984781 cumulative IPC: 0.975171 (Simulation time: 0 hr 7 min 46 sec) 
Heartbeat CPU 0 instructions: 240000000 cycles: 143408384 heartbeat IPC: 0.997237 cumulative IPC: 0.980595 (Simulation time: 0 hr 8 min 10 sec) 
Heartbeat CPU 0 instructions: 250000000 cycles: 154589285 heartbeat IPC: 0.894382 cumulative IPC: 0.962048 (Simulation time: 0 hr 8 min 33 sec) 
Heartbeat CPU 0 instructions: 260000000 cycles: 164728603 heartbeat IPC: 0.98626 cumulative IPC: 0.966 (Simulation time: 0 hr 8 min 57 sec) 
Heartbeat CPU 0 instructions: 270000000 cycles: 174890394 heartbeat IPC: 0.984078 cumulative IPC: 0.968542 (Simulation time: 0 hr 9 min 20 sec) 
Heartbeat CPU 0 instructions: 280000000 cycles: 186577089 heartbeat IPC: 0.855674 cumulative IPC: 0.952832 (Simulation time: 0 hr 9 min 44 sec) 
Heartbeat CPU 0 instructions: 290000000 cycles: 197033042 heartbeat IPC: 0.956393 cumulative IPC: 0.953226 (Simulation time: 0 hr 10 min 8 sec) 
Heartbeat CPU 0 instructions: 300000000 cycles: 207324836 heartbeat IPC: 0.971648 cumulative IPC: 0.955037 (Simulation time: 0 hr 10 min 31 sec) 
Heartbeat CPU 0 instructions: 310000003 cycles: 219165822 heartbeat IPC: 0.844525 cumulative IPC: 0.943809 (Simulation time: 0 hr 10 min 55 sec) 
Heartbeat CPU 0 instructions: 320000000 cycles: 229330813 heartbeat IPC: 0.983768 cumulative IPC: 0.947015 (Simulation time: 0 hr 11 min 18 sec) 
Heartbeat CPU 0 instructions: 330000001 cycles: 240049072 heartbeat IPC: 0.932987 cumulative IPC: 0.945921 (Simulation time: 0 hr 11 min 42 sec) 
Heartbeat CPU 0 instructions: 340000000 cycles: 251573782 heartbeat IPC: 0.867701 cumulative IPC: 0.939869 (Simulation time: 0 hr 12 min 5 sec) 
Heartbeat CPU 0 instructions: 350000000 cycles: 262045981 heartbeat IPC: 0.954909 cumulative IPC: 0.940857 (Simulation time: 0 hr 12 min 29 sec) 
Heartbeat CPU 0 instructions: 360000000 cycles: 272357922 heartbeat IPC: 0.96975 cumulative IPC: 0.942612 (Simulation time: 0 hr 12 min 52 sec) 
Heartbeat CPU 0 instructions: 370000001 cycles: 284058259 heartbeat IPC: 0.854676 cumulative IPC: 0.936941 (Simulation time: 0 hr 13 min 16 sec) 
Heartbeat CPU 0 instructions: 380000000 cycles: 293482319 heartbeat IPC: 1.06111 cumulative IPC: 0.943072 (Simulation time: 0 hr 13 min 39 sec) 
Heartbeat CPU 0 instructions: 390000003 cycles: 305120190 heartbeat IPC: 0.859264 cumulative IPC: 0.938256 (Simulation time: 0 hr 14 min 3 sec) 
Heartbeat CPU 0 instructions: 400000000 cycles: 316166501 heartbeat IPC: 0.905279 cumulative IPC: 0.93655 (Simulation time: 0 hr 14 min 27 sec) 
Heartbeat CPU 0 instructions: 410000000 cycles: 326233709 heartbeat IPC: 0.993324 cumulative IPC: 0.939106 (Simulation time: 0 hr 14 min 50 sec) 
Heartbeat CPU 0 instructions: 420000000 cycles: 337474567 heartbeat IPC: 0.889612 cumulative IPC: 0.936737 (Simulation time: 0 hr 15 min 14 sec) 
Heartbeat CPU 0 instructions: 430000002 cycles: 348492825 heartbeat IPC: 0.907585 cumulative IPC: 0.935431 (Simulation time: 0 hr 15 min 37 sec) 
Heartbeat CPU 0 instructions: 440000000 cycles: 358244018 heartbeat IPC: 1.02552 cumulative IPC: 0.938867 (Simulation time: 0 hr 16 min 1 sec) 
Heartbeat CPU 0 instructions: 450000001 cycles: 370111893 heartbeat IPC: 0.842611 cumulative IPC: 0.934597 (Simulation time: 0 hr 16 min 25 sec) 
Heartbeat CPU 0 instructions: 460000000 cycles: 380029496 heartbeat IPC: 1.00831 cumulative IPC: 0.937232 (Simulation time: 0 hr 16 min 48 sec) 
Heartbeat CPU 0 instructions: 470000001 cycles: 390439648 heartbeat IPC: 0.960601 cumulative IPC: 0.938077 (Simulation time: 0 hr 17 min 12 sec) 
Heartbeat CPU 0 instructions: 480000000 cycles: 402052046 heartbeat IPC: 0.861148 cumulative IPC: 0.935094 (Simulation time: 0 hr 17 min 36 sec) 
Heartbeat CPU 0 instructions: 490000000 cycles: 412040337 heartbeat IPC: 1.00117 cumulative IPC: 0.937227 (Simulation time: 0 hr 18 min 0 sec) 
Heartbeat CPU 0 instructions: 500000000 cycles: 422050841 heartbeat IPC: 0.998951 cumulative IPC: 0.939161 (Simulation time: 0 hr 18 min 24 sec) 
Heartbeat CPU 0 instructions: 510000002 cycles: 433354837 heartbeat IPC: 0.884643 cumulative IPC: 0.937298 (Simulation time: 0 hr 18 min 47 sec) 
Heartbeat CPU 0 instructions: 520000000 cycles: 442589806 heartbeat IPC: 1.08284 cumulative IPC: 0.941251 (Simulation time: 0 hr 19 min 11 sec) 
Heartbeat CPU 0 instructions: 530000003 cycles: 453009611 heartbeat IPC: 0.959711 cumulative IPC: 0.9418 (Simulation time: 0 hr 19 min 35 sec) 
Heartbeat CPU 0 instructions: 540000000 cycles: 462505131 heartbeat IPC: 1.05313 cumulative IPC: 0.944738 (Simulation time: 0 hr 20 min 0 sec) 
Heartbeat CPU 0 instructions: 550000002 cycles: 469761632 heartbeat IPC: 1.37807 cumulative IPC: 0.953302 (Simulation time: 0 hr 20 min 23 sec) 
Heartbeat CPU 0 instructions: 560000000 cycles: 476289882 heartbeat IPC: 1.5318 cumulative IPC: 0.963409 (Simulation time: 0 hr 20 min 46 sec) 
Heartbeat CPU 0 instructions: 570000001 cycles: 482693490 heartbeat IPC: 1.56162 cumulative IPC: 0.973488 (Simulation time: 0 hr 21 min 10 sec) 
Heartbeat CPU 0 instructions: 580000000 cycles: 489087046 heartbeat IPC: 1.56407 cumulative IPC: 0.983258 (Simulation time: 0 hr 21 min 34 sec) 
Heartbeat CPU 0 instructions: 590000003 cycles: 495480621 heartbeat IPC: 1.56407 cumulative IPC: 0.99271 (Simulation time: 0 hr 21 min 58 sec) 
Heartbeat CPU 0 instructions: 600000000 cycles: 501865439 heartbeat IPC: 1.56621 cumulative IPC: 1.00188 (Simulation time: 0 hr 22 min 22 sec) 
Heartbeat CPU 0 instructions: 610000003 cycles: 508260778 heartbeat IPC: 1.56364 cumulative IPC: 1.01074 (Simulation time: 0 hr 22 min 46 sec) 
Heartbeat CPU 0 instructions: 620000000 cycles: 514662098 heartbeat IPC: 1.56218 cumulative IPC: 1.01931 (Simulation time: 0 hr 23 min 10 sec) 
Heartbeat CPU 0 instructions: 630000002 cycles: 521057737 heartbeat IPC: 1.56357 cumulative IPC: 1.02762 (Simulation time: 0 hr 23 min 34 sec) 
Heartbeat CPU 0 instructions: 640000000 cycles: 527428075 heartbeat IPC: 1.56978 cumulative IPC: 1.03575 (Simulation time: 0 hr 23 min 58 sec) 
Heartbeat CPU 0 instructions: 650000002 cycles: 533750379 heartbeat IPC: 1.5817 cumulative IPC: 1.04376 (Simulation time: 0 hr 24 min 21 sec) 
Heartbeat CPU 0 instructions: 660000000 cycles: 540086277 heartbeat IPC: 1.57831 cumulative IPC: 1.0515 (Simulation time: 0 hr 24 min 45 sec) 
Heartbeat CPU 0 instructions: 670000001 cycles: 546430646 heartbeat IPC: 1.5762 cumulative IPC: 1.059 (Simulation time: 0 hr 25 min 9 sec) 
Heartbeat CPU 0 instructions: 680000000 cycles: 552788088 heartbeat IPC: 1.57296 cumulative IPC: 1.06626 (Simulation time: 0 hr 25 min 33 sec) 
Heartbeat CPU 0 instructions: 690000003 cycles: 559139586 heartbeat IPC: 1.57443 cumulative IPC: 1.07333 (Simulation time: 0 hr 25 min 57 sec) 
Heartbeat CPU 0 instructions: 700000000 cycles: 565490937 heartbeat IPC: 1.57447 cumulative IPC: 1.08021 (Simulation time: 0 hr 26 min 21 sec) 
Heartbeat CPU 0 instructions: 710000003 cycles: 571835318 heartbeat IPC: 1.5762 cumulative IPC: 1.08691 (Simulation time: 0 hr 26 min 44 sec) 
Heartbeat CPU 0 instructions: 720000000 cycles: 581157403 heartbeat IPC: 1.07272 cumulative IPC: 1.08664 (Simulation time: 0 hr 27 min 10 sec) 
Heartbeat CPU 0 instructions: 730000002 cycles: 588583654 heartbeat IPC: 1.34657 cumulative IPC: 1.09061 (Simulation time: 0 hr 27 min 34 sec) 
Heartbeat CPU 0 instructions: 740000000 cycles: 597305176 heartbeat IPC: 1.14659 cumulative IPC: 1.0916 (Simulation time: 0 hr 28 min 0 sec) 
Heartbeat CPU 0 instructions: 750000002 cycles: 604383627 heartbeat IPC: 1.41274 cumulative IPC: 1.09613 (Simulation time: 0 hr 28 min 22 sec) 
Heartbeat CPU 0 instructions: 760000000 cycles: 610757690 heartbeat IPC: 1.56886 cumulative IPC: 1.10206 (Simulation time: 0 hr 28 min 46 sec) 
Heartbeat CPU 0 instructions: 770000002 cycles: 617149475 heartbeat IPC: 1.56451 cumulative IPC: 1.1078 (Simulation time: 0 hr 29 min 10 sec) 
Heartbeat CPU 0 instructions: 780000000 cycles: 623533221 heartbeat IPC: 1.56648 cumulative IPC: 1.11342 (Simulation time: 0 hr 29 min 34 sec) 
Heartbeat CPU 0 instructions: 790000000 cycles: 629917360 heartbeat IPC: 1.56638 cumulative IPC: 1.11891 (Simulation time: 0 hr 29 min 58 sec) 
Heartbeat CPU 0 instructions: 800000000 cycles: 636293650 heartbeat IPC: 1.56831 cumulative IPC: 1.12428 (Simulation time: 0 hr 30 min 22 sec) 
Heartbeat CPU 0 instructions: 810000000 cycles: 642673630 heartbeat IPC: 1.5674 cumulative IPC: 1.12951 (Simulation time: 0 hr 30 min 46 sec) 
Heartbeat CPU 0 instructions: 820000000 cycles: 649070477 heartbeat IPC: 1.56327 cumulative IPC: 1.13459 (Simulation time: 0 hr 31 min 10 sec) 
Heartbeat CPU 0 instructions: 830000001 cycles: 655455213 heartbeat IPC: 1.56624 cumulative IPC: 1.13957 (Simulation time: 0 hr 31 min 33 sec) 
Heartbeat CPU 0 instructions: 840000000 cycles: 661815683 heartbeat IPC: 1.57221 cumulative IPC: 1.14449 (Simulation time: 0 hr 31 min 57 sec) 
Heartbeat CPU 0 instructions: 850000003 cycles: 668128665 heartbeat IPC: 1.58404 cumulative IPC: 1.1494 (Simulation time: 0 hr 32 min 21 sec) 
Heartbeat CPU 0 instructions: 860000000 cycles: 674460202 heartbeat IPC: 1.57939 cumulative IPC: 1.15416 (Simulation time: 0 hr 32 min 45 sec) 
Heartbeat CPU 0 instructions: 870000003 cycles: 680799844 heartbeat IPC: 1.57738 cumulative IPC: 1.1588 (Simulation time: 0 hr 33 min 9 sec) 
Heartbeat CPU 0 instructions: 880000000 cycles: 687143874 heartbeat IPC: 1.57628 cumulative IPC: 1.16333 (Simulation time: 0 hr 33 min 33 sec) 
Heartbeat CPU 0 instructions: 890000002 cycles: 693494927 heartbeat IPC: 1.57454 cumulative IPC: 1.16775 (Simulation time: 0 hr 33 min 57 sec) 
Heartbeat CPU 0 instructions: 900000000 cycles: 699834365 heartbeat IPC: 1.57743 cumulative IPC: 1.1721 (Simulation time: 0 hr 34 min 20 sec) 
Heartbeat CPU 0 instructions: 910000000 cycles: 706425103 heartbeat IPC: 1.51728 cumulative IPC: 1.17587 (Simulation time: 0 hr 34 min 45 sec) 
Heartbeat CPU 0 instructions: 920000000 cycles: 715741787 heartbeat IPC: 1.07334 cumulative IPC: 1.17431 (Simulation time: 0 hr 35 min 10 sec) 
Heartbeat CPU 0 instructions: 930000001 cycles: 723140171 heartbeat IPC: 1.35165 cumulative IPC: 1.17643 (Simulation time: 0 hr 35 min 35 sec) 
Heartbeat CPU 0 instructions: 940000000 cycles: 731797882 heartbeat IPC: 1.15504 cumulative IPC: 1.17613 (Simulation time: 0 hr 35 min 59 sec) 
Heartbeat CPU 0 instructions: 950000002 cycles: 738649510 heartbeat IPC: 1.45951 cumulative IPC: 1.17918 (Simulation time: 0 hr 36 min 22 sec) 
Heartbeat CPU 0 instructions: 960000000 cycles: 745049621 heartbeat IPC: 1.56247 cumulative IPC: 1.183 (Simulation time: 0 hr 36 min 46 sec) 
Heartbeat CPU 0 instructions: 970000000 cycles: 751444338 heartbeat IPC: 1.56379 cumulative IPC: 1.18676 (Simulation time: 0 hr 37 min 9 sec) 
Heartbeat CPU 0 instructions: 980000000 cycles: 757827011 heartbeat IPC: 1.56674 cumulative IPC: 1.19046 (Simulation time: 0 hr 37 min 33 sec) 
Heartbeat CPU 0 instructions: 990000001 cycles: 764208873 heartbeat IPC: 1.56694 cumulative IPC: 1.19409 (Simulation time: 0 hr 37 min 57 sec) 
Heartbeat CPU 0 instructions: 1000000000 cycles: 770587920 heartbeat IPC: 1.56763 cumulative IPC: 1.19766 (Simulation time: 0 hr 38 min 21 sec) 
Heartbeat CPU 0 instructions: 1010000002 cycles: 776968636 heartbeat IPC: 1.56722 cumulative IPC: 1.20115 (Simulation time: 0 hr 38 min 45 sec) 
Heartbeat CPU 0 instructions: 1020000000 cycles: 783361509 heartbeat IPC: 1.56424 cumulative IPC: 1.20456 (Simulation time: 0 hr 39 min 9 sec) 
Heartbeat CPU 0 instructions: 1030000000 cycles: 789748329 heartbeat IPC: 1.56572 cumulative IPC: 1.20792 (Simulation time: 0 hr 39 min 33 sec) 
Heartbeat CPU 0 instructions: 1040000000 cycles: 796101763 heartbeat IPC: 1.57395 cumulative IPC: 1.21127 (Simulation time: 0 hr 39 min 57 sec) 
Heartbeat CPU 0 instructions: 1050000003 cycles: 802415129 heartbeat IPC: 1.58394 cumulative IPC: 1.21464 (Simulation time: 0 hr 40 min 21 sec) 
Heartbeat CPU 0 instructions: 1060000000 cycles: 808747017 heartbeat IPC: 1.57931 cumulative IPC: 1.21791 (Simulation time: 0 hr 40 min 44 sec) 
Heartbeat CPU 0 instructions: 1070000000 cycles: 815089455 heartbeat IPC: 1.57668 cumulative IPC: 1.2211 (Simulation time: 0 hr 41 min 8 sec) 
Heartbeat CPU 0 instructions: 1080000000 cycles: 821431207 heartbeat IPC: 1.57685 cumulative IPC: 1.22424 (Simulation time: 0 hr 41 min 32 sec) 
Heartbeat CPU 0 instructions: 1090000000 cycles: 827781709 heartbeat IPC: 1.57468 cumulative IPC: 1.22731 (Simulation time: 0 hr 41 min 56 sec) 
Heartbeat CPU 0 instructions: 1100000000 cycles: 834120167 heartbeat IPC: 1.57767 cumulative IPC: 1.23034 (Simulation time: 0 hr 42 min 20 sec) 
Heartbeat CPU 0 instructions: 1110000000 cycles: 841767326 heartbeat IPC: 1.30768 cumulative IPC: 1.23114 (Simulation time: 0 hr 42 min 44 sec) 
Heartbeat CPU 0 instructions: 1120000000 cycles: 850238902 heartbeat IPC: 1.18042 cumulative IPC: 1.23057 (Simulation time: 0 hr 43 min 9 sec) 
Heartbeat CPU 0 instructions: 1130000000 cycles: 857641971 heartbeat IPC: 1.35079 cumulative IPC: 1.23175 (Simulation time: 0 hr 43 min 34 sec) 
Heartbeat CPU 0 instructions: 1140000000 cycles: 866313055 heartbeat IPC: 1.15326 cumulative IPC: 1.23086 (Simulation time: 0 hr 43 min 58 sec) 
Heartbeat CPU 0 instructions: 1150000000 cycles: 872968705 heartbeat IPC: 1.50248 cumulative IPC: 1.2332 (Simulation time: 0 hr 44 min 21 sec) 
Heartbeat CPU 0 instructions: 1160000000 cycles: 879372890 heartbeat IPC: 1.56148 cumulative IPC: 1.23591 (Simulation time: 0 hr 44 min 45 sec) 
Heartbeat CPU 0 instructions: 1170000002 cycles: 885765078 heartbeat IPC: 1.56441 cumulative IPC: 1.23859 (Simulation time: 0 hr 45 min 9 sec) 
Heartbeat CPU 0 instructions: 1180000000 cycles: 892147647 heartbeat IPC: 1.56677 cumulative IPC: 1.24124 (Simulation time: 0 hr 45 min 33 sec) 
Heartbeat CPU 0 instructions: 1190000002 cycles: 898527778 heartbeat IPC: 1.56737 cumulative IPC: 1.24386 (Simulation time: 0 hr 45 min 56 sec) 
Heartbeat CPU 0 instructions: 1200000000 cycles: 904909613 heartbeat IPC: 1.56695 cumulative IPC: 1.24643 (Simulation time: 0 hr 46 min 20 sec) 
Finished CPU 0 instructions: 1000000003 cycles: 802292809 cumulative IPC: 1.24643 (Simulation time: 0 hr 46 min 20 sec) 

CPU 0 Branch Prediction Accuracy: 93.2455% MPKI: 1.92741

ChampSim completed all CPUs

Region of Interest Statistics

CPU 0 cumulative IPC: 1.24643 instructions: 1000000003 cycles: 802292809
L1D TOTAL     ACCESS:  276018783  HIT:  267264858  MISS:    8753925
L1D LOAD      ACCESS:  144021136  HIT:  135568728  MISS:    8452408
L1D RFO       ACCESS:  131997647  HIT:  131696130  MISS:     301517
L1D PREFETCH  ACCESS:          0  HIT:          0  MISS:          0
L1D WRITEBACK ACCESS:          0  HIT:          0  MISS:          0
L1D PREFETCH  REQUESTED:          0  ISSUED:          0  USEFUL:          0  USELESS:          0
L1I TOTAL     ACCESS:  234705365  HIT:  234702657  MISS:       2708
L1I LOAD      ACCESS:  234705365  HIT:  234702657  MISS:       2708
L1I RFO       ACCESS:          0  HIT:          0  MISS:          0
L1I PREFETCH  ACCESS:          0  HIT:          0  MISS:          0
L1I WRITEBACK ACCESS:          0  HIT:          0  MISS:          0
L1I PREFETCH  REQUESTED:          0  ISSUED:          0  USEFUL:          0  USELESS:          0
L2C TOTAL     ACCESS:   18763252  HIT:   16730123  MISS:    2033129
L2C LOAD      ACCESS:    8453684  HIT:    7718183  MISS:     735501
L2C RFO       ACCESS:     301495  HIT:     141948  MISS:     159547
L2C PREFETCH  ACCESS:    7276774  HIT:    6140889  MISS:    1135885
L2C WRITEBACK ACCESS:    2731299  HIT:    2729103  MISS:       2196
L2C PREFETCH  REQUESTED:    9473827  ISSUED:    9473556  USEFUL:    1082947  USELESS:     228153
LLC TOTAL     ACCESS:    2895285  HIT:    2489852  MISS:     405433
LLC LOAD      ACCESS:     725733  HIT:     710623  MISS:      15110
LLC RFO       ACCESS:     159511  HIT:      58389  MISS:     101122
LLC PREFETCH  ACCESS:    1334870  HIT:    1045689  MISS:     289181
LLC WRITEBACK ACCESS:     675171  HIT:     675151  MISS:         20
LLC PREFETCH  REQUESTED:          0  ISSUED:          0  USEFUL:      29898  USELESS:     247403
Major fault: 0 Minor fault: 1952

Avg Lookahead Depth:	1.34291
TOTAL: 9.47383e+06	L2C: 8.48638e+06	LLC: 987446	GOOD_L2C: 3.52947e+06
Printing all the perceptron weights to: perc_weights_0.csv

DRAM Statistics
 CHANNEL 0
 RQ ROW_BUFFER_HIT:     336490  ROW_BUFFER_MISS:      68690
 DBUS_CONGESTED:     212906
 WQ ROW_BUFFER_HIT:      78081  ROW_BUFFER_MISS:      62303  FULL:          0

 AVG_CONGESTED_CYCLE: 14
