Initialize SIGNATURE TABLE
ST_SET: 1
ST_WAY: 256
ST_TAG_BIT: 16
ST_TAG_MASK: ffff

Initialize PATTERN TABLE
PT_SET: 512
PT_WAY: 4
SIG_DELTA_BIT: 7
C_SIG_BIT: 4
C_DELTA_BIT: 4

Initialize PREFETCH FILTER
FILTER_SET: 1024

Initialize PERCEPTRON
PERC_ENTRIES: 4096
PERC_FEATURES: 9

*** ChampSim Multicore Out-of-Order Simulator ***

Warmup Instructions: 200000000
Simulation Instructions: 1000000000
Number of CPUs: 1
LLC sets: 2048
LLC ways: 16
Off-chip DRAM Size: 4096 MB Channels: 1 Width: 64-bit Data Rate: 1600 MT/s

CPU 0 runs /scratch/user/djimenez/champsim-traces/speccpu2006/xz/445.gobmk-36B.champsimtrace.xz
Heartbeat CPU 0 instructions: 10000000 cycles: 6462932 heartbeat IPC: 1.54729 cumulative IPC: 1.54729 (Simulation time: 0 hr 0 min 14 sec) 
Heartbeat CPU 0 instructions: 20000000 cycles: 12886925 heartbeat IPC: 1.55666 cumulative IPC: 1.55196 (Simulation time: 0 hr 0 min 27 sec) 
Heartbeat CPU 0 instructions: 30000001 cycles: 19334135 heartbeat IPC: 1.55106 cumulative IPC: 1.55166 (Simulation time: 0 hr 0 min 41 sec) 
Heartbeat CPU 0 instructions: 40000000 cycles: 25826141 heartbeat IPC: 1.54036 cumulative IPC: 1.54882 (Simulation time: 0 hr 0 min 54 sec) 
Heartbeat CPU 0 instructions: 50000001 cycles: 32300907 heartbeat IPC: 1.54446 cumulative IPC: 1.54794 (Simulation time: 0 hr 1 min 8 sec) 
Heartbeat CPU 0 instructions: 60000000 cycles: 38887374 heartbeat IPC: 1.51826 cumulative IPC: 1.54292 (Simulation time: 0 hr 1 min 22 sec) 
Heartbeat CPU 0 instructions: 70000001 cycles: 45478803 heartbeat IPC: 1.51712 cumulative IPC: 1.53918 (Simulation time: 0 hr 1 min 35 sec) 
Heartbeat CPU 0 instructions: 80000000 cycles: 51965543 heartbeat IPC: 1.54161 cumulative IPC: 1.53948 (Simulation time: 0 hr 1 min 49 sec) 
Heartbeat CPU 0 instructions: 90000002 cycles: 58540573 heartbeat IPC: 1.52091 cumulative IPC: 1.5374 (Simulation time: 0 hr 2 min 2 sec) 
Heartbeat CPU 0 instructions: 100000000 cycles: 65102310 heartbeat IPC: 1.52399 cumulative IPC: 1.53604 (Simulation time: 0 hr 2 min 16 sec) 
Heartbeat CPU 0 instructions: 110000002 cycles: 71605744 heartbeat IPC: 1.53765 cumulative IPC: 1.53619 (Simulation time: 0 hr 2 min 30 sec) 
Heartbeat CPU 0 instructions: 120000000 cycles: 78133245 heartbeat IPC: 1.53198 cumulative IPC: 1.53584 (Simulation time: 0 hr 2 min 43 sec) 
Heartbeat CPU 0 instructions: 130000000 cycles: 84699629 heartbeat IPC: 1.52291 cumulative IPC: 1.53484 (Simulation time: 0 hr 2 min 57 sec) 
Heartbeat CPU 0 instructions: 140000000 cycles: 91229613 heartbeat IPC: 1.5314 cumulative IPC: 1.53459 (Simulation time: 0 hr 3 min 11 sec) 
Heartbeat CPU 0 instructions: 150000000 cycles: 97528018 heartbeat IPC: 1.5877 cumulative IPC: 1.53802 (Simulation time: 0 hr 3 min 24 sec) 
Heartbeat CPU 0 instructions: 160000000 cycles: 103905741 heartbeat IPC: 1.56796 cumulative IPC: 1.53986 (Simulation time: 0 hr 3 min 37 sec) 
Heartbeat CPU 0 instructions: 170000001 cycles: 110511189 heartbeat IPC: 1.5139 cumulative IPC: 1.53831 (Simulation time: 0 hr 3 min 50 sec) 
Heartbeat CPU 0 instructions: 180000000 cycles: 116888277 heartbeat IPC: 1.56811 cumulative IPC: 1.53993 (Simulation time: 0 hr 4 min 4 sec) 
Heartbeat CPU 0 instructions: 190000000 cycles: 123483939 heartbeat IPC: 1.51615 cumulative IPC: 1.53866 (Simulation time: 0 hr 4 min 17 sec) 
Heartbeat CPU 0 instructions: 200000000 cycles: 129879983 heartbeat IPC: 1.56347 cumulative IPC: 1.53988 (Simulation time: 0 hr 4 min 30 sec) 

Warmup complete CPU 0 instructions: 200000003 cycles: 129879986 (Simulation time: 0 hr 4 min 30 sec) 

Heartbeat CPU 0 instructions: 210000000 cycles: 151990131 heartbeat IPC: 0.452281 cumulative IPC: 0.452281 (Simulation time: 0 hr 4 min 54 sec) 
Heartbeat CPU 0 instructions: 220000000 cycles: 174308600 heartbeat IPC: 0.448059 cumulative IPC: 0.45016 (Simulation time: 0 hr 5 min 17 sec) 
Heartbeat CPU 0 instructions: 230000000 cycles: 196168968 heartbeat IPC: 0.457449 cumulative IPC: 0.452564 (Simulation time: 0 hr 5 min 40 sec) 
Heartbeat CPU 0 instructions: 240000000 cycles: 218544434 heartbeat IPC: 0.446918 cumulative IPC: 0.451139 (Simulation time: 0 hr 6 min 4 sec) 
Heartbeat CPU 0 instructions: 250000000 cycles: 240983365 heartbeat IPC: 0.445654 cumulative IPC: 0.450031 (Simulation time: 0 hr 6 min 28 sec) 
Heartbeat CPU 0 instructions: 260000000 cycles: 262404516 heartbeat IPC: 0.466828 cumulative IPC: 0.452746 (Simulation time: 0 hr 6 min 51 sec) 
Heartbeat CPU 0 instructions: 270000000 cycles: 285279441 heartbeat IPC: 0.43716 cumulative IPC: 0.450452 (Simulation time: 0 hr 7 min 14 sec) 
Heartbeat CPU 0 instructions: 280000000 cycles: 307025095 heartbeat IPC: 0.459862 cumulative IPC: 0.451607 (Simulation time: 0 hr 7 min 37 sec) 
Heartbeat CPU 0 instructions: 290000000 cycles: 329847636 heartbeat IPC: 0.438163 cumulative IPC: 0.450073 (Simulation time: 0 hr 8 min 1 sec) 
Heartbeat CPU 0 instructions: 300000000 cycles: 351493601 heartbeat IPC: 0.46198 cumulative IPC: 0.451236 (Simulation time: 0 hr 8 min 24 sec) 
Heartbeat CPU 0 instructions: 310000000 cycles: 374114140 heartbeat IPC: 0.442076 cumulative IPC: 0.450387 (Simulation time: 0 hr 8 min 48 sec) 
Heartbeat CPU 0 instructions: 320000000 cycles: 396871736 heartbeat IPC: 0.439414 cumulative IPC: 0.449452 (Simulation time: 0 hr 9 min 12 sec) 
Heartbeat CPU 0 instructions: 330000001 cycles: 418359909 heartbeat IPC: 0.465372 cumulative IPC: 0.450638 (Simulation time: 0 hr 9 min 35 sec) 
Heartbeat CPU 0 instructions: 340000000 cycles: 441077188 heartbeat IPC: 0.440194 cumulative IPC: 0.449876 (Simulation time: 0 hr 9 min 59 sec) 
Heartbeat CPU 0 instructions: 350000001 cycles: 462687218 heartbeat IPC: 0.462748 cumulative IPC: 0.450711 (Simulation time: 0 hr 10 min 22 sec) 
Heartbeat CPU 0 instructions: 360000000 cycles: 485343331 heartbeat IPC: 0.441382 cumulative IPC: 0.450117 (Simulation time: 0 hr 10 min 46 sec) 
Heartbeat CPU 0 instructions: 370000000 cycles: 506908283 heartbeat IPC: 0.463715 cumulative IPC: 0.450895 (Simulation time: 0 hr 11 min 9 sec) 
Heartbeat CPU 0 instructions: 380000000 cycles: 529557694 heartbeat IPC: 0.441513 cumulative IPC: 0.450363 (Simulation time: 0 hr 11 min 32 sec) 
Heartbeat CPU 0 instructions: 390000000 cycles: 551066488 heartbeat IPC: 0.464926 cumulative IPC: 0.451107 (Simulation time: 0 hr 11 min 55 sec) 
Heartbeat CPU 0 instructions: 400000000 cycles: 573826506 heartbeat IPC: 0.439367 cumulative IPC: 0.450505 (Simulation time: 0 hr 12 min 19 sec) 
Heartbeat CPU 0 instructions: 410000001 cycles: 595401161 heartbeat IPC: 0.463507 cumulative IPC: 0.451107 (Simulation time: 0 hr 12 min 42 sec) 
Heartbeat CPU 0 instructions: 420000000 cycles: 618137342 heartbeat IPC: 0.439828 cumulative IPC: 0.450582 (Simulation time: 0 hr 13 min 6 sec) 
Heartbeat CPU 0 instructions: 430000001 cycles: 639765552 heartbeat IPC: 0.462359 cumulative IPC: 0.451082 (Simulation time: 0 hr 13 min 29 sec) 
Heartbeat CPU 0 instructions: 440000000 cycles: 662551805 heartbeat IPC: 0.438861 cumulative IPC: 0.450559 (Simulation time: 0 hr 13 min 53 sec) 
Heartbeat CPU 0 instructions: 450000000 cycles: 684209113 heartbeat IPC: 0.461738 cumulative IPC: 0.450996 (Simulation time: 0 hr 14 min 16 sec) 
Heartbeat CPU 0 instructions: 460000000 cycles: 706880815 heartbeat IPC: 0.441078 cumulative IPC: 0.450606 (Simulation time: 0 hr 14 min 39 sec) 
Heartbeat CPU 0 instructions: 470000001 cycles: 728509939 heartbeat IPC: 0.46234 cumulative IPC: 0.45103 (Simulation time: 0 hr 15 min 2 sec) 
Heartbeat CPU 0 instructions: 480000000 cycles: 751169789 heartbeat IPC: 0.441309 cumulative IPC: 0.450675 (Simulation time: 0 hr 15 min 26 sec) 
Heartbeat CPU 0 instructions: 490000001 cycles: 773097369 heartbeat IPC: 0.456047 cumulative IPC: 0.450858 (Simulation time: 0 hr 15 min 49 sec) 
Heartbeat CPU 0 instructions: 500000000 cycles: 794860865 heartbeat IPC: 0.459485 cumulative IPC: 0.451141 (Simulation time: 0 hr 16 min 12 sec) 
Heartbeat CPU 0 instructions: 510000003 cycles: 809956880 heartbeat IPC: 0.662427 cumulative IPC: 0.455831 (Simulation time: 0 hr 16 min 41 sec) 
Heartbeat CPU 0 instructions: 520000000 cycles: 827271118 heartbeat IPC: 0.577559 cumulative IPC: 0.458853 (Simulation time: 0 hr 17 min 17 sec) 
Heartbeat CPU 0 instructions: 530000003 cycles: 848692528 heartbeat IPC: 0.466823 cumulative IPC: 0.459091 (Simulation time: 0 hr 17 min 46 sec) 
Heartbeat CPU 0 instructions: 540000000 cycles: 869560701 heartbeat IPC: 0.479198 cumulative IPC: 0.459658 (Simulation time: 0 hr 18 min 9 sec) 
Heartbeat CPU 0 instructions: 550000001 cycles: 890400160 heartbeat IPC: 0.479859 cumulative IPC: 0.460211 (Simulation time: 0 hr 18 min 33 sec) 
Heartbeat CPU 0 instructions: 560000000 cycles: 912699859 heartbeat IPC: 0.448436 cumulative IPC: 0.459876 (Simulation time: 0 hr 18 min 56 sec) 
Heartbeat CPU 0 instructions: 570000002 cycles: 935035480 heartbeat IPC: 0.447715 cumulative IPC: 0.459539 (Simulation time: 0 hr 19 min 20 sec) 
Heartbeat CPU 0 instructions: 580000000 cycles: 957690458 heartbeat IPC: 0.441404 cumulative IPC: 0.459042 (Simulation time: 0 hr 19 min 44 sec) 
Heartbeat CPU 0 instructions: 590000000 cycles: 979785574 heartbeat IPC: 0.452589 cumulative IPC: 0.458874 (Simulation time: 0 hr 20 min 8 sec) 
Heartbeat CPU 0 instructions: 600000000 cycles: 1000879904 heartbeat IPC: 0.474061 cumulative IPC: 0.459242 (Simulation time: 0 hr 20 min 31 sec) 
Heartbeat CPU 0 instructions: 610000000 cycles: 1022149786 heartbeat IPC: 0.470148 cumulative IPC: 0.459502 (Simulation time: 0 hr 20 min 54 sec) 
Heartbeat CPU 0 instructions: 620000000 cycles: 1042399842 heartbeat IPC: 0.493826 cumulative IPC: 0.460264 (Simulation time: 0 hr 21 min 17 sec) 
Heartbeat CPU 0 instructions: 630000001 cycles: 1062387043 heartbeat IPC: 0.50032 cumulative IPC: 0.461123 (Simulation time: 0 hr 21 min 41 sec) 
Heartbeat CPU 0 instructions: 640000000 cycles: 1082122148 heartbeat IPC: 0.506711 cumulative IPC: 0.462067 (Simulation time: 0 hr 22 min 5 sec) 
Heartbeat CPU 0 instructions: 650000000 cycles: 1101141522 heartbeat IPC: 0.52578 cumulative IPC: 0.463315 (Simulation time: 0 hr 22 min 28 sec) 
Heartbeat CPU 0 instructions: 660000000 cycles: 1120984416 heartbeat IPC: 0.503959 cumulative IPC: 0.464129 (Simulation time: 0 hr 22 min 52 sec) 
Heartbeat CPU 0 instructions: 670000000 cycles: 1140182531 heartbeat IPC: 0.520884 cumulative IPC: 0.465207 (Simulation time: 0 hr 23 min 16 sec) 
Heartbeat CPU 0 instructions: 680000000 cycles: 1160169703 heartbeat IPC: 0.500321 cumulative IPC: 0.465888 (Simulation time: 0 hr 23 min 39 sec) 
Heartbeat CPU 0 instructions: 690000001 cycles: 1179781322 heartbeat IPC: 0.509902 cumulative IPC: 0.466711 (Simulation time: 0 hr 24 min 3 sec) 
Heartbeat CPU 0 instructions: 700000000 cycles: 1199203313 heartbeat IPC: 0.51488 cumulative IPC: 0.467585 (Simulation time: 0 hr 24 min 26 sec) 
Heartbeat CPU 0 instructions: 710000000 cycles: 1218751996 heartbeat IPC: 0.511543 cumulative IPC: 0.468375 (Simulation time: 0 hr 24 min 50 sec) 
Heartbeat CPU 0 instructions: 720000000 cycles: 1238024521 heartbeat IPC: 0.518873 cumulative IPC: 0.469253 (Simulation time: 0 hr 25 min 13 sec) 
Heartbeat CPU 0 instructions: 730000000 cycles: 1257201228 heartbeat IPC: 0.521466 cumulative IPC: 0.470141 (Simulation time: 0 hr 25 min 36 sec) 
Heartbeat CPU 0 instructions: 740000000 cycles: 1278107229 heartbeat IPC: 0.478332 cumulative IPC: 0.47029 (Simulation time: 0 hr 26 min 0 sec) 
Heartbeat CPU 0 instructions: 750000000 cycles: 1299022318 heartbeat IPC: 0.478124 cumulative IPC: 0.47043 (Simulation time: 0 hr 26 min 24 sec) 
Heartbeat CPU 0 instructions: 760000000 cycles: 1320790827 heartbeat IPC: 0.459379 cumulative IPC: 0.470228 (Simulation time: 0 hr 26 min 48 sec) 
Heartbeat CPU 0 instructions: 770000002 cycles: 1340802437 heartbeat IPC: 0.49971 cumulative IPC: 0.470716 (Simulation time: 0 hr 27 min 12 sec) 
Heartbeat CPU 0 instructions: 780000000 cycles: 1361890147 heartbeat IPC: 0.47421 cumulative IPC: 0.470775 (Simulation time: 0 hr 27 min 35 sec) 
Heartbeat CPU 0 instructions: 790000000 cycles: 1381400200 heartbeat IPC: 0.512556 cumulative IPC: 0.471427 (Simulation time: 0 hr 27 min 59 sec) 
Heartbeat CPU 0 instructions: 800000000 cycles: 1402259361 heartbeat IPC: 0.479406 cumulative IPC: 0.471557 (Simulation time: 0 hr 28 min 22 sec) 
Heartbeat CPU 0 instructions: 810000000 cycles: 1422864577 heartbeat IPC: 0.485314 cumulative IPC: 0.471777 (Simulation time: 0 hr 28 min 46 sec) 
Heartbeat CPU 0 instructions: 820000000 cycles: 1444446261 heartbeat IPC: 0.463356 cumulative IPC: 0.471638 (Simulation time: 0 hr 29 min 10 sec) 
Heartbeat CPU 0 instructions: 830000003 cycles: 1467017784 heartbeat IPC: 0.443036 cumulative IPC: 0.471156 (Simulation time: 0 hr 29 min 34 sec) 
Heartbeat CPU 0 instructions: 840000000 cycles: 1486161109 heartbeat IPC: 0.522375 cumulative IPC: 0.471879 (Simulation time: 0 hr 29 min 56 sec) 
Heartbeat CPU 0 instructions: 850000000 cycles: 1507844309 heartbeat IPC: 0.461187 cumulative IPC: 0.47171 (Simulation time: 0 hr 30 min 19 sec) 
Heartbeat CPU 0 instructions: 860000000 cycles: 1528699928 heartbeat IPC: 0.479487 cumulative IPC: 0.471826 (Simulation time: 0 hr 30 min 41 sec) 
Heartbeat CPU 0 instructions: 870000001 cycles: 1549341365 heartbeat IPC: 0.484462 cumulative IPC: 0.47201 (Simulation time: 0 hr 31 min 4 sec) 
Heartbeat CPU 0 instructions: 880000000 cycles: 1570364794 heartbeat IPC: 0.47566 cumulative IPC: 0.472063 (Simulation time: 0 hr 31 min 27 sec) 
Heartbeat CPU 0 instructions: 890000000 cycles: 1590201512 heartbeat IPC: 0.504116 cumulative IPC: 0.472499 (Simulation time: 0 hr 31 min 49 sec) 
Heartbeat CPU 0 instructions: 900000000 cycles: 1609317275 heartbeat IPC: 0.523128 cumulative IPC: 0.473153 (Simulation time: 0 hr 32 min 11 sec) 
Heartbeat CPU 0 instructions: 910000002 cycles: 1628400794 heartbeat IPC: 0.524012 cumulative IPC: 0.473801 (Simulation time: 0 hr 32 min 33 sec) 
Heartbeat CPU 0 instructions: 920000000 cycles: 1648278230 heartbeat IPC: 0.503083 cumulative IPC: 0.474184 (Simulation time: 0 hr 32 min 55 sec) 
Heartbeat CPU 0 instructions: 930000000 cycles: 1666948937 heartbeat IPC: 0.535598 cumulative IPC: 0.47493 (Simulation time: 0 hr 33 min 17 sec) 
Heartbeat CPU 0 instructions: 940000000 cycles: 1685682356 heartbeat IPC: 0.533805 cumulative IPC: 0.475639 (Simulation time: 0 hr 33 min 39 sec) 
Heartbeat CPU 0 instructions: 950000000 cycles: 1705345582 heartbeat IPC: 0.508564 cumulative IPC: 0.47605 (Simulation time: 0 hr 34 min 1 sec) 
Heartbeat CPU 0 instructions: 960000000 cycles: 1726631031 heartbeat IPC: 0.469805 cumulative IPC: 0.475966 (Simulation time: 0 hr 34 min 24 sec) 
Heartbeat CPU 0 instructions: 970000002 cycles: 1747555813 heartbeat IPC: 0.477902 cumulative IPC: 0.475992 (Simulation time: 0 hr 34 min 46 sec) 
Heartbeat CPU 0 instructions: 980000000 cycles: 1766444603 heartbeat IPC: 0.529414 cumulative IPC: 0.476608 (Simulation time: 0 hr 35 min 8 sec) 
Heartbeat CPU 0 instructions: 990000002 cycles: 1786983141 heartbeat IPC: 0.48689 cumulative IPC: 0.476736 (Simulation time: 0 hr 35 min 30 sec) 
Heartbeat CPU 0 instructions: 1000000000 cycles: 1805771310 heartbeat IPC: 0.53225 cumulative IPC: 0.477358 (Simulation time: 0 hr 35 min 52 sec) 
Heartbeat CPU 0 instructions: 1010000001 cycles: 1827577646 heartbeat IPC: 0.458582 cumulative IPC: 0.477117 (Simulation time: 0 hr 36 min 15 sec) 
Heartbeat CPU 0 instructions: 1020000000 cycles: 1847050657 heartbeat IPC: 0.513531 cumulative IPC: 0.47753 (Simulation time: 0 hr 36 min 37 sec) 
Heartbeat CPU 0 instructions: 1030000000 cycles: 1865741927 heartbeat IPC: 0.535009 cumulative IPC: 0.478149 (Simulation time: 0 hr 36 min 58 sec) 
Heartbeat CPU 0 instructions: 1040000000 cycles: 1887253453 heartbeat IPC: 0.464867 cumulative IPC: 0.477986 (Simulation time: 0 hr 37 min 21 sec) 
Heartbeat CPU 0 instructions: 1050000002 cycles: 1908547287 heartbeat IPC: 0.46962 cumulative IPC: 0.477886 (Simulation time: 0 hr 37 min 44 sec) 
Heartbeat CPU 0 instructions: 1060000000 cycles: 1929893506 heartbeat IPC: 0.468467 cumulative IPC: 0.477774 (Simulation time: 0 hr 38 min 7 sec) 
Heartbeat CPU 0 instructions: 1070000001 cycles: 1951286786 heartbeat IPC: 0.467437 cumulative IPC: 0.477653 (Simulation time: 0 hr 38 min 30 sec) 
Heartbeat CPU 0 instructions: 1080000000 cycles: 1972619352 heartbeat IPC: 0.468767 cumulative IPC: 0.47755 (Simulation time: 0 hr 38 min 53 sec) 
Heartbeat CPU 0 instructions: 1090000003 cycles: 1992557673 heartbeat IPC: 0.501547 cumulative IPC: 0.477807 (Simulation time: 0 hr 39 min 15 sec) 
Heartbeat CPU 0 instructions: 1100000000 cycles: 2012142696 heartbeat IPC: 0.510594 cumulative IPC: 0.478148 (Simulation time: 0 hr 39 min 37 sec) 
Heartbeat CPU 0 instructions: 1110000002 cycles: 2032631344 heartbeat IPC: 0.488075 cumulative IPC: 0.478255 (Simulation time: 0 hr 40 min 0 sec) 
Heartbeat CPU 0 instructions: 1120000000 cycles: 2053426154 heartbeat IPC: 0.480889 cumulative IPC: 0.478283 (Simulation time: 0 hr 40 min 22 sec) 
Heartbeat CPU 0 instructions: 1130000001 cycles: 2073261758 heartbeat IPC: 0.504144 cumulative IPC: 0.478547 (Simulation time: 0 hr 40 min 45 sec) 
Heartbeat CPU 0 instructions: 1140000000 cycles: 2092541065 heartbeat IPC: 0.518691 cumulative IPC: 0.478942 (Simulation time: 0 hr 41 min 7 sec) 
Heartbeat CPU 0 instructions: 1150000000 cycles: 2112502595 heartbeat IPC: 0.500964 cumulative IPC: 0.479163 (Simulation time: 0 hr 41 min 29 sec) 
Heartbeat CPU 0 instructions: 1160000000 cycles: 2132610330 heartbeat IPC: 0.497321 cumulative IPC: 0.479346 (Simulation time: 0 hr 41 min 51 sec) 
Heartbeat CPU 0 instructions: 1170000001 cycles: 2153721321 heartbeat IPC: 0.473687 cumulative IPC: 0.479287 (Simulation time: 0 hr 42 min 14 sec) 
Heartbeat CPU 0 instructions: 1180000000 cycles: 2174156904 heartbeat IPC: 0.489342 cumulative IPC: 0.479387 (Simulation time: 0 hr 42 min 37 sec) 
Heartbeat CPU 0 instructions: 1190000002 cycles: 2194735224 heartbeat IPC: 0.485948 cumulative IPC: 0.479452 (Simulation time: 0 hr 42 min 59 sec) 
Heartbeat CPU 0 instructions: 1200000000 cycles: 2214843327 heartbeat IPC: 0.497312 cumulative IPC: 0.479625 (Simulation time: 0 hr 43 min 22 sec) 
Finished CPU 0 instructions: 1000000000 cycles: 2084963354 cumulative IPC: 0.479625 (Simulation time: 0 hr 43 min 22 sec) 

CPU 0 Branch Prediction Accuracy: 86.6415% MPKI: 22.1985

ChampSim completed all CPUs

Region of Interest Statistics

CPU 0 cumulative IPC: 0.479625 instructions: 1000000000 cycles: 2084963354
L1D TOTAL     ACCESS:  310223663  HIT:  305894789  MISS:    4328874
L1D LOAD      ACCESS:  180667548  HIT:  178491265  MISS:    2176283
L1D RFO       ACCESS:  129556115  HIT:  127403524  MISS:    2152591
L1D PREFETCH  ACCESS:          0  HIT:          0  MISS:          0
L1D WRITEBACK ACCESS:          0  HIT:          0  MISS:          0
L1D PREFETCH  REQUESTED:          0  ISSUED:          0  USEFUL:          0  USELESS:          0
L1I TOTAL     ACCESS:  228338648  HIT:  225384016  MISS:    2954632
L1I LOAD      ACCESS:  228338648  HIT:  225384016  MISS:    2954632
L1I RFO       ACCESS:          0  HIT:          0  MISS:          0
L1I PREFETCH  ACCESS:          0  HIT:          0  MISS:          0
L1I WRITEBACK ACCESS:          0  HIT:          0  MISS:          0
L1I PREFETCH  REQUESTED:          0  ISSUED:          0  USEFUL:          0  USELESS:          0
L2C TOTAL     ACCESS:   13950625  HIT:   11216642  MISS:    2733983
L2C LOAD      ACCESS:    5130896  HIT:    4438497  MISS:     692399
L2C RFO       ACCESS:    2152525  HIT:    1116985  MISS:    1035540
L2C PREFETCH  ACCESS:    3906564  HIT:    2907069  MISS:     999495
L2C WRITEBACK ACCESS:    2760640  HIT:    2754091  MISS:       6549
L2C PREFETCH  REQUESTED:    5328514  ISSUED:    5325224  USEFUL:     826800  USELESS:     379463
LLC TOTAL     ACCESS:    4506272  HIT:    3458754  MISS:    1047518
LLC LOAD      ACCESS:     671254  HIT:     530101  MISS:     141153
LLC RFO       ACCESS:    1035496  HIT:     285445  MISS:     750051
LLC PREFETCH  ACCESS:    1375108  HIT:    1219190  MISS:     155918
LLC WRITEBACK ACCESS:    1424414  HIT:    1424018  MISS:        396
LLC PREFETCH  REQUESTED:          0  ISSUED:          0  USEFUL:      27747  USELESS:     177866
Major fault: 0 Minor fault: 6650

Avg Lookahead Depth:	2.1578
TOTAL: 5.32851e+06	L2C: 4.3029e+06	LLC: 1.02562e+06	GOOD_L2C: 2.34426e+06
Printing all the perceptron weights to: perc_weights_0.csv

DRAM Statistics
 CHANNEL 0
 RQ ROW_BUFFER_HIT:     663594  ROW_BUFFER_MISS:     383418
 DBUS_CONGESTED:    1362581
 WQ ROW_BUFFER_HIT:     558023  ROW_BUFFER_MISS:     380046  FULL:          0

 AVG_CONGESTED_CYCLE: 13
