Initialize SIGNATURE TABLE
ST_SET: 1
ST_WAY: 256
ST_TAG_BIT: 16
ST_TAG_MASK: ffff

Initialize PATTERN TABLE
PT_SET: 512
PT_WAY: 4
SIG_DELTA_BIT: 7
C_SIG_BIT: 4
C_DELTA_BIT: 4

Initialize PREFETCH FILTER
FILTER_SET: 1024

Initialize PERCEPTRON
PERC_ENTRIES: 4096
PERC_FEATURES: 9

*** ChampSim Multicore Out-of-Order Simulator ***

Warmup Instructions: 200000000
Simulation Instructions: 1000000000
Number of CPUs: 1
LLC sets: 2048
LLC ways: 16
Off-chip DRAM Size: 4096 MB Channels: 1 Width: 64-bit Data Rate: 1600 MT/s

CPU 0 runs /scratch/user/djimenez/champsim-traces/speccpu2006/xz/453.povray-252B.champsimtrace.xz
Heartbeat CPU 0 instructions: 10000003 cycles: 6684014 heartbeat IPC: 1.49611 cumulative IPC: 1.49611 (Simulation time: 0 hr 0 min 21 sec) 
Heartbeat CPU 0 instructions: 20000000 cycles: 13281925 heartbeat IPC: 1.51563 cumulative IPC: 1.50581 (Simulation time: 0 hr 0 min 42 sec) 
Heartbeat CPU 0 instructions: 30000003 cycles: 19803686 heartbeat IPC: 1.53333 cumulative IPC: 1.51487 (Simulation time: 0 hr 1 min 3 sec) 
Heartbeat CPU 0 instructions: 40000000 cycles: 26307325 heartbeat IPC: 1.5376 cumulative IPC: 1.52049 (Simulation time: 0 hr 1 min 25 sec) 
Heartbeat CPU 0 instructions: 50000000 cycles: 32809356 heartbeat IPC: 1.53798 cumulative IPC: 1.52396 (Simulation time: 0 hr 1 min 46 sec) 
Heartbeat CPU 0 instructions: 60000000 cycles: 39300491 heartbeat IPC: 1.54056 cumulative IPC: 1.5267 (Simulation time: 0 hr 2 min 8 sec) 
Heartbeat CPU 0 instructions: 70000001 cycles: 45748667 heartbeat IPC: 1.55083 cumulative IPC: 1.5301 (Simulation time: 0 hr 2 min 30 sec) 
Heartbeat CPU 0 instructions: 80000000 cycles: 52151683 heartbeat IPC: 1.56176 cumulative IPC: 1.53399 (Simulation time: 0 hr 2 min 51 sec) 
Heartbeat CPU 0 instructions: 90000000 cycles: 58530318 heartbeat IPC: 1.56773 cumulative IPC: 1.53766 (Simulation time: 0 hr 3 min 13 sec) 
Heartbeat CPU 0 instructions: 100000000 cycles: 64900275 heartbeat IPC: 1.56987 cumulative IPC: 1.54083 (Simulation time: 0 hr 3 min 34 sec) 
Heartbeat CPU 0 instructions: 110000003 cycles: 71271679 heartbeat IPC: 1.56951 cumulative IPC: 1.54339 (Simulation time: 0 hr 3 min 56 sec) 
Heartbeat CPU 0 instructions: 120000000 cycles: 77631224 heartbeat IPC: 1.57244 cumulative IPC: 1.54577 (Simulation time: 0 hr 4 min 17 sec) 
Heartbeat CPU 0 instructions: 130000000 cycles: 83988708 heartbeat IPC: 1.57295 cumulative IPC: 1.54783 (Simulation time: 0 hr 4 min 39 sec) 
Heartbeat CPU 0 instructions: 140000000 cycles: 90354849 heartbeat IPC: 1.57081 cumulative IPC: 1.54945 (Simulation time: 0 hr 5 min 0 sec) 
Heartbeat CPU 0 instructions: 150000000 cycles: 96747684 heartbeat IPC: 1.56425 cumulative IPC: 1.55042 (Simulation time: 0 hr 5 min 22 sec) 
Heartbeat CPU 0 instructions: 160000000 cycles: 103158659 heartbeat IPC: 1.55983 cumulative IPC: 1.55101 (Simulation time: 0 hr 5 min 43 sec) 
Heartbeat CPU 0 instructions: 170000002 cycles: 109677838 heartbeat IPC: 1.53394 cumulative IPC: 1.54999 (Simulation time: 0 hr 6 min 5 sec) 
Heartbeat CPU 0 instructions: 180000000 cycles: 116272264 heartbeat IPC: 1.51643 cumulative IPC: 1.54809 (Simulation time: 0 hr 6 min 26 sec) 
Heartbeat CPU 0 instructions: 190000000 cycles: 122976058 heartbeat IPC: 1.49169 cumulative IPC: 1.54502 (Simulation time: 0 hr 6 min 48 sec) 
Heartbeat CPU 0 instructions: 200000000 cycles: 129706236 heartbeat IPC: 1.48584 cumulative IPC: 1.54195 (Simulation time: 0 hr 7 min 9 sec) 

Warmup complete CPU 0 instructions: 200000001 cycles: 129706239 (Simulation time: 0 hr 7 min 9 sec) 

Heartbeat CPU 0 instructions: 210000000 cycles: 154361349 heartbeat IPC: 0.405595 cumulative IPC: 0.405595 (Simulation time: 0 hr 7 min 44 sec) 
Heartbeat CPU 0 instructions: 220000000 cycles: 178982596 heartbeat IPC: 0.406153 cumulative IPC: 0.405874 (Simulation time: 0 hr 8 min 18 sec) 
Heartbeat CPU 0 instructions: 230000003 cycles: 203659974 heartbeat IPC: 0.40523 cumulative IPC: 0.405659 (Simulation time: 0 hr 8 min 53 sec) 
Heartbeat CPU 0 instructions: 240000000 cycles: 228432779 heartbeat IPC: 0.403668 cumulative IPC: 0.40516 (Simulation time: 0 hr 9 min 26 sec) 
Heartbeat CPU 0 instructions: 250000002 cycles: 252963116 heartbeat IPC: 0.407659 cumulative IPC: 0.405657 (Simulation time: 0 hr 10 min 0 sec) 
Heartbeat CPU 0 instructions: 260000000 cycles: 277319300 heartbeat IPC: 0.410573 cumulative IPC: 0.406468 (Simulation time: 0 hr 10 min 34 sec) 
Heartbeat CPU 0 instructions: 270000000 cycles: 301372052 heartbeat IPC: 0.415753 cumulative IPC: 0.407769 (Simulation time: 0 hr 11 min 8 sec) 
Heartbeat CPU 0 instructions: 280000000 cycles: 324432386 heartbeat IPC: 0.433645 cumulative IPC: 0.410833 (Simulation time: 0 hr 11 min 41 sec) 
Heartbeat CPU 0 instructions: 290000001 cycles: 348372159 heartbeat IPC: 0.417715 cumulative IPC: 0.411587 (Simulation time: 0 hr 12 min 15 sec) 
Heartbeat CPU 0 instructions: 300000000 cycles: 373320847 heartbeat IPC: 0.400823 cumulative IPC: 0.410484 (Simulation time: 0 hr 12 min 50 sec) 
Heartbeat CPU 0 instructions: 310000000 cycles: 398382154 heartbeat IPC: 0.399021 cumulative IPC: 0.409415 (Simulation time: 0 hr 13 min 25 sec) 
Heartbeat CPU 0 instructions: 320000000 cycles: 423646251 heartbeat IPC: 0.395819 cumulative IPC: 0.408247 (Simulation time: 0 hr 14 min 0 sec) 
Heartbeat CPU 0 instructions: 330000002 cycles: 448946241 heartbeat IPC: 0.395257 cumulative IPC: 0.407217 (Simulation time: 0 hr 14 min 35 sec) 
Heartbeat CPU 0 instructions: 340000000 cycles: 474021121 heartbeat IPC: 0.398805 cumulative IPC: 0.406605 (Simulation time: 0 hr 15 min 9 sec) 
Heartbeat CPU 0 instructions: 350000002 cycles: 498001177 heartbeat IPC: 0.417013 cumulative IPC: 0.407282 (Simulation time: 0 hr 15 min 42 sec) 
Heartbeat CPU 0 instructions: 360000000 cycles: 522114316 heartbeat IPC: 0.414712 cumulative IPC: 0.407739 (Simulation time: 0 hr 16 min 15 sec) 
Heartbeat CPU 0 instructions: 370000002 cycles: 547032553 heartbeat IPC: 0.401313 cumulative IPC: 0.407355 (Simulation time: 0 hr 16 min 48 sec) 
Heartbeat CPU 0 instructions: 380000000 cycles: 570961804 heartbeat IPC: 0.417899 cumulative IPC: 0.407927 (Simulation time: 0 hr 17 min 22 sec) 
Heartbeat CPU 0 instructions: 390000000 cycles: 595214666 heartbeat IPC: 0.412322 cumulative IPC: 0.408156 (Simulation time: 0 hr 17 min 56 sec) 
Heartbeat CPU 0 instructions: 400000000 cycles: 619706823 heartbeat IPC: 0.408294 cumulative IPC: 0.408163 (Simulation time: 0 hr 18 min 30 sec) 
Heartbeat CPU 0 instructions: 410000000 cycles: 644747970 heartbeat IPC: 0.399343 cumulative IPC: 0.407734 (Simulation time: 0 hr 19 min 3 sec) 
Heartbeat CPU 0 instructions: 420000000 cycles: 669907212 heartbeat IPC: 0.397468 cumulative IPC: 0.407256 (Simulation time: 0 hr 19 min 36 sec) 
Heartbeat CPU 0 instructions: 430000000 cycles: 694390185 heartbeat IPC: 0.408447 cumulative IPC: 0.407307 (Simulation time: 0 hr 20 min 9 sec) 
Heartbeat CPU 0 instructions: 440000000 cycles: 718887354 heartbeat IPC: 0.40821 cumulative IPC: 0.407345 (Simulation time: 0 hr 20 min 42 sec) 
Heartbeat CPU 0 instructions: 450000001 cycles: 743430887 heartbeat IPC: 0.407439 cumulative IPC: 0.407349 (Simulation time: 0 hr 21 min 15 sec) 
Heartbeat CPU 0 instructions: 460000000 cycles: 768511352 heartbeat IPC: 0.398717 cumulative IPC: 0.40701 (Simulation time: 0 hr 21 min 49 sec) 
Heartbeat CPU 0 instructions: 470000000 cycles: 793902489 heartbeat IPC: 0.393838 cumulative IPC: 0.406506 (Simulation time: 0 hr 22 min 23 sec) 
Heartbeat CPU 0 instructions: 480000000 cycles: 819291293 heartbeat IPC: 0.393874 cumulative IPC: 0.406041 (Simulation time: 0 hr 22 min 57 sec) 
Heartbeat CPU 0 instructions: 490000001 cycles: 844682236 heartbeat IPC: 0.393841 cumulative IPC: 0.405608 (Simulation time: 0 hr 23 min 29 sec) 
Heartbeat CPU 0 instructions: 500000000 cycles: 869391808 heartbeat IPC: 0.404701 cumulative IPC: 0.405578 (Simulation time: 0 hr 24 min 2 sec) 
Heartbeat CPU 0 instructions: 510000000 cycles: 894202504 heartbeat IPC: 0.403052 cumulative IPC: 0.405496 (Simulation time: 0 hr 24 min 35 sec) 
Heartbeat CPU 0 instructions: 520000000 cycles: 918957716 heartbeat IPC: 0.403955 cumulative IPC: 0.405447 (Simulation time: 0 hr 25 min 9 sec) 
Heartbeat CPU 0 instructions: 530000000 cycles: 943762124 heartbeat IPC: 0.403154 cumulative IPC: 0.405378 (Simulation time: 0 hr 25 min 42 sec) 
Heartbeat CPU 0 instructions: 540000000 cycles: 968135169 heartbeat IPC: 0.410289 cumulative IPC: 0.40552 (Simulation time: 0 hr 26 min 15 sec) 
Heartbeat CPU 0 instructions: 550000001 cycles: 992427064 heartbeat IPC: 0.41166 cumulative IPC: 0.405693 (Simulation time: 0 hr 26 min 48 sec) 
Heartbeat CPU 0 instructions: 560000000 cycles: 1016923055 heartbeat IPC: 0.40823 cumulative IPC: 0.405763 (Simulation time: 0 hr 27 min 21 sec) 
Heartbeat CPU 0 instructions: 570000001 cycles: 1042066514 heartbeat IPC: 0.397718 cumulative IPC: 0.405542 (Simulation time: 0 hr 27 min 54 sec) 
Heartbeat CPU 0 instructions: 580000000 cycles: 1067276222 heartbeat IPC: 0.396673 cumulative IPC: 0.405303 (Simulation time: 0 hr 28 min 27 sec) 
Heartbeat CPU 0 instructions: 590000000 cycles: 1092492156 heartbeat IPC: 0.396575 cumulative IPC: 0.405074 (Simulation time: 0 hr 29 min 0 sec) 
Heartbeat CPU 0 instructions: 600000000 cycles: 1117726195 heartbeat IPC: 0.39629 cumulative IPC: 0.40485 (Simulation time: 0 hr 29 min 33 sec) 
Heartbeat CPU 0 instructions: 610000001 cycles: 1142943018 heartbeat IPC: 0.396561 cumulative IPC: 0.404644 (Simulation time: 0 hr 30 min 6 sec) 
Heartbeat CPU 0 instructions: 620000000 cycles: 1166569105 heartbeat IPC: 0.423261 cumulative IPC: 0.405068 (Simulation time: 0 hr 30 min 39 sec) 
Heartbeat CPU 0 instructions: 630000000 cycles: 1191917007 heartbeat IPC: 0.39451 cumulative IPC: 0.404816 (Simulation time: 0 hr 31 min 12 sec) 
Heartbeat CPU 0 instructions: 640000000 cycles: 1217122874 heartbeat IPC: 0.396733 cumulative IPC: 0.404629 (Simulation time: 0 hr 31 min 45 sec) 
Heartbeat CPU 0 instructions: 650000002 cycles: 1242148953 heartbeat IPC: 0.399583 cumulative IPC: 0.404515 (Simulation time: 0 hr 32 min 18 sec) 
Heartbeat CPU 0 instructions: 660000000 cycles: 1266082008 heartbeat IPC: 0.417832 cumulative IPC: 0.404796 (Simulation time: 0 hr 32 min 51 sec) 
Heartbeat CPU 0 instructions: 670000001 cycles: 1291455679 heartbeat IPC: 0.394109 cumulative IPC: 0.404562 (Simulation time: 0 hr 33 min 24 sec) 
Heartbeat CPU 0 instructions: 680000000 cycles: 1316425202 heartbeat IPC: 0.400488 cumulative IPC: 0.404477 (Simulation time: 0 hr 33 min 58 sec) 
Heartbeat CPU 0 instructions: 690000002 cycles: 1341115205 heartbeat IPC: 0.405022 cumulative IPC: 0.404488 (Simulation time: 0 hr 34 min 31 sec) 
Heartbeat CPU 0 instructions: 700000000 cycles: 1365719217 heartbeat IPC: 0.406438 cumulative IPC: 0.404527 (Simulation time: 0 hr 35 min 5 sec) 
Heartbeat CPU 0 instructions: 710000000 cycles: 1389085596 heartbeat IPC: 0.427965 cumulative IPC: 0.404961 (Simulation time: 0 hr 35 min 38 sec) 
Heartbeat CPU 0 instructions: 720000000 cycles: 1413332069 heartbeat IPC: 0.412431 cumulative IPC: 0.405102 (Simulation time: 0 hr 36 min 12 sec) 
Heartbeat CPU 0 instructions: 730000002 cycles: 1437758900 heartbeat IPC: 0.409386 cumulative IPC: 0.405182 (Simulation time: 0 hr 36 min 45 sec) 
Heartbeat CPU 0 instructions: 740000000 cycles: 1461824750 heartbeat IPC: 0.415526 cumulative IPC: 0.405369 (Simulation time: 0 hr 37 min 19 sec) 
Heartbeat CPU 0 instructions: 750000002 cycles: 1485261378 heartbeat IPC: 0.426683 cumulative IPC: 0.405738 (Simulation time: 0 hr 37 min 53 sec) 
Heartbeat CPU 0 instructions: 760000000 cycles: 1508962418 heartbeat IPC: 0.421922 cumulative IPC: 0.406016 (Simulation time: 0 hr 38 min 27 sec) 
Heartbeat CPU 0 instructions: 770000000 cycles: 1533877663 heartbeat IPC: 0.401361 cumulative IPC: 0.405933 (Simulation time: 0 hr 39 min 1 sec) 
Heartbeat CPU 0 instructions: 780000000 cycles: 1559140740 heartbeat IPC: 0.395835 cumulative IPC: 0.405755 (Simulation time: 0 hr 39 min 34 sec) 
Heartbeat CPU 0 instructions: 790000002 cycles: 1584503752 heartbeat IPC: 0.394275 cumulative IPC: 0.405555 (Simulation time: 0 hr 40 min 7 sec) 
Heartbeat CPU 0 instructions: 800000000 cycles: 1609548042 heartbeat IPC: 0.399293 cumulative IPC: 0.405449 (Simulation time: 0 hr 40 min 40 sec) 
Heartbeat CPU 0 instructions: 810000000 cycles: 1634619254 heartbeat IPC: 0.398864 cumulative IPC: 0.405339 (Simulation time: 0 hr 41 min 14 sec) 
Heartbeat CPU 0 instructions: 820000000 cycles: 1660240631 heartbeat IPC: 0.390299 cumulative IPC: 0.405087 (Simulation time: 0 hr 41 min 47 sec) 
Heartbeat CPU 0 instructions: 830000002 cycles: 1685595378 heartbeat IPC: 0.394404 cumulative IPC: 0.404913 (Simulation time: 0 hr 42 min 20 sec) 
Heartbeat CPU 0 instructions: 840000000 cycles: 1711179513 heartbeat IPC: 0.390867 cumulative IPC: 0.404686 (Simulation time: 0 hr 42 min 53 sec) 
Heartbeat CPU 0 instructions: 850000002 cycles: 1736756129 heartbeat IPC: 0.390982 cumulative IPC: 0.404468 (Simulation time: 0 hr 43 min 26 sec) 
Heartbeat CPU 0 instructions: 860000000 cycles: 1762327044 heartbeat IPC: 0.391069 cumulative IPC: 0.404258 (Simulation time: 0 hr 43 min 59 sec) 
Heartbeat CPU 0 instructions: 870000000 cycles: 1788102737 heartbeat IPC: 0.387962 cumulative IPC: 0.404005 (Simulation time: 0 hr 44 min 33 sec) 
Heartbeat CPU 0 instructions: 880000000 cycles: 1813845171 heartbeat IPC: 0.388464 cumulative IPC: 0.403767 (Simulation time: 0 hr 45 min 6 sec) 
Heartbeat CPU 0 instructions: 890000000 cycles: 1838538067 heartbeat IPC: 0.404975 cumulative IPC: 0.403785 (Simulation time: 0 hr 45 min 39 sec) 
Heartbeat CPU 0 instructions: 900000000 cycles: 1863464329 heartbeat IPC: 0.401183 cumulative IPC: 0.403747 (Simulation time: 0 hr 46 min 13 sec) 
Heartbeat CPU 0 instructions: 910000001 cycles: 1887882774 heartbeat IPC: 0.409527 cumulative IPC: 0.403827 (Simulation time: 0 hr 46 min 46 sec) 
Heartbeat CPU 0 instructions: 920000000 cycles: 1911890028 heartbeat IPC: 0.416541 cumulative IPC: 0.403999 (Simulation time: 0 hr 47 min 20 sec) 
Heartbeat CPU 0 instructions: 930000003 cycles: 1936530466 heartbeat IPC: 0.405837 cumulative IPC: 0.404024 (Simulation time: 0 hr 47 min 54 sec) 
Heartbeat CPU 0 instructions: 940000000 cycles: 1960582914 heartbeat IPC: 0.415758 cumulative IPC: 0.404178 (Simulation time: 0 hr 48 min 28 sec) 
Heartbeat CPU 0 instructions: 950000003 cycles: 1984911987 heartbeat IPC: 0.411031 cumulative IPC: 0.404268 (Simulation time: 0 hr 49 min 3 sec) 
Heartbeat CPU 0 instructions: 960000000 cycles: 2009344568 heartbeat IPC: 0.409289 cumulative IPC: 0.404333 (Simulation time: 0 hr 49 min 38 sec) 
Heartbeat CPU 0 instructions: 970000002 cycles: 2032481040 heartbeat IPC: 0.432218 cumulative IPC: 0.404672 (Simulation time: 0 hr 50 min 11 sec) 
Heartbeat CPU 0 instructions: 980000000 cycles: 2056553661 heartbeat IPC: 0.41541 cumulative IPC: 0.404806 (Simulation time: 0 hr 50 min 45 sec) 
Heartbeat CPU 0 instructions: 990000003 cycles: 2080462522 heartbeat IPC: 0.418255 cumulative IPC: 0.404971 (Simulation time: 0 hr 51 min 18 sec) 
Heartbeat CPU 0 instructions: 1000000000 cycles: 2105666428 heartbeat IPC: 0.396764 cumulative IPC: 0.404866 (Simulation time: 0 hr 51 min 51 sec) 
Heartbeat CPU 0 instructions: 1010000001 cycles: 2129577473 heartbeat IPC: 0.418217 cumulative IPC: 0.405026 (Simulation time: 0 hr 52 min 25 sec) 
Heartbeat CPU 0 instructions: 1020000000 cycles: 2152969248 heartbeat IPC: 0.427501 cumulative IPC: 0.405286 (Simulation time: 0 hr 52 min 58 sec) 
Heartbeat CPU 0 instructions: 1030000000 cycles: 2177094935 heartbeat IPC: 0.414496 cumulative IPC: 0.405394 (Simulation time: 0 hr 53 min 31 sec) 
Heartbeat CPU 0 instructions: 1040000000 cycles: 2201000688 heartbeat IPC: 0.418309 cumulative IPC: 0.405544 (Simulation time: 0 hr 54 min 5 sec) 
Heartbeat CPU 0 instructions: 1050000001 cycles: 2225552133 heartbeat IPC: 0.407308 cumulative IPC: 0.405564 (Simulation time: 0 hr 54 min 38 sec) 
Heartbeat CPU 0 instructions: 1060000000 cycles: 2245967117 heartbeat IPC: 0.489836 cumulative IPC: 0.406377 (Simulation time: 0 hr 55 min 10 sec) 
Heartbeat CPU 0 instructions: 1070000000 cycles: 2269177318 heartbeat IPC: 0.430845 cumulative IPC: 0.406643 (Simulation time: 0 hr 55 min 42 sec) 
Heartbeat CPU 0 instructions: 1080000000 cycles: 2293332267 heartbeat IPC: 0.413994 cumulative IPC: 0.406725 (Simulation time: 0 hr 56 min 16 sec) 
Heartbeat CPU 0 instructions: 1090000000 cycles: 2318175565 heartbeat IPC: 0.402523 cumulative IPC: 0.406677 (Simulation time: 0 hr 56 min 50 sec) 
Heartbeat CPU 0 instructions: 1100000000 cycles: 2343041559 heartbeat IPC: 0.402156 cumulative IPC: 0.406626 (Simulation time: 0 hr 57 min 24 sec) 
Heartbeat CPU 0 instructions: 1110000002 cycles: 2367907070 heartbeat IPC: 0.402164 cumulative IPC: 0.406577 (Simulation time: 0 hr 57 min 58 sec) 
Heartbeat CPU 0 instructions: 1120000000 cycles: 2393575231 heartbeat IPC: 0.389588 cumulative IPC: 0.406384 (Simulation time: 0 hr 58 min 31 sec) 
Heartbeat CPU 0 instructions: 1130000000 cycles: 2419251592 heartbeat IPC: 0.389463 cumulative IPC: 0.406194 (Simulation time: 0 hr 59 min 4 sec) 
Heartbeat CPU 0 instructions: 1140000000 cycles: 2443811526 heartbeat IPC: 0.407167 cumulative IPC: 0.406205 (Simulation time: 0 hr 59 min 37 sec) 
Heartbeat CPU 0 instructions: 1150000001 cycles: 2468851458 heartbeat IPC: 0.399362 cumulative IPC: 0.406131 (Simulation time: 1 hr 0 min 11 sec) 
Heartbeat CPU 0 instructions: 1160000000 cycles: 2493154411 heartbeat IPC: 0.411473 cumulative IPC: 0.406186 (Simulation time: 1 hr 0 min 44 sec) 
Heartbeat CPU 0 instructions: 1170000000 cycles: 2516884184 heartbeat IPC: 0.421412 cumulative IPC: 0.406338 (Simulation time: 1 hr 1 min 18 sec) 
Heartbeat CPU 0 instructions: 1180000000 cycles: 2541716318 heartbeat IPC: 0.402704 cumulative IPC: 0.4063 (Simulation time: 1 hr 1 min 51 sec) 
Heartbeat CPU 0 instructions: 1190000000 cycles: 2566741544 heartbeat IPC: 0.399597 cumulative IPC: 0.406231 (Simulation time: 1 hr 2 min 25 sec) 
Heartbeat CPU 0 instructions: 1200000000 cycles: 2591835878 heartbeat IPC: 0.398496 cumulative IPC: 0.406152 (Simulation time: 1 hr 2 min 58 sec) 
Finished CPU 0 instructions: 1000000000 cycles: 2462129647 cumulative IPC: 0.406152 (Simulation time: 1 hr 2 min 58 sec) 

CPU 0 Branch Prediction Accuracy: 95.1928% MPKI: 5.07581

ChampSim completed all CPUs

Region of Interest Statistics

CPU 0 cumulative IPC: 0.406152 instructions: 1000000000 cycles: 2462129647
L1D TOTAL     ACCESS:  379391696  HIT:  363589135  MISS:   15802561
L1D LOAD      ACCESS:  235078975  HIT:  221273001  MISS:   13805974
L1D RFO       ACCESS:  144312721  HIT:  142316134  MISS:    1996587
L1D PREFETCH  ACCESS:          0  HIT:          0  MISS:          0
L1D WRITEBACK ACCESS:          0  HIT:          0  MISS:          0
L1D PREFETCH  REQUESTED:          0  ISSUED:          0  USEFUL:          0  USELESS:          0
L1I TOTAL     ACCESS:  298405346  HIT:  295745128  MISS:    2660218
L1I LOAD      ACCESS:  298405346  HIT:  295745128  MISS:    2660218
L1I RFO       ACCESS:          0  HIT:          0  MISS:          0
L1I PREFETCH  ACCESS:          0  HIT:          0  MISS:          0
L1I WRITEBACK ACCESS:          0  HIT:          0  MISS:          0
L1I PREFETCH  REQUESTED:          0  ISSUED:          0  USEFUL:          0  USELESS:          0
L2C TOTAL     ACCESS:   43650224  HIT:   42555699  MISS:    1094525
L2C LOAD      ACCESS:   16465923  HIT:   16248349  MISS:     217574
L2C RFO       ACCESS:    1996516  HIT:    1952698  MISS:      43818
L2C PREFETCH  ACCESS:   22580757  HIT:   21749666  MISS:     831091
L2C WRITEBACK ACCESS:    2607028  HIT:    2604986  MISS:       2042
L2C PREFETCH  REQUESTED:   29826443  ISSUED:   29797241  USEFUL:     141824  USELESS:     775930
LLC TOTAL     ACCESS:    1967360  HIT:    1958613  MISS:       8747
LLC LOAD      ACCESS:     206566  HIT:     205303  MISS:       1263
LLC RFO       ACCESS:      43816  HIT:      43161  MISS:        655
LLC PREFETCH  ACCESS:    1664087  HIT:    1657258  MISS:       6829
LLC WRITEBACK ACCESS:      52891  HIT:      52891  MISS:          0
LLC PREFETCH  REQUESTED:          0  ISSUED:          0  USEFUL:       4053  USELESS:          0
Major fault: 0 Minor fault: 372

Avg Lookahead Depth:	2.21281
TOTAL: 2.98264e+07	L2C: 2.40667e+07	LLC: 5.75976e+06	GOOD_L2C: 9.30934e+06
Printing all the perceptron weights to: perc_weights_0.csv

DRAM Statistics
 CHANNEL 0
 RQ ROW_BUFFER_HIT:       6364  ROW_BUFFER_MISS:       2383
 DBUS_CONGESTED:       2157
 WQ ROW_BUFFER_HIT:          0  ROW_BUFFER_MISS:          0  FULL:          0

 AVG_CONGESTED_CYCLE: 12
