Initialize SIGNATURE TABLE
ST_SET: 1
ST_WAY: 256
ST_TAG_BIT: 16
ST_TAG_MASK: ffff

Initialize PATTERN TABLE
PT_SET: 512
PT_WAY: 4
SIG_DELTA_BIT: 7
C_SIG_BIT: 4
C_DELTA_BIT: 4

Initialize PREFETCH FILTER
FILTER_SET: 1024

Initialize PERCEPTRON
PERC_ENTRIES: 4096
PERC_FEATURES: 9

*** ChampSim Multicore Out-of-Order Simulator ***

Warmup Instructions: 200000000
Simulation Instructions: 1000000000
Number of CPUs: 1
LLC sets: 2048
LLC ways: 16
Off-chip DRAM Size: 4096 MB Channels: 1 Width: 64-bit Data Rate: 1600 MT/s

CPU 0 runs /scratch/user/djimenez/champsim-traces/speccpu2006/xz/465.tonto-44B.champsimtrace.xz
Heartbeat CPU 0 instructions: 10000000 cycles: 5235236 heartbeat IPC: 1.91013 cumulative IPC: 1.91013 (Simulation time: 0 hr 0 min 21 sec) 
Heartbeat CPU 0 instructions: 20000000 cycles: 10350747 heartbeat IPC: 1.95484 cumulative IPC: 1.93223 (Simulation time: 0 hr 0 min 41 sec) 
Heartbeat CPU 0 instructions: 30000000 cycles: 15790158 heartbeat IPC: 1.83843 cumulative IPC: 1.89992 (Simulation time: 0 hr 1 min 2 sec) 
Heartbeat CPU 0 instructions: 40000000 cycles: 20898661 heartbeat IPC: 1.95752 cumulative IPC: 1.914 (Simulation time: 0 hr 1 min 22 sec) 
Heartbeat CPU 0 instructions: 50000001 cycles: 26185928 heartbeat IPC: 1.89134 cumulative IPC: 1.90942 (Simulation time: 0 hr 1 min 42 sec) 
Heartbeat CPU 0 instructions: 60000000 cycles: 30986853 heartbeat IPC: 2.08293 cumulative IPC: 1.93631 (Simulation time: 0 hr 2 min 3 sec) 
Heartbeat CPU 0 instructions: 70000002 cycles: 35914225 heartbeat IPC: 2.02948 cumulative IPC: 1.94909 (Simulation time: 0 hr 2 min 22 sec) 
Heartbeat CPU 0 instructions: 80000000 cycles: 40755332 heartbeat IPC: 2.06564 cumulative IPC: 1.96293 (Simulation time: 0 hr 2 min 41 sec) 
Heartbeat CPU 0 instructions: 90000003 cycles: 45546796 heartbeat IPC: 2.08705 cumulative IPC: 1.97599 (Simulation time: 0 hr 3 min 0 sec) 
Heartbeat CPU 0 instructions: 100000000 cycles: 50789233 heartbeat IPC: 1.90751 cumulative IPC: 1.96892 (Simulation time: 0 hr 3 min 21 sec) 
Heartbeat CPU 0 instructions: 110000000 cycles: 56045106 heartbeat IPC: 1.90263 cumulative IPC: 1.9627 (Simulation time: 0 hr 3 min 42 sec) 
Heartbeat CPU 0 instructions: 120000000 cycles: 61321622 heartbeat IPC: 1.89519 cumulative IPC: 1.9569 (Simulation time: 0 hr 4 min 2 sec) 
Heartbeat CPU 0 instructions: 130000002 cycles: 66591358 heartbeat IPC: 1.89763 cumulative IPC: 1.95221 (Simulation time: 0 hr 4 min 23 sec) 
Heartbeat CPU 0 instructions: 140000000 cycles: 71963634 heartbeat IPC: 1.86141 cumulative IPC: 1.94543 (Simulation time: 0 hr 4 min 44 sec) 
Heartbeat CPU 0 instructions: 150000001 cycles: 77260229 heartbeat IPC: 1.88801 cumulative IPC: 1.94149 (Simulation time: 0 hr 5 min 5 sec) 
Heartbeat CPU 0 instructions: 160000000 cycles: 82553664 heartbeat IPC: 1.88913 cumulative IPC: 1.93813 (Simulation time: 0 hr 5 min 26 sec) 
Heartbeat CPU 0 instructions: 170000000 cycles: 87837651 heartbeat IPC: 1.89251 cumulative IPC: 1.93539 (Simulation time: 0 hr 5 min 47 sec) 
Heartbeat CPU 0 instructions: 180000000 cycles: 93751402 heartbeat IPC: 1.69097 cumulative IPC: 1.91997 (Simulation time: 0 hr 6 min 10 sec) 
Heartbeat CPU 0 instructions: 190000003 cycles: 99132201 heartbeat IPC: 1.85846 cumulative IPC: 1.91663 (Simulation time: 0 hr 6 min 31 sec) 
Heartbeat CPU 0 instructions: 200000000 cycles: 104655026 heartbeat IPC: 1.81067 cumulative IPC: 1.91104 (Simulation time: 0 hr 6 min 52 sec) 

Warmup complete CPU 0 instructions: 200000001 cycles: 104655030 (Simulation time: 0 hr 6 min 52 sec) 

Heartbeat CPU 0 instructions: 210000001 cycles: 122564346 heartbeat IPC: 0.558369 cumulative IPC: 0.558369 (Simulation time: 0 hr 7 min 25 sec) 
Heartbeat CPU 0 instructions: 220000000 cycles: 139302377 heartbeat IPC: 0.597442 cumulative IPC: 0.577245 (Simulation time: 0 hr 7 min 57 sec) 
Heartbeat CPU 0 instructions: 230000003 cycles: 155317556 heartbeat IPC: 0.624408 cumulative IPC: 0.592154 (Simulation time: 0 hr 8 min 29 sec) 
Heartbeat CPU 0 instructions: 240000000 cycles: 171018136 heartbeat IPC: 0.636919 cumulative IPC: 0.602745 (Simulation time: 0 hr 8 min 59 sec) 
Heartbeat CPU 0 instructions: 250000000 cycles: 187042813 heartbeat IPC: 0.624038 cumulative IPC: 0.606886 (Simulation time: 0 hr 9 min 30 sec) 
Heartbeat CPU 0 instructions: 260000000 cycles: 202443733 heartbeat IPC: 0.649312 cumulative IPC: 0.613568 (Simulation time: 0 hr 10 min 0 sec) 
Heartbeat CPU 0 instructions: 270000000 cycles: 218057882 heartbeat IPC: 0.640445 cumulative IPC: 0.617268 (Simulation time: 0 hr 10 min 30 sec) 
Heartbeat CPU 0 instructions: 280000000 cycles: 235888101 heartbeat IPC: 0.560846 cumulative IPC: 0.609602 (Simulation time: 0 hr 11 min 4 sec) 
Heartbeat CPU 0 instructions: 290000000 cycles: 253488379 heartbeat IPC: 0.568173 cumulative IPC: 0.604703 (Simulation time: 0 hr 11 min 37 sec) 
Heartbeat CPU 0 instructions: 300000000 cycles: 270660329 heartbeat IPC: 0.582345 cumulative IPC: 0.60239 (Simulation time: 0 hr 12 min 9 sec) 
Heartbeat CPU 0 instructions: 310000002 cycles: 286957446 heartbeat IPC: 0.613606 cumulative IPC: 0.603393 (Simulation time: 0 hr 12 min 41 sec) 
Heartbeat CPU 0 instructions: 320000000 cycles: 302884611 heartbeat IPC: 0.627858 cumulative IPC: 0.605359 (Simulation time: 0 hr 13 min 12 sec) 
Heartbeat CPU 0 instructions: 330000000 cycles: 318639324 heartbeat IPC: 0.634731 cumulative IPC: 0.607521 (Simulation time: 0 hr 13 min 43 sec) 
Heartbeat CPU 0 instructions: 340000000 cycles: 334041807 heartbeat IPC: 0.649246 cumulative IPC: 0.610323 (Simulation time: 0 hr 14 min 14 sec) 
Heartbeat CPU 0 instructions: 350000000 cycles: 350237348 heartbeat IPC: 0.617454 cumulative IPC: 0.610793 (Simulation time: 0 hr 14 min 44 sec) 
Heartbeat CPU 0 instructions: 360000000 cycles: 365296196 heartbeat IPC: 0.664061 cumulative IPC: 0.613871 (Simulation time: 0 hr 15 min 14 sec) 
Heartbeat CPU 0 instructions: 370000001 cycles: 380424874 heartbeat IPC: 0.660996 cumulative IPC: 0.616456 (Simulation time: 0 hr 15 min 44 sec) 
Heartbeat CPU 0 instructions: 380000000 cycles: 396621546 heartbeat IPC: 0.617411 cumulative IPC: 0.616509 (Simulation time: 0 hr 16 min 14 sec) 
Heartbeat CPU 0 instructions: 390000001 cycles: 413135133 heartbeat IPC: 0.605562 cumulative IPC: 0.615923 (Simulation time: 0 hr 16 min 46 sec) 
Heartbeat CPU 0 instructions: 400000000 cycles: 430671838 heartbeat IPC: 0.570233 cumulative IPC: 0.613465 (Simulation time: 0 hr 17 min 19 sec) 
Heartbeat CPU 0 instructions: 410000003 cycles: 448408007 heartbeat IPC: 0.56382 cumulative IPC: 0.610904 (Simulation time: 0 hr 17 min 52 sec) 
Heartbeat CPU 0 instructions: 420000000 cycles: 466561275 heartbeat IPC: 0.550865 cumulative IPC: 0.607892 (Simulation time: 0 hr 18 min 26 sec) 
Heartbeat CPU 0 instructions: 430000000 cycles: 483413604 heartbeat IPC: 0.59339 cumulative IPC: 0.607247 (Simulation time: 0 hr 18 min 58 sec) 
Heartbeat CPU 0 instructions: 440000000 cycles: 499401960 heartbeat IPC: 0.625455 cumulative IPC: 0.607984 (Simulation time: 0 hr 19 min 29 sec) 
Heartbeat CPU 0 instructions: 450000000 cycles: 515950127 heartbeat IPC: 0.604297 cumulative IPC: 0.607836 (Simulation time: 0 hr 20 min 1 sec) 
Heartbeat CPU 0 instructions: 460000000 cycles: 531892197 heartbeat IPC: 0.627271 cumulative IPC: 0.608561 (Simulation time: 0 hr 20 min 32 sec) 
Heartbeat CPU 0 instructions: 470000000 cycles: 547279041 heartbeat IPC: 0.649906 cumulative IPC: 0.609999 (Simulation time: 0 hr 21 min 2 sec) 
Heartbeat CPU 0 instructions: 480000000 cycles: 562994177 heartbeat IPC: 0.636329 cumulative IPC: 0.610901 (Simulation time: 0 hr 21 min 33 sec) 
Heartbeat CPU 0 instructions: 490000000 cycles: 578420075 heartbeat IPC: 0.64826 cumulative IPC: 0.612118 (Simulation time: 0 hr 22 min 4 sec) 
Heartbeat CPU 0 instructions: 500000000 cycles: 594538427 heartbeat IPC: 0.620411 cumulative IPC: 0.612391 (Simulation time: 0 hr 22 min 34 sec) 
Heartbeat CPU 0 instructions: 510000002 cycles: 609690440 heartbeat IPC: 0.659978 cumulative IPC: 0.613818 (Simulation time: 0 hr 23 min 4 sec) 
Heartbeat CPU 0 instructions: 520000000 cycles: 625076259 heartbeat IPC: 0.649949 cumulative IPC: 0.614887 (Simulation time: 0 hr 23 min 34 sec) 
Heartbeat CPU 0 instructions: 530000000 cycles: 640968283 heartbeat IPC: 0.629246 cumulative IPC: 0.615312 (Simulation time: 0 hr 24 min 4 sec) 
Heartbeat CPU 0 instructions: 540000000 cycles: 656538234 heartbeat IPC: 0.642263 cumulative IPC: 0.616072 (Simulation time: 0 hr 24 min 34 sec) 
Heartbeat CPU 0 instructions: 550000001 cycles: 672623780 heartbeat IPC: 0.621676 cumulative IPC: 0.616231 (Simulation time: 0 hr 25 min 5 sec) 
Heartbeat CPU 0 instructions: 560000000 cycles: 690709157 heartbeat IPC: 0.552933 cumulative IPC: 0.614278 (Simulation time: 0 hr 25 min 38 sec) 
Heartbeat CPU 0 instructions: 570000002 cycles: 709737141 heartbeat IPC: 0.525542 cumulative IPC: 0.611487 (Simulation time: 0 hr 26 min 12 sec) 
Heartbeat CPU 0 instructions: 580000000 cycles: 727866028 heartbeat IPC: 0.551606 cumulative IPC: 0.609745 (Simulation time: 0 hr 26 min 44 sec) 
Heartbeat CPU 0 instructions: 590000002 cycles: 746721219 heartbeat IPC: 0.530358 cumulative IPC: 0.607414 (Simulation time: 0 hr 27 min 18 sec) 
Heartbeat CPU 0 instructions: 600000000 cycles: 765119303 heartbeat IPC: 0.543535 cumulative IPC: 0.605635 (Simulation time: 0 hr 27 min 51 sec) 
Heartbeat CPU 0 instructions: 610000003 cycles: 782136356 heartbeat IPC: 0.587646 cumulative IPC: 0.605183 (Simulation time: 0 hr 28 min 24 sec) 
Heartbeat CPU 0 instructions: 620000000 cycles: 798179812 heartbeat IPC: 0.623307 cumulative IPC: 0.605602 (Simulation time: 0 hr 28 min 55 sec) 
Heartbeat CPU 0 instructions: 630000003 cycles: 814241520 heartbeat IPC: 0.622599 cumulative IPC: 0.605987 (Simulation time: 0 hr 29 min 26 sec) 
Heartbeat CPU 0 instructions: 640000000 cycles: 832420526 heartbeat IPC: 0.550085 cumulative IPC: 0.60459 (Simulation time: 0 hr 30 min 0 sec) 
Heartbeat CPU 0 instructions: 650000000 cycles: 848750551 heartbeat IPC: 0.612369 cumulative IPC: 0.604761 (Simulation time: 0 hr 30 min 31 sec) 
Heartbeat CPU 0 instructions: 660000000 cycles: 864570437 heartbeat IPC: 0.632116 cumulative IPC: 0.605331 (Simulation time: 0 hr 31 min 2 sec) 
Heartbeat CPU 0 instructions: 670000002 cycles: 880223054 heartbeat IPC: 0.638871 cumulative IPC: 0.606007 (Simulation time: 0 hr 31 min 33 sec) 
Heartbeat CPU 0 instructions: 680000000 cycles: 895766161 heartbeat IPC: 0.643372 cumulative IPC: 0.606742 (Simulation time: 0 hr 32 min 3 sec) 
Heartbeat CPU 0 instructions: 690000000 cycles: 911563039 heartbeat IPC: 0.633036 cumulative IPC: 0.607256 (Simulation time: 0 hr 32 min 33 sec) 
Heartbeat CPU 0 instructions: 700000000 cycles: 927520816 heartbeat IPC: 0.626654 cumulative IPC: 0.607633 (Simulation time: 0 hr 33 min 4 sec) 
Heartbeat CPU 0 instructions: 710000003 cycles: 945378595 heartbeat IPC: 0.55998 cumulative IPC: 0.60662 (Simulation time: 0 hr 33 min 38 sec) 
Heartbeat CPU 0 instructions: 720000000 cycles: 963523922 heartbeat IPC: 0.551106 cumulative IPC: 0.605447 (Simulation time: 0 hr 34 min 11 sec) 
Heartbeat CPU 0 instructions: 730000001 cycles: 979978832 heartbeat IPC: 0.607721 cumulative IPC: 0.60549 (Simulation time: 0 hr 34 min 43 sec) 
Heartbeat CPU 0 instructions: 740000000 cycles: 996294790 heartbeat IPC: 0.612897 cumulative IPC: 0.605626 (Simulation time: 0 hr 35 min 15 sec) 
Heartbeat CPU 0 instructions: 750000003 cycles: 1012095819 heartbeat IPC: 0.63287 cumulative IPC: 0.6061 (Simulation time: 0 hr 35 min 46 sec) 
Heartbeat CPU 0 instructions: 760000000 cycles: 1027561813 heartbeat IPC: 0.64658 cumulative IPC: 0.606779 (Simulation time: 0 hr 36 min 16 sec) 
Heartbeat CPU 0 instructions: 770000001 cycles: 1043035101 heartbeat IPC: 0.646275 cumulative IPC: 0.60743 (Simulation time: 0 hr 36 min 47 sec) 
Heartbeat CPU 0 instructions: 780000000 cycles: 1059085887 heartbeat IPC: 0.623022 cumulative IPC: 0.607692 (Simulation time: 0 hr 37 min 17 sec) 
Heartbeat CPU 0 instructions: 790000002 cycles: 1074667760 heartbeat IPC: 0.641771 cumulative IPC: 0.608239 (Simulation time: 0 hr 37 min 48 sec) 
Heartbeat CPU 0 instructions: 800000000 cycles: 1089823861 heartbeat IPC: 0.6598 cumulative IPC: 0.609033 (Simulation time: 0 hr 38 min 17 sec) 
Heartbeat CPU 0 instructions: 810000002 cycles: 1105168936 heartbeat IPC: 0.651675 cumulative IPC: 0.609687 (Simulation time: 0 hr 38 min 47 sec) 
Heartbeat CPU 0 instructions: 820000000 cycles: 1122638667 heartbeat IPC: 0.572419 cumulative IPC: 0.609047 (Simulation time: 0 hr 39 min 20 sec) 
Heartbeat CPU 0 instructions: 830000001 cycles: 1140524373 heartbeat IPC: 0.559106 cumulative IPC: 0.608185 (Simulation time: 0 hr 39 min 53 sec) 
Heartbeat CPU 0 instructions: 840000000 cycles: 1158218628 heartbeat IPC: 0.565155 cumulative IPC: 0.607462 (Simulation time: 0 hr 40 min 27 sec) 
Heartbeat CPU 0 instructions: 850000003 cycles: 1176351975 heartbeat IPC: 0.55147 cumulative IPC: 0.606515 (Simulation time: 0 hr 41 min 0 sec) 
Heartbeat CPU 0 instructions: 860000000 cycles: 1192466955 heartbeat IPC: 0.62054 cumulative IPC: 0.606723 (Simulation time: 0 hr 41 min 31 sec) 
Heartbeat CPU 0 instructions: 870000002 cycles: 1208796444 heartbeat IPC: 0.612389 cumulative IPC: 0.606806 (Simulation time: 0 hr 42 min 3 sec) 
Heartbeat CPU 0 instructions: 880000000 cycles: 1225096947 heartbeat IPC: 0.613478 cumulative IPC: 0.606903 (Simulation time: 0 hr 42 min 34 sec) 
Heartbeat CPU 0 instructions: 890000000 cycles: 1240874741 heartbeat IPC: 0.633802 cumulative IPC: 0.607277 (Simulation time: 0 hr 43 min 5 sec) 
Heartbeat CPU 0 instructions: 900000000 cycles: 1256350225 heartbeat IPC: 0.646183 cumulative IPC: 0.6078 (Simulation time: 0 hr 43 min 36 sec) 
Heartbeat CPU 0 instructions: 910000001 cycles: 1271860767 heartbeat IPC: 0.644723 cumulative IPC: 0.60829 (Simulation time: 0 hr 44 min 6 sec) 
Heartbeat CPU 0 instructions: 920000000 cycles: 1287398406 heartbeat IPC: 0.643598 cumulative IPC: 0.608754 (Simulation time: 0 hr 44 min 37 sec) 
Heartbeat CPU 0 instructions: 930000000 cycles: 1303369014 heartbeat IPC: 0.62615 cumulative IPC: 0.608986 (Simulation time: 0 hr 45 min 7 sec) 
Heartbeat CPU 0 instructions: 940000000 cycles: 1319055753 heartbeat IPC: 0.637481 cumulative IPC: 0.609354 (Simulation time: 0 hr 45 min 37 sec) 
Heartbeat CPU 0 instructions: 950000002 cycles: 1334106679 heartbeat IPC: 0.664411 cumulative IPC: 0.610028 (Simulation time: 0 hr 46 min 7 sec) 
Heartbeat CPU 0 instructions: 960000000 cycles: 1349593013 heartbeat IPC: 0.64573 cumulative IPC: 0.610472 (Simulation time: 0 hr 46 min 37 sec) 
Heartbeat CPU 0 instructions: 970000001 cycles: 1365549339 heartbeat IPC: 0.626711 cumulative IPC: 0.610678 (Simulation time: 0 hr 47 min 7 sec) 
Heartbeat CPU 0 instructions: 980000000 cycles: 1382169806 heartbeat IPC: 0.601668 cumulative IPC: 0.61056 (Simulation time: 0 hr 47 min 39 sec) 
Heartbeat CPU 0 instructions: 990000000 cycles: 1400988796 heartbeat IPC: 0.531378 cumulative IPC: 0.609411 (Simulation time: 0 hr 48 min 12 sec) 
Heartbeat CPU 0 instructions: 1000000000 cycles: 1419108432 heartbeat IPC: 0.551887 cumulative IPC: 0.608618 (Simulation time: 0 hr 48 min 45 sec) 
Heartbeat CPU 0 instructions: 1010000000 cycles: 1438152645 heartbeat IPC: 0.525094 cumulative IPC: 0.607425 (Simulation time: 0 hr 49 min 19 sec) 
Heartbeat CPU 0 instructions: 1020000000 cycles: 1456315496 heartbeat IPC: 0.550574 cumulative IPC: 0.606661 (Simulation time: 0 hr 49 min 52 sec) 
Heartbeat CPU 0 instructions: 1030000000 cycles: 1474727766 heartbeat IPC: 0.543116 cumulative IPC: 0.605807 (Simulation time: 0 hr 50 min 25 sec) 
Heartbeat CPU 0 instructions: 1040000000 cycles: 1491849185 heartbeat IPC: 0.584064 cumulative IPC: 0.605539 (Simulation time: 0 hr 50 min 56 sec) 
Heartbeat CPU 0 instructions: 1050000002 cycles: 1508975605 heartbeat IPC: 0.583893 cumulative IPC: 0.605275 (Simulation time: 0 hr 51 min 27 sec) 
Heartbeat CPU 0 instructions: 1060000000 cycles: 1526739168 heartbeat IPC: 0.56295 cumulative IPC: 0.604746 (Simulation time: 0 hr 51 min 59 sec) 
Heartbeat CPU 0 instructions: 1070000002 cycles: 1543796081 heartbeat IPC: 0.586273 cumulative IPC: 0.604527 (Simulation time: 0 hr 52 min 30 sec) 
Heartbeat CPU 0 instructions: 1080000000 cycles: 1561087588 heartbeat IPC: 0.578318 cumulative IPC: 0.604216 (Simulation time: 0 hr 53 min 2 sec) 
Heartbeat CPU 0 instructions: 1090000001 cycles: 1578403584 heartbeat IPC: 0.577501 cumulative IPC: 0.603902 (Simulation time: 0 hr 53 min 33 sec) 
Heartbeat CPU 0 instructions: 1100000000 cycles: 1594086500 heartbeat IPC: 0.637636 cumulative IPC: 0.604257 (Simulation time: 0 hr 54 min 3 sec) 
Heartbeat CPU 0 instructions: 1110000002 cycles: 1608498759 heartbeat IPC: 0.693854 cumulative IPC: 0.605116 (Simulation time: 0 hr 54 min 32 sec) 
Heartbeat CPU 0 instructions: 1120000000 cycles: 1622978731 heartbeat IPC: 0.690609 cumulative IPC: 0.605931 (Simulation time: 0 hr 55 min 1 sec) 
Heartbeat CPU 0 instructions: 1130000002 cycles: 1636994863 heartbeat IPC: 0.713464 cumulative IPC: 0.606915 (Simulation time: 0 hr 55 min 30 sec) 
Heartbeat CPU 0 instructions: 1140000000 cycles: 1650706853 heartbeat IPC: 0.729289 cumulative IPC: 0.608 (Simulation time: 0 hr 55 min 59 sec) 
Heartbeat CPU 0 instructions: 1150000000 cycles: 1664905303 heartbeat IPC: 0.704302 cumulative IPC: 0.608877 (Simulation time: 0 hr 56 min 29 sec) 
Heartbeat CPU 0 instructions: 1160000000 cycles: 1677888517 heartbeat IPC: 0.770225 cumulative IPC: 0.610208 (Simulation time: 0 hr 56 min 57 sec) 
Heartbeat CPU 0 instructions: 1170000002 cycles: 1690532859 heartbeat IPC: 0.790868 cumulative IPC: 0.611649 (Simulation time: 0 hr 57 min 24 sec) 
Heartbeat CPU 0 instructions: 1180000000 cycles: 1705919276 heartbeat IPC: 0.649924 cumulative IPC: 0.612016 (Simulation time: 0 hr 57 min 54 sec) 
Heartbeat CPU 0 instructions: 1190000003 cycles: 1723089538 heartbeat IPC: 0.582402 cumulative IPC: 0.611702 (Simulation time: 0 hr 58 min 25 sec) 
Heartbeat CPU 0 instructions: 1200000000 cycles: 1740268277 heartbeat IPC: 0.582115 cumulative IPC: 0.611391 (Simulation time: 0 hr 58 min 56 sec) 
Finished CPU 0 instructions: 1000000001 cycles: 1635613255 cumulative IPC: 0.611391 (Simulation time: 0 hr 58 min 56 sec) 

CPU 0 Branch Prediction Accuracy: 98.6744% MPKI: 1.66213

ChampSim completed all CPUs

Region of Interest Statistics

CPU 0 cumulative IPC: 0.611391 instructions: 1000000001 cycles: 1635613255
L1D TOTAL     ACCESS:  336023346  HIT:  335443187  MISS:     580159
L1D LOAD      ACCESS:  208983245  HIT:  208554743  MISS:     428502
L1D RFO       ACCESS:  127040101  HIT:  126888444  MISS:     151657
L1D PREFETCH  ACCESS:          0  HIT:          0  MISS:          0
L1D WRITEBACK ACCESS:          0  HIT:          0  MISS:          0
L1D PREFETCH  REQUESTED:          0  ISSUED:          0  USEFUL:          0  USELESS:          0
L1I TOTAL     ACCESS:  297365145  HIT:  296937064  MISS:     428081
L1I LOAD      ACCESS:  297365145  HIT:  296937064  MISS:     428081
L1I RFO       ACCESS:          0  HIT:          0  MISS:          0
L1I PREFETCH  ACCESS:          0  HIT:          0  MISS:          0
L1I WRITEBACK ACCESS:          0  HIT:          0  MISS:          0
L1I PREFETCH  REQUESTED:          0  ISSUED:          0  USEFUL:          0  USELESS:          0
L2C TOTAL     ACCESS:    2100922  HIT:    1809702  MISS:     291220
L2C LOAD      ACCESS:     856568  HIT:     774119  MISS:      82449
L2C RFO       ACCESS:     151638  HIT:     141537  MISS:      10101
L2C PREFETCH  ACCESS:     864814  HIT:     669851  MISS:     194963
L2C WRITEBACK ACCESS:     227902  HIT:     224195  MISS:       3707
L2C PREFETCH  REQUESTED:    1849552  ISSUED:    1849399  USEFUL:     187494  USELESS:     125541
LLC TOTAL     ACCESS:     402964  HIT:     385581  MISS:      17383
LLC LOAD      ACCESS:      76194  HIT:      73976  MISS:       2218
LLC RFO       ACCESS:      10098  HIT:       9720  MISS:        378
LLC PREFETCH  ACCESS:     281201  HIT:     266421  MISS:      14780
LLC WRITEBACK ACCESS:      35471  HIT:      35464  MISS:          7
LLC PREFETCH  REQUESTED:          0  ISSUED:          0  USEFUL:       8165  USELESS:       3813
Major fault: 0 Minor fault: 650

Avg Lookahead Depth:	4.79743
TOTAL: 1.84955e+06	L2C: 1.55868e+06	LLC: 290875	GOOD_L2C: 957462
Printing all the perceptron weights to: perc_weights_0.csv

DRAM Statistics
 CHANNEL 0
 RQ ROW_BUFFER_HIT:      10315  ROW_BUFFER_MISS:       7039
 DBUS_CONGESTED:       6583
 WQ ROW_BUFFER_HIT:        803  ROW_BUFFER_MISS:       1962  FULL:          0

 AVG_CONGESTED_CYCLE: 13
