Initialize SIGNATURE TABLE
ST_SET: 1
ST_WAY: 256
ST_TAG_BIT: 16
ST_TAG_MASK: ffff

Initialize PATTERN TABLE
PT_SET: 512
PT_WAY: 4
SIG_DELTA_BIT: 7
C_SIG_BIT: 4
C_DELTA_BIT: 4

Initialize PREFETCH FILTER
FILTER_SET: 1024

Initialize PERCEPTRON
PERC_ENTRIES: 4096
PERC_FEATURES: 9

*** ChampSim Multicore Out-of-Order Simulator ***

Warmup Instructions: 200000000
Simulation Instructions: 1000000000
Number of CPUs: 1
LLC sets: 2048
LLC ways: 16
Off-chip DRAM Size: 4096 MB Channels: 1 Width: 64-bit Data Rate: 1600 MT/s

CPU 0 runs /scratch/user/djimenez/champsim-traces/speccpu2006/xz/483.xalancbmk-716B.champsimtrace.xz
Heartbeat CPU 0 instructions: 10000002 cycles: 4951844 heartbeat IPC: 2.01945 cumulative IPC: 2.01945 (Simulation time: 0 hr 0 min 13 sec) 
Heartbeat CPU 0 instructions: 20000000 cycles: 9836325 heartbeat IPC: 2.0473 cumulative IPC: 2.03328 (Simulation time: 0 hr 0 min 25 sec) 
Heartbeat CPU 0 instructions: 30000000 cycles: 14673625 heartbeat IPC: 2.06727 cumulative IPC: 2.04448 (Simulation time: 0 hr 0 min 37 sec) 
Heartbeat CPU 0 instructions: 40000000 cycles: 19286970 heartbeat IPC: 2.16762 cumulative IPC: 2.07394 (Simulation time: 0 hr 0 min 50 sec) 
Heartbeat CPU 0 instructions: 50000000 cycles: 24890468 heartbeat IPC: 1.7846 cumulative IPC: 2.0088 (Simulation time: 0 hr 1 min 9 sec) 
Heartbeat CPU 0 instructions: 60000000 cycles: 29922721 heartbeat IPC: 1.98718 cumulative IPC: 2.00517 (Simulation time: 0 hr 1 min 26 sec) 
Heartbeat CPU 0 instructions: 70000000 cycles: 35632403 heartbeat IPC: 1.75141 cumulative IPC: 1.9645 (Simulation time: 0 hr 1 min 45 sec) 
Heartbeat CPU 0 instructions: 80000000 cycles: 41139967 heartbeat IPC: 1.81568 cumulative IPC: 1.94458 (Simulation time: 0 hr 2 min 5 sec) 
Heartbeat CPU 0 instructions: 90000001 cycles: 46587843 heartbeat IPC: 1.83558 cumulative IPC: 1.93183 (Simulation time: 0 hr 2 min 23 sec) 
Heartbeat CPU 0 instructions: 100000000 cycles: 51705609 heartbeat IPC: 1.95398 cumulative IPC: 1.93403 (Simulation time: 0 hr 2 min 38 sec) 
Heartbeat CPU 0 instructions: 110000003 cycles: 56328583 heartbeat IPC: 2.16311 cumulative IPC: 1.95283 (Simulation time: 0 hr 2 min 51 sec) 
Heartbeat CPU 0 instructions: 120000000 cycles: 61822778 heartbeat IPC: 1.8201 cumulative IPC: 1.94103 (Simulation time: 0 hr 3 min 9 sec) 
Heartbeat CPU 0 instructions: 130000001 cycles: 67399169 heartbeat IPC: 1.79327 cumulative IPC: 1.92881 (Simulation time: 0 hr 3 min 29 sec) 
Heartbeat CPU 0 instructions: 140000000 cycles: 72744099 heartbeat IPC: 1.87093 cumulative IPC: 1.92455 (Simulation time: 0 hr 3 min 46 sec) 
Heartbeat CPU 0 instructions: 150000001 cycles: 78572322 heartbeat IPC: 1.71579 cumulative IPC: 1.90907 (Simulation time: 0 hr 4 min 7 sec) 
Heartbeat CPU 0 instructions: 160000000 cycles: 84095111 heartbeat IPC: 1.81068 cumulative IPC: 1.90261 (Simulation time: 0 hr 4 min 26 sec) 
Heartbeat CPU 0 instructions: 170000000 cycles: 88681276 heartbeat IPC: 2.18047 cumulative IPC: 1.91698 (Simulation time: 0 hr 4 min 39 sec) 
Heartbeat CPU 0 instructions: 180000000 cycles: 94319663 heartbeat IPC: 1.77356 cumulative IPC: 1.9084 (Simulation time: 0 hr 4 min 58 sec) 
Heartbeat CPU 0 instructions: 190000000 cycles: 99735850 heartbeat IPC: 1.84632 cumulative IPC: 1.90503 (Simulation time: 0 hr 5 min 17 sec) 
Heartbeat CPU 0 instructions: 200000000 cycles: 105163475 heartbeat IPC: 1.84243 cumulative IPC: 1.9018 (Simulation time: 0 hr 5 min 36 sec) 

Warmup complete CPU 0 instructions: 200000002 cycles: 105163477 (Simulation time: 0 hr 5 min 36 sec) 

Heartbeat CPU 0 instructions: 210000003 cycles: 117994220 heartbeat IPC: 0.779378 cumulative IPC: 0.779378 (Simulation time: 0 hr 6 min 3 sec) 
Heartbeat CPU 0 instructions: 220000000 cycles: 129182772 heartbeat IPC: 0.89377 cumulative IPC: 0.832664 (Simulation time: 0 hr 6 min 26 sec) 
Heartbeat CPU 0 instructions: 230000003 cycles: 147342654 heartbeat IPC: 0.550665 cumulative IPC: 0.711251 (Simulation time: 0 hr 6 min 54 sec) 
Heartbeat CPU 0 instructions: 240000000 cycles: 165274499 heartbeat IPC: 0.557667 cumulative IPC: 0.665435 (Simulation time: 0 hr 7 min 25 sec) 
Heartbeat CPU 0 instructions: 250000002 cycles: 181857211 heartbeat IPC: 0.603038 cumulative IPC: 0.651944 (Simulation time: 0 hr 7 min 56 sec) 
Heartbeat CPU 0 instructions: 260000000 cycles: 197419627 heartbeat IPC: 0.642574 cumulative IPC: 0.650363 (Simulation time: 0 hr 8 min 27 sec) 
Heartbeat CPU 0 instructions: 270000000 cycles: 208842655 heartbeat IPC: 0.875425 cumulative IPC: 0.67516 (Simulation time: 0 hr 8 min 52 sec) 
Heartbeat CPU 0 instructions: 280000000 cycles: 220419625 heartbeat IPC: 0.863784 cumulative IPC: 0.694106 (Simulation time: 0 hr 9 min 16 sec) 
Heartbeat CPU 0 instructions: 290000003 cycles: 239825503 heartbeat IPC: 0.515308 cumulative IPC: 0.66834 (Simulation time: 0 hr 9 min 46 sec) 
Heartbeat CPU 0 instructions: 300000000 cycles: 259142708 heartbeat IPC: 0.517673 cumulative IPC: 0.649438 (Simulation time: 0 hr 10 min 17 sec) 
Heartbeat CPU 0 instructions: 310000002 cycles: 278304877 heartbeat IPC: 0.521862 cumulative IPC: 0.635319 (Simulation time: 0 hr 10 min 49 sec) 
Heartbeat CPU 0 instructions: 320000000 cycles: 296049890 heartbeat IPC: 0.563538 cumulative IPC: 0.628646 (Simulation time: 0 hr 11 min 19 sec) 
Heartbeat CPU 0 instructions: 330000000 cycles: 312936007 heartbeat IPC: 0.592202 cumulative IPC: 0.625684 (Simulation time: 0 hr 11 min 50 sec) 
Heartbeat CPU 0 instructions: 340000000 cycles: 328762928 heartbeat IPC: 0.631835 cumulative IPC: 0.62612 (Simulation time: 0 hr 12 min 20 sec) 
Heartbeat CPU 0 instructions: 350000003 cycles: 343822591 heartbeat IPC: 0.664026 cumulative IPC: 0.628511 (Simulation time: 0 hr 12 min 51 sec) 
Heartbeat CPU 0 instructions: 360000000 cycles: 356612587 heartbeat IPC: 0.781861 cumulative IPC: 0.636312 (Simulation time: 0 hr 13 min 18 sec) 
Heartbeat CPU 0 instructions: 370000000 cycles: 367169398 heartbeat IPC: 0.947256 cumulative IPC: 0.64884 (Simulation time: 0 hr 13 min 42 sec) 
Heartbeat CPU 0 instructions: 380000000 cycles: 378622392 heartbeat IPC: 0.873134 cumulative IPC: 0.658234 (Simulation time: 0 hr 14 min 6 sec) 
Heartbeat CPU 0 instructions: 390000000 cycles: 397423170 heartbeat IPC: 0.531893 cumulative IPC: 0.650107 (Simulation time: 0 hr 14 min 34 sec) 
Heartbeat CPU 0 instructions: 400000000 cycles: 416501789 heartbeat IPC: 0.524147 cumulative IPC: 0.642388 (Simulation time: 0 hr 15 min 5 sec) 
Heartbeat CPU 0 instructions: 410000001 cycles: 433693410 heartbeat IPC: 0.581679 cumulative IPC: 0.639211 (Simulation time: 0 hr 15 min 36 sec) 
Heartbeat CPU 0 instructions: 420000000 cycles: 449734321 heartbeat IPC: 0.623406 cumulative IPC: 0.638475 (Simulation time: 0 hr 16 min 7 sec) 
Heartbeat CPU 0 instructions: 430000003 cycles: 465039612 heartbeat IPC: 0.653369 cumulative IPC: 0.639109 (Simulation time: 0 hr 16 min 37 sec) 
Heartbeat CPU 0 instructions: 440000000 cycles: 479729361 heartbeat IPC: 0.680747 cumulative IPC: 0.640742 (Simulation time: 0 hr 17 min 7 sec) 
Heartbeat CPU 0 instructions: 450000000 cycles: 491372481 heartbeat IPC: 0.858876 cumulative IPC: 0.647318 (Simulation time: 0 hr 17 min 33 sec) 
Heartbeat CPU 0 instructions: 460000000 cycles: 502007036 heartbeat IPC: 0.940331 cumulative IPC: 0.65517 (Simulation time: 0 hr 17 min 57 sec) 
Heartbeat CPU 0 instructions: 470000001 cycles: 513262159 heartbeat IPC: 0.888484 cumulative IPC: 0.661605 (Simulation time: 0 hr 18 min 21 sec) 
Heartbeat CPU 0 instructions: 480000000 cycles: 529507980 heartbeat IPC: 0.615543 cumulative IPC: 0.659841 (Simulation time: 0 hr 18 min 47 sec) 
Heartbeat CPU 0 instructions: 490000003 cycles: 548117575 heartbeat IPC: 0.537357 cumulative IPC: 0.654695 (Simulation time: 0 hr 19 min 19 sec) 
Heartbeat CPU 0 instructions: 500000000 cycles: 562357699 heartbeat IPC: 0.702241 cumulative IPC: 0.656176 (Simulation time: 0 hr 19 min 47 sec) 
Heartbeat CPU 0 instructions: 510000001 cycles: 581879418 heartbeat IPC: 0.51225 cumulative IPC: 0.650282 (Simulation time: 0 hr 20 min 17 sec) 
Heartbeat CPU 0 instructions: 520000000 cycles: 599137671 heartbeat IPC: 0.579433 cumulative IPC: 0.647807 (Simulation time: 0 hr 20 min 47 sec) 
Heartbeat CPU 0 instructions: 530000000 cycles: 616349013 heartbeat IPC: 0.581012 cumulative IPC: 0.645558 (Simulation time: 0 hr 21 min 17 sec) 
Heartbeat CPU 0 instructions: 540000000 cycles: 638439423 heartbeat IPC: 0.452685 cumulative IPC: 0.637569 (Simulation time: 0 hr 21 min 50 sec) 
Heartbeat CPU 0 instructions: 550000003 cycles: 657122215 heartbeat IPC: 0.535252 cumulative IPC: 0.634105 (Simulation time: 0 hr 22 min 22 sec) 
Heartbeat CPU 0 instructions: 560000000 cycles: 671291349 heartbeat IPC: 0.705759 cumulative IPC: 0.635899 (Simulation time: 0 hr 22 min 50 sec) 
Heartbeat CPU 0 instructions: 570000000 cycles: 689683542 heartbeat IPC: 0.543709 cumulative IPC: 0.632998 (Simulation time: 0 hr 23 min 19 sec) 
Heartbeat CPU 0 instructions: 580000000 cycles: 710580669 heartbeat IPC: 0.478535 cumulative IPC: 0.627666 (Simulation time: 0 hr 23 min 53 sec) 
Heartbeat CPU 0 instructions: 590000003 cycles: 725701496 heartbeat IPC: 0.66134 cumulative IPC: 0.628487 (Simulation time: 0 hr 24 min 21 sec) 
Heartbeat CPU 0 instructions: 600000000 cycles: 744903687 heartbeat IPC: 0.520774 cumulative IPC: 0.625254 (Simulation time: 0 hr 24 min 52 sec) 
Heartbeat CPU 0 instructions: 610000002 cycles: 762255768 heartbeat IPC: 0.5763 cumulative IPC: 0.623961 (Simulation time: 0 hr 25 min 23 sec) 
Heartbeat CPU 0 instructions: 620000000 cycles: 774696207 heartbeat IPC: 0.80383 cumulative IPC: 0.627303 (Simulation time: 0 hr 25 min 49 sec) 
Heartbeat CPU 0 instructions: 630000000 cycles: 796523306 heartbeat IPC: 0.458146 cumulative IPC: 0.621963 (Simulation time: 0 hr 26 min 20 sec) 
Heartbeat CPU 0 instructions: 640000000 cycles: 815288674 heartbeat IPC: 0.532897 cumulative IPC: 0.619609 (Simulation time: 0 hr 26 min 52 sec) 
Heartbeat CPU 0 instructions: 650000000 cycles: 832000045 heartbeat IPC: 0.598395 cumulative IPC: 0.619121 (Simulation time: 0 hr 27 min 20 sec) 
Heartbeat CPU 0 instructions: 660000000 cycles: 849956824 heartbeat IPC: 0.556893 cumulative IPC: 0.617621 (Simulation time: 0 hr 27 min 52 sec) 
Heartbeat CPU 0 instructions: 670000000 cycles: 862913439 heartbeat IPC: 0.771807 cumulative IPC: 0.620257 (Simulation time: 0 hr 28 min 18 sec) 
Heartbeat CPU 0 instructions: 680000000 cycles: 883708139 heartbeat IPC: 0.480892 cumulative IPC: 0.616535 (Simulation time: 0 hr 28 min 50 sec) 
Heartbeat CPU 0 instructions: 690000003 cycles: 900487407 heartbeat IPC: 0.595974 cumulative IPC: 0.616101 (Simulation time: 0 hr 29 min 21 sec) 
Heartbeat CPU 0 instructions: 700000000 cycles: 916262407 heartbeat IPC: 0.633914 cumulative IPC: 0.616448 (Simulation time: 0 hr 29 min 51 sec) 
Heartbeat CPU 0 instructions: 710000001 cycles: 931368552 heartbeat IPC: 0.661982 cumulative IPC: 0.61728 (Simulation time: 0 hr 30 min 21 sec) 
Heartbeat CPU 0 instructions: 720000000 cycles: 945984123 heartbeat IPC: 0.684202 cumulative IPC: 0.618443 (Simulation time: 0 hr 30 min 51 sec) 
Heartbeat CPU 0 instructions: 730000000 cycles: 960207076 heartbeat IPC: 0.703089 cumulative IPC: 0.619851 (Simulation time: 0 hr 31 min 21 sec) 
Heartbeat CPU 0 instructions: 740000000 cycles: 971150607 heartbeat IPC: 0.913782 cumulative IPC: 0.623566 (Simulation time: 0 hr 31 min 46 sec) 
Heartbeat CPU 0 instructions: 750000002 cycles: 981685687 heartbeat IPC: 0.94921 cumulative IPC: 0.62748 (Simulation time: 0 hr 32 min 10 sec) 
Heartbeat CPU 0 instructions: 760000000 cycles: 992508747 heartbeat IPC: 0.923953 cumulative IPC: 0.631096 (Simulation time: 0 hr 32 min 34 sec) 
Heartbeat CPU 0 instructions: 770000001 cycles: 1003890956 heartbeat IPC: 0.878564 cumulative IPC: 0.63423 (Simulation time: 0 hr 32 min 58 sec) 
Heartbeat CPU 0 instructions: 780000000 cycles: 1023204911 heartbeat IPC: 0.51776 cumulative IPC: 0.63178 (Simulation time: 0 hr 33 min 26 sec) 
Heartbeat CPU 0 instructions: 790000001 cycles: 1041673622 heartbeat IPC: 0.541456 cumulative IPC: 0.629999 (Simulation time: 0 hr 33 min 59 sec) 
Heartbeat CPU 0 instructions: 800000000 cycles: 1055270372 heartbeat IPC: 0.73547 cumulative IPC: 0.631508 (Simulation time: 0 hr 34 min 25 sec) 
Heartbeat CPU 0 instructions: 810000000 cycles: 1074619304 heartbeat IPC: 0.516824 cumulative IPC: 0.629219 (Simulation time: 0 hr 34 min 56 sec) 
Heartbeat CPU 0 instructions: 820000000 cycles: 1091721716 heartbeat IPC: 0.584713 cumulative IPC: 0.628447 (Simulation time: 0 hr 35 min 28 sec) 
Heartbeat CPU 0 instructions: 830000002 cycles: 1105438233 heartbeat IPC: 0.729048 cumulative IPC: 0.629827 (Simulation time: 0 hr 35 min 55 sec) 
Heartbeat CPU 0 instructions: 840000000 cycles: 1118820827 heartbeat IPC: 0.747239 cumulative IPC: 0.631377 (Simulation time: 0 hr 36 min 20 sec) 
Heartbeat CPU 0 instructions: 850000002 cycles: 1140175673 heartbeat IPC: 0.468278 cumulative IPC: 0.628012 (Simulation time: 0 hr 36 min 53 sec) 
Heartbeat CPU 0 instructions: 860000000 cycles: 1156846529 heartbeat IPC: 0.599849 cumulative IPC: 0.627566 (Simulation time: 0 hr 37 min 23 sec) 
Heartbeat CPU 0 instructions: 870000003 cycles: 1172892969 heartbeat IPC: 0.623191 cumulative IPC: 0.6275 (Simulation time: 0 hr 37 min 51 sec) 
Heartbeat CPU 0 instructions: 880000000 cycles: 1189353859 heartbeat IPC: 0.6075 cumulative IPC: 0.627196 (Simulation time: 0 hr 38 min 21 sec) 
Heartbeat CPU 0 instructions: 890000000 cycles: 1204995239 heartbeat IPC: 0.63933 cumulative IPC: 0.627369 (Simulation time: 0 hr 38 min 51 sec) 
Heartbeat CPU 0 instructions: 900000000 cycles: 1219935311 heartbeat IPC: 0.669341 cumulative IPC: 0.627931 (Simulation time: 0 hr 39 min 21 sec) 
Heartbeat CPU 0 instructions: 910000001 cycles: 1234387834 heartbeat IPC: 0.691921 cumulative IPC: 0.62875 (Simulation time: 0 hr 39 min 51 sec) 
Heartbeat CPU 0 instructions: 920000000 cycles: 1248619116 heartbeat IPC: 0.702677 cumulative IPC: 0.62967 (Simulation time: 0 hr 40 min 20 sec) 
Heartbeat CPU 0 instructions: 930000001 cycles: 1262529967 heartbeat IPC: 0.718863 cumulative IPC: 0.630742 (Simulation time: 0 hr 40 min 50 sec) 
Heartbeat CPU 0 instructions: 940000000 cycles: 1276198380 heartbeat IPC: 0.731614 cumulative IPC: 0.63192 (Simulation time: 0 hr 41 min 19 sec) 
Heartbeat CPU 0 instructions: 950000003 cycles: 1288222203 heartbeat IPC: 0.831683 cumulative IPC: 0.63395 (Simulation time: 0 hr 41 min 46 sec) 
Heartbeat CPU 0 instructions: 960000000 cycles: 1298540865 heartbeat IPC: 0.969118 cumulative IPC: 0.636848 (Simulation time: 0 hr 42 min 11 sec) 
Heartbeat CPU 0 instructions: 970000000 cycles: 1309046711 heartbeat IPC: 0.951851 cumulative IPC: 0.639597 (Simulation time: 0 hr 42 min 36 sec) 
Heartbeat CPU 0 instructions: 980000000 cycles: 1319600922 heartbeat IPC: 0.947489 cumulative IPC: 0.642273 (Simulation time: 0 hr 43 min 1 sec) 
Heartbeat CPU 0 instructions: 990000002 cycles: 1330118462 heartbeat IPC: 0.950793 cumulative IPC: 0.644922 (Simulation time: 0 hr 43 min 25 sec) 
Heartbeat CPU 0 instructions: 1000000000 cycles: 1341093119 heartbeat IPC: 0.91119 cumulative IPC: 0.647286 (Simulation time: 0 hr 43 min 49 sec) 
Heartbeat CPU 0 instructions: 1010000003 cycles: 1352952433 heartbeat IPC: 0.843219 cumulative IPC: 0.649148 (Simulation time: 0 hr 44 min 12 sec) 
Heartbeat CPU 0 instructions: 1020000000 cycles: 1374620596 heartbeat IPC: 0.461506 cumulative IPC: 0.645945 (Simulation time: 0 hr 44 min 44 sec) 
Heartbeat CPU 0 instructions: 1030000003 cycles: 1394008965 heartbeat IPC: 0.515773 cumulative IPC: 0.643987 (Simulation time: 0 hr 45 min 15 sec) 
Heartbeat CPU 0 instructions: 1040000000 cycles: 1415816980 heartbeat IPC: 0.458547 cumulative IPC: 0.640902 (Simulation time: 0 hr 45 min 48 sec) 
Heartbeat CPU 0 instructions: 1050000003 cycles: 1433870206 heartbeat IPC: 0.553918 cumulative IPC: 0.63972 (Simulation time: 0 hr 46 min 20 sec) 
Heartbeat CPU 0 instructions: 1060000000 cycles: 1447937922 heartbeat IPC: 0.710847 cumulative IPC: 0.640465 (Simulation time: 0 hr 46 min 48 sec) 
Heartbeat CPU 0 instructions: 1070000003 cycles: 1466223443 heartbeat IPC: 0.546881 cumulative IPC: 0.639208 (Simulation time: 0 hr 47 min 16 sec) 
Heartbeat CPU 0 instructions: 1080000000 cycles: 1485059124 heartbeat IPC: 0.530907 cumulative IPC: 0.637729 (Simulation time: 0 hr 47 min 48 sec) 
Heartbeat CPU 0 instructions: 1090000002 cycles: 1504505694 heartbeat IPC: 0.51423 cumulative IPC: 0.636013 (Simulation time: 0 hr 48 min 20 sec) 
Heartbeat CPU 0 instructions: 1100000000 cycles: 1524151968 heartbeat IPC: 0.509002 cumulative IPC: 0.634255 (Simulation time: 0 hr 48 min 51 sec) 
Heartbeat CPU 0 instructions: 1110000000 cycles: 1541731407 heartbeat IPC: 0.568846 cumulative IPC: 0.633454 (Simulation time: 0 hr 49 min 23 sec) 
Heartbeat CPU 0 instructions: 1120000000 cycles: 1554743167 heartbeat IPC: 0.768536 cumulative IPC: 0.634667 (Simulation time: 0 hr 49 min 49 sec) 
Heartbeat CPU 0 instructions: 1130000001 cycles: 1572796150 heartbeat IPC: 0.553925 cumulative IPC: 0.633674 (Simulation time: 0 hr 50 min 19 sec) 
Heartbeat CPU 0 instructions: 1140000000 cycles: 1591730388 heartbeat IPC: 0.528144 cumulative IPC: 0.632329 (Simulation time: 0 hr 50 min 50 sec) 
Heartbeat CPU 0 instructions: 1150000001 cycles: 1613113898 heartbeat IPC: 0.46765 cumulative IPC: 0.629994 (Simulation time: 0 hr 51 min 22 sec) 
Heartbeat CPU 0 instructions: 1160000000 cycles: 1630071926 heartbeat IPC: 0.589691 cumulative IPC: 0.629546 (Simulation time: 0 hr 51 min 53 sec) 
Heartbeat CPU 0 instructions: 1170000002 cycles: 1646042923 heartbeat IPC: 0.626135 cumulative IPC: 0.629511 (Simulation time: 0 hr 52 min 24 sec) 
Heartbeat CPU 0 instructions: 1180000000 cycles: 1661227435 heartbeat IPC: 0.658566 cumulative IPC: 0.629794 (Simulation time: 0 hr 52 min 54 sec) 
Heartbeat CPU 0 instructions: 1190000002 cycles: 1675949954 heartbeat IPC: 0.679232 cumulative IPC: 0.630258 (Simulation time: 0 hr 53 min 23 sec) 
Heartbeat CPU 0 instructions: 1200000000 cycles: 1690226590 heartbeat IPC: 0.700445 cumulative IPC: 0.63089 (Simulation time: 0 hr 53 min 53 sec) 
Finished CPU 0 instructions: 1000000001 cycles: 1585063126 cumulative IPC: 0.63089 (Simulation time: 0 hr 53 min 53 sec) 

CPU 0 Branch Prediction Accuracy: 99.2108% MPKI: 1.62777

ChampSim completed all CPUs

Region of Interest Statistics

CPU 0 cumulative IPC: 0.63089 instructions: 1000000001 cycles: 1585063126
L1D TOTAL     ACCESS:  216121914  HIT:  198600955  MISS:   17520959
L1D LOAD      ACCESS:  142215395  HIT:  126626372  MISS:   15589023
L1D RFO       ACCESS:   73906519  HIT:   71974583  MISS:    1931936
L1D PREFETCH  ACCESS:          0  HIT:          0  MISS:          0
L1D WRITEBACK ACCESS:          0  HIT:          0  MISS:          0
L1D PREFETCH  REQUESTED:          0  ISSUED:          0  USEFUL:          0  USELESS:          0
L1I TOTAL     ACCESS:  338605454  HIT:  337697312  MISS:     908142
L1I LOAD      ACCESS:  338605454  HIT:  337697312  MISS:     908142
L1I RFO       ACCESS:          0  HIT:          0  MISS:          0
L1I PREFETCH  ACCESS:          0  HIT:          0  MISS:          0
L1I WRITEBACK ACCESS:          0  HIT:          0  MISS:          0
L1I PREFETCH  REQUESTED:          0  ISSUED:          0  USEFUL:          0  USELESS:          0
L2C TOTAL     ACCESS:   34347464  HIT:   30654964  MISS:    3692500
L2C LOAD      ACCESS:   16496883  HIT:   15436558  MISS:    1060325
L2C RFO       ACCESS:    1931854  HIT:     375346  MISS:    1556508
L2C PREFETCH  ACCESS:   12912866  HIT:   11839831  MISS:    1073035
L2C WRITEBACK ACCESS:    3005861  HIT:    3003229  MISS:       2632
L2C PREFETCH  REQUESTED:   17221014  ISSUED:   17220838  USEFUL:     531325  USELESS:     765680
LLC TOTAL     ACCESS:    6969125  HIT:    4406287  MISS:    2562838
LLC LOAD      ACCESS:    1030597  HIT:     651154  MISS:     379443
LLC RFO       ACCESS:    1556007  HIT:     215784  MISS:    1340223
LLC PREFETCH  ACCESS:    2152273  HIT:    1315737  MISS:     836536
LLC WRITEBACK ACCESS:    2230248  HIT:    2223612  MISS:       6636
LLC PREFETCH  REQUESTED:          0  ISSUED:          0  USEFUL:     106287  USELESS:     928424
Major fault: 0 Minor fault: 43144

Avg Lookahead Depth:	3.46635
TOTAL: 1.7221e+07	L2C: 1.32673e+07	LLC: 3.95373e+06	GOOD_L2C: 7.68721e+06
Printing all the perceptron weights to: perc_weights_0.csv

DRAM Statistics
 CHANNEL 0
 RQ ROW_BUFFER_HIT:    1142694  ROW_BUFFER_MISS:    1412908
 DBUS_CONGESTED:    2314944
 WQ ROW_BUFFER_HIT:     327938  ROW_BUFFER_MISS:    1454303  FULL:          0

 AVG_CONGESTED_CYCLE: 13
