
*** ChampSim Multicore Out-of-Order Simulator ***

Warmup Instructions: 200000000
Simulation Instructions: 1000000000
Number of CPUs: 1
LLC sets: 2048
LLC ways: 16
Off-chip DRAM Size: 4096 MB Channels: 1 Width: 64-bit Data Rate: 1600 MT/s

CPU 0 runs /scratch/user/djimenez/champsim-traces/speccpu2017/xz/605.mcf_s/605.mcf_s-665B.champsimtrace.xz
L2C Best-offset prefetcher
Heartbeat CPU 0 instructions: 10000001 cycles: 6506325 heartbeat IPC: 1.53697 cumulative IPC: 1.53697 (Simulation time: 0 hr 0 min 14 sec) 
Heartbeat CPU 0 instructions: 20000000 cycles: 13000988 heartbeat IPC: 1.53973 cumulative IPC: 1.53834 (Simulation time: 0 hr 0 min 27 sec) 
Heartbeat CPU 0 instructions: 30000001 cycles: 19487567 heartbeat IPC: 1.54164 cumulative IPC: 1.53944 (Simulation time: 0 hr 0 min 41 sec) 
Heartbeat CPU 0 instructions: 40000000 cycles: 25988941 heartbeat IPC: 1.53814 cumulative IPC: 1.53912 (Simulation time: 0 hr 0 min 54 sec) 
Heartbeat CPU 0 instructions: 50000000 cycles: 32495058 heartbeat IPC: 1.53702 cumulative IPC: 1.5387 (Simulation time: 0 hr 1 min 7 sec) 
Heartbeat CPU 0 instructions: 60000000 cycles: 38995958 heartbeat IPC: 1.53825 cumulative IPC: 1.53862 (Simulation time: 0 hr 1 min 21 sec) 
Heartbeat CPU 0 instructions: 70000002 cycles: 45517711 heartbeat IPC: 1.53333 cumulative IPC: 1.53786 (Simulation time: 0 hr 1 min 34 sec) 
Heartbeat CPU 0 instructions: 80000000 cycles: 52023124 heartbeat IPC: 1.53718 cumulative IPC: 1.53778 (Simulation time: 0 hr 1 min 48 sec) 
Heartbeat CPU 0 instructions: 90000002 cycles: 58539736 heartbeat IPC: 1.53454 cumulative IPC: 1.53742 (Simulation time: 0 hr 2 min 1 sec) 
Heartbeat CPU 0 instructions: 100000000 cycles: 65084033 heartbeat IPC: 1.52805 cumulative IPC: 1.53648 (Simulation time: 0 hr 2 min 14 sec) 
Heartbeat CPU 0 instructions: 110000000 cycles: 71622151 heartbeat IPC: 1.52949 cumulative IPC: 1.53584 (Simulation time: 0 hr 2 min 27 sec) 
Heartbeat CPU 0 instructions: 120000000 cycles: 78170413 heartbeat IPC: 1.52712 cumulative IPC: 1.53511 (Simulation time: 0 hr 2 min 40 sec) 
Heartbeat CPU 0 instructions: 130000001 cycles: 84712641 heartbeat IPC: 1.52853 cumulative IPC: 1.5346 (Simulation time: 0 hr 2 min 53 sec) 
Heartbeat CPU 0 instructions: 140000000 cycles: 91284437 heartbeat IPC: 1.52165 cumulative IPC: 1.53367 (Simulation time: 0 hr 3 min 7 sec) 
Heartbeat CPU 0 instructions: 150000000 cycles: 97845921 heartbeat IPC: 1.52405 cumulative IPC: 1.53302 (Simulation time: 0 hr 3 min 20 sec) 
Heartbeat CPU 0 instructions: 160000000 cycles: 104400795 heartbeat IPC: 1.52558 cumulative IPC: 1.53256 (Simulation time: 0 hr 3 min 33 sec) 
Heartbeat CPU 0 instructions: 170000003 cycles: 110977915 heartbeat IPC: 1.52042 cumulative IPC: 1.53184 (Simulation time: 0 hr 3 min 46 sec) 
Heartbeat CPU 0 instructions: 180000000 cycles: 117552661 heartbeat IPC: 1.52097 cumulative IPC: 1.53123 (Simulation time: 0 hr 3 min 59 sec) 
Heartbeat CPU 0 instructions: 190000001 cycles: 124112141 heartbeat IPC: 1.52451 cumulative IPC: 1.53087 (Simulation time: 0 hr 4 min 12 sec) 
Heartbeat CPU 0 instructions: 200000000 cycles: 130669222 heartbeat IPC: 1.52507 cumulative IPC: 1.53058 (Simulation time: 0 hr 4 min 25 sec) 

Warmup complete CPU 0 instructions: 200000002 cycles: 130669223 (Simulation time: 0 hr 4 min 25 sec) 

Heartbeat CPU 0 instructions: 210000002 cycles: 161191648 heartbeat IPC: 0.327628 cumulative IPC: 0.327628 (Simulation time: 0 hr 4 min 51 sec) 
Heartbeat CPU 0 instructions: 220000000 cycles: 191225467 heartbeat IPC: 0.332958 cumulative IPC: 0.330271 (Simulation time: 0 hr 5 min 17 sec) 
Heartbeat CPU 0 instructions: 230000002 cycles: 222278852 heartbeat IPC: 0.322026 cumulative IPC: 0.327477 (Simulation time: 0 hr 5 min 43 sec) 
Heartbeat CPU 0 instructions: 240000000 cycles: 252196131 heartbeat IPC: 0.334255 cumulative IPC: 0.329145 (Simulation time: 0 hr 6 min 9 sec) 
Heartbeat CPU 0 instructions: 250000002 cycles: 282448357 heartbeat IPC: 0.330554 cumulative IPC: 0.329426 (Simulation time: 0 hr 6 min 35 sec) 
Heartbeat CPU 0 instructions: 260000000 cycles: 312818857 heartbeat IPC: 0.329267 cumulative IPC: 0.329399 (Simulation time: 0 hr 7 min 1 sec) 
Heartbeat CPU 0 instructions: 270000003 cycles: 343126972 heartbeat IPC: 0.329945 cumulative IPC: 0.329477 (Simulation time: 0 hr 7 min 27 sec) 
Heartbeat CPU 0 instructions: 280000000 cycles: 373434536 heartbeat IPC: 0.329951 cumulative IPC: 0.329536 (Simulation time: 0 hr 7 min 53 sec) 
Heartbeat CPU 0 instructions: 290000000 cycles: 403491270 heartbeat IPC: 0.332704 cumulative IPC: 0.329885 (Simulation time: 0 hr 8 min 19 sec) 
Heartbeat CPU 0 instructions: 300000000 cycles: 433627498 heartbeat IPC: 0.331827 cumulative IPC: 0.330078 (Simulation time: 0 hr 8 min 45 sec) 
Heartbeat CPU 0 instructions: 310000001 cycles: 462461540 heartbeat IPC: 0.346812 cumulative IPC: 0.331533 (Simulation time: 0 hr 9 min 11 sec) 
Heartbeat CPU 0 instructions: 320000000 cycles: 492041671 heartbeat IPC: 0.338065 cumulative IPC: 0.332067 (Simulation time: 0 hr 9 min 38 sec) 
Heartbeat CPU 0 instructions: 330000002 cycles: 521230623 heartbeat IPC: 0.342595 cumulative IPC: 0.332854 (Simulation time: 0 hr 10 min 4 sec) 
Heartbeat CPU 0 instructions: 340000000 cycles: 550329710 heartbeat IPC: 0.343653 cumulative IPC: 0.333603 (Simulation time: 0 hr 10 min 30 sec) 
Heartbeat CPU 0 instructions: 350000001 cycles: 579446819 heartbeat IPC: 0.343441 cumulative IPC: 0.334241 (Simulation time: 0 hr 10 min 56 sec) 
Heartbeat CPU 0 instructions: 360000000 cycles: 608442038 heartbeat IPC: 0.344884 cumulative IPC: 0.334887 (Simulation time: 0 hr 11 min 22 sec) 
Heartbeat CPU 0 instructions: 370000001 cycles: 637487173 heartbeat IPC: 0.344292 cumulative IPC: 0.335426 (Simulation time: 0 hr 11 min 48 sec) 
Heartbeat CPU 0 instructions: 380000000 cycles: 666713608 heartbeat IPC: 0.342156 cumulative IPC: 0.335793 (Simulation time: 0 hr 12 min 14 sec) 
Heartbeat CPU 0 instructions: 390000003 cycles: 695809584 heartbeat IPC: 0.34369 cumulative IPC: 0.3362 (Simulation time: 0 hr 12 min 41 sec) 
Heartbeat CPU 0 instructions: 400000000 cycles: 724971983 heartbeat IPC: 0.342907 cumulative IPC: 0.336529 (Simulation time: 0 hr 13 min 7 sec) 
Heartbeat CPU 0 instructions: 410000003 cycles: 754178194 heartbeat IPC: 0.342393 cumulative IPC: 0.336803 (Simulation time: 0 hr 13 min 33 sec) 
Heartbeat CPU 0 instructions: 420000000 cycles: 783480575 heartbeat IPC: 0.341269 cumulative IPC: 0.337004 (Simulation time: 0 hr 13 min 59 sec) 
Heartbeat CPU 0 instructions: 430000000 cycles: 812803339 heartbeat IPC: 0.341032 cumulative IPC: 0.337177 (Simulation time: 0 hr 14 min 25 sec) 
Heartbeat CPU 0 instructions: 440000000 cycles: 841995081 heartbeat IPC: 0.342563 cumulative IPC: 0.337398 (Simulation time: 0 hr 14 min 52 sec) 
Heartbeat CPU 0 instructions: 450000003 cycles: 871556782 heartbeat IPC: 0.338276 cumulative IPC: 0.337433 (Simulation time: 0 hr 15 min 18 sec) 
Heartbeat CPU 0 instructions: 460000000 cycles: 901311104 heartbeat IPC: 0.336086 cumulative IPC: 0.337381 (Simulation time: 0 hr 15 min 44 sec) 
Heartbeat CPU 0 instructions: 470000003 cycles: 931557355 heartbeat IPC: 0.33062 cumulative IPC: 0.337126 (Simulation time: 0 hr 16 min 11 sec) 
Heartbeat CPU 0 instructions: 480000000 cycles: 961397614 heartbeat IPC: 0.335118 cumulative IPC: 0.337054 (Simulation time: 0 hr 16 min 37 sec) 
Heartbeat CPU 0 instructions: 490000001 cycles: 991323559 heartbeat IPC: 0.334158 cumulative IPC: 0.336953 (Simulation time: 0 hr 17 min 3 sec) 
Heartbeat CPU 0 instructions: 500000000 cycles: 1021716088 heartbeat IPC: 0.329028 cumulative IPC: 0.336683 (Simulation time: 0 hr 17 min 29 sec) 
Heartbeat CPU 0 instructions: 510000003 cycles: 1051513441 heartbeat IPC: 0.3356 cumulative IPC: 0.336648 (Simulation time: 0 hr 17 min 56 sec) 
Heartbeat CPU 0 instructions: 520000000 cycles: 1081287237 heartbeat IPC: 0.335866 cumulative IPC: 0.336623 (Simulation time: 0 hr 18 min 22 sec) 
Heartbeat CPU 0 instructions: 530000002 cycles: 1111532026 heartbeat IPC: 0.330636 cumulative IPC: 0.336438 (Simulation time: 0 hr 18 min 48 sec) 
Heartbeat CPU 0 instructions: 540000000 cycles: 1141307416 heartbeat IPC: 0.335848 cumulative IPC: 0.336421 (Simulation time: 0 hr 19 min 15 sec) 
Heartbeat CPU 0 instructions: 550000002 cycles: 1171619184 heartbeat IPC: 0.329905 cumulative IPC: 0.336231 (Simulation time: 0 hr 19 min 41 sec) 
Heartbeat CPU 0 instructions: 560000000 cycles: 1202024058 heartbeat IPC: 0.328895 cumulative IPC: 0.336023 (Simulation time: 0 hr 20 min 7 sec) 
Heartbeat CPU 0 instructions: 570000001 cycles: 1238843659 heartbeat IPC: 0.271594 cumulative IPC: 0.333882 (Simulation time: 0 hr 20 min 36 sec) 
Heartbeat CPU 0 instructions: 580000000 cycles: 1270004786 heartbeat IPC: 0.320913 cumulative IPC: 0.333528 (Simulation time: 0 hr 21 min 3 sec) 
Heartbeat CPU 0 instructions: 590000001 cycles: 1301515024 heartbeat IPC: 0.317357 cumulative IPC: 0.333093 (Simulation time: 0 hr 21 min 29 sec) 
Heartbeat CPU 0 instructions: 600000000 cycles: 1332947127 heartbeat IPC: 0.318146 cumulative IPC: 0.332702 (Simulation time: 0 hr 21 min 56 sec) 
Heartbeat CPU 0 instructions: 610000000 cycles: 1364334316 heartbeat IPC: 0.318601 cumulative IPC: 0.332343 (Simulation time: 0 hr 22 min 23 sec) 
Heartbeat CPU 0 instructions: 620000000 cycles: 1395158957 heartbeat IPC: 0.324416 cumulative IPC: 0.33215 (Simulation time: 0 hr 22 min 50 sec) 
Heartbeat CPU 0 instructions: 630000000 cycles: 1426569669 heartbeat IPC: 0.318363 cumulative IPC: 0.331816 (Simulation time: 0 hr 23 min 16 sec) 
Heartbeat CPU 0 instructions: 640000000 cycles: 1457953464 heartbeat IPC: 0.318636 cumulative IPC: 0.331504 (Simulation time: 0 hr 23 min 43 sec) 
Heartbeat CPU 0 instructions: 650000003 cycles: 1488914585 heartbeat IPC: 0.322986 cumulative IPC: 0.33131 (Simulation time: 0 hr 24 min 10 sec) 
Heartbeat CPU 0 instructions: 660000000 cycles: 1520110553 heartbeat IPC: 0.320554 cumulative IPC: 0.331068 (Simulation time: 0 hr 24 min 36 sec) 
Heartbeat CPU 0 instructions: 670000000 cycles: 1551364196 heartbeat IPC: 0.319963 cumulative IPC: 0.330824 (Simulation time: 0 hr 25 min 3 sec) 
Heartbeat CPU 0 instructions: 680000000 cycles: 1582603877 heartbeat IPC: 0.320106 cumulative IPC: 0.330593 (Simulation time: 0 hr 25 min 30 sec) 
Heartbeat CPU 0 instructions: 690000000 cycles: 1613542794 heartbeat IPC: 0.323218 cumulative IPC: 0.33044 (Simulation time: 0 hr 25 min 56 sec) 
Heartbeat CPU 0 instructions: 700000000 cycles: 1644964552 heartbeat IPC: 0.318251 cumulative IPC: 0.330187 (Simulation time: 0 hr 26 min 23 sec) 
Heartbeat CPU 0 instructions: 710000000 cycles: 1676056397 heartbeat IPC: 0.321628 cumulative IPC: 0.330014 (Simulation time: 0 hr 26 min 50 sec) 
Heartbeat CPU 0 instructions: 720000000 cycles: 1707485043 heartbeat IPC: 0.318181 cumulative IPC: 0.329779 (Simulation time: 0 hr 27 min 17 sec) 
Heartbeat CPU 0 instructions: 730000003 cycles: 1739062392 heartbeat IPC: 0.316683 cumulative IPC: 0.329521 (Simulation time: 0 hr 27 min 44 sec) 
Heartbeat CPU 0 instructions: 740000000 cycles: 1770155973 heartbeat IPC: 0.32161 cumulative IPC: 0.329371 (Simulation time: 0 hr 28 min 11 sec) 
Heartbeat CPU 0 instructions: 750000000 cycles: 1801239409 heartbeat IPC: 0.321715 cumulative IPC: 0.329229 (Simulation time: 0 hr 28 min 38 sec) 
Heartbeat CPU 0 instructions: 760000000 cycles: 1832708168 heartbeat IPC: 0.317775 cumulative IPC: 0.329017 (Simulation time: 0 hr 29 min 5 sec) 
Heartbeat CPU 0 instructions: 770000001 cycles: 1864284483 heartbeat IPC: 0.316693 cumulative IPC: 0.328793 (Simulation time: 0 hr 29 min 31 sec) 
Heartbeat CPU 0 instructions: 780000000 cycles: 1895653030 heartbeat IPC: 0.318791 cumulative IPC: 0.328615 (Simulation time: 0 hr 29 min 58 sec) 
Heartbeat CPU 0 instructions: 790000000 cycles: 1927060064 heartbeat IPC: 0.3184 cumulative IPC: 0.328436 (Simulation time: 0 hr 30 min 25 sec) 
Heartbeat CPU 0 instructions: 800000000 cycles: 1959871008 heartbeat IPC: 0.304776 cumulative IPC: 0.328012 (Simulation time: 0 hr 30 min 53 sec) 
Heartbeat CPU 0 instructions: 810000002 cycles: 1992143879 heartbeat IPC: 0.309858 cumulative IPC: 0.327697 (Simulation time: 0 hr 31 min 21 sec) 
Heartbeat CPU 0 instructions: 820000000 cycles: 2024456062 heartbeat IPC: 0.309481 cumulative IPC: 0.327386 (Simulation time: 0 hr 31 min 49 sec) 
Heartbeat CPU 0 instructions: 830000003 cycles: 2056965059 heartbeat IPC: 0.307607 cumulative IPC: 0.327053 (Simulation time: 0 hr 32 min 17 sec) 
Heartbeat CPU 0 instructions: 840000000 cycles: 2089220336 heartbeat IPC: 0.310027 cumulative IPC: 0.326772 (Simulation time: 0 hr 32 min 45 sec) 
Heartbeat CPU 0 instructions: 850000000 cycles: 2122812750 heartbeat IPC: 0.297686 cumulative IPC: 0.326282 (Simulation time: 0 hr 33 min 14 sec) 
Heartbeat CPU 0 instructions: 860000000 cycles: 2155712419 heartbeat IPC: 0.303954 cumulative IPC: 0.325919 (Simulation time: 0 hr 33 min 43 sec) 
Heartbeat CPU 0 instructions: 870000001 cycles: 2188820803 heartbeat IPC: 0.302038 cumulative IPC: 0.325535 (Simulation time: 0 hr 34 min 12 sec) 
Heartbeat CPU 0 instructions: 880000000 cycles: 2221838029 heartbeat IPC: 0.302872 cumulative IPC: 0.325177 (Simulation time: 0 hr 34 min 41 sec) 
Heartbeat CPU 0 instructions: 890000001 cycles: 2255106427 heartbeat IPC: 0.300586 cumulative IPC: 0.324792 (Simulation time: 0 hr 35 min 10 sec) 
Heartbeat CPU 0 instructions: 900000000 cycles: 2288132409 heartbeat IPC: 0.302792 cumulative IPC: 0.324455 (Simulation time: 0 hr 35 min 40 sec) 
Heartbeat CPU 0 instructions: 910000000 cycles: 2320918844 heartbeat IPC: 0.305004 cumulative IPC: 0.324164 (Simulation time: 0 hr 36 min 9 sec) 
Heartbeat CPU 0 instructions: 920000000 cycles: 2354219333 heartbeat IPC: 0.300296 cumulative IPC: 0.323806 (Simulation time: 0 hr 36 min 38 sec) 
Heartbeat CPU 0 instructions: 930000000 cycles: 2387283137 heartbeat IPC: 0.302446 cumulative IPC: 0.323494 (Simulation time: 0 hr 37 min 7 sec) 
Heartbeat CPU 0 instructions: 940000000 cycles: 2420440475 heartbeat IPC: 0.301592 cumulative IPC: 0.323176 (Simulation time: 0 hr 37 min 37 sec) 
Heartbeat CPU 0 instructions: 950000000 cycles: 2453615161 heartbeat IPC: 0.301435 cumulative IPC: 0.322866 (Simulation time: 0 hr 38 min 6 sec) 
Heartbeat CPU 0 instructions: 960000000 cycles: 2486755511 heartbeat IPC: 0.301747 cumulative IPC: 0.322569 (Simulation time: 0 hr 38 min 35 sec) 
Heartbeat CPU 0 instructions: 970000002 cycles: 2520366649 heartbeat IPC: 0.29752 cumulative IPC: 0.322217 (Simulation time: 0 hr 39 min 5 sec) 
Heartbeat CPU 0 instructions: 980000000 cycles: 2553697131 heartbeat IPC: 0.300026 cumulative IPC: 0.321911 (Simulation time: 0 hr 39 min 34 sec) 
Heartbeat CPU 0 instructions: 990000001 cycles: 2586696496 heartbeat IPC: 0.303036 cumulative IPC: 0.321658 (Simulation time: 0 hr 40 min 3 sec) 
Heartbeat CPU 0 instructions: 1000000000 cycles: 2619571583 heartbeat IPC: 0.304182 cumulative IPC: 0.321427 (Simulation time: 0 hr 40 min 31 sec) 
Heartbeat CPU 0 instructions: 1010000001 cycles: 2652535745 heartbeat IPC: 0.30336 cumulative IPC: 0.321191 (Simulation time: 0 hr 41 min 0 sec) 
Heartbeat CPU 0 instructions: 1020000000 cycles: 2685660948 heartbeat IPC: 0.301885 cumulative IPC: 0.32094 (Simulation time: 0 hr 41 min 29 sec) 
Heartbeat CPU 0 instructions: 1030000000 cycles: 2718158579 heartbeat IPC: 0.307715 cumulative IPC: 0.320774 (Simulation time: 0 hr 41 min 58 sec) 
Heartbeat CPU 0 instructions: 1040000000 cycles: 2750875121 heartbeat IPC: 0.305656 cumulative IPC: 0.320585 (Simulation time: 0 hr 42 min 26 sec) 
Heartbeat CPU 0 instructions: 1050000003 cycles: 2783624715 heartbeat IPC: 0.305347 cumulative IPC: 0.320397 (Simulation time: 0 hr 42 min 54 sec) 
Heartbeat CPU 0 instructions: 1060000000 cycles: 2816203335 heartbeat IPC: 0.30695 cumulative IPC: 0.320234 (Simulation time: 0 hr 43 min 22 sec) 
Heartbeat CPU 0 instructions: 1070000001 cycles: 2848610127 heartbeat IPC: 0.308577 cumulative IPC: 0.320095 (Simulation time: 0 hr 43 min 50 sec) 
Heartbeat CPU 0 instructions: 1080000000 cycles: 2880969542 heartbeat IPC: 0.309029 cumulative IPC: 0.319965 (Simulation time: 0 hr 44 min 18 sec) 
Heartbeat CPU 0 instructions: 1090000001 cycles: 2913743373 heartbeat IPC: 0.305122 cumulative IPC: 0.31979 (Simulation time: 0 hr 44 min 46 sec) 
Heartbeat CPU 0 instructions: 1100000000 cycles: 2945673999 heartbeat IPC: 0.313179 cumulative IPC: 0.319715 (Simulation time: 0 hr 45 min 14 sec) 
Heartbeat CPU 0 instructions: 1110000001 cycles: 2977955316 heartbeat IPC: 0.309777 cumulative IPC: 0.319603 (Simulation time: 0 hr 45 min 42 sec) 
Heartbeat CPU 0 instructions: 1120000000 cycles: 3010823304 heartbeat IPC: 0.304247 cumulative IPC: 0.319427 (Simulation time: 0 hr 46 min 10 sec) 
Heartbeat CPU 0 instructions: 1130000003 cycles: 3043237831 heartbeat IPC: 0.308504 cumulative IPC: 0.319306 (Simulation time: 0 hr 46 min 38 sec) 
Heartbeat CPU 0 instructions: 1140000000 cycles: 3075557771 heartbeat IPC: 0.309406 cumulative IPC: 0.319197 (Simulation time: 0 hr 47 min 6 sec) 
Heartbeat CPU 0 instructions: 1150000000 cycles: 3108649501 heartbeat IPC: 0.30219 cumulative IPC: 0.319008 (Simulation time: 0 hr 47 min 34 sec) 
Heartbeat CPU 0 instructions: 1160000000 cycles: 3141000934 heartbeat IPC: 0.309105 cumulative IPC: 0.318902 (Simulation time: 0 hr 48 min 2 sec) 
Heartbeat CPU 0 instructions: 1170000000 cycles: 3173544212 heartbeat IPC: 0.307283 cumulative IPC: 0.318777 (Simulation time: 0 hr 48 min 30 sec) 
Heartbeat CPU 0 instructions: 1180000000 cycles: 3205344140 heartbeat IPC: 0.314466 cumulative IPC: 0.318733 (Simulation time: 0 hr 48 min 57 sec) 
Heartbeat CPU 0 instructions: 1190000001 cycles: 3238073172 heartbeat IPC: 0.305539 cumulative IPC: 0.318594 (Simulation time: 0 hr 49 min 25 sec) 
Heartbeat CPU 0 instructions: 1200000000 cycles: 3270526920 heartbeat IPC: 0.308131 cumulative IPC: 0.318486 (Simulation time: 0 hr 49 min 54 sec) 
Finished CPU 0 instructions: 1000000000 cycles: 3139857705 cumulative IPC: 0.318486 (Simulation time: 0 hr 49 min 54 sec) 

CPU 0 Branch Prediction Accuracy: 90.4608% MPKI: 18.9548

ChampSim completed all CPUs

Region of Interest Statistics

CPU 0 cumulative IPC: 0.318486 instructions: 1000000000 cycles: 3139857705
L1D TOTAL     ACCESS:  384673458  HIT:  340365893  MISS:   44307565
L1D LOAD      ACCESS:  275865693  HIT:  235441553  MISS:   40424140
L1D RFO       ACCESS:  108807765  HIT:  104924340  MISS:    3883425
L1D PREFETCH  ACCESS:          0  HIT:          0  MISS:          0
L1D WRITEBACK ACCESS:          0  HIT:          0  MISS:          0
L1D PREFETCH  REQUESTED:          0  ISSUED:          0  USEFUL:          0  USELESS:          0
L1I TOTAL     ACCESS:  242232742  HIT:  242232742  MISS:          0
L1I LOAD      ACCESS:  242232742  HIT:  242232742  MISS:          0
L1I RFO       ACCESS:          0  HIT:          0  MISS:          0
L1I PREFETCH  ACCESS:          0  HIT:          0  MISS:          0
L1I WRITEBACK ACCESS:          0  HIT:          0  MISS:          0
L1I PREFETCH  REQUESTED:          0  ISSUED:          0  USEFUL:          0  USELESS:          0
L2C TOTAL     ACCESS:   73833772  HIT:   26970797  MISS:   46862975
L2C LOAD      ACCESS:   40424049  HIT:   18593462  MISS:   21830587
L2C RFO       ACCESS:    3883319  HIT:     726172  MISS:    3157147
L2C PREFETCH  ACCESS:   23555103  HIT:    1694559  MISS:   21860544
L2C WRITEBACK ACCESS:    5971301  HIT:    5956604  MISS:      14697
L2C PREFETCH  REQUESTED:   29583523  ISSUED:   29583523  USEFUL:   10133942  USELESS:   15870128
LLC TOTAL     ACCESS:   52480953  HIT:   30386614  MISS:   22094339
LLC LOAD      ACCESS:   21630516  HIT:   15527149  MISS:    6103367
LLC RFO       ACCESS:    3157109  HIT:    3132579  MISS:      24530
LLC PREFETCH  ACCESS:   23131011  HIT:    7165172  MISS:   15965839
LLC WRITEBACK ACCESS:    4562317  HIT:    4561714  MISS:        603
LLC PREFETCH  REQUESTED:          0  ISSUED:          0  USEFUL:    2450497  USELESS:   16267373
Major fault: 0 Minor fault: 169569

L2C Best-offset prefetcher final stats

DRAM Statistics
 CHANNEL 0
 RQ ROW_BUFFER_HIT:    9209931  ROW_BUFFER_MISS:   12852766
 DBUS_CONGESTED:   10263429
 WQ ROW_BUFFER_HIT:      15583  ROW_BUFFER_MISS:     174447  FULL:          0

 AVG_CONGESTED_CYCLE: 12
