
*** ChampSim Multicore Out-of-Order Simulator ***

Warmup Instructions: 200000000
Simulation Instructions: 1000000000
Number of CPUs: 1
LLC sets: 2048
LLC ways: 16
Off-chip DRAM Size: 4096 MB Channels: 1 Width: 64-bit Data Rate: 1600 MT/s

CPU 0 runs /scratch/user/djimenez/champsim-traces/speccpu2017/xz/619.lbm_s/619.lbm_s-2676B.champsimtrace.xz
L2C Best-offset prefetcher
Heartbeat CPU 0 instructions: 10000000 cycles: 4852612 heartbeat IPC: 2.06075 cumulative IPC: 2.06075 (Simulation time: 0 hr 0 min 23 sec) 
Heartbeat CPU 0 instructions: 20000000 cycles: 9684108 heartbeat IPC: 2.06975 cumulative IPC: 2.06524 (Simulation time: 0 hr 0 min 45 sec) 
Heartbeat CPU 0 instructions: 30000003 cycles: 14489683 heartbeat IPC: 2.08092 cumulative IPC: 2.07044 (Simulation time: 0 hr 1 min 8 sec) 
Heartbeat CPU 0 instructions: 40000000 cycles: 19243823 heartbeat IPC: 2.10343 cumulative IPC: 2.07859 (Simulation time: 0 hr 1 min 30 sec) 
Heartbeat CPU 0 instructions: 50000002 cycles: 23952710 heartbeat IPC: 2.12364 cumulative IPC: 2.08745 (Simulation time: 0 hr 1 min 52 sec) 
Heartbeat CPU 0 instructions: 60000000 cycles: 28612578 heartbeat IPC: 2.14598 cumulative IPC: 2.09698 (Simulation time: 0 hr 2 min 14 sec) 
Heartbeat CPU 0 instructions: 70000000 cycles: 33229390 heartbeat IPC: 2.166 cumulative IPC: 2.10657 (Simulation time: 0 hr 2 min 36 sec) 
Heartbeat CPU 0 instructions: 80000000 cycles: 37769642 heartbeat IPC: 2.20252 cumulative IPC: 2.1181 (Simulation time: 0 hr 2 min 58 sec) 
Heartbeat CPU 0 instructions: 90000000 cycles: 42307145 heartbeat IPC: 2.20386 cumulative IPC: 2.1273 (Simulation time: 0 hr 3 min 20 sec) 
Heartbeat CPU 0 instructions: 100000000 cycles: 46797984 heartbeat IPC: 2.22676 cumulative IPC: 2.13684 (Simulation time: 0 hr 3 min 41 sec) 
Heartbeat CPU 0 instructions: 110000001 cycles: 51272581 heartbeat IPC: 2.23484 cumulative IPC: 2.1454 (Simulation time: 0 hr 4 min 3 sec) 
Heartbeat CPU 0 instructions: 120000000 cycles: 55711789 heartbeat IPC: 2.25265 cumulative IPC: 2.15394 (Simulation time: 0 hr 4 min 24 sec) 
Heartbeat CPU 0 instructions: 130000001 cycles: 60122451 heartbeat IPC: 2.26723 cumulative IPC: 2.16225 (Simulation time: 0 hr 4 min 46 sec) 
Heartbeat CPU 0 instructions: 140000000 cycles: 64526408 heartbeat IPC: 2.27068 cumulative IPC: 2.16965 (Simulation time: 0 hr 5 min 7 sec) 
Heartbeat CPU 0 instructions: 150000002 cycles: 68903816 heartbeat IPC: 2.28446 cumulative IPC: 2.17695 (Simulation time: 0 hr 5 min 28 sec) 
Heartbeat CPU 0 instructions: 160000000 cycles: 73255590 heartbeat IPC: 2.29791 cumulative IPC: 2.18413 (Simulation time: 0 hr 5 min 49 sec) 
Heartbeat CPU 0 instructions: 170000003 cycles: 77602894 heartbeat IPC: 2.30028 cumulative IPC: 2.19064 (Simulation time: 0 hr 6 min 10 sec) 
Heartbeat CPU 0 instructions: 180000000 cycles: 81948727 heartbeat IPC: 2.30105 cumulative IPC: 2.1965 (Simulation time: 0 hr 6 min 31 sec) 
Heartbeat CPU 0 instructions: 190000002 cycles: 86273210 heartbeat IPC: 2.31242 cumulative IPC: 2.20231 (Simulation time: 0 hr 6 min 53 sec) 
Heartbeat CPU 0 instructions: 200000000 cycles: 90593269 heartbeat IPC: 2.31478 cumulative IPC: 2.20767 (Simulation time: 0 hr 7 min 14 sec) 

Warmup complete CPU 0 instructions: 200000001 cycles: 90593271 (Simulation time: 0 hr 7 min 14 sec) 

Heartbeat CPU 0 instructions: 210000001 cycles: 101459767 heartbeat IPC: 0.92026 cumulative IPC: 0.92026 (Simulation time: 0 hr 7 min 42 sec) 
Heartbeat CPU 0 instructions: 220000000 cycles: 112760328 heartbeat IPC: 0.884912 cumulative IPC: 0.90224 (Simulation time: 0 hr 8 min 11 sec) 
Heartbeat CPU 0 instructions: 230000000 cycles: 123527719 heartbeat IPC: 0.92873 cumulative IPC: 0.9109 (Simulation time: 0 hr 8 min 39 sec) 
Heartbeat CPU 0 instructions: 240000000 cycles: 134603718 heartbeat IPC: 0.902853 cumulative IPC: 0.908875 (Simulation time: 0 hr 9 min 8 sec) 
Heartbeat CPU 0 instructions: 250000002 cycles: 145477560 heartbeat IPC: 0.919638 cumulative IPC: 0.911008 (Simulation time: 0 hr 9 min 36 sec) 
Heartbeat CPU 0 instructions: 260000000 cycles: 156394609 heartbeat IPC: 0.915998 cumulative IPC: 0.911836 (Simulation time: 0 hr 10 min 5 sec) 
Heartbeat CPU 0 instructions: 270000002 cycles: 167090466 heartbeat IPC: 0.934942 cumulative IPC: 0.915066 (Simulation time: 0 hr 10 min 33 sec) 
Heartbeat CPU 0 instructions: 280000000 cycles: 178087090 heartbeat IPC: 0.90937 cumulative IPC: 0.91435 (Simulation time: 0 hr 11 min 1 sec) 
Heartbeat CPU 0 instructions: 290000003 cycles: 188637060 heartbeat IPC: 0.94787 cumulative IPC: 0.917957 (Simulation time: 0 hr 11 min 30 sec) 
Heartbeat CPU 0 instructions: 300000000 cycles: 199396689 heartbeat IPC: 0.9294 cumulative IPC: 0.919089 (Simulation time: 0 hr 11 min 58 sec) 
Heartbeat CPU 0 instructions: 310000002 cycles: 210281002 heartbeat IPC: 0.918754 cumulative IPC: 0.919058 (Simulation time: 0 hr 12 min 26 sec) 
Heartbeat CPU 0 instructions: 320000000 cycles: 220903568 heartbeat IPC: 0.941392 cumulative IPC: 0.920879 (Simulation time: 0 hr 12 min 54 sec) 
Heartbeat CPU 0 instructions: 330000003 cycles: 231543791 heartbeat IPC: 0.93983 cumulative IPC: 0.92231 (Simulation time: 0 hr 13 min 23 sec) 
Heartbeat CPU 0 instructions: 340000000 cycles: 242624254 heartbeat IPC: 0.902489 cumulative IPC: 0.920865 (Simulation time: 0 hr 13 min 51 sec) 
Heartbeat CPU 0 instructions: 350000000 cycles: 253178481 heartbeat IPC: 0.947488 cumulative IPC: 0.922593 (Simulation time: 0 hr 14 min 20 sec) 
Heartbeat CPU 0 instructions: 360000000 cycles: 263979205 heartbeat IPC: 0.925864 cumulative IPC: 0.922797 (Simulation time: 0 hr 14 min 48 sec) 
Heartbeat CPU 0 instructions: 370000002 cycles: 275107341 heartbeat IPC: 0.898623 cumulative IPC: 0.921339 (Simulation time: 0 hr 15 min 17 sec) 
Heartbeat CPU 0 instructions: 380000000 cycles: 285431032 heartbeat IPC: 0.968646 cumulative IPC: 0.923846 (Simulation time: 0 hr 15 min 45 sec) 
Heartbeat CPU 0 instructions: 390000001 cycles: 296182828 heartbeat IPC: 0.930077 cumulative IPC: 0.924171 (Simulation time: 0 hr 16 min 13 sec) 
Heartbeat CPU 0 instructions: 400000000 cycles: 306862927 heartbeat IPC: 0.936321 cumulative IPC: 0.924771 (Simulation time: 0 hr 16 min 41 sec) 
Heartbeat CPU 0 instructions: 410000003 cycles: 317867278 heartbeat IPC: 0.908732 cumulative IPC: 0.923995 (Simulation time: 0 hr 17 min 10 sec) 
Heartbeat CPU 0 instructions: 420000000 cycles: 328521176 heartbeat IPC: 0.938623 cumulative IPC: 0.92465 (Simulation time: 0 hr 17 min 38 sec) 
Heartbeat CPU 0 instructions: 430000002 cycles: 339197157 heartbeat IPC: 0.936682 cumulative IPC: 0.925167 (Simulation time: 0 hr 18 min 6 sec) 
Heartbeat CPU 0 instructions: 440000000 cycles: 349782945 heartbeat IPC: 0.944663 cumulative IPC: 0.925963 (Simulation time: 0 hr 18 min 34 sec) 
Heartbeat CPU 0 instructions: 450000002 cycles: 360608918 heartbeat IPC: 0.923705 cumulative IPC: 0.925872 (Simulation time: 0 hr 19 min 3 sec) 
Heartbeat CPU 0 instructions: 460000000 cycles: 371143611 heartbeat IPC: 0.949244 cumulative IPC: 0.92675 (Simulation time: 0 hr 19 min 31 sec) 
Heartbeat CPU 0 instructions: 470000001 cycles: 381829608 heartbeat IPC: 0.935804 cumulative IPC: 0.927082 (Simulation time: 0 hr 19 min 59 sec) 
Heartbeat CPU 0 instructions: 480000000 cycles: 392438193 heartbeat IPC: 0.942633 cumulative IPC: 0.927629 (Simulation time: 0 hr 20 min 27 sec) 
Heartbeat CPU 0 instructions: 490000001 cycles: 403107042 heartbeat IPC: 0.937308 cumulative IPC: 0.927959 (Simulation time: 0 hr 20 min 56 sec) 
Heartbeat CPU 0 instructions: 500000000 cycles: 423695049 heartbeat IPC: 0.48572 cumulative IPC: 0.900626 (Simulation time: 0 hr 21 min 34 sec) 
Heartbeat CPU 0 instructions: 510000002 cycles: 452431449 heartbeat IPC: 0.347991 cumulative IPC: 0.856737 (Simulation time: 0 hr 22 min 22 sec) 
Heartbeat CPU 0 instructions: 520000000 cycles: 463078498 heartbeat IPC: 0.939227 cumulative IPC: 0.859095 (Simulation time: 0 hr 22 min 51 sec) 
Heartbeat CPU 0 instructions: 530000001 cycles: 473898893 heartbeat IPC: 0.924181 cumulative IPC: 0.860932 (Simulation time: 0 hr 23 min 19 sec) 
Heartbeat CPU 0 instructions: 540000000 cycles: 484758703 heartbeat IPC: 0.920826 cumulative IPC: 0.862582 (Simulation time: 0 hr 23 min 47 sec) 
Heartbeat CPU 0 instructions: 550000003 cycles: 495375716 heartbeat IPC: 0.941885 cumulative IPC: 0.864662 (Simulation time: 0 hr 24 min 16 sec) 
Heartbeat CPU 0 instructions: 560000000 cycles: 505986393 heartbeat IPC: 0.942447 cumulative IPC: 0.866649 (Simulation time: 0 hr 24 min 44 sec) 
Heartbeat CPU 0 instructions: 570000003 cycles: 516548452 heartbeat IPC: 0.946785 cumulative IPC: 0.868636 (Simulation time: 0 hr 25 min 12 sec) 
Heartbeat CPU 0 instructions: 580000000 cycles: 527311468 heartbeat IPC: 0.929107 cumulative IPC: 0.870126 (Simulation time: 0 hr 25 min 40 sec) 
Heartbeat CPU 0 instructions: 590000000 cycles: 537845601 heartbeat IPC: 0.949295 cumulative IPC: 0.871991 (Simulation time: 0 hr 26 min 8 sec) 
Heartbeat CPU 0 instructions: 600000000 cycles: 548807108 heartbeat IPC: 0.912283 cumulative IPC: 0.872955 (Simulation time: 0 hr 26 min 37 sec) 
Heartbeat CPU 0 instructions: 610000002 cycles: 559223661 heartbeat IPC: 0.960011 cumulative IPC: 0.87489 (Simulation time: 0 hr 27 min 5 sec) 
Heartbeat CPU 0 instructions: 620000000 cycles: 570014586 heartbeat IPC: 0.926704 cumulative IPC: 0.876056 (Simulation time: 0 hr 27 min 33 sec) 
Heartbeat CPU 0 instructions: 630000001 cycles: 580549889 heartbeat IPC: 0.94919 cumulative IPC: 0.877629 (Simulation time: 0 hr 28 min 1 sec) 
Heartbeat CPU 0 instructions: 640000000 cycles: 591131011 heartbeat IPC: 0.945079 cumulative IPC: 0.879055 (Simulation time: 0 hr 28 min 29 sec) 
Heartbeat CPU 0 instructions: 650000003 cycles: 601824541 heartbeat IPC: 0.935145 cumulative IPC: 0.880228 (Simulation time: 0 hr 28 min 57 sec) 
Heartbeat CPU 0 instructions: 660000000 cycles: 612471300 heartbeat IPC: 0.939253 cumulative IPC: 0.881432 (Simulation time: 0 hr 29 min 26 sec) 
Heartbeat CPU 0 instructions: 670000001 cycles: 623371019 heartbeat IPC: 0.917455 cumulative IPC: 0.882169 (Simulation time: 0 hr 29 min 54 sec) 
Heartbeat CPU 0 instructions: 680000000 cycles: 634936177 heartbeat IPC: 0.864666 cumulative IPC: 0.881797 (Simulation time: 0 hr 30 min 23 sec) 
Heartbeat CPU 0 instructions: 690000001 cycles: 647794136 heartbeat IPC: 0.777728 cumulative IPC: 0.879396 (Simulation time: 0 hr 30 min 53 sec) 
Heartbeat CPU 0 instructions: 700000000 cycles: 661578315 heartbeat IPC: 0.725469 cumulative IPC: 0.87568 (Simulation time: 0 hr 31 min 25 sec) 
Heartbeat CPU 0 instructions: 710000002 cycles: 677468110 heartbeat IPC: 0.629335 cumulative IPC: 0.86901 (Simulation time: 0 hr 31 min 58 sec) 
Heartbeat CPU 0 instructions: 720000000 cycles: 695919233 heartbeat IPC: 0.541972 cumulative IPC: 0.859041 (Simulation time: 0 hr 32 min 34 sec) 
Heartbeat CPU 0 instructions: 730000002 cycles: 719525201 heartbeat IPC: 0.423622 cumulative IPC: 0.842699 (Simulation time: 0 hr 33 min 15 sec) 
Heartbeat CPU 0 instructions: 740000000 cycles: 745815065 heartbeat IPC: 0.380375 cumulative IPC: 0.824148 (Simulation time: 0 hr 33 min 59 sec) 
Heartbeat CPU 0 instructions: 750000000 cycles: 772244679 heartbeat IPC: 0.378363 cumulative IPC: 0.806864 (Simulation time: 0 hr 34 min 44 sec) 
Heartbeat CPU 0 instructions: 760000000 cycles: 797505284 heartbeat IPC: 0.395873 cumulative IPC: 0.792178 (Simulation time: 0 hr 35 min 27 sec) 
Heartbeat CPU 0 instructions: 770000000 cycles: 821554262 heartbeat IPC: 0.415818 cumulative IPC: 0.779795 (Simulation time: 0 hr 36 min 9 sec) 
Heartbeat CPU 0 instructions: 780000000 cycles: 843498828 heartbeat IPC: 0.455694 cumulative IPC: 0.770349 (Simulation time: 0 hr 36 min 48 sec) 
Heartbeat CPU 0 instructions: 790000003 cycles: 864739997 heartbeat IPC: 0.470784 cumulative IPC: 0.762129 (Simulation time: 0 hr 37 min 27 sec) 
Heartbeat CPU 0 instructions: 800000000 cycles: 885045916 heartbeat IPC: 0.492467 cumulative IPC: 0.755237 (Simulation time: 0 hr 38 min 5 sec) 
Heartbeat CPU 0 instructions: 810000001 cycles: 905476258 heartbeat IPC: 0.489468 cumulative IPC: 0.748574 (Simulation time: 0 hr 38 min 43 sec) 
Heartbeat CPU 0 instructions: 820000000 cycles: 925698232 heartbeat IPC: 0.494512 cumulative IPC: 0.742422 (Simulation time: 0 hr 39 min 21 sec) 
Heartbeat CPU 0 instructions: 830000000 cycles: 946273260 heartbeat IPC: 0.486026 cumulative IPC: 0.736257 (Simulation time: 0 hr 39 min 59 sec) 
Heartbeat CPU 0 instructions: 840000000 cycles: 966209634 heartbeat IPC: 0.501596 cumulative IPC: 0.730914 (Simulation time: 0 hr 40 min 36 sec) 
Heartbeat CPU 0 instructions: 850000001 cycles: 986267107 heartbeat IPC: 0.498567 cumulative IPC: 0.725711 (Simulation time: 0 hr 41 min 14 sec) 
Heartbeat CPU 0 instructions: 860000000 cycles: 1006306611 heartbeat IPC: 0.499014 cumulative IPC: 0.72075 (Simulation time: 0 hr 41 min 52 sec) 
Heartbeat CPU 0 instructions: 870000003 cycles: 1027024265 heartbeat IPC: 0.48268 cumulative IPC: 0.715483 (Simulation time: 0 hr 42 min 30 sec) 
Heartbeat CPU 0 instructions: 880000000 cycles: 1048298169 heartbeat IPC: 0.470059 cumulative IPC: 0.710031 (Simulation time: 0 hr 43 min 9 sec) 
Heartbeat CPU 0 instructions: 890000002 cycles: 1069431861 heartbeat IPC: 0.473178 cumulative IPC: 0.704917 (Simulation time: 0 hr 43 min 48 sec) 
Heartbeat CPU 0 instructions: 900000000 cycles: 1090972913 heartbeat IPC: 0.46423 cumulative IPC: 0.699734 (Simulation time: 0 hr 44 min 27 sec) 
Heartbeat CPU 0 instructions: 910000003 cycles: 1111714218 heartbeat IPC: 0.48213 cumulative IPC: 0.695314 (Simulation time: 0 hr 45 min 6 sec) 
Heartbeat CPU 0 instructions: 920000000 cycles: 1132359329 heartbeat IPC: 0.484376 cumulative IPC: 0.691134 (Simulation time: 0 hr 45 min 44 sec) 
Heartbeat CPU 0 instructions: 930000000 cycles: 1153183733 heartbeat IPC: 0.480206 cumulative IPC: 0.687 (Simulation time: 0 hr 46 min 23 sec) 
Heartbeat CPU 0 instructions: 940000000 cycles: 1173956763 heartbeat IPC: 0.481393 cumulative IPC: 0.683058 (Simulation time: 0 hr 47 min 1 sec) 
Heartbeat CPU 0 instructions: 950000001 cycles: 1194624398 heartbeat IPC: 0.483848 cumulative IPC: 0.679329 (Simulation time: 0 hr 47 min 39 sec) 
Heartbeat CPU 0 instructions: 960000000 cycles: 1215298694 heartbeat IPC: 0.483692 cumulative IPC: 0.675732 (Simulation time: 0 hr 48 min 18 sec) 
Heartbeat CPU 0 instructions: 970000000 cycles: 1235682650 heartbeat IPC: 0.490582 cumulative IPC: 0.672437 (Simulation time: 0 hr 48 min 56 sec) 
Heartbeat CPU 0 instructions: 980000000 cycles: 1256750667 heartbeat IPC: 0.474653 cumulative IPC: 0.668863 (Simulation time: 0 hr 49 min 35 sec) 
Heartbeat CPU 0 instructions: 990000002 cycles: 1277764413 heartbeat IPC: 0.475879 cumulative IPC: 0.665447 (Simulation time: 0 hr 50 min 13 sec) 
Heartbeat CPU 0 instructions: 1000000000 cycles: 1298691479 heartbeat IPC: 0.47785 cumulative IPC: 0.662198 (Simulation time: 0 hr 50 min 52 sec) 
Heartbeat CPU 0 instructions: 1010000001 cycles: 1319358883 heartbeat IPC: 0.483854 cumulative IPC: 0.659198 (Simulation time: 0 hr 51 min 30 sec) 
Heartbeat CPU 0 instructions: 1020000000 cycles: 1339469024 heartbeat IPC: 0.497261 cumulative IPC: 0.656591 (Simulation time: 0 hr 52 min 8 sec) 
Heartbeat CPU 0 instructions: 1030000002 cycles: 1360124805 heartbeat IPC: 0.484126 cumulative IPC: 0.653784 (Simulation time: 0 hr 52 min 46 sec) 
Heartbeat CPU 0 instructions: 1040000000 cycles: 1380509534 heartbeat IPC: 0.490563 cumulative IPC: 0.651205 (Simulation time: 0 hr 53 min 24 sec) 
Heartbeat CPU 0 instructions: 1050000002 cycles: 1401426554 heartbeat IPC: 0.47808 cumulative IPC: 0.648443 (Simulation time: 0 hr 54 min 3 sec) 
Heartbeat CPU 0 instructions: 1060000000 cycles: 1421879481 heartbeat IPC: 0.488927 cumulative IPC: 0.645992 (Simulation time: 0 hr 54 min 41 sec) 
Heartbeat CPU 0 instructions: 1070000003 cycles: 1442527738 heartbeat IPC: 0.484303 cumulative IPC: 0.643522 (Simulation time: 0 hr 55 min 19 sec) 
Heartbeat CPU 0 instructions: 1080000000 cycles: 1463275709 heartbeat IPC: 0.481975 cumulative IPC: 0.641081 (Simulation time: 0 hr 55 min 58 sec) 
Heartbeat CPU 0 instructions: 1090000000 cycles: 1484570828 heartbeat IPC: 0.469591 cumulative IPC: 0.638461 (Simulation time: 0 hr 56 min 37 sec) 
Heartbeat CPU 0 instructions: 1100000000 cycles: 1505574298 heartbeat IPC: 0.476112 cumulative IPC: 0.636051 (Simulation time: 0 hr 57 min 15 sec) 
Heartbeat CPU 0 instructions: 1110000001 cycles: 1526906509 heartbeat IPC: 0.468775 cumulative IPC: 0.633567 (Simulation time: 0 hr 57 min 54 sec) 
Heartbeat CPU 0 instructions: 1120000000 cycles: 1547863994 heartbeat IPC: 0.477156 cumulative IPC: 0.631317 (Simulation time: 0 hr 58 min 33 sec) 
Heartbeat CPU 0 instructions: 1130000002 cycles: 1568538240 heartbeat IPC: 0.483694 cumulative IPC: 0.629252 (Simulation time: 0 hr 59 min 12 sec) 
Heartbeat CPU 0 instructions: 1140000000 cycles: 1589410589 heartbeat IPC: 0.479103 cumulative IPC: 0.627161 (Simulation time: 0 hr 59 min 50 sec) 
Heartbeat CPU 0 instructions: 1150000000 cycles: 1610869634 heartbeat IPC: 0.466004 cumulative IPC: 0.624886 (Simulation time: 1 hr 0 min 29 sec) 
Heartbeat CPU 0 instructions: 1160000000 cycles: 1631912204 heartbeat IPC: 0.475227 cumulative IPC: 0.622843 (Simulation time: 1 hr 1 min 8 sec) 
Heartbeat CPU 0 instructions: 1170000000 cycles: 1653179694 heartbeat IPC: 0.470201 cumulative IPC: 0.620766 (Simulation time: 1 hr 1 min 47 sec) 
Heartbeat CPU 0 instructions: 1180000000 cycles: 1673371498 heartbeat IPC: 0.49525 cumulative IPC: 0.619164 (Simulation time: 1 hr 2 min 25 sec) 
Heartbeat CPU 0 instructions: 1190000002 cycles: 1694099891 heartbeat IPC: 0.48243 cumulative IPC: 0.617397 (Simulation time: 1 hr 3 min 3 sec) 
Heartbeat CPU 0 instructions: 1200000000 cycles: 1714899577 heartbeat IPC: 0.480776 cumulative IPC: 0.615647 (Simulation time: 1 hr 3 min 42 sec) 
Finished CPU 0 instructions: 1000000000 cycles: 1624306315 cumulative IPC: 0.615647 (Simulation time: 1 hr 3 min 42 sec) 

CPU 0 Branch Prediction Accuracy: 98.11% MPKI: 0.282232

ChampSim completed all CPUs

Region of Interest Statistics

CPU 0 cumulative IPC: 0.615647 instructions: 1000000000 cycles: 1624306315
L1D TOTAL     ACCESS:  267000731  HIT:  207762325  MISS:   59238406
L1D LOAD      ACCESS:   99348210  HIT:   90367453  MISS:    8980757
L1D RFO       ACCESS:  167652521  HIT:  117394872  MISS:   50257649
L1D PREFETCH  ACCESS:          0  HIT:          0  MISS:          0
L1D WRITEBACK ACCESS:          0  HIT:          0  MISS:          0
L1D PREFETCH  REQUESTED:          0  ISSUED:          0  USEFUL:          0  USELESS:          0
L1I TOTAL     ACCESS:  236437090  HIT:  236437087  MISS:          3
L1I LOAD      ACCESS:  236437090  HIT:  236437087  MISS:          3
L1I RFO       ACCESS:          0  HIT:          0  MISS:          0
L1I PREFETCH  ACCESS:          0  HIT:          0  MISS:          0
L1I WRITEBACK ACCESS:          0  HIT:          0  MISS:          0
L1I PREFETCH  REQUESTED:          0  ISSUED:          0  USEFUL:          0  USELESS:          0
L2C TOTAL     ACCESS:  117091003  HIT:   70217716  MISS:   46873287
L2C LOAD      ACCESS:    8980760  HIT:    7588844  MISS:    1391916
L2C RFO       ACCESS:   50257627  HIT:   12373543  MISS:   37884084
L2C PREFETCH  ACCESS:    7594964  HIT:       5284  MISS:    7589680
L2C WRITEBACK ACCESS:   50257652  HIT:   50250045  MISS:       7607
L2C PREFETCH  REQUESTED:    9343032  ISSUED:    9343032  USEFUL:    9039231  USELESS:       5202
LLC TOTAL     ACCESS:   84843060  HIT:   48947739  MISS:   35895321
LLC LOAD      ACCESS:    1236501  HIT:      96516  MISS:    1139985
LLC RFO       ACCESS:   37877955  HIT:   10960013  MISS:   26917942
LLC PREFETCH  ACCESS:    7837697  HIT:       2891  MISS:    7834806
LLC WRITEBACK ACCESS:   37890907  HIT:   37888319  MISS:       2588
LLC PREFETCH  REQUESTED:          0  ISSUED:          0  USEFUL:      92363  USELESS:    9183541
Major fault: 0 Minor fault: 336031

L2C Best-offset prefetcher final stats

DRAM Statistics
 CHANNEL 0
 RQ ROW_BUFFER_HIT:   15642059  ROW_BUFFER_MISS:   20250674
 DBUS_CONGESTED:   46961569
 WQ ROW_BUFFER_HIT:    9740283  ROW_BUFFER_MISS:   17181266  FULL:          0

 AVG_CONGESTED_CYCLE: 14
