
*** ChampSim Multicore Out-of-Order Simulator ***

Warmup Instructions: 200000000
Simulation Instructions: 1000000000
Number of CPUs: 1
LLC sets: 2048
LLC ways: 16
Off-chip DRAM Size: 4096 MB Channels: 1 Width: 64-bit Data Rate: 1600 MT/s

CPU 0 runs /scratch/user/djimenez/champsim-traces/speccpu2017/xz/625.x264_s/625.x264_s-18B.champsimtrace.xz
L2C Best-offset prefetcher
Heartbeat CPU 0 instructions: 10000003 cycles: 3849065 heartbeat IPC: 2.59803 cumulative IPC: 2.59803 (Simulation time: 0 hr 0 min 17 sec) 
Heartbeat CPU 0 instructions: 20000000 cycles: 7704932 heartbeat IPC: 2.59345 cumulative IPC: 2.59574 (Simulation time: 0 hr 0 min 34 sec) 
Heartbeat CPU 0 instructions: 30000001 cycles: 11527944 heartbeat IPC: 2.61574 cumulative IPC: 2.60237 (Simulation time: 0 hr 0 min 52 sec) 
Heartbeat CPU 0 instructions: 40000000 cycles: 15344399 heartbeat IPC: 2.62023 cumulative IPC: 2.60681 (Simulation time: 0 hr 1 min 8 sec) 
Heartbeat CPU 0 instructions: 50000000 cycles: 19164442 heartbeat IPC: 2.61777 cumulative IPC: 2.609 (Simulation time: 0 hr 1 min 25 sec) 
Heartbeat CPU 0 instructions: 60000000 cycles: 22985648 heartbeat IPC: 2.61697 cumulative IPC: 2.61032 (Simulation time: 0 hr 1 min 42 sec) 
Heartbeat CPU 0 instructions: 70000001 cycles: 26809484 heartbeat IPC: 2.61518 cumulative IPC: 2.61102 (Simulation time: 0 hr 1 min 59 sec) 
Heartbeat CPU 0 instructions: 80000000 cycles: 30633312 heartbeat IPC: 2.61518 cumulative IPC: 2.61154 (Simulation time: 0 hr 2 min 15 sec) 
Heartbeat CPU 0 instructions: 90000003 cycles: 34458575 heartbeat IPC: 2.6142 cumulative IPC: 2.61183 (Simulation time: 0 hr 2 min 32 sec) 
Heartbeat CPU 0 instructions: 100000000 cycles: 38279240 heartbeat IPC: 2.61734 cumulative IPC: 2.61238 (Simulation time: 0 hr 2 min 49 sec) 
Heartbeat CPU 0 instructions: 110000001 cycles: 42092522 heartbeat IPC: 2.62241 cumulative IPC: 2.61329 (Simulation time: 0 hr 3 min 6 sec) 
Heartbeat CPU 0 instructions: 120000000 cycles: 45907899 heartbeat IPC: 2.62097 cumulative IPC: 2.61393 (Simulation time: 0 hr 3 min 23 sec) 
Heartbeat CPU 0 instructions: 130000003 cycles: 49725902 heartbeat IPC: 2.61917 cumulative IPC: 2.61433 (Simulation time: 0 hr 3 min 40 sec) 
Heartbeat CPU 0 instructions: 140000000 cycles: 53555222 heartbeat IPC: 2.61143 cumulative IPC: 2.61412 (Simulation time: 0 hr 3 min 53 sec) 
Heartbeat CPU 0 instructions: 150000003 cycles: 57613040 heartbeat IPC: 2.46438 cumulative IPC: 2.60358 (Simulation time: 0 hr 4 min 9 sec) 
Heartbeat CPU 0 instructions: 160000000 cycles: 61784515 heartbeat IPC: 2.39723 cumulative IPC: 2.58965 (Simulation time: 0 hr 4 min 24 sec) 
Heartbeat CPU 0 instructions: 170000001 cycles: 65808153 heartbeat IPC: 2.48531 cumulative IPC: 2.58327 (Simulation time: 0 hr 4 min 39 sec) 
Heartbeat CPU 0 instructions: 180000000 cycles: 69977097 heartbeat IPC: 2.39869 cumulative IPC: 2.57227 (Simulation time: 0 hr 4 min 54 sec) 
Heartbeat CPU 0 instructions: 190000000 cycles: 74163249 heartbeat IPC: 2.38883 cumulative IPC: 2.56192 (Simulation time: 0 hr 5 min 9 sec) 
Heartbeat CPU 0 instructions: 200000000 cycles: 78180335 heartbeat IPC: 2.48937 cumulative IPC: 2.55819 (Simulation time: 0 hr 5 min 24 sec) 

Warmup complete CPU 0 instructions: 200000002 cycles: 78180336 (Simulation time: 0 hr 5 min 24 sec) 

Heartbeat CPU 0 instructions: 210000001 cycles: 84891492 heartbeat IPC: 1.49006 cumulative IPC: 1.49006 (Simulation time: 0 hr 5 min 44 sec) 
Heartbeat CPU 0 instructions: 220000000 cycles: 91787579 heartbeat IPC: 1.4501 cumulative IPC: 1.46981 (Simulation time: 0 hr 6 min 4 sec) 
Heartbeat CPU 0 instructions: 230000000 cycles: 98663752 heartbeat IPC: 1.4543 cumulative IPC: 1.4646 (Simulation time: 0 hr 6 min 24 sec) 
Heartbeat CPU 0 instructions: 240000000 cycles: 105500585 heartbeat IPC: 1.46267 cumulative IPC: 1.46412 (Simulation time: 0 hr 6 min 43 sec) 
Heartbeat CPU 0 instructions: 250000001 cycles: 112445467 heartbeat IPC: 1.43991 cumulative IPC: 1.45921 (Simulation time: 0 hr 7 min 3 sec) 
Heartbeat CPU 0 instructions: 260000000 cycles: 119198265 heartbeat IPC: 1.48087 cumulative IPC: 1.46277 (Simulation time: 0 hr 7 min 23 sec) 
Heartbeat CPU 0 instructions: 270000000 cycles: 125979522 heartbeat IPC: 1.47465 cumulative IPC: 1.46446 (Simulation time: 0 hr 7 min 42 sec) 
Heartbeat CPU 0 instructions: 280000000 cycles: 132883643 heartbeat IPC: 1.44841 cumulative IPC: 1.46243 (Simulation time: 0 hr 8 min 2 sec) 
Heartbeat CPU 0 instructions: 290000001 cycles: 139649449 heartbeat IPC: 1.47802 cumulative IPC: 1.46415 (Simulation time: 0 hr 8 min 22 sec) 
Heartbeat CPU 0 instructions: 300000000 cycles: 146367226 heartbeat IPC: 1.48859 cumulative IPC: 1.46656 (Simulation time: 0 hr 8 min 42 sec) 
Heartbeat CPU 0 instructions: 310000000 cycles: 153313971 heartbeat IPC: 1.43952 cumulative IPC: 1.46406 (Simulation time: 0 hr 9 min 2 sec) 
Heartbeat CPU 0 instructions: 320000000 cycles: 160031738 heartbeat IPC: 1.48859 cumulative IPC: 1.46607 (Simulation time: 0 hr 9 min 21 sec) 
Heartbeat CPU 0 instructions: 330000000 cycles: 166719612 heartbeat IPC: 1.49524 cumulative IPC: 1.46827 (Simulation time: 0 hr 9 min 41 sec) 
Heartbeat CPU 0 instructions: 340000000 cycles: 173414666 heartbeat IPC: 1.49364 cumulative IPC: 1.47006 (Simulation time: 0 hr 10 min 1 sec) 
Heartbeat CPU 0 instructions: 350000003 cycles: 180109763 heartbeat IPC: 1.49363 cumulative IPC: 1.47161 (Simulation time: 0 hr 10 min 21 sec) 
Heartbeat CPU 0 instructions: 360000000 cycles: 186798686 heartbeat IPC: 1.49501 cumulative IPC: 1.47305 (Simulation time: 0 hr 10 min 40 sec) 
Heartbeat CPU 0 instructions: 370000000 cycles: 193466781 heartbeat IPC: 1.49968 cumulative IPC: 1.47459 (Simulation time: 0 hr 11 min 0 sec) 
Heartbeat CPU 0 instructions: 380000000 cycles: 200177442 heartbeat IPC: 1.49017 cumulative IPC: 1.47544 (Simulation time: 0 hr 11 min 20 sec) 
Heartbeat CPU 0 instructions: 390000003 cycles: 206902450 heartbeat IPC: 1.48699 cumulative IPC: 1.47605 (Simulation time: 0 hr 11 min 39 sec) 
Heartbeat CPU 0 instructions: 400000000 cycles: 217228545 heartbeat IPC: 0.96842 cumulative IPC: 1.43835 (Simulation time: 0 hr 12 min 3 sec) 
Heartbeat CPU 0 instructions: 410000002 cycles: 222084431 heartbeat IPC: 2.05936 cumulative IPC: 1.45931 (Simulation time: 0 hr 12 min 21 sec) 
Heartbeat CPU 0 instructions: 420000000 cycles: 227756824 heartbeat IPC: 1.76292 cumulative IPC: 1.47082 (Simulation time: 0 hr 12 min 41 sec) 
Heartbeat CPU 0 instructions: 430000000 cycles: 234802758 heartbeat IPC: 1.41926 cumulative IPC: 1.4685 (Simulation time: 0 hr 13 min 1 sec) 
Heartbeat CPU 0 instructions: 440000000 cycles: 241272462 heartbeat IPC: 1.54567 cumulative IPC: 1.47156 (Simulation time: 0 hr 13 min 21 sec) 
Heartbeat CPU 0 instructions: 450000002 cycles: 247665003 heartbeat IPC: 1.56432 cumulative IPC: 1.47506 (Simulation time: 0 hr 13 min 41 sec) 
Heartbeat CPU 0 instructions: 460000000 cycles: 254158104 heartbeat IPC: 1.5401 cumulative IPC: 1.47746 (Simulation time: 0 hr 14 min 2 sec) 
Heartbeat CPU 0 instructions: 470000000 cycles: 260680426 heartbeat IPC: 1.5332 cumulative IPC: 1.47945 (Simulation time: 0 hr 14 min 22 sec) 
Heartbeat CPU 0 instructions: 480000000 cycles: 267186136 heartbeat IPC: 1.53711 cumulative IPC: 1.48144 (Simulation time: 0 hr 14 min 42 sec) 
Heartbeat CPU 0 instructions: 490000002 cycles: 273725165 heartbeat IPC: 1.52928 cumulative IPC: 1.48304 (Simulation time: 0 hr 15 min 2 sec) 
Heartbeat CPU 0 instructions: 500000000 cycles: 280222863 heartbeat IPC: 1.53901 cumulative IPC: 1.48484 (Simulation time: 0 hr 15 min 23 sec) 
Heartbeat CPU 0 instructions: 510000001 cycles: 286680243 heartbeat IPC: 1.54862 cumulative IPC: 1.48681 (Simulation time: 0 hr 15 min 43 sec) 
Heartbeat CPU 0 instructions: 520000000 cycles: 293073423 heartbeat IPC: 1.56417 cumulative IPC: 1.48911 (Simulation time: 0 hr 16 min 3 sec) 
Heartbeat CPU 0 instructions: 530000000 cycles: 299515903 heartbeat IPC: 1.5522 cumulative IPC: 1.49095 (Simulation time: 0 hr 16 min 23 sec) 
Heartbeat CPU 0 instructions: 540000000 cycles: 306008412 heartbeat IPC: 1.54024 cumulative IPC: 1.49235 (Simulation time: 0 hr 16 min 43 sec) 
Heartbeat CPU 0 instructions: 550000003 cycles: 312355122 heartbeat IPC: 1.57562 cumulative IPC: 1.49461 (Simulation time: 0 hr 17 min 3 sec) 
Heartbeat CPU 0 instructions: 560000000 cycles: 318772563 heartbeat IPC: 1.55825 cumulative IPC: 1.49631 (Simulation time: 0 hr 17 min 23 sec) 
Heartbeat CPU 0 instructions: 570000001 cycles: 328291971 heartbeat IPC: 1.05049 cumulative IPC: 1.47934 (Simulation time: 0 hr 17 min 46 sec) 
Heartbeat CPU 0 instructions: 580000000 cycles: 332999068 heartbeat IPC: 2.12445 cumulative IPC: 1.49126 (Simulation time: 0 hr 18 min 6 sec) 
Heartbeat CPU 0 instructions: 590000002 cycles: 339684071 heartbeat IPC: 1.49589 cumulative IPC: 1.49137 (Simulation time: 0 hr 18 min 26 sec) 
Heartbeat CPU 0 instructions: 600000000 cycles: 346743351 heartbeat IPC: 1.41657 cumulative IPC: 1.48941 (Simulation time: 0 hr 18 min 47 sec) 
Heartbeat CPU 0 instructions: 610000001 cycles: 353828407 heartbeat IPC: 1.41142 cumulative IPC: 1.4874 (Simulation time: 0 hr 19 min 9 sec) 
Heartbeat CPU 0 instructions: 620000000 cycles: 360872545 heartbeat IPC: 1.41962 cumulative IPC: 1.48571 (Simulation time: 0 hr 19 min 31 sec) 
Heartbeat CPU 0 instructions: 630000001 cycles: 367925721 heartbeat IPC: 1.4178 cumulative IPC: 1.48406 (Simulation time: 0 hr 19 min 53 sec) 
Heartbeat CPU 0 instructions: 640000000 cycles: 374961388 heartbeat IPC: 1.42133 cumulative IPC: 1.48257 (Simulation time: 0 hr 20 min 14 sec) 
Heartbeat CPU 0 instructions: 650000000 cycles: 381989792 heartbeat IPC: 1.4228 cumulative IPC: 1.48119 (Simulation time: 0 hr 20 min 36 sec) 
Heartbeat CPU 0 instructions: 660000000 cycles: 389005549 heartbeat IPC: 1.42536 cumulative IPC: 1.47993 (Simulation time: 0 hr 20 min 58 sec) 
Heartbeat CPU 0 instructions: 670000002 cycles: 397777212 heartbeat IPC: 1.14003 cumulative IPC: 1.4706 (Simulation time: 0 hr 21 min 20 sec) 
Heartbeat CPU 0 instructions: 680000000 cycles: 402994658 heartbeat IPC: 1.91665 cumulative IPC: 1.47777 (Simulation time: 0 hr 21 min 40 sec) 
Heartbeat CPU 0 instructions: 690000000 cycles: 409899116 heartbeat IPC: 1.44834 cumulative IPC: 1.47715 (Simulation time: 0 hr 22 min 1 sec) 
Heartbeat CPU 0 instructions: 700000000 cycles: 416940375 heartbeat IPC: 1.4202 cumulative IPC: 1.47597 (Simulation time: 0 hr 22 min 22 sec) 
Heartbeat CPU 0 instructions: 710000000 cycles: 423986156 heartbeat IPC: 1.41929 cumulative IPC: 1.47482 (Simulation time: 0 hr 22 min 44 sec) 
Heartbeat CPU 0 instructions: 720000000 cycles: 431036265 heartbeat IPC: 1.41842 cumulative IPC: 1.47369 (Simulation time: 0 hr 23 min 6 sec) 
Heartbeat CPU 0 instructions: 730000000 cycles: 438091168 heartbeat IPC: 1.41745 cumulative IPC: 1.47259 (Simulation time: 0 hr 23 min 27 sec) 
Heartbeat CPU 0 instructions: 740000000 cycles: 445139455 heartbeat IPC: 1.41878 cumulative IPC: 1.47155 (Simulation time: 0 hr 23 min 49 sec) 
Heartbeat CPU 0 instructions: 750000003 cycles: 452191486 heartbeat IPC: 1.41803 cumulative IPC: 1.47054 (Simulation time: 0 hr 24 min 11 sec) 
Heartbeat CPU 0 instructions: 760000000 cycles: 462335688 heartbeat IPC: 0.985784 cumulative IPC: 1.45774 (Simulation time: 0 hr 24 min 35 sec) 
Heartbeat CPU 0 instructions: 770000003 cycles: 467049842 heartbeat IPC: 2.12127 cumulative IPC: 1.46579 (Simulation time: 0 hr 24 min 54 sec) 
Heartbeat CPU 0 instructions: 780000000 cycles: 472932214 heartbeat IPC: 1.69999 cumulative IPC: 1.46928 (Simulation time: 0 hr 25 min 14 sec) 
Heartbeat CPU 0 instructions: 790000003 cycles: 480448764 heartbeat IPC: 1.3304 cumulative IPC: 1.46668 (Simulation time: 0 hr 25 min 34 sec) 
Heartbeat CPU 0 instructions: 800000000 cycles: 487897931 heartbeat IPC: 1.34243 cumulative IPC: 1.46442 (Simulation time: 0 hr 25 min 55 sec) 
Heartbeat CPU 0 instructions: 810000003 cycles: 495331595 heartbeat IPC: 1.34523 cumulative IPC: 1.4623 (Simulation time: 0 hr 26 min 15 sec) 
Heartbeat CPU 0 instructions: 820000000 cycles: 502758973 heartbeat IPC: 1.34637 cumulative IPC: 1.46027 (Simulation time: 0 hr 26 min 36 sec) 
Heartbeat CPU 0 instructions: 830000003 cycles: 510191072 heartbeat IPC: 1.34552 cumulative IPC: 1.4583 (Simulation time: 0 hr 26 min 56 sec) 
Heartbeat CPU 0 instructions: 840000000 cycles: 517616847 heartbeat IPC: 1.34666 cumulative IPC: 1.45641 (Simulation time: 0 hr 27 min 16 sec) 
Heartbeat CPU 0 instructions: 850000001 cycles: 525062340 heartbeat IPC: 1.34309 cumulative IPC: 1.45452 (Simulation time: 0 hr 27 min 37 sec) 
Heartbeat CPU 0 instructions: 860000000 cycles: 532484915 heartbeat IPC: 1.34724 cumulative IPC: 1.45277 (Simulation time: 0 hr 27 min 57 sec) 
Heartbeat CPU 0 instructions: 870000001 cycles: 539930438 heartbeat IPC: 1.34309 cumulative IPC: 1.451 (Simulation time: 0 hr 28 min 18 sec) 
Heartbeat CPU 0 instructions: 880000000 cycles: 547353000 heartbeat IPC: 1.34724 cumulative IPC: 1.44936 (Simulation time: 0 hr 28 min 39 sec) 
Heartbeat CPU 0 instructions: 890000000 cycles: 554755231 heartbeat IPC: 1.35094 cumulative IPC: 1.44783 (Simulation time: 0 hr 28 min 59 sec) 
Heartbeat CPU 0 instructions: 900000000 cycles: 562154971 heartbeat IPC: 1.3514 cumulative IPC: 1.44636 (Simulation time: 0 hr 29 min 19 sec) 
Heartbeat CPU 0 instructions: 910000000 cycles: 569526648 heartbeat IPC: 1.35654 cumulative IPC: 1.44501 (Simulation time: 0 hr 29 min 40 sec) 
Heartbeat CPU 0 instructions: 920000000 cycles: 576880682 heartbeat IPC: 1.3598 cumulative IPC: 1.44375 (Simulation time: 0 hr 30 min 0 sec) 
Heartbeat CPU 0 instructions: 930000002 cycles: 584260021 heartbeat IPC: 1.35514 cumulative IPC: 1.44246 (Simulation time: 0 hr 30 min 20 sec) 
Heartbeat CPU 0 instructions: 940000000 cycles: 591660699 heartbeat IPC: 1.35123 cumulative IPC: 1.44115 (Simulation time: 0 hr 30 min 40 sec) 
Heartbeat CPU 0 instructions: 950000002 cycles: 599050578 heartbeat IPC: 1.3532 cumulative IPC: 1.4399 (Simulation time: 0 hr 31 min 1 sec) 
Heartbeat CPU 0 instructions: 960000000 cycles: 606451900 heartbeat IPC: 1.35111 cumulative IPC: 1.43865 (Simulation time: 0 hr 31 min 21 sec) 
Heartbeat CPU 0 instructions: 970000001 cycles: 613862548 heartbeat IPC: 1.34941 cumulative IPC: 1.43742 (Simulation time: 0 hr 31 min 41 sec) 
Heartbeat CPU 0 instructions: 980000000 cycles: 621299842 heartbeat IPC: 1.34457 cumulative IPC: 1.43615 (Simulation time: 0 hr 32 min 2 sec) 
Heartbeat CPU 0 instructions: 990000002 cycles: 628706826 heartbeat IPC: 1.35008 cumulative IPC: 1.43499 (Simulation time: 0 hr 32 min 22 sec) 
Heartbeat CPU 0 instructions: 1000000000 cycles: 636117688 heartbeat IPC: 1.34937 cumulative IPC: 1.43385 (Simulation time: 0 hr 32 min 43 sec) 
Heartbeat CPU 0 instructions: 1010000000 cycles: 643547248 heartbeat IPC: 1.34597 cumulative IPC: 1.4327 (Simulation time: 0 hr 33 min 3 sec) 
Heartbeat CPU 0 instructions: 1020000000 cycles: 650985707 heartbeat IPC: 1.34436 cumulative IPC: 1.43155 (Simulation time: 0 hr 33 min 24 sec) 
Heartbeat CPU 0 instructions: 1030000001 cycles: 658429784 heartbeat IPC: 1.34335 cumulative IPC: 1.43042 (Simulation time: 0 hr 33 min 45 sec) 
Heartbeat CPU 0 instructions: 1040000000 cycles: 665862943 heartbeat IPC: 1.34532 cumulative IPC: 1.42934 (Simulation time: 0 hr 34 min 6 sec) 
Heartbeat CPU 0 instructions: 1050000003 cycles: 673293834 heartbeat IPC: 1.34573 cumulative IPC: 1.4283 (Simulation time: 0 hr 34 min 27 sec) 
Heartbeat CPU 0 instructions: 1060000000 cycles: 680750903 heartbeat IPC: 1.34101 cumulative IPC: 1.42722 (Simulation time: 0 hr 34 min 48 sec) 
Heartbeat CPU 0 instructions: 1070000002 cycles: 688192431 heartbeat IPC: 1.34381 cumulative IPC: 1.4262 (Simulation time: 0 hr 35 min 9 sec) 
Heartbeat CPU 0 instructions: 1080000000 cycles: 695627213 heartbeat IPC: 1.34503 cumulative IPC: 1.42522 (Simulation time: 0 hr 35 min 29 sec) 
Heartbeat CPU 0 instructions: 1090000001 cycles: 703070773 heartbeat IPC: 1.34344 cumulative IPC: 1.42425 (Simulation time: 0 hr 35 min 50 sec) 
Heartbeat CPU 0 instructions: 1100000000 cycles: 710513947 heartbeat IPC: 1.34351 cumulative IPC: 1.4233 (Simulation time: 0 hr 36 min 11 sec) 
Heartbeat CPU 0 instructions: 1110000002 cycles: 717959775 heartbeat IPC: 1.34303 cumulative IPC: 1.42237 (Simulation time: 0 hr 36 min 32 sec) 
Heartbeat CPU 0 instructions: 1120000000 cycles: 725361862 heartbeat IPC: 1.35097 cumulative IPC: 1.42155 (Simulation time: 0 hr 36 min 52 sec) 
Heartbeat CPU 0 instructions: 1130000003 cycles: 732743551 heartbeat IPC: 1.3547 cumulative IPC: 1.42079 (Simulation time: 0 hr 37 min 12 sec) 
Heartbeat CPU 0 instructions: 1140000000 cycles: 740124876 heartbeat IPC: 1.35477 cumulative IPC: 1.42006 (Simulation time: 0 hr 37 min 33 sec) 
Heartbeat CPU 0 instructions: 1150000000 cycles: 747527983 heartbeat IPC: 1.35078 cumulative IPC: 1.41929 (Simulation time: 0 hr 37 min 53 sec) 
Heartbeat CPU 0 instructions: 1160000000 cycles: 754934672 heartbeat IPC: 1.35013 cumulative IPC: 1.41854 (Simulation time: 0 hr 38 min 14 sec) 
Heartbeat CPU 0 instructions: 1170000002 cycles: 762362278 heartbeat IPC: 1.34633 cumulative IPC: 1.41775 (Simulation time: 0 hr 38 min 34 sec) 
Heartbeat CPU 0 instructions: 1180000000 cycles: 769777539 heartbeat IPC: 1.34857 cumulative IPC: 1.41701 (Simulation time: 0 hr 38 min 55 sec) 
Heartbeat CPU 0 instructions: 1190000003 cycles: 777201201 heartbeat IPC: 1.34704 cumulative IPC: 1.41627 (Simulation time: 0 hr 39 min 15 sec) 
Heartbeat CPU 0 instructions: 1200000000 cycles: 784604110 heartbeat IPC: 1.35082 cumulative IPC: 1.41558 (Simulation time: 0 hr 39 min 36 sec) 
Finished CPU 0 instructions: 1000000000 cycles: 706423782 cumulative IPC: 1.41558 (Simulation time: 0 hr 39 min 36 sec) 

CPU 0 Branch Prediction Accuracy: 97.7664% MPKI: 0.706082

ChampSim completed all CPUs

Region of Interest Statistics

CPU 0 cumulative IPC: 1.41558 instructions: 1000000000 cycles: 706423782
L1D TOTAL     ACCESS:  161573816  HIT:  158835863  MISS:    2737953
L1D LOAD      ACCESS:   87165117  HIT:   85236877  MISS:    1928240
L1D RFO       ACCESS:   74408699  HIT:   73598986  MISS:     809713
L1D PREFETCH  ACCESS:          0  HIT:          0  MISS:          0
L1D WRITEBACK ACCESS:          0  HIT:          0  MISS:          0
L1D PREFETCH  REQUESTED:          0  ISSUED:          0  USEFUL:          0  USELESS:          0
L1I TOTAL     ACCESS:  234206321  HIT:  232461068  MISS:    1745253
L1I LOAD      ACCESS:  234206321  HIT:  232461068  MISS:    1745253
L1I RFO       ACCESS:          0  HIT:          0  MISS:          0
L1I PREFETCH  ACCESS:          0  HIT:          0  MISS:          0
L1I WRITEBACK ACCESS:          0  HIT:          0  MISS:          0
L1I PREFETCH  REQUESTED:          0  ISSUED:          0  USEFUL:          0  USELESS:          0
L2C TOTAL     ACCESS:    6204460  HIT:    4759861  MISS:    1444599
L2C LOAD      ACCESS:    3673472  HIT:    3353666  MISS:     319806
L2C RFO       ACCESS:     808042  HIT:     400967  MISS:     407075
L2C PREFETCH  ACCESS:     777411  HIT:      64633  MISS:     712778
L2C WRITEBACK ACCESS:     945535  HIT:     940595  MISS:       4940
L2C PREFETCH  REQUESTED:     989159  ISSUED:     989159  USEFUL:     723102  USELESS:      66373
LLC TOTAL     ACCESS:    1988865  HIT:     890056  MISS:    1098809
LLC LOAD      ACCESS:     282856  HIT:     163600  MISS:     119256
LLC RFO       ACCESS:     404220  HIT:      13791  MISS:     390429
LLC PREFETCH  ACCESS:     796967  HIT:     208607  MISS:     588360
LLC WRITEBACK ACCESS:     504822  HIT:     504058  MISS:        764
LLC PREFETCH  REQUESTED:          0  ISSUED:          0  USEFUL:      53859  USELESS:     579836
Major fault: 0 Minor fault: 9690

L2C Best-offset prefetcher final stats

DRAM Statistics
 CHANNEL 0
 RQ ROW_BUFFER_HIT:     764916  ROW_BUFFER_MISS:     332897
 DBUS_CONGESTED:     944014
 WQ ROW_BUFFER_HIT:     212772  ROW_BUFFER_MISS:     279648  FULL:          0

 AVG_CONGESTED_CYCLE: 13
