
*** ChampSim Multicore Out-of-Order Simulator ***

Warmup Instructions: 200000000
Simulation Instructions: 1000000000
Number of CPUs: 1
LLC sets: 2048
LLC ways: 16
Off-chip DRAM Size: 4096 MB Channels: 1 Width: 64-bit Data Rate: 1600 MT/s

CPU 0 runs /scratch/user/djimenez/champsim-traces/speccpu2017/xz/641.leela_s/641.leela_s-1052B.champsimtrace.xz
L2C Best-offset prefetcher
Heartbeat CPU 0 instructions: 10000002 cycles: 6327470 heartbeat IPC: 1.58041 cumulative IPC: 1.58041 (Simulation time: 0 hr 0 min 14 sec) 
Heartbeat CPU 0 instructions: 20000000 cycles: 12640417 heartbeat IPC: 1.58405 cumulative IPC: 1.58223 (Simulation time: 0 hr 0 min 28 sec) 
Heartbeat CPU 0 instructions: 30000002 cycles: 18949053 heartbeat IPC: 1.58513 cumulative IPC: 1.58319 (Simulation time: 0 hr 0 min 41 sec) 
Heartbeat CPU 0 instructions: 40000000 cycles: 25263222 heartbeat IPC: 1.58374 cumulative IPC: 1.58333 (Simulation time: 0 hr 0 min 55 sec) 
Heartbeat CPU 0 instructions: 50000000 cycles: 31579048 heartbeat IPC: 1.58332 cumulative IPC: 1.58333 (Simulation time: 0 hr 1 min 9 sec) 
Heartbeat CPU 0 instructions: 60000000 cycles: 37886196 heartbeat IPC: 1.5855 cumulative IPC: 1.58369 (Simulation time: 0 hr 1 min 22 sec) 
Heartbeat CPU 0 instructions: 70000001 cycles: 44187739 heartbeat IPC: 1.58691 cumulative IPC: 1.58415 (Simulation time: 0 hr 1 min 36 sec) 
Heartbeat CPU 0 instructions: 80000000 cycles: 50500126 heartbeat IPC: 1.58419 cumulative IPC: 1.58415 (Simulation time: 0 hr 1 min 50 sec) 
Heartbeat CPU 0 instructions: 90000002 cycles: 56827580 heartbeat IPC: 1.58041 cumulative IPC: 1.58374 (Simulation time: 0 hr 2 min 3 sec) 
Heartbeat CPU 0 instructions: 100000000 cycles: 63161507 heartbeat IPC: 1.5788 cumulative IPC: 1.58324 (Simulation time: 0 hr 2 min 17 sec) 
Heartbeat CPU 0 instructions: 110000000 cycles: 69453008 heartbeat IPC: 1.58945 cumulative IPC: 1.5838 (Simulation time: 0 hr 2 min 31 sec) 
Heartbeat CPU 0 instructions: 120000000 cycles: 75746162 heartbeat IPC: 1.58903 cumulative IPC: 1.58424 (Simulation time: 0 hr 2 min 44 sec) 
Heartbeat CPU 0 instructions: 130000001 cycles: 82070141 heartbeat IPC: 1.58128 cumulative IPC: 1.58401 (Simulation time: 0 hr 2 min 58 sec) 
Heartbeat CPU 0 instructions: 140000000 cycles: 88400714 heartbeat IPC: 1.57964 cumulative IPC: 1.5837 (Simulation time: 0 hr 3 min 12 sec) 
Heartbeat CPU 0 instructions: 150000001 cycles: 94734797 heartbeat IPC: 1.57876 cumulative IPC: 1.58337 (Simulation time: 0 hr 3 min 25 sec) 
Heartbeat CPU 0 instructions: 160000000 cycles: 101020386 heartbeat IPC: 1.59094 cumulative IPC: 1.58384 (Simulation time: 0 hr 3 min 39 sec) 
Heartbeat CPU 0 instructions: 170000001 cycles: 107323998 heartbeat IPC: 1.58639 cumulative IPC: 1.58399 (Simulation time: 0 hr 3 min 53 sec) 
Heartbeat CPU 0 instructions: 180000000 cycles: 113614686 heartbeat IPC: 1.58965 cumulative IPC: 1.5843 (Simulation time: 0 hr 4 min 6 sec) 
Heartbeat CPU 0 instructions: 190000001 cycles: 119933108 heartbeat IPC: 1.58267 cumulative IPC: 1.58422 (Simulation time: 0 hr 4 min 20 sec) 
Heartbeat CPU 0 instructions: 200000000 cycles: 126242458 heartbeat IPC: 1.58495 cumulative IPC: 1.58425 (Simulation time: 0 hr 4 min 34 sec) 

Warmup complete CPU 0 instructions: 200000001 cycles: 126242459 (Simulation time: 0 hr 4 min 34 sec) 

Heartbeat CPU 0 instructions: 210000000 cycles: 148963641 heartbeat IPC: 0.440118 cumulative IPC: 0.440118 (Simulation time: 0 hr 4 min 58 sec) 
Heartbeat CPU 0 instructions: 220000000 cycles: 171744362 heartbeat IPC: 0.438968 cumulative IPC: 0.439542 (Simulation time: 0 hr 5 min 23 sec) 
Heartbeat CPU 0 instructions: 230000001 cycles: 194742837 heartbeat IPC: 0.434811 cumulative IPC: 0.437954 (Simulation time: 0 hr 5 min 48 sec) 
Heartbeat CPU 0 instructions: 240000000 cycles: 217757299 heartbeat IPC: 0.434509 cumulative IPC: 0.437088 (Simulation time: 0 hr 6 min 12 sec) 
Heartbeat CPU 0 instructions: 250000000 cycles: 240686138 heartbeat IPC: 0.436132 cumulative IPC: 0.436896 (Simulation time: 0 hr 6 min 37 sec) 
Heartbeat CPU 0 instructions: 260000000 cycles: 263868435 heartbeat IPC: 0.431364 cumulative IPC: 0.435964 (Simulation time: 0 hr 7 min 2 sec) 
Heartbeat CPU 0 instructions: 270000001 cycles: 287080281 heartbeat IPC: 0.430815 cumulative IPC: 0.435221 (Simulation time: 0 hr 7 min 26 sec) 
Heartbeat CPU 0 instructions: 280000000 cycles: 310209157 heartbeat IPC: 0.43236 cumulative IPC: 0.434861 (Simulation time: 0 hr 7 min 51 sec) 
Heartbeat CPU 0 instructions: 290000002 cycles: 333384771 heartbeat IPC: 0.431488 cumulative IPC: 0.434484 (Simulation time: 0 hr 8 min 16 sec) 
Heartbeat CPU 0 instructions: 300000000 cycles: 356569302 heartbeat IPC: 0.431322 cumulative IPC: 0.434166 (Simulation time: 0 hr 8 min 41 sec) 
Heartbeat CPU 0 instructions: 310000001 cycles: 379715350 heartbeat IPC: 0.432039 cumulative IPC: 0.433971 (Simulation time: 0 hr 9 min 5 sec) 
Heartbeat CPU 0 instructions: 320000000 cycles: 402724302 heartbeat IPC: 0.434613 cumulative IPC: 0.434025 (Simulation time: 0 hr 9 min 30 sec) 
Heartbeat CPU 0 instructions: 330000000 cycles: 425926770 heartbeat IPC: 0.430989 cumulative IPC: 0.43379 (Simulation time: 0 hr 9 min 55 sec) 
Heartbeat CPU 0 instructions: 340000000 cycles: 448995168 heartbeat IPC: 0.433493 cumulative IPC: 0.433769 (Simulation time: 0 hr 10 min 19 sec) 
Heartbeat CPU 0 instructions: 350000003 cycles: 472052778 heartbeat IPC: 0.433696 cumulative IPC: 0.433764 (Simulation time: 0 hr 10 min 44 sec) 
Heartbeat CPU 0 instructions: 360000000 cycles: 495125706 heartbeat IPC: 0.433408 cumulative IPC: 0.433742 (Simulation time: 0 hr 11 min 9 sec) 
Heartbeat CPU 0 instructions: 370000000 cycles: 517839964 heartbeat IPC: 0.440252 cumulative IPC: 0.434119 (Simulation time: 0 hr 11 min 33 sec) 
Heartbeat CPU 0 instructions: 380000000 cycles: 540413477 heartbeat IPC: 0.442997 cumulative IPC: 0.434603 (Simulation time: 0 hr 11 min 58 sec) 
Heartbeat CPU 0 instructions: 390000001 cycles: 563163376 heartbeat IPC: 0.439562 cumulative IPC: 0.434861 (Simulation time: 0 hr 12 min 22 sec) 
Heartbeat CPU 0 instructions: 400000000 cycles: 585707496 heartbeat IPC: 0.443575 cumulative IPC: 0.435289 (Simulation time: 0 hr 12 min 47 sec) 
Heartbeat CPU 0 instructions: 410000000 cycles: 608429567 heartbeat IPC: 0.440101 cumulative IPC: 0.435516 (Simulation time: 0 hr 13 min 11 sec) 
Heartbeat CPU 0 instructions: 420000000 cycles: 631193083 heartbeat IPC: 0.439299 cumulative IPC: 0.435686 (Simulation time: 0 hr 13 min 36 sec) 
Heartbeat CPU 0 instructions: 430000000 cycles: 654100393 heartbeat IPC: 0.436542 cumulative IPC: 0.435723 (Simulation time: 0 hr 14 min 1 sec) 
Heartbeat CPU 0 instructions: 440000000 cycles: 677119527 heartbeat IPC: 0.434421 cumulative IPC: 0.435669 (Simulation time: 0 hr 14 min 25 sec) 
Heartbeat CPU 0 instructions: 450000001 cycles: 699997133 heartbeat IPC: 0.437109 cumulative IPC: 0.435726 (Simulation time: 0 hr 14 min 50 sec) 
Heartbeat CPU 0 instructions: 460000000 cycles: 723071941 heartbeat IPC: 0.433373 cumulative IPC: 0.435635 (Simulation time: 0 hr 15 min 15 sec) 
Heartbeat CPU 0 instructions: 470000000 cycles: 746111487 heartbeat IPC: 0.434036 cumulative IPC: 0.435576 (Simulation time: 0 hr 15 min 39 sec) 
Heartbeat CPU 0 instructions: 480000000 cycles: 769250954 heartbeat IPC: 0.432162 cumulative IPC: 0.435453 (Simulation time: 0 hr 16 min 4 sec) 
Heartbeat CPU 0 instructions: 490000003 cycles: 792329188 heartbeat IPC: 0.433309 cumulative IPC: 0.435379 (Simulation time: 0 hr 16 min 29 sec) 
Heartbeat CPU 0 instructions: 500000000 cycles: 821707313 heartbeat IPC: 0.340389 cumulative IPC: 0.431366 (Simulation time: 0 hr 16 min 59 sec) 
Heartbeat CPU 0 instructions: 510000000 cycles: 844943944 heartbeat IPC: 0.430355 cumulative IPC: 0.431333 (Simulation time: 0 hr 17 min 24 sec) 
Heartbeat CPU 0 instructions: 520000000 cycles: 867881753 heartbeat IPC: 0.435961 cumulative IPC: 0.431477 (Simulation time: 0 hr 17 min 49 sec) 
Heartbeat CPU 0 instructions: 530000002 cycles: 890830133 heartbeat IPC: 0.435761 cumulative IPC: 0.431605 (Simulation time: 0 hr 18 min 14 sec) 
Heartbeat CPU 0 instructions: 540000000 cycles: 913840634 heartbeat IPC: 0.434584 cumulative IPC: 0.431692 (Simulation time: 0 hr 18 min 38 sec) 
Heartbeat CPU 0 instructions: 550000000 cycles: 937012785 heartbeat IPC: 0.431552 cumulative IPC: 0.431688 (Simulation time: 0 hr 19 min 3 sec) 
Heartbeat CPU 0 instructions: 560000000 cycles: 960114494 heartbeat IPC: 0.432868 cumulative IPC: 0.431721 (Simulation time: 0 hr 19 min 28 sec) 
Heartbeat CPU 0 instructions: 570000001 cycles: 983327745 heartbeat IPC: 0.430788 cumulative IPC: 0.431696 (Simulation time: 0 hr 19 min 53 sec) 
Heartbeat CPU 0 instructions: 580000000 cycles: 1006476746 heartbeat IPC: 0.431984 cumulative IPC: 0.431703 (Simulation time: 0 hr 20 min 18 sec) 
Heartbeat CPU 0 instructions: 590000001 cycles: 1029460261 heartbeat IPC: 0.435095 cumulative IPC: 0.43179 (Simulation time: 0 hr 20 min 42 sec) 
Heartbeat CPU 0 instructions: 600000000 cycles: 1052336911 heartbeat IPC: 0.437127 cumulative IPC: 0.431921 (Simulation time: 0 hr 21 min 7 sec) 
Heartbeat CPU 0 instructions: 610000002 cycles: 1075326730 heartbeat IPC: 0.434975 cumulative IPC: 0.431995 (Simulation time: 0 hr 21 min 32 sec) 
Heartbeat CPU 0 instructions: 620000000 cycles: 1098293237 heartbeat IPC: 0.435417 cumulative IPC: 0.432076 (Simulation time: 0 hr 21 min 56 sec) 
Heartbeat CPU 0 instructions: 630000001 cycles: 1121183344 heartbeat IPC: 0.43687 cumulative IPC: 0.432186 (Simulation time: 0 hr 22 min 21 sec) 
Heartbeat CPU 0 instructions: 640000000 cycles: 1144178319 heartbeat IPC: 0.434878 cumulative IPC: 0.432247 (Simulation time: 0 hr 22 min 46 sec) 
Heartbeat CPU 0 instructions: 650000001 cycles: 1167074899 heartbeat IPC: 0.436746 cumulative IPC: 0.432346 (Simulation time: 0 hr 23 min 11 sec) 
Heartbeat CPU 0 instructions: 660000000 cycles: 1190234600 heartbeat IPC: 0.431784 cumulative IPC: 0.432334 (Simulation time: 0 hr 23 min 35 sec) 
Heartbeat CPU 0 instructions: 670000000 cycles: 1213313802 heartbeat IPC: 0.433291 cumulative IPC: 0.432354 (Simulation time: 0 hr 24 min 0 sec) 
Heartbeat CPU 0 instructions: 680000000 cycles: 1236358625 heartbeat IPC: 0.433937 cumulative IPC: 0.432387 (Simulation time: 0 hr 24 min 25 sec) 
Heartbeat CPU 0 instructions: 690000000 cycles: 1259198123 heartbeat IPC: 0.437838 cumulative IPC: 0.432497 (Simulation time: 0 hr 24 min 50 sec) 
Heartbeat CPU 0 instructions: 700000000 cycles: 1282055371 heartbeat IPC: 0.437498 cumulative IPC: 0.432596 (Simulation time: 0 hr 25 min 14 sec) 
Heartbeat CPU 0 instructions: 710000000 cycles: 1304851667 heartbeat IPC: 0.438668 cumulative IPC: 0.432713 (Simulation time: 0 hr 25 min 39 sec) 
Heartbeat CPU 0 instructions: 720000000 cycles: 1327655503 heartbeat IPC: 0.438523 cumulative IPC: 0.432824 (Simulation time: 0 hr 26 min 4 sec) 
Heartbeat CPU 0 instructions: 730000003 cycles: 1350486627 heartbeat IPC: 0.437999 cumulative IPC: 0.43292 (Simulation time: 0 hr 26 min 28 sec) 
Heartbeat CPU 0 instructions: 740000000 cycles: 1373335790 heartbeat IPC: 0.437653 cumulative IPC: 0.433007 (Simulation time: 0 hr 26 min 53 sec) 
Heartbeat CPU 0 instructions: 750000002 cycles: 1396392335 heartbeat IPC: 0.433716 cumulative IPC: 0.43302 (Simulation time: 0 hr 27 min 18 sec) 
Heartbeat CPU 0 instructions: 760000000 cycles: 1419547311 heartbeat IPC: 0.431873 cumulative IPC: 0.432999 (Simulation time: 0 hr 27 min 43 sec) 
Heartbeat CPU 0 instructions: 770000002 cycles: 1442526565 heartbeat IPC: 0.435175 cumulative IPC: 0.433037 (Simulation time: 0 hr 28 min 8 sec) 
Heartbeat CPU 0 instructions: 780000000 cycles: 1465483415 heartbeat IPC: 0.4356 cumulative IPC: 0.433081 (Simulation time: 0 hr 28 min 32 sec) 
Heartbeat CPU 0 instructions: 790000002 cycles: 1488434328 heartbeat IPC: 0.435713 cumulative IPC: 0.433125 (Simulation time: 0 hr 28 min 57 sec) 
Heartbeat CPU 0 instructions: 800000000 cycles: 1511447502 heartbeat IPC: 0.434534 cumulative IPC: 0.433149 (Simulation time: 0 hr 29 min 22 sec) 
Heartbeat CPU 0 instructions: 810000001 cycles: 1534347737 heartbeat IPC: 0.436677 cumulative IPC: 0.433206 (Simulation time: 0 hr 29 min 47 sec) 
Heartbeat CPU 0 instructions: 820000000 cycles: 1557195094 heartbeat IPC: 0.437687 cumulative IPC: 0.433278 (Simulation time: 0 hr 30 min 11 sec) 
Heartbeat CPU 0 instructions: 830000000 cycles: 1580279130 heartbeat IPC: 0.4332 cumulative IPC: 0.433277 (Simulation time: 0 hr 30 min 36 sec) 
Heartbeat CPU 0 instructions: 840000000 cycles: 1603201547 heartbeat IPC: 0.436254 cumulative IPC: 0.433323 (Simulation time: 0 hr 31 min 1 sec) 
Heartbeat CPU 0 instructions: 850000000 cycles: 1626196277 heartbeat IPC: 0.434882 cumulative IPC: 0.433347 (Simulation time: 0 hr 31 min 25 sec) 
Heartbeat CPU 0 instructions: 860000000 cycles: 1648939872 heartbeat IPC: 0.439684 cumulative IPC: 0.433441 (Simulation time: 0 hr 31 min 50 sec) 
Heartbeat CPU 0 instructions: 870000000 cycles: 1671845623 heartbeat IPC: 0.436572 cumulative IPC: 0.433488 (Simulation time: 0 hr 32 min 15 sec) 
Heartbeat CPU 0 instructions: 880000000 cycles: 1694641197 heartbeat IPC: 0.438682 cumulative IPC: 0.433563 (Simulation time: 0 hr 32 min 39 sec) 
Heartbeat CPU 0 instructions: 890000001 cycles: 1717709092 heartbeat IPC: 0.433503 cumulative IPC: 0.433562 (Simulation time: 0 hr 33 min 4 sec) 
Heartbeat CPU 0 instructions: 900000000 cycles: 1740743985 heartbeat IPC: 0.434124 cumulative IPC: 0.43357 (Simulation time: 0 hr 33 min 29 sec) 
Heartbeat CPU 0 instructions: 910000000 cycles: 1763667791 heartbeat IPC: 0.436228 cumulative IPC: 0.433608 (Simulation time: 0 hr 33 min 54 sec) 
Heartbeat CPU 0 instructions: 920000000 cycles: 1786825511 heartbeat IPC: 0.431821 cumulative IPC: 0.433583 (Simulation time: 0 hr 34 min 18 sec) 
Heartbeat CPU 0 instructions: 930000000 cycles: 1809966268 heartbeat IPC: 0.432138 cumulative IPC: 0.433563 (Simulation time: 0 hr 34 min 43 sec) 
Heartbeat CPU 0 instructions: 940000000 cycles: 1833035509 heartbeat IPC: 0.433478 cumulative IPC: 0.433562 (Simulation time: 0 hr 35 min 8 sec) 
Heartbeat CPU 0 instructions: 950000000 cycles: 1856137951 heartbeat IPC: 0.432855 cumulative IPC: 0.433552 (Simulation time: 0 hr 35 min 33 sec) 
Heartbeat CPU 0 instructions: 960000000 cycles: 1879064634 heartbeat IPC: 0.436173 cumulative IPC: 0.433586 (Simulation time: 0 hr 35 min 57 sec) 
Heartbeat CPU 0 instructions: 970000001 cycles: 1902077236 heartbeat IPC: 0.434545 cumulative IPC: 0.433599 (Simulation time: 0 hr 36 min 22 sec) 
Heartbeat CPU 0 instructions: 980000000 cycles: 1925097377 heartbeat IPC: 0.434402 cumulative IPC: 0.433609 (Simulation time: 0 hr 36 min 47 sec) 
Heartbeat CPU 0 instructions: 990000002 cycles: 1947957174 heartbeat IPC: 0.437449 cumulative IPC: 0.433657 (Simulation time: 0 hr 37 min 11 sec) 
Heartbeat CPU 0 instructions: 1000000000 cycles: 1971069113 heartbeat IPC: 0.432677 cumulative IPC: 0.433645 (Simulation time: 0 hr 37 min 36 sec) 
Heartbeat CPU 0 instructions: 1010000000 cycles: 1993993138 heartbeat IPC: 0.436224 cumulative IPC: 0.433677 (Simulation time: 0 hr 38 min 1 sec) 
Heartbeat CPU 0 instructions: 1020000000 cycles: 2016959710 heartbeat IPC: 0.435415 cumulative IPC: 0.433698 (Simulation time: 0 hr 38 min 26 sec) 
Heartbeat CPU 0 instructions: 1030000001 cycles: 2039836317 heartbeat IPC: 0.437128 cumulative IPC: 0.433739 (Simulation time: 0 hr 38 min 50 sec) 
Heartbeat CPU 0 instructions: 1040000000 cycles: 2062841362 heartbeat IPC: 0.434687 cumulative IPC: 0.43375 (Simulation time: 0 hr 39 min 15 sec) 
Heartbeat CPU 0 instructions: 1050000001 cycles: 2085908362 heartbeat IPC: 0.43352 cumulative IPC: 0.433747 (Simulation time: 0 hr 39 min 40 sec) 
Heartbeat CPU 0 instructions: 1060000000 cycles: 2108891896 heartbeat IPC: 0.435094 cumulative IPC: 0.433763 (Simulation time: 0 hr 40 min 5 sec) 
Heartbeat CPU 0 instructions: 1070000000 cycles: 2131903442 heartbeat IPC: 0.434564 cumulative IPC: 0.433772 (Simulation time: 0 hr 40 min 29 sec) 
Heartbeat CPU 0 instructions: 1080000000 cycles: 2154857544 heartbeat IPC: 0.435652 cumulative IPC: 0.433793 (Simulation time: 0 hr 40 min 54 sec) 
Heartbeat CPU 0 instructions: 1090000001 cycles: 2177731321 heartbeat IPC: 0.437182 cumulative IPC: 0.433831 (Simulation time: 0 hr 41 min 19 sec) 
Heartbeat CPU 0 instructions: 1100000000 cycles: 2200527162 heartbeat IPC: 0.438676 cumulative IPC: 0.433885 (Simulation time: 0 hr 41 min 43 sec) 
Heartbeat CPU 0 instructions: 1110000001 cycles: 2223519070 heartbeat IPC: 0.434936 cumulative IPC: 0.433896 (Simulation time: 0 hr 42 min 8 sec) 
Heartbeat CPU 0 instructions: 1120000000 cycles: 2246303873 heartbeat IPC: 0.438889 cumulative IPC: 0.43395 (Simulation time: 0 hr 42 min 33 sec) 
Heartbeat CPU 0 instructions: 1130000001 cycles: 2269087165 heartbeat IPC: 0.438918 cumulative IPC: 0.434003 (Simulation time: 0 hr 42 min 58 sec) 
Heartbeat CPU 0 instructions: 1140000000 cycles: 2291623655 heartbeat IPC: 0.443725 cumulative IPC: 0.434104 (Simulation time: 0 hr 43 min 22 sec) 
Heartbeat CPU 0 instructions: 1150000000 cycles: 2314520945 heartbeat IPC: 0.436733 cumulative IPC: 0.434131 (Simulation time: 0 hr 43 min 47 sec) 
Heartbeat CPU 0 instructions: 1160000000 cycles: 2337346620 heartbeat IPC: 0.438103 cumulative IPC: 0.434172 (Simulation time: 0 hr 44 min 12 sec) 
Heartbeat CPU 0 instructions: 1170000003 cycles: 2360109158 heartbeat IPC: 0.439318 cumulative IPC: 0.434225 (Simulation time: 0 hr 44 min 36 sec) 
Heartbeat CPU 0 instructions: 1180000000 cycles: 2382945580 heartbeat IPC: 0.437897 cumulative IPC: 0.434262 (Simulation time: 0 hr 45 min 1 sec) 
Heartbeat CPU 0 instructions: 1190000001 cycles: 2455576133 heartbeat IPC: 0.137683 cumulative IPC: 0.425014 (Simulation time: 0 hr 46 min 17 sec) 
Heartbeat CPU 0 instructions: 1200000000 cycles: 2480037249 heartbeat IPC: 0.408812 cumulative IPC: 0.424846 (Simulation time: 0 hr 46 min 43 sec) 
Finished CPU 0 instructions: 1000000000 cycles: 2353794803 cumulative IPC: 0.424846 (Simulation time: 0 hr 46 min 43 sec) 

CPU 0 Branch Prediction Accuracy: 84.7597% MPKI: 16.5558

ChampSim completed all CPUs

Region of Interest Statistics

CPU 0 cumulative IPC: 0.424846 instructions: 1000000000 cycles: 2353794803
L1D TOTAL     ACCESS:  333396209  HIT:  329456088  MISS:    3940121
L1D LOAD      ACCESS:  218348465  HIT:  215333311  MISS:    3015154
L1D RFO       ACCESS:  115047744  HIT:  114122777  MISS:     924967
L1D PREFETCH  ACCESS:          0  HIT:          0  MISS:          0
L1D WRITEBACK ACCESS:          0  HIT:          0  MISS:          0
L1D PREFETCH  REQUESTED:          0  ISSUED:          0  USEFUL:          0  USELESS:          0
L1I TOTAL     ACCESS:  231037866  HIT:  230967940  MISS:      69926
L1I LOAD      ACCESS:  231037866  HIT:  230967940  MISS:      69926
L1I RFO       ACCESS:          0  HIT:          0  MISS:          0
L1I PREFETCH  ACCESS:          0  HIT:          0  MISS:          0
L1I WRITEBACK ACCESS:          0  HIT:          0  MISS:          0
L1I PREFETCH  REQUESTED:          0  ISSUED:          0  USEFUL:          0  USELESS:          0
L2C TOTAL     ACCESS:    5782222  HIT:    4529257  MISS:    1252965
L2C LOAD      ACCESS:    3084983  HIT:    2857453  MISS:     227530
L2C RFO       ACCESS:     924967  HIT:     384591  MISS:     540376
L2C PREFETCH  ACCESS:     549206  HIT:      64667  MISS:     484539
L2C WRITEBACK ACCESS:    1223066  HIT:    1222546  MISS:        520
L2C PREFETCH  REQUESTED:     597677  ISSUED:     597677  USEFUL:     424000  USELESS:      69186
LLC TOTAL     ACCESS:    1835348  HIT:     710076  MISS:    1125272
LLC LOAD      ACCESS:     213674  HIT:      81373  MISS:     132301
LLC RFO       ACCESS:     540346  HIT:      11825  MISS:     528521
LLC PREFETCH  ACCESS:     505130  HIT:      40846  MISS:     464284
LLC WRITEBACK ACCESS:     576198  HIT:     576032  MISS:        166
LLC PREFETCH  REQUESTED:          0  ISSUED:          0  USEFUL:      13876  USELESS:     446415
Major fault: 0 Minor fault: 2505

L2C Best-offset prefetcher final stats

DRAM Statistics
 CHANNEL 0
 RQ ROW_BUFFER_HIT:     865592  ROW_BUFFER_MISS:     259490
 DBUS_CONGESTED:     784887
 WQ ROW_BUFFER_HIT:     266315  ROW_BUFFER_MISS:     276107  FULL:          0

 AVG_CONGESTED_CYCLE: 13
