
*** ChampSim Multicore Out-of-Order Simulator ***

Warmup Instructions: 200000000
Simulation Instructions: 1000000000
Number of CPUs: 1
LLC sets: 2048
LLC ways: 16
Off-chip DRAM Size: 4096 MB Channels: 1 Width: 64-bit Data Rate: 1600 MT/s

CPU 0 runs /scratch/user/djimenez/champsim-traces/speccpu2017/xz/641.leela_s/641.leela_s-800B.champsimtrace.xz
L2C Best-offset prefetcher
Heartbeat CPU 0 instructions: 10000001 cycles: 6351251 heartbeat IPC: 1.57449 cumulative IPC: 1.57449 (Simulation time: 0 hr 0 min 14 sec) 
Heartbeat CPU 0 instructions: 20000000 cycles: 12674768 heartbeat IPC: 1.5814 cumulative IPC: 1.57794 (Simulation time: 0 hr 0 min 28 sec) 
Heartbeat CPU 0 instructions: 30000000 cycles: 19020772 heartbeat IPC: 1.57579 cumulative IPC: 1.57722 (Simulation time: 0 hr 0 min 42 sec) 
Heartbeat CPU 0 instructions: 40000000 cycles: 25346374 heartbeat IPC: 1.58088 cumulative IPC: 1.57814 (Simulation time: 0 hr 0 min 56 sec) 
Heartbeat CPU 0 instructions: 50000000 cycles: 31675054 heartbeat IPC: 1.58011 cumulative IPC: 1.57853 (Simulation time: 0 hr 1 min 10 sec) 
Heartbeat CPU 0 instructions: 60000000 cycles: 38060183 heartbeat IPC: 1.56614 cumulative IPC: 1.57645 (Simulation time: 0 hr 1 min 24 sec) 
Heartbeat CPU 0 instructions: 70000000 cycles: 44424113 heartbeat IPC: 1.57136 cumulative IPC: 1.57572 (Simulation time: 0 hr 1 min 37 sec) 
Heartbeat CPU 0 instructions: 80000000 cycles: 50798047 heartbeat IPC: 1.56889 cumulative IPC: 1.57486 (Simulation time: 0 hr 1 min 51 sec) 
Heartbeat CPU 0 instructions: 90000002 cycles: 57157215 heartbeat IPC: 1.57253 cumulative IPC: 1.5746 (Simulation time: 0 hr 2 min 5 sec) 
Heartbeat CPU 0 instructions: 100000000 cycles: 63500944 heartbeat IPC: 1.57636 cumulative IPC: 1.57478 (Simulation time: 0 hr 2 min 19 sec) 
Heartbeat CPU 0 instructions: 110000000 cycles: 69820961 heartbeat IPC: 1.58227 cumulative IPC: 1.57546 (Simulation time: 0 hr 2 min 33 sec) 
Heartbeat CPU 0 instructions: 120000000 cycles: 76678946 heartbeat IPC: 1.45815 cumulative IPC: 1.56497 (Simulation time: 0 hr 2 min 48 sec) 
Heartbeat CPU 0 instructions: 130000001 cycles: 83046172 heartbeat IPC: 1.57054 cumulative IPC: 1.56539 (Simulation time: 0 hr 3 min 2 sec) 
Heartbeat CPU 0 instructions: 140000000 cycles: 89400630 heartbeat IPC: 1.5737 cumulative IPC: 1.56598 (Simulation time: 0 hr 3 min 16 sec) 
Heartbeat CPU 0 instructions: 150000000 cycles: 95756230 heartbeat IPC: 1.57342 cumulative IPC: 1.56648 (Simulation time: 0 hr 3 min 30 sec) 
Heartbeat CPU 0 instructions: 160000000 cycles: 102126742 heartbeat IPC: 1.56973 cumulative IPC: 1.56668 (Simulation time: 0 hr 3 min 44 sec) 
Heartbeat CPU 0 instructions: 170000000 cycles: 108497518 heartbeat IPC: 1.56967 cumulative IPC: 1.56686 (Simulation time: 0 hr 3 min 58 sec) 
Heartbeat CPU 0 instructions: 180000000 cycles: 114874393 heartbeat IPC: 1.56817 cumulative IPC: 1.56693 (Simulation time: 0 hr 4 min 12 sec) 
Heartbeat CPU 0 instructions: 190000003 cycles: 121236833 heartbeat IPC: 1.57172 cumulative IPC: 1.56718 (Simulation time: 0 hr 4 min 26 sec) 
Heartbeat CPU 0 instructions: 200000000 cycles: 127587335 heartbeat IPC: 1.57468 cumulative IPC: 1.56755 (Simulation time: 0 hr 4 min 40 sec) 

Warmup complete CPU 0 instructions: 200000002 cycles: 127587336 (Simulation time: 0 hr 4 min 40 sec) 

Heartbeat CPU 0 instructions: 210000000 cycles: 150668854 heartbeat IPC: 0.433247 cumulative IPC: 0.433247 (Simulation time: 0 hr 5 min 5 sec) 
Heartbeat CPU 0 instructions: 220000000 cycles: 173866921 heartbeat IPC: 0.43107 cumulative IPC: 0.432156 (Simulation time: 0 hr 5 min 30 sec) 
Heartbeat CPU 0 instructions: 230000003 cycles: 197267874 heartbeat IPC: 0.427333 cumulative IPC: 0.430536 (Simulation time: 0 hr 5 min 55 sec) 
Heartbeat CPU 0 instructions: 240000000 cycles: 220564127 heartbeat IPC: 0.429253 cumulative IPC: 0.430215 (Simulation time: 0 hr 6 min 20 sec) 
Heartbeat CPU 0 instructions: 250000001 cycles: 243842681 heartbeat IPC: 0.42958 cumulative IPC: 0.430088 (Simulation time: 0 hr 6 min 45 sec) 
Heartbeat CPU 0 instructions: 260000000 cycles: 267019835 heartbeat IPC: 0.431459 cumulative IPC: 0.430316 (Simulation time: 0 hr 7 min 11 sec) 
Heartbeat CPU 0 instructions: 270000003 cycles: 290234846 heartbeat IPC: 0.430756 cumulative IPC: 0.430379 (Simulation time: 0 hr 7 min 36 sec) 
Heartbeat CPU 0 instructions: 280000000 cycles: 313570310 heartbeat IPC: 0.428532 cumulative IPC: 0.430147 (Simulation time: 0 hr 8 min 1 sec) 
Heartbeat CPU 0 instructions: 290000001 cycles: 336593217 heartbeat IPC: 0.43435 cumulative IPC: 0.43061 (Simulation time: 0 hr 8 min 26 sec) 
Heartbeat CPU 0 instructions: 300000000 cycles: 359773457 heartbeat IPC: 0.431402 cumulative IPC: 0.430689 (Simulation time: 0 hr 8 min 51 sec) 
Heartbeat CPU 0 instructions: 310000000 cycles: 382888046 heartbeat IPC: 0.432627 cumulative IPC: 0.430864 (Simulation time: 0 hr 9 min 16 sec) 
Heartbeat CPU 0 instructions: 320000000 cycles: 406062963 heartbeat IPC: 0.431501 cumulative IPC: 0.430917 (Simulation time: 0 hr 9 min 41 sec) 
Heartbeat CPU 0 instructions: 330000000 cycles: 429115796 heartbeat IPC: 0.433786 cumulative IPC: 0.431137 (Simulation time: 0 hr 10 min 6 sec) 
Heartbeat CPU 0 instructions: 340000000 cycles: 452271373 heartbeat IPC: 0.431861 cumulative IPC: 0.431188 (Simulation time: 0 hr 10 min 32 sec) 
Heartbeat CPU 0 instructions: 350000000 cycles: 475534093 heartbeat IPC: 0.429872 cumulative IPC: 0.4311 (Simulation time: 0 hr 10 min 57 sec) 
Heartbeat CPU 0 instructions: 360000000 cycles: 498707511 heartbeat IPC: 0.431529 cumulative IPC: 0.431127 (Simulation time: 0 hr 11 min 22 sec) 
Heartbeat CPU 0 instructions: 370000001 cycles: 521875081 heartbeat IPC: 0.431638 cumulative IPC: 0.431157 (Simulation time: 0 hr 11 min 47 sec) 
Heartbeat CPU 0 instructions: 380000000 cycles: 545092030 heartbeat IPC: 0.43072 cumulative IPC: 0.431133 (Simulation time: 0 hr 12 min 12 sec) 
Heartbeat CPU 0 instructions: 390000003 cycles: 568508865 heartbeat IPC: 0.427043 cumulative IPC: 0.430916 (Simulation time: 0 hr 12 min 37 sec) 
Heartbeat CPU 0 instructions: 400000000 cycles: 591788300 heartbeat IPC: 0.429564 cumulative IPC: 0.430848 (Simulation time: 0 hr 13 min 2 sec) 
Heartbeat CPU 0 instructions: 410000000 cycles: 614877570 heartbeat IPC: 0.433102 cumulative IPC: 0.430955 (Simulation time: 0 hr 13 min 28 sec) 
Heartbeat CPU 0 instructions: 420000000 cycles: 638108654 heartbeat IPC: 0.430458 cumulative IPC: 0.430932 (Simulation time: 0 hr 13 min 53 sec) 
Heartbeat CPU 0 instructions: 430000003 cycles: 661331434 heartbeat IPC: 0.430612 cumulative IPC: 0.430918 (Simulation time: 0 hr 14 min 18 sec) 
Heartbeat CPU 0 instructions: 440000000 cycles: 684380171 heartbeat IPC: 0.433863 cumulative IPC: 0.43104 (Simulation time: 0 hr 14 min 43 sec) 
Heartbeat CPU 0 instructions: 450000001 cycles: 707699971 heartbeat IPC: 0.42882 cumulative IPC: 0.430951 (Simulation time: 0 hr 15 min 8 sec) 
Heartbeat CPU 0 instructions: 460000000 cycles: 730881518 heartbeat IPC: 0.431378 cumulative IPC: 0.430967 (Simulation time: 0 hr 15 min 33 sec) 
Heartbeat CPU 0 instructions: 470000000 cycles: 754077268 heartbeat IPC: 0.431113 cumulative IPC: 0.430973 (Simulation time: 0 hr 15 min 58 sec) 
Heartbeat CPU 0 instructions: 480000000 cycles: 777426910 heartbeat IPC: 0.428272 cumulative IPC: 0.430876 (Simulation time: 0 hr 16 min 23 sec) 
Heartbeat CPU 0 instructions: 490000000 cycles: 800303864 heartbeat IPC: 0.437121 cumulative IPC: 0.431088 (Simulation time: 0 hr 16 min 48 sec) 
Heartbeat CPU 0 instructions: 500000000 cycles: 823362351 heartbeat IPC: 0.43368 cumulative IPC: 0.431174 (Simulation time: 0 hr 17 min 13 sec) 
Heartbeat CPU 0 instructions: 510000001 cycles: 846557164 heartbeat IPC: 0.431131 cumulative IPC: 0.431172 (Simulation time: 0 hr 17 min 38 sec) 
Heartbeat CPU 0 instructions: 520000000 cycles: 870065990 heartbeat IPC: 0.425372 cumulative IPC: 0.430989 (Simulation time: 0 hr 18 min 3 sec) 
Heartbeat CPU 0 instructions: 530000001 cycles: 893374420 heartbeat IPC: 0.429029 cumulative IPC: 0.430929 (Simulation time: 0 hr 18 min 29 sec) 
Heartbeat CPU 0 instructions: 540000000 cycles: 916590420 heartbeat IPC: 0.430737 cumulative IPC: 0.430924 (Simulation time: 0 hr 18 min 54 sec) 
Heartbeat CPU 0 instructions: 550000002 cycles: 939786767 heartbeat IPC: 0.431102 cumulative IPC: 0.430929 (Simulation time: 0 hr 19 min 19 sec) 
Heartbeat CPU 0 instructions: 560000000 cycles: 963130908 heartbeat IPC: 0.428373 cumulative IPC: 0.430857 (Simulation time: 0 hr 19 min 44 sec) 
Heartbeat CPU 0 instructions: 570000000 cycles: 986454526 heartbeat IPC: 0.42875 cumulative IPC: 0.4308 (Simulation time: 0 hr 20 min 9 sec) 
Heartbeat CPU 0 instructions: 580000000 cycles: 1009587777 heartbeat IPC: 0.432278 cumulative IPC: 0.430839 (Simulation time: 0 hr 20 min 34 sec) 
Heartbeat CPU 0 instructions: 590000000 cycles: 1032857631 heartbeat IPC: 0.429741 cumulative IPC: 0.430811 (Simulation time: 0 hr 20 min 59 sec) 
Heartbeat CPU 0 instructions: 600000000 cycles: 1056116524 heartbeat IPC: 0.429943 cumulative IPC: 0.430789 (Simulation time: 0 hr 21 min 24 sec) 
Heartbeat CPU 0 instructions: 610000001 cycles: 1079269625 heartbeat IPC: 0.431908 cumulative IPC: 0.430816 (Simulation time: 0 hr 21 min 49 sec) 
Heartbeat CPU 0 instructions: 620000000 cycles: 1102563209 heartbeat IPC: 0.429303 cumulative IPC: 0.43078 (Simulation time: 0 hr 22 min 14 sec) 
Heartbeat CPU 0 instructions: 630000000 cycles: 1125787632 heartbeat IPC: 0.430581 cumulative IPC: 0.430775 (Simulation time: 0 hr 22 min 39 sec) 
Heartbeat CPU 0 instructions: 640000000 cycles: 1149021849 heartbeat IPC: 0.4304 cumulative IPC: 0.430767 (Simulation time: 0 hr 23 min 4 sec) 
Heartbeat CPU 0 instructions: 650000000 cycles: 1172257846 heartbeat IPC: 0.430367 cumulative IPC: 0.430758 (Simulation time: 0 hr 23 min 29 sec) 
Heartbeat CPU 0 instructions: 660000000 cycles: 1195427751 heartbeat IPC: 0.431594 cumulative IPC: 0.430776 (Simulation time: 0 hr 23 min 55 sec) 
Heartbeat CPU 0 instructions: 670000000 cycles: 1218721701 heartbeat IPC: 0.429296 cumulative IPC: 0.430744 (Simulation time: 0 hr 24 min 20 sec) 
Heartbeat CPU 0 instructions: 680000000 cycles: 1241995173 heartbeat IPC: 0.429674 cumulative IPC: 0.430722 (Simulation time: 0 hr 24 min 45 sec) 
Heartbeat CPU 0 instructions: 690000000 cycles: 1265172853 heartbeat IPC: 0.43145 cumulative IPC: 0.430737 (Simulation time: 0 hr 25 min 10 sec) 
Heartbeat CPU 0 instructions: 700000000 cycles: 1288368159 heartbeat IPC: 0.431122 cumulative IPC: 0.430745 (Simulation time: 0 hr 25 min 35 sec) 
Heartbeat CPU 0 instructions: 710000001 cycles: 1311459723 heartbeat IPC: 0.433059 cumulative IPC: 0.43079 (Simulation time: 0 hr 26 min 0 sec) 
Heartbeat CPU 0 instructions: 720000000 cycles: 1334783057 heartbeat IPC: 0.428755 cumulative IPC: 0.43075 (Simulation time: 0 hr 26 min 25 sec) 
Heartbeat CPU 0 instructions: 730000000 cycles: 1358044221 heartbeat IPC: 0.429901 cumulative IPC: 0.430734 (Simulation time: 0 hr 26 min 50 sec) 
Heartbeat CPU 0 instructions: 740000000 cycles: 1381215880 heartbeat IPC: 0.431562 cumulative IPC: 0.43075 (Simulation time: 0 hr 27 min 15 sec) 
Heartbeat CPU 0 instructions: 750000000 cycles: 1404477021 heartbeat IPC: 0.429902 cumulative IPC: 0.430734 (Simulation time: 0 hr 27 min 40 sec) 
Heartbeat CPU 0 instructions: 760000000 cycles: 1427740340 heartbeat IPC: 0.429861 cumulative IPC: 0.430719 (Simulation time: 0 hr 28 min 5 sec) 
Heartbeat CPU 0 instructions: 770000002 cycles: 1451008021 heartbeat IPC: 0.429781 cumulative IPC: 0.430702 (Simulation time: 0 hr 28 min 30 sec) 
Heartbeat CPU 0 instructions: 780000000 cycles: 1474272946 heartbeat IPC: 0.429832 cumulative IPC: 0.430687 (Simulation time: 0 hr 28 min 55 sec) 
Heartbeat CPU 0 instructions: 790000000 cycles: 1497565864 heartbeat IPC: 0.429315 cumulative IPC: 0.430664 (Simulation time: 0 hr 29 min 20 sec) 
Heartbeat CPU 0 instructions: 800000000 cycles: 1520682372 heartbeat IPC: 0.432591 cumulative IPC: 0.430696 (Simulation time: 0 hr 29 min 45 sec) 
Heartbeat CPU 0 instructions: 810000000 cycles: 1543977814 heartbeat IPC: 0.429269 cumulative IPC: 0.430672 (Simulation time: 0 hr 30 min 10 sec) 
Heartbeat CPU 0 instructions: 820000000 cycles: 1567180909 heartbeat IPC: 0.430977 cumulative IPC: 0.430677 (Simulation time: 0 hr 30 min 35 sec) 
Heartbeat CPU 0 instructions: 830000002 cycles: 1590313037 heartbeat IPC: 0.432299 cumulative IPC: 0.430703 (Simulation time: 0 hr 31 min 0 sec) 
Heartbeat CPU 0 instructions: 840000000 cycles: 1613439620 heartbeat IPC: 0.432403 cumulative IPC: 0.430729 (Simulation time: 0 hr 31 min 25 sec) 
Heartbeat CPU 0 instructions: 850000003 cycles: 1636629575 heartbeat IPC: 0.431221 cumulative IPC: 0.430737 (Simulation time: 0 hr 31 min 51 sec) 
Heartbeat CPU 0 instructions: 860000000 cycles: 1659916832 heartbeat IPC: 0.429419 cumulative IPC: 0.430717 (Simulation time: 0 hr 32 min 16 sec) 
Heartbeat CPU 0 instructions: 870000000 cycles: 1683150864 heartbeat IPC: 0.430403 cumulative IPC: 0.430712 (Simulation time: 0 hr 32 min 41 sec) 
Heartbeat CPU 0 instructions: 880000000 cycles: 1706441797 heartbeat IPC: 0.429352 cumulative IPC: 0.430692 (Simulation time: 0 hr 33 min 6 sec) 
Heartbeat CPU 0 instructions: 890000001 cycles: 1729630892 heartbeat IPC: 0.431237 cumulative IPC: 0.4307 (Simulation time: 0 hr 33 min 31 sec) 
Heartbeat CPU 0 instructions: 900000000 cycles: 1752528200 heartbeat IPC: 0.436733 cumulative IPC: 0.430785 (Simulation time: 0 hr 33 min 56 sec) 
Heartbeat CPU 0 instructions: 910000000 cycles: 1775597333 heartbeat IPC: 0.43348 cumulative IPC: 0.430823 (Simulation time: 0 hr 34 min 21 sec) 
Heartbeat CPU 0 instructions: 920000000 cycles: 1798830858 heartbeat IPC: 0.430413 cumulative IPC: 0.430817 (Simulation time: 0 hr 34 min 46 sec) 
Heartbeat CPU 0 instructions: 930000001 cycles: 1822008505 heartbeat IPC: 0.43145 cumulative IPC: 0.430826 (Simulation time: 0 hr 35 min 12 sec) 
Heartbeat CPU 0 instructions: 940000000 cycles: 1845057017 heartbeat IPC: 0.433867 cumulative IPC: 0.430866 (Simulation time: 0 hr 35 min 37 sec) 
Heartbeat CPU 0 instructions: 950000003 cycles: 1868041658 heartbeat IPC: 0.435073 cumulative IPC: 0.430922 (Simulation time: 0 hr 36 min 2 sec) 
Heartbeat CPU 0 instructions: 960000000 cycles: 1894550076 heartbeat IPC: 0.377239 cumulative IPC: 0.430117 (Simulation time: 0 hr 36 min 30 sec) 
Heartbeat CPU 0 instructions: 970000003 cycles: 1917529717 heartbeat IPC: 0.435168 cumulative IPC: 0.430181 (Simulation time: 0 hr 36 min 55 sec) 
Heartbeat CPU 0 instructions: 980000000 cycles: 1940477939 heartbeat IPC: 0.435763 cumulative IPC: 0.430252 (Simulation time: 0 hr 37 min 20 sec) 
Heartbeat CPU 0 instructions: 990000001 cycles: 1963479076 heartbeat IPC: 0.434761 cumulative IPC: 0.430309 (Simulation time: 0 hr 37 min 45 sec) 
Heartbeat CPU 0 instructions: 1000000000 cycles: 1986483755 heartbeat IPC: 0.434694 cumulative IPC: 0.430363 (Simulation time: 0 hr 38 min 10 sec) 
Heartbeat CPU 0 instructions: 1010000000 cycles: 2009415746 heartbeat IPC: 0.436072 cumulative IPC: 0.430432 (Simulation time: 0 hr 38 min 35 sec) 
Heartbeat CPU 0 instructions: 1020000000 cycles: 2032353890 heartbeat IPC: 0.435955 cumulative IPC: 0.430499 (Simulation time: 0 hr 39 min 0 sec) 
Heartbeat CPU 0 instructions: 1030000000 cycles: 2055260998 heartbeat IPC: 0.436546 cumulative IPC: 0.430571 (Simulation time: 0 hr 39 min 25 sec) 
Heartbeat CPU 0 instructions: 1040000000 cycles: 2078196080 heartbeat IPC: 0.436013 cumulative IPC: 0.430635 (Simulation time: 0 hr 39 min 50 sec) 
Heartbeat CPU 0 instructions: 1050000001 cycles: 2101353609 heartbeat IPC: 0.431825 cumulative IPC: 0.430649 (Simulation time: 0 hr 40 min 15 sec) 
Heartbeat CPU 0 instructions: 1060000000 cycles: 2124296863 heartbeat IPC: 0.435858 cumulative IPC: 0.430709 (Simulation time: 0 hr 40 min 40 sec) 
Heartbeat CPU 0 instructions: 1070000002 cycles: 2147314085 heartbeat IPC: 0.434457 cumulative IPC: 0.430751 (Simulation time: 0 hr 41 min 5 sec) 
Heartbeat CPU 0 instructions: 1080000000 cycles: 2170338140 heartbeat IPC: 0.434328 cumulative IPC: 0.430792 (Simulation time: 0 hr 41 min 30 sec) 
Heartbeat CPU 0 instructions: 1090000000 cycles: 2193524593 heartbeat IPC: 0.431286 cumulative IPC: 0.430797 (Simulation time: 0 hr 41 min 56 sec) 
Heartbeat CPU 0 instructions: 1100000000 cycles: 2216358740 heartbeat IPC: 0.437941 cumulative IPC: 0.430875 (Simulation time: 0 hr 42 min 20 sec) 
Heartbeat CPU 0 instructions: 1110000000 cycles: 2239621323 heartbeat IPC: 0.429875 cumulative IPC: 0.430864 (Simulation time: 0 hr 42 min 46 sec) 
Heartbeat CPU 0 instructions: 1120000000 cycles: 2262809501 heartbeat IPC: 0.431254 cumulative IPC: 0.430869 (Simulation time: 0 hr 43 min 11 sec) 
Heartbeat CPU 0 instructions: 1130000002 cycles: 2285954854 heartbeat IPC: 0.432052 cumulative IPC: 0.430881 (Simulation time: 0 hr 43 min 36 sec) 
Heartbeat CPU 0 instructions: 1140000000 cycles: 2308902951 heartbeat IPC: 0.435766 cumulative IPC: 0.430933 (Simulation time: 0 hr 44 min 1 sec) 
Heartbeat CPU 0 instructions: 1150000000 cycles: 2331960775 heartbeat IPC: 0.433692 cumulative IPC: 0.430961 (Simulation time: 0 hr 44 min 26 sec) 
Heartbeat CPU 0 instructions: 1160000000 cycles: 2355197465 heartbeat IPC: 0.430354 cumulative IPC: 0.430955 (Simulation time: 0 hr 44 min 51 sec) 
Heartbeat CPU 0 instructions: 1170000000 cycles: 2378388596 heartbeat IPC: 0.431199 cumulative IPC: 0.430958 (Simulation time: 0 hr 45 min 16 sec) 
Heartbeat CPU 0 instructions: 1180000000 cycles: 2401437049 heartbeat IPC: 0.433869 cumulative IPC: 0.430987 (Simulation time: 0 hr 45 min 41 sec) 
Heartbeat CPU 0 instructions: 1190000001 cycles: 2424432730 heartbeat IPC: 0.434864 cumulative IPC: 0.431026 (Simulation time: 0 hr 46 min 6 sec) 
Heartbeat CPU 0 instructions: 1200000000 cycles: 2447500891 heartbeat IPC: 0.433498 cumulative IPC: 0.431051 (Simulation time: 0 hr 46 min 31 sec) 
Finished CPU 0 instructions: 1000000000 cycles: 2319913563 cumulative IPC: 0.431051 (Simulation time: 0 hr 46 min 31 sec) 

CPU 0 Branch Prediction Accuracy: 84.7757% MPKI: 15.9388

ChampSim completed all CPUs

Region of Interest Statistics

CPU 0 cumulative IPC: 0.431051 instructions: 1000000000 cycles: 2319913563
L1D TOTAL     ACCESS:  332476570  HIT:  329560763  MISS:    2915807
L1D LOAD      ACCESS:  217325428  HIT:  214732163  MISS:    2593265
L1D RFO       ACCESS:  115151142  HIT:  114828600  MISS:     322542
L1D PREFETCH  ACCESS:          0  HIT:          0  MISS:          0
L1D WRITEBACK ACCESS:          0  HIT:          0  MISS:          0
L1D PREFETCH  REQUESTED:          0  ISSUED:          0  USEFUL:          0  USELESS:          0
L1I TOTAL     ACCESS:  229019072  HIT:  228963440  MISS:      55632
L1I LOAD      ACCESS:  229019072  HIT:  228963440  MISS:      55632
L1I RFO       ACCESS:          0  HIT:          0  MISS:          0
L1I PREFETCH  ACCESS:          0  HIT:          0  MISS:          0
L1I WRITEBACK ACCESS:          0  HIT:          0  MISS:          0
L1I PREFETCH  REQUESTED:          0  ISSUED:          0  USEFUL:          0  USELESS:          0
L2C TOTAL     ACCESS:    3650502  HIT:    3429280  MISS:     221222
L2C LOAD      ACCESS:    2648872  HIT:    2548082  MISS:     100790
L2C RFO       ACCESS:     322542  HIT:     281948  MISS:      40594
L2C PREFETCH  ACCESS:     127908  HIT:      48342  MISS:      79566
L2C WRITEBACK ACCESS:     551180  HIT:     550908  MISS:        272
L2C PREFETCH  REQUESTED:     186726  ISSUED:     186726  USEFUL:      65170  USELESS:      57463
LLC TOTAL     ACCESS:     271934  HIT:     203652  MISS:      68282
LLC LOAD      ACCESS:      99440  HIT:      89204  MISS:      10236
LLC RFO       ACCESS:      40591  HIT:       9350  MISS:      31241
LLC PREFETCH  ACCESS:      81161  HIT:      54373  MISS:      26788
LLC WRITEBACK ACCESS:      50742  HIT:      50725  MISS:         17
LLC PREFETCH  REQUESTED:          0  ISSUED:          0  USEFUL:       4552  USELESS:      42423
Major fault: 0 Minor fault: 1756

L2C Best-offset prefetcher final stats

DRAM Statistics
 CHANNEL 0
 RQ ROW_BUFFER_HIT:      48089  ROW_BUFFER_MISS:      20091
 DBUS_CONGESTED:      48774
 WQ ROW_BUFFER_HIT:      12137  ROW_BUFFER_MISS:      23833  FULL:          0

 AVG_CONGESTED_CYCLE: 13
