
*** ChampSim Multicore Out-of-Order Simulator ***

Warmup Instructions: 200000000
Simulation Instructions: 1000000000
Number of CPUs: 1
LLC sets: 2048
LLC ways: 16
Off-chip DRAM Size: 4096 MB Channels: 1 Width: 64-bit Data Rate: 1600 MT/s

CPU 0 runs /scratch/user/djimenez/champsim-traces/speccpu2017/xz/644.nab_s/644.nab_s-12459B.champsimtrace.xz
L2C Best-offset prefetcher
Heartbeat CPU 0 instructions: 10000000 cycles: 4635707 heartbeat IPC: 2.15717 cumulative IPC: 2.15717 (Simulation time: 0 hr 0 min 14 sec) 
Heartbeat CPU 0 instructions: 20000000 cycles: 9297575 heartbeat IPC: 2.14506 cumulative IPC: 2.1511 (Simulation time: 0 hr 0 min 28 sec) 
Heartbeat CPU 0 instructions: 30000001 cycles: 13991542 heartbeat IPC: 2.13039 cumulative IPC: 2.14415 (Simulation time: 0 hr 0 min 42 sec) 
Heartbeat CPU 0 instructions: 40000000 cycles: 18644035 heartbeat IPC: 2.14938 cumulative IPC: 2.14546 (Simulation time: 0 hr 0 min 55 sec) 
Heartbeat CPU 0 instructions: 50000002 cycles: 23345001 heartbeat IPC: 2.12722 cumulative IPC: 2.14179 (Simulation time: 0 hr 1 min 10 sec) 
Heartbeat CPU 0 instructions: 60000000 cycles: 28112695 heartbeat IPC: 2.09745 cumulative IPC: 2.13427 (Simulation time: 0 hr 1 min 24 sec) 
Heartbeat CPU 0 instructions: 70000001 cycles: 32937453 heartbeat IPC: 2.07264 cumulative IPC: 2.12524 (Simulation time: 0 hr 1 min 38 sec) 
Heartbeat CPU 0 instructions: 80000000 cycles: 37742088 heartbeat IPC: 2.08132 cumulative IPC: 2.11965 (Simulation time: 0 hr 1 min 53 sec) 
Heartbeat CPU 0 instructions: 90000000 cycles: 42504847 heartbeat IPC: 2.09962 cumulative IPC: 2.11741 (Simulation time: 0 hr 2 min 7 sec) 
Heartbeat CPU 0 instructions: 100000000 cycles: 47350607 heartbeat IPC: 2.06366 cumulative IPC: 2.11191 (Simulation time: 0 hr 2 min 22 sec) 
Heartbeat CPU 0 instructions: 110000001 cycles: 52289133 heartbeat IPC: 2.0249 cumulative IPC: 2.10369 (Simulation time: 0 hr 2 min 36 sec) 
Heartbeat CPU 0 instructions: 120000000 cycles: 57303004 heartbeat IPC: 1.99447 cumulative IPC: 2.09413 (Simulation time: 0 hr 2 min 51 sec) 
Heartbeat CPU 0 instructions: 130000001 cycles: 62228568 heartbeat IPC: 2.03022 cumulative IPC: 2.08907 (Simulation time: 0 hr 3 min 6 sec) 
Heartbeat CPU 0 instructions: 140000000 cycles: 67067387 heartbeat IPC: 2.06662 cumulative IPC: 2.08745 (Simulation time: 0 hr 3 min 21 sec) 
Heartbeat CPU 0 instructions: 150000000 cycles: 71903710 heartbeat IPC: 2.06769 cumulative IPC: 2.08612 (Simulation time: 0 hr 3 min 35 sec) 
Heartbeat CPU 0 instructions: 160000000 cycles: 76734845 heartbeat IPC: 2.06991 cumulative IPC: 2.0851 (Simulation time: 0 hr 3 min 50 sec) 
Heartbeat CPU 0 instructions: 170000003 cycles: 81578947 heartbeat IPC: 2.06437 cumulative IPC: 2.08387 (Simulation time: 0 hr 4 min 4 sec) 
Heartbeat CPU 0 instructions: 180000000 cycles: 86389412 heartbeat IPC: 2.0788 cumulative IPC: 2.08359 (Simulation time: 0 hr 4 min 19 sec) 
Heartbeat CPU 0 instructions: 190000000 cycles: 91155902 heartbeat IPC: 2.09798 cumulative IPC: 2.08434 (Simulation time: 0 hr 4 min 33 sec) 
Heartbeat CPU 0 instructions: 200000000 cycles: 95932764 heartbeat IPC: 2.09342 cumulative IPC: 2.08479 (Simulation time: 0 hr 4 min 48 sec) 

Warmup complete CPU 0 instructions: 200000001 cycles: 95932765 (Simulation time: 0 hr 4 min 48 sec) 

Heartbeat CPU 0 instructions: 210000000 cycles: 110486882 heartbeat IPC: 0.687091 cumulative IPC: 0.687091 (Simulation time: 0 hr 5 min 12 sec) 
Heartbeat CPU 0 instructions: 220000000 cycles: 125150031 heartbeat IPC: 0.681982 cumulative IPC: 0.684527 (Simulation time: 0 hr 5 min 37 sec) 
Heartbeat CPU 0 instructions: 230000003 cycles: 139617948 heartbeat IPC: 0.691185 cumulative IPC: 0.686732 (Simulation time: 0 hr 6 min 1 sec) 
Heartbeat CPU 0 instructions: 240000000 cycles: 154242630 heartbeat IPC: 0.683775 cumulative IPC: 0.68599 (Simulation time: 0 hr 6 min 25 sec) 
Heartbeat CPU 0 instructions: 250000001 cycles: 168739850 heartbeat IPC: 0.689788 cumulative IPC: 0.686746 (Simulation time: 0 hr 6 min 50 sec) 
Heartbeat CPU 0 instructions: 260000000 cycles: 183254572 heartbeat IPC: 0.688956 cumulative IPC: 0.687114 (Simulation time: 0 hr 7 min 14 sec) 
Heartbeat CPU 0 instructions: 270000002 cycles: 197879999 heartbeat IPC: 0.683741 cumulative IPC: 0.68663 (Simulation time: 0 hr 7 min 39 sec) 
Heartbeat CPU 0 instructions: 280000000 cycles: 212535122 heartbeat IPC: 0.682355 cumulative IPC: 0.686092 (Simulation time: 0 hr 8 min 3 sec) 
Heartbeat CPU 0 instructions: 290000001 cycles: 227237795 heartbeat IPC: 0.680148 cumulative IPC: 0.685427 (Simulation time: 0 hr 8 min 28 sec) 
Heartbeat CPU 0 instructions: 300000000 cycles: 242047038 heartbeat IPC: 0.675254 cumulative IPC: 0.684396 (Simulation time: 0 hr 8 min 52 sec) 
Heartbeat CPU 0 instructions: 310000002 cycles: 256867113 heartbeat IPC: 0.674761 cumulative IPC: 0.683509 (Simulation time: 0 hr 9 min 17 sec) 
Heartbeat CPU 0 instructions: 320000000 cycles: 271851647 heartbeat IPC: 0.667355 cumulative IPC: 0.682133 (Simulation time: 0 hr 9 min 42 sec) 
Heartbeat CPU 0 instructions: 330000003 cycles: 286683567 heartbeat IPC: 0.674222 cumulative IPC: 0.681517 (Simulation time: 0 hr 10 min 6 sec) 
Heartbeat CPU 0 instructions: 340000000 cycles: 301579244 heartbeat IPC: 0.671336 cumulative IPC: 0.68078 (Simulation time: 0 hr 10 min 31 sec) 
Heartbeat CPU 0 instructions: 350000003 cycles: 316499410 heartbeat IPC: 0.670234 cumulative IPC: 0.680067 (Simulation time: 0 hr 10 min 56 sec) 
Heartbeat CPU 0 instructions: 360000000 cycles: 331336517 heartbeat IPC: 0.673986 cumulative IPC: 0.679683 (Simulation time: 0 hr 11 min 21 sec) 
Heartbeat CPU 0 instructions: 370000001 cycles: 346221242 heartbeat IPC: 0.67183 cumulative IPC: 0.679216 (Simulation time: 0 hr 11 min 45 sec) 
Heartbeat CPU 0 instructions: 380000000 cycles: 361243143 heartbeat IPC: 0.665695 cumulative IPC: 0.678451 (Simulation time: 0 hr 12 min 10 sec) 
Heartbeat CPU 0 instructions: 390000000 cycles: 376142324 heartbeat IPC: 0.671178 cumulative IPC: 0.678064 (Simulation time: 0 hr 12 min 35 sec) 
Heartbeat CPU 0 instructions: 400000000 cycles: 391193018 heartbeat IPC: 0.664421 cumulative IPC: 0.677369 (Simulation time: 0 hr 13 min 0 sec) 
Heartbeat CPU 0 instructions: 410000001 cycles: 406299067 heartbeat IPC: 0.661987 cumulative IPC: 0.67662 (Simulation time: 0 hr 13 min 24 sec) 
Heartbeat CPU 0 instructions: 420000000 cycles: 421158098 heartbeat IPC: 0.672991 cumulative IPC: 0.676454 (Simulation time: 0 hr 13 min 49 sec) 
Heartbeat CPU 0 instructions: 430000001 cycles: 436119623 heartbeat IPC: 0.668381 cumulative IPC: 0.676099 (Simulation time: 0 hr 14 min 14 sec) 
Heartbeat CPU 0 instructions: 440000000 cycles: 451025946 heartbeat IPC: 0.670856 cumulative IPC: 0.675879 (Simulation time: 0 hr 14 min 39 sec) 
Heartbeat CPU 0 instructions: 450000002 cycles: 465666942 heartbeat IPC: 0.683014 cumulative IPC: 0.676161 (Simulation time: 0 hr 15 min 3 sec) 
Heartbeat CPU 0 instructions: 460000000 cycles: 480262406 heartbeat IPC: 0.685144 cumulative IPC: 0.676503 (Simulation time: 0 hr 15 min 28 sec) 
Heartbeat CPU 0 instructions: 470000002 cycles: 494910088 heartbeat IPC: 0.682702 cumulative IPC: 0.67673 (Simulation time: 0 hr 15 min 52 sec) 
Heartbeat CPU 0 instructions: 480000000 cycles: 509616554 heartbeat IPC: 0.679973 cumulative IPC: 0.676845 (Simulation time: 0 hr 16 min 17 sec) 
Heartbeat CPU 0 instructions: 490000000 cycles: 524067590 heartbeat IPC: 0.691992 cumulative IPC: 0.677357 (Simulation time: 0 hr 16 min 41 sec) 
Heartbeat CPU 0 instructions: 500000000 cycles: 538732923 heartbeat IPC: 0.68188 cumulative IPC: 0.677507 (Simulation time: 0 hr 17 min 5 sec) 
Heartbeat CPU 0 instructions: 510000002 cycles: 553279060 heartbeat IPC: 0.687468 cumulative IPC: 0.677823 (Simulation time: 0 hr 17 min 30 sec) 
Heartbeat CPU 0 instructions: 520000000 cycles: 567655485 heartbeat IPC: 0.695583 cumulative IPC: 0.678365 (Simulation time: 0 hr 17 min 54 sec) 
Heartbeat CPU 0 instructions: 530000000 cycles: 582110797 heartbeat IPC: 0.691787 cumulative IPC: 0.678764 (Simulation time: 0 hr 18 min 18 sec) 
Heartbeat CPU 0 instructions: 540000000 cycles: 596767696 heartbeat IPC: 0.682273 cumulative IPC: 0.678866 (Simulation time: 0 hr 18 min 43 sec) 
Heartbeat CPU 0 instructions: 550000002 cycles: 611374519 heartbeat IPC: 0.684612 cumulative IPC: 0.679029 (Simulation time: 0 hr 19 min 7 sec) 
Heartbeat CPU 0 instructions: 560000000 cycles: 626093016 heartbeat IPC: 0.679417 cumulative IPC: 0.67904 (Simulation time: 0 hr 19 min 32 sec) 
Heartbeat CPU 0 instructions: 570000001 cycles: 641000348 heartbeat IPC: 0.670811 cumulative IPC: 0.678815 (Simulation time: 0 hr 19 min 57 sec) 
Heartbeat CPU 0 instructions: 580000000 cycles: 655713460 heartbeat IPC: 0.679666 cumulative IPC: 0.678837 (Simulation time: 0 hr 20 min 22 sec) 
Heartbeat CPU 0 instructions: 590000000 cycles: 670347389 heartbeat IPC: 0.683343 cumulative IPC: 0.678952 (Simulation time: 0 hr 20 min 46 sec) 
Heartbeat CPU 0 instructions: 600000000 cycles: 685105563 heartbeat IPC: 0.677591 cumulative IPC: 0.678918 (Simulation time: 0 hr 21 min 11 sec) 
Heartbeat CPU 0 instructions: 610000000 cycles: 699667958 heartbeat IPC: 0.6867 cumulative IPC: 0.679106 (Simulation time: 0 hr 21 min 35 sec) 
Heartbeat CPU 0 instructions: 620000000 cycles: 714244200 heartbeat IPC: 0.686048 cumulative IPC: 0.679269 (Simulation time: 0 hr 21 min 59 sec) 
Heartbeat CPU 0 instructions: 630000003 cycles: 728756582 heartbeat IPC: 0.689067 cumulative IPC: 0.679494 (Simulation time: 0 hr 22 min 23 sec) 
Heartbeat CPU 0 instructions: 640000000 cycles: 743703869 heartbeat IPC: 0.669018 cumulative IPC: 0.679252 (Simulation time: 0 hr 22 min 48 sec) 
Heartbeat CPU 0 instructions: 650000002 cycles: 758374360 heartbeat IPC: 0.681641 cumulative IPC: 0.679305 (Simulation time: 0 hr 23 min 13 sec) 
Heartbeat CPU 0 instructions: 660000000 cycles: 772975831 heartbeat IPC: 0.684862 cumulative IPC: 0.679425 (Simulation time: 0 hr 23 min 37 sec) 
Heartbeat CPU 0 instructions: 670000003 cycles: 787779685 heartbeat IPC: 0.6755 cumulative IPC: 0.679341 (Simulation time: 0 hr 24 min 2 sec) 
Heartbeat CPU 0 instructions: 680000000 cycles: 802384639 heartbeat IPC: 0.684699 cumulative IPC: 0.679452 (Simulation time: 0 hr 24 min 26 sec) 
Heartbeat CPU 0 instructions: 690000000 cycles: 817451727 heartbeat IPC: 0.663698 cumulative IPC: 0.679123 (Simulation time: 0 hr 24 min 51 sec) 
Heartbeat CPU 0 instructions: 700000000 cycles: 832470224 heartbeat IPC: 0.665846 cumulative IPC: 0.678852 (Simulation time: 0 hr 25 min 16 sec) 
Heartbeat CPU 0 instructions: 710000000 cycles: 847331557 heartbeat IPC: 0.672887 cumulative IPC: 0.678734 (Simulation time: 0 hr 25 min 41 sec) 
Heartbeat CPU 0 instructions: 720000000 cycles: 862048912 heartbeat IPC: 0.67947 cumulative IPC: 0.678748 (Simulation time: 0 hr 26 min 6 sec) 
Heartbeat CPU 0 instructions: 730000003 cycles: 877583884 heartbeat IPC: 0.643709 cumulative IPC: 0.678052 (Simulation time: 0 hr 26 min 31 sec) 
Heartbeat CPU 0 instructions: 740000000 cycles: 893194131 heartbeat IPC: 0.640605 cumulative IPC: 0.677319 (Simulation time: 0 hr 26 min 57 sec) 
Heartbeat CPU 0 instructions: 750000003 cycles: 908571394 heartbeat IPC: 0.650311 cumulative IPC: 0.676808 (Simulation time: 0 hr 27 min 22 sec) 
Heartbeat CPU 0 instructions: 760000000 cycles: 923690499 heartbeat IPC: 0.661415 cumulative IPC: 0.676526 (Simulation time: 0 hr 27 min 47 sec) 
Heartbeat CPU 0 instructions: 770000000 cycles: 939000749 heartbeat IPC: 0.653157 cumulative IPC: 0.676102 (Simulation time: 0 hr 28 min 12 sec) 
Heartbeat CPU 0 instructions: 780000000 cycles: 954939020 heartbeat IPC: 0.627421 cumulative IPC: 0.675199 (Simulation time: 0 hr 28 min 37 sec) 
Heartbeat CPU 0 instructions: 790000000 cycles: 970313806 heartbeat IPC: 0.650416 cumulative IPC: 0.674763 (Simulation time: 0 hr 29 min 3 sec) 
Heartbeat CPU 0 instructions: 800000000 cycles: 985677439 heartbeat IPC: 0.650888 cumulative IPC: 0.674351 (Simulation time: 0 hr 29 min 28 sec) 
Heartbeat CPU 0 instructions: 810000001 cycles: 1000952091 heartbeat IPC: 0.654679 cumulative IPC: 0.674019 (Simulation time: 0 hr 29 min 53 sec) 
Heartbeat CPU 0 instructions: 820000000 cycles: 1016623150 heartbeat IPC: 0.638119 cumulative IPC: 0.673408 (Simulation time: 0 hr 30 min 18 sec) 
Heartbeat CPU 0 instructions: 830000001 cycles: 1032355364 heartbeat IPC: 0.635639 cumulative IPC: 0.672773 (Simulation time: 0 hr 30 min 44 sec) 
Heartbeat CPU 0 instructions: 840000000 cycles: 1047999445 heartbeat IPC: 0.639219 cumulative IPC: 0.672222 (Simulation time: 0 hr 31 min 9 sec) 
Heartbeat CPU 0 instructions: 850000000 cycles: 1063794788 heartbeat IPC: 0.633098 cumulative IPC: 0.671583 (Simulation time: 0 hr 31 min 35 sec) 
Heartbeat CPU 0 instructions: 860000000 cycles: 1079833630 heartbeat IPC: 0.623486 cumulative IPC: 0.670799 (Simulation time: 0 hr 32 min 0 sec) 
Heartbeat CPU 0 instructions: 870000001 cycles: 1095875395 heartbeat IPC: 0.623373 cumulative IPC: 0.670038 (Simulation time: 0 hr 32 min 26 sec) 
Heartbeat CPU 0 instructions: 880000000 cycles: 1112031447 heartbeat IPC: 0.618963 cumulative IPC: 0.669226 (Simulation time: 0 hr 32 min 52 sec) 
Heartbeat CPU 0 instructions: 890000003 cycles: 1127683723 heartbeat IPC: 0.638885 cumulative IPC: 0.668766 (Simulation time: 0 hr 33 min 17 sec) 
Heartbeat CPU 0 instructions: 900000000 cycles: 1143611643 heartbeat IPC: 0.627828 cumulative IPC: 0.668144 (Simulation time: 0 hr 33 min 43 sec) 
Heartbeat CPU 0 instructions: 910000001 cycles: 1159413027 heartbeat IPC: 0.632856 cumulative IPC: 0.667619 (Simulation time: 0 hr 34 min 8 sec) 
Heartbeat CPU 0 instructions: 920000000 cycles: 1174832601 heartbeat IPC: 0.648526 cumulative IPC: 0.667346 (Simulation time: 0 hr 34 min 34 sec) 
Heartbeat CPU 0 instructions: 930000001 cycles: 1190535144 heartbeat IPC: 0.63684 cumulative IPC: 0.666909 (Simulation time: 0 hr 34 min 59 sec) 
Heartbeat CPU 0 instructions: 940000000 cycles: 1206372677 heartbeat IPC: 0.631411 cumulative IPC: 0.666403 (Simulation time: 0 hr 35 min 24 sec) 
Heartbeat CPU 0 instructions: 950000000 cycles: 1221522262 heartbeat IPC: 0.660084 cumulative IPC: 0.666318 (Simulation time: 0 hr 35 min 49 sec) 
Heartbeat CPU 0 instructions: 960000000 cycles: 1236921328 heartbeat IPC: 0.64939 cumulative IPC: 0.666089 (Simulation time: 0 hr 36 min 15 sec) 
Heartbeat CPU 0 instructions: 970000001 cycles: 1252430633 heartbeat IPC: 0.644774 cumulative IPC: 0.665803 (Simulation time: 0 hr 36 min 40 sec) 
Heartbeat CPU 0 instructions: 980000000 cycles: 1268042573 heartbeat IPC: 0.640535 cumulative IPC: 0.665467 (Simulation time: 0 hr 37 min 5 sec) 
Heartbeat CPU 0 instructions: 990000000 cycles: 1283520111 heartbeat IPC: 0.646098 cumulative IPC: 0.665214 (Simulation time: 0 hr 37 min 30 sec) 
Heartbeat CPU 0 instructions: 1000000000 cycles: 1298549346 heartbeat IPC: 0.66537 cumulative IPC: 0.665216 (Simulation time: 0 hr 37 min 55 sec) 
Heartbeat CPU 0 instructions: 1010000001 cycles: 1313670906 heartbeat IPC: 0.661308 cumulative IPC: 0.665168 (Simulation time: 0 hr 38 min 20 sec) 
Heartbeat CPU 0 instructions: 1020000000 cycles: 1329404192 heartbeat IPC: 0.635595 cumulative IPC: 0.66479 (Simulation time: 0 hr 38 min 46 sec) 
Heartbeat CPU 0 instructions: 1030000003 cycles: 1344974298 heartbeat IPC: 0.642257 cumulative IPC: 0.66451 (Simulation time: 0 hr 39 min 11 sec) 
Heartbeat CPU 0 instructions: 1040000000 cycles: 1360239803 heartbeat IPC: 0.655071 cumulative IPC: 0.664396 (Simulation time: 0 hr 39 min 36 sec) 
Heartbeat CPU 0 instructions: 1050000002 cycles: 1376032092 heartbeat IPC: 0.633221 cumulative IPC: 0.664011 (Simulation time: 0 hr 40 min 1 sec) 
Heartbeat CPU 0 instructions: 1060000000 cycles: 1391127266 heartbeat IPC: 0.662463 cumulative IPC: 0.663993 (Simulation time: 0 hr 40 min 26 sec) 
Heartbeat CPU 0 instructions: 1070000000 cycles: 1406219652 heartbeat IPC: 0.662586 cumulative IPC: 0.663977 (Simulation time: 0 hr 40 min 51 sec) 
Heartbeat CPU 0 instructions: 1080000000 cycles: 1421327754 heartbeat IPC: 0.661897 cumulative IPC: 0.663953 (Simulation time: 0 hr 41 min 16 sec) 
Heartbeat CPU 0 instructions: 1090000000 cycles: 1437227637 heartbeat IPC: 0.628935 cumulative IPC: 0.663538 (Simulation time: 0 hr 41 min 42 sec) 
Heartbeat CPU 0 instructions: 1100000000 cycles: 1452593916 heartbeat IPC: 0.650776 cumulative IPC: 0.663393 (Simulation time: 0 hr 42 min 7 sec) 
Heartbeat CPU 0 instructions: 1110000000 cycles: 1467645774 heartbeat IPC: 0.66437 cumulative IPC: 0.663404 (Simulation time: 0 hr 42 min 32 sec) 
Heartbeat CPU 0 instructions: 1120000000 cycles: 1482541578 heartbeat IPC: 0.67133 cumulative IPC: 0.663489 (Simulation time: 0 hr 42 min 57 sec) 
Heartbeat CPU 0 instructions: 1130000000 cycles: 1497588017 heartbeat IPC: 0.664609 cumulative IPC: 0.663501 (Simulation time: 0 hr 43 min 22 sec) 
Heartbeat CPU 0 instructions: 1140000000 cycles: 1512995044 heartbeat IPC: 0.649054 cumulative IPC: 0.663344 (Simulation time: 0 hr 43 min 47 sec) 
Heartbeat CPU 0 instructions: 1150000001 cycles: 1527976940 heartbeat IPC: 0.667472 cumulative IPC: 0.663387 (Simulation time: 0 hr 44 min 12 sec) 
Heartbeat CPU 0 instructions: 1160000000 cycles: 1542646967 heartbeat IPC: 0.681662 cumulative IPC: 0.663573 (Simulation time: 0 hr 44 min 36 sec) 
Heartbeat CPU 0 instructions: 1170000000 cycles: 1557653601 heartbeat IPC: 0.666372 cumulative IPC: 0.663601 (Simulation time: 0 hr 45 min 1 sec) 
Heartbeat CPU 0 instructions: 1180000000 cycles: 1572312952 heartbeat IPC: 0.682158 cumulative IPC: 0.663786 (Simulation time: 0 hr 45 min 26 sec) 
Heartbeat CPU 0 instructions: 1190000000 cycles: 1587410928 heartbeat IPC: 0.66234 cumulative IPC: 0.663771 (Simulation time: 0 hr 45 min 51 sec) 
Heartbeat CPU 0 instructions: 1200000000 cycles: 1602747467 heartbeat IPC: 0.652038 cumulative IPC: 0.663652 (Simulation time: 0 hr 46 min 16 sec) 
Finished CPU 0 instructions: 1000000003 cycles: 1506814710 cumulative IPC: 0.663652 (Simulation time: 0 hr 46 min 16 sec) 

CPU 0 Branch Prediction Accuracy: 96.5696% MPKI: 4.4956

ChampSim completed all CPUs

Region of Interest Statistics

CPU 0 cumulative IPC: 0.663652 instructions: 1000000003 cycles: 1506814710
L1D TOTAL     ACCESS:  263841744  HIT:  256520824  MISS:    7320920
L1D LOAD      ACCESS:  158188451  HIT:  151164942  MISS:    7023509
L1D RFO       ACCESS:  105653293  HIT:  105355882  MISS:     297411
L1D PREFETCH  ACCESS:          0  HIT:          0  MISS:          0
L1D WRITEBACK ACCESS:          0  HIT:          0  MISS:          0
L1D PREFETCH  REQUESTED:          0  ISSUED:          0  USEFUL:          0  USELESS:          0
L1I TOTAL     ACCESS:  222567023  HIT:  222567020  MISS:          3
L1I LOAD      ACCESS:  222567023  HIT:  222567020  MISS:          3
L1I RFO       ACCESS:          0  HIT:          0  MISS:          0
L1I PREFETCH  ACCESS:          0  HIT:          0  MISS:          0
L1I WRITEBACK ACCESS:          0  HIT:          0  MISS:          0
L1I PREFETCH  REQUESTED:          0  ISSUED:          0  USEFUL:          0  USELESS:          0
L2C TOTAL     ACCESS:   13315409  HIT:    6345668  MISS:    6969741
L2C LOAD      ACCESS:    7023512  HIT:    3113717  MISS:    3909795
L2C RFO       ACCESS:     297392  HIT:     133480  MISS:     163912
L2C PREFETCH  ACCESS:    5519580  HIT:    2633005  MISS:    2886575
L2C WRITEBACK ACCESS:     474925  HIT:     465466  MISS:       9459
L2C PREFETCH  REQUESTED:    6737181  ISSUED:    6737181  USEFUL:    2423713  USELESS:     897730
LLC TOTAL     ACCESS:    7207055  HIT:    7062100  MISS:     144955
LLC LOAD      ACCESS:    3800498  HIT:    3796483  MISS:       4015
LLC RFO       ACCESS:     163912  HIT:      30256  MISS:     133656
LLC PREFETCH  ACCESS:    2995871  HIT:    2988670  MISS:       7201
LLC WRITEBACK ACCESS:     246774  HIT:     246691  MISS:         83
LLC PREFETCH  REQUESTED:          0  ISSUED:          0  USEFUL:       7959  USELESS:       3620
Major fault: 0 Minor fault: 2917

L2C Best-offset prefetcher final stats

DRAM Statistics
 CHANNEL 0
 RQ ROW_BUFFER_HIT:     102633  ROW_BUFFER_MISS:      42239
 DBUS_CONGESTED:     155204
 WQ ROW_BUFFER_HIT:      71290  ROW_BUFFER_MISS:      63176  FULL:          0

 AVG_CONGESTED_CYCLE: 14
