
*** ChampSim Multicore Out-of-Order Simulator ***

Warmup Instructions: 200000000
Simulation Instructions: 1000000000
Number of CPUs: 1
LLC sets: 2048
LLC ways: 16
Off-chip DRAM Size: 4096 MB Channels: 1 Width: 64-bit Data Rate: 1600 MT/s

CPU 0 runs /scratch/user/djimenez/champsim-traces/speccpu2017/xz/644.nab_s/644.nab_s-5853B.champsimtrace.xz
L2C Best-offset prefetcher
Heartbeat CPU 0 instructions: 10000002 cycles: 5536104 heartbeat IPC: 1.80632 cumulative IPC: 1.80632 (Simulation time: 0 hr 0 min 23 sec) 
Heartbeat CPU 0 instructions: 20000000 cycles: 11070516 heartbeat IPC: 1.80688 cumulative IPC: 1.8066 (Simulation time: 0 hr 0 min 46 sec) 
Heartbeat CPU 0 instructions: 30000000 cycles: 16605626 heartbeat IPC: 1.80665 cumulative IPC: 1.80662 (Simulation time: 0 hr 1 min 10 sec) 
Heartbeat CPU 0 instructions: 40000000 cycles: 22140565 heartbeat IPC: 1.8067 cumulative IPC: 1.80664 (Simulation time: 0 hr 1 min 33 sec) 
Heartbeat CPU 0 instructions: 50000000 cycles: 27672797 heartbeat IPC: 1.80759 cumulative IPC: 1.80683 (Simulation time: 0 hr 1 min 56 sec) 
Heartbeat CPU 0 instructions: 60000000 cycles: 33208219 heartbeat IPC: 1.80655 cumulative IPC: 1.80678 (Simulation time: 0 hr 2 min 19 sec) 
Heartbeat CPU 0 instructions: 70000000 cycles: 38741630 heartbeat IPC: 1.8072 cumulative IPC: 1.80684 (Simulation time: 0 hr 2 min 42 sec) 
Heartbeat CPU 0 instructions: 80000000 cycles: 44274997 heartbeat IPC: 1.80722 cumulative IPC: 1.80689 (Simulation time: 0 hr 3 min 5 sec) 
Heartbeat CPU 0 instructions: 90000000 cycles: 49805039 heartbeat IPC: 1.8083 cumulative IPC: 1.80705 (Simulation time: 0 hr 3 min 28 sec) 
Heartbeat CPU 0 instructions: 100000000 cycles: 55340597 heartbeat IPC: 1.8065 cumulative IPC: 1.80699 (Simulation time: 0 hr 3 min 51 sec) 
Heartbeat CPU 0 instructions: 110000000 cycles: 60873831 heartbeat IPC: 1.80726 cumulative IPC: 1.80702 (Simulation time: 0 hr 4 min 14 sec) 
Heartbeat CPU 0 instructions: 120000000 cycles: 66409056 heartbeat IPC: 1.80661 cumulative IPC: 1.80698 (Simulation time: 0 hr 4 min 37 sec) 
Heartbeat CPU 0 instructions: 130000001 cycles: 71941528 heartbeat IPC: 1.80751 cumulative IPC: 1.80702 (Simulation time: 0 hr 5 min 1 sec) 
Heartbeat CPU 0 instructions: 140000000 cycles: 77477029 heartbeat IPC: 1.80652 cumulative IPC: 1.80699 (Simulation time: 0 hr 5 min 24 sec) 
Heartbeat CPU 0 instructions: 150000001 cycles: 83012018 heartbeat IPC: 1.80669 cumulative IPC: 1.80697 (Simulation time: 0 hr 5 min 47 sec) 
Heartbeat CPU 0 instructions: 160000000 cycles: 88547844 heartbeat IPC: 1.80641 cumulative IPC: 1.80693 (Simulation time: 0 hr 6 min 10 sec) 
Heartbeat CPU 0 instructions: 170000001 cycles: 94083171 heartbeat IPC: 1.80658 cumulative IPC: 1.80691 (Simulation time: 0 hr 6 min 33 sec) 
Heartbeat CPU 0 instructions: 180000000 cycles: 99618600 heartbeat IPC: 1.80654 cumulative IPC: 1.80689 (Simulation time: 0 hr 6 min 56 sec) 
Heartbeat CPU 0 instructions: 190000001 cycles: 105154198 heartbeat IPC: 1.80649 cumulative IPC: 1.80687 (Simulation time: 0 hr 7 min 19 sec) 
Heartbeat CPU 0 instructions: 200000000 cycles: 110689669 heartbeat IPC: 1.80653 cumulative IPC: 1.80685 (Simulation time: 0 hr 7 min 43 sec) 

Warmup complete CPU 0 instructions: 200000002 cycles: 110689671 (Simulation time: 0 hr 7 min 43 sec) 

Heartbeat CPU 0 instructions: 210000002 cycles: 125114191 heartbeat IPC: 0.693264 cumulative IPC: 0.693264 (Simulation time: 0 hr 8 min 15 sec) 
Heartbeat CPU 0 instructions: 220000000 cycles: 139536121 heartbeat IPC: 0.693388 cumulative IPC: 0.693326 (Simulation time: 0 hr 8 min 47 sec) 
Heartbeat CPU 0 instructions: 230000000 cycles: 153947073 heartbeat IPC: 0.693917 cumulative IPC: 0.693523 (Simulation time: 0 hr 9 min 19 sec) 
Heartbeat CPU 0 instructions: 240000000 cycles: 168369476 heartbeat IPC: 0.693366 cumulative IPC: 0.693484 (Simulation time: 0 hr 9 min 51 sec) 
Heartbeat CPU 0 instructions: 250000002 cycles: 182812056 heartbeat IPC: 0.692397 cumulative IPC: 0.693266 (Simulation time: 0 hr 10 min 23 sec) 
Heartbeat CPU 0 instructions: 260000000 cycles: 197249167 heartbeat IPC: 0.692659 cumulative IPC: 0.693165 (Simulation time: 0 hr 10 min 55 sec) 
Heartbeat CPU 0 instructions: 270000002 cycles: 211671860 heartbeat IPC: 0.693352 cumulative IPC: 0.693192 (Simulation time: 0 hr 11 min 27 sec) 
Heartbeat CPU 0 instructions: 280000000 cycles: 226080256 heartbeat IPC: 0.69404 cumulative IPC: 0.693297 (Simulation time: 0 hr 12 min 0 sec) 
Heartbeat CPU 0 instructions: 290000000 cycles: 240480826 heartbeat IPC: 0.694417 cumulative IPC: 0.693422 (Simulation time: 0 hr 12 min 32 sec) 
Heartbeat CPU 0 instructions: 300000000 cycles: 254890825 heartbeat IPC: 0.693963 cumulative IPC: 0.693476 (Simulation time: 0 hr 13 min 4 sec) 
Heartbeat CPU 0 instructions: 310000001 cycles: 269298550 heartbeat IPC: 0.694072 cumulative IPC: 0.69353 (Simulation time: 0 hr 13 min 36 sec) 
Heartbeat CPU 0 instructions: 320000000 cycles: 283711795 heartbeat IPC: 0.693806 cumulative IPC: 0.693553 (Simulation time: 0 hr 14 min 8 sec) 
Heartbeat CPU 0 instructions: 330000001 cycles: 298167442 heartbeat IPC: 0.691771 cumulative IPC: 0.693416 (Simulation time: 0 hr 14 min 39 sec) 
Heartbeat CPU 0 instructions: 340000000 cycles: 312592105 heartbeat IPC: 0.693257 cumulative IPC: 0.693404 (Simulation time: 0 hr 15 min 12 sec) 
Heartbeat CPU 0 instructions: 350000000 cycles: 327023533 heartbeat IPC: 0.692932 cumulative IPC: 0.693373 (Simulation time: 0 hr 15 min 44 sec) 
Heartbeat CPU 0 instructions: 360000000 cycles: 341434620 heartbeat IPC: 0.69391 cumulative IPC: 0.693406 (Simulation time: 0 hr 16 min 16 sec) 
Heartbeat CPU 0 instructions: 370000001 cycles: 355859462 heartbeat IPC: 0.693249 cumulative IPC: 0.693397 (Simulation time: 0 hr 16 min 48 sec) 
Heartbeat CPU 0 instructions: 380000000 cycles: 370287415 heartbeat IPC: 0.693099 cumulative IPC: 0.69338 (Simulation time: 0 hr 17 min 20 sec) 
Heartbeat CPU 0 instructions: 390000001 cycles: 384705516 heartbeat IPC: 0.693573 cumulative IPC: 0.693391 (Simulation time: 0 hr 17 min 52 sec) 
Heartbeat CPU 0 instructions: 400000000 cycles: 399119234 heartbeat IPC: 0.693783 cumulative IPC: 0.69341 (Simulation time: 0 hr 18 min 24 sec) 
Heartbeat CPU 0 instructions: 410000003 cycles: 413532892 heartbeat IPC: 0.693787 cumulative IPC: 0.693428 (Simulation time: 0 hr 18 min 56 sec) 
Heartbeat CPU 0 instructions: 420000000 cycles: 427954793 heartbeat IPC: 0.69339 cumulative IPC: 0.693426 (Simulation time: 0 hr 19 min 29 sec) 
Heartbeat CPU 0 instructions: 430000002 cycles: 442380141 heartbeat IPC: 0.693224 cumulative IPC: 0.693418 (Simulation time: 0 hr 20 min 1 sec) 
Heartbeat CPU 0 instructions: 440000000 cycles: 456839045 heartbeat IPC: 0.691615 cumulative IPC: 0.693342 (Simulation time: 0 hr 20 min 33 sec) 
Heartbeat CPU 0 instructions: 450000002 cycles: 471300590 heartbeat IPC: 0.691489 cumulative IPC: 0.693268 (Simulation time: 0 hr 21 min 5 sec) 
Heartbeat CPU 0 instructions: 460000000 cycles: 485766084 heartbeat IPC: 0.6913 cumulative IPC: 0.693192 (Simulation time: 0 hr 21 min 37 sec) 
Heartbeat CPU 0 instructions: 470000001 cycles: 500256550 heartbeat IPC: 0.690109 cumulative IPC: 0.693077 (Simulation time: 0 hr 22 min 9 sec) 
Heartbeat CPU 0 instructions: 480000000 cycles: 514738043 heartbeat IPC: 0.690536 cumulative IPC: 0.692986 (Simulation time: 0 hr 22 min 42 sec) 
Heartbeat CPU 0 instructions: 490000002 cycles: 529216029 heartbeat IPC: 0.690704 cumulative IPC: 0.692907 (Simulation time: 0 hr 23 min 14 sec) 
Heartbeat CPU 0 instructions: 500000000 cycles: 543730277 heartbeat IPC: 0.688978 cumulative IPC: 0.692776 (Simulation time: 0 hr 23 min 46 sec) 
Heartbeat CPU 0 instructions: 510000002 cycles: 558251045 heartbeat IPC: 0.688669 cumulative IPC: 0.692642 (Simulation time: 0 hr 24 min 18 sec) 
Heartbeat CPU 0 instructions: 520000000 cycles: 572770069 heartbeat IPC: 0.688751 cumulative IPC: 0.69252 (Simulation time: 0 hr 24 min 50 sec) 
Heartbeat CPU 0 instructions: 530000001 cycles: 587273929 heartbeat IPC: 0.689472 cumulative IPC: 0.692427 (Simulation time: 0 hr 25 min 23 sec) 
Heartbeat CPU 0 instructions: 540000000 cycles: 601739640 heartbeat IPC: 0.69129 cumulative IPC: 0.692394 (Simulation time: 0 hr 25 min 55 sec) 
Heartbeat CPU 0 instructions: 550000001 cycles: 616209553 heartbeat IPC: 0.691089 cumulative IPC: 0.692357 (Simulation time: 0 hr 26 min 27 sec) 
Heartbeat CPU 0 instructions: 560000000 cycles: 630665663 heartbeat IPC: 0.691749 cumulative IPC: 0.69234 (Simulation time: 0 hr 26 min 59 sec) 
Heartbeat CPU 0 instructions: 570000000 cycles: 645130170 heartbeat IPC: 0.691347 cumulative IPC: 0.692313 (Simulation time: 0 hr 27 min 31 sec) 
Heartbeat CPU 0 instructions: 580000000 cycles: 659580491 heartbeat IPC: 0.692026 cumulative IPC: 0.692305 (Simulation time: 0 hr 28 min 3 sec) 
Heartbeat CPU 0 instructions: 590000003 cycles: 674054012 heartbeat IPC: 0.690917 cumulative IPC: 0.69227 (Simulation time: 0 hr 28 min 36 sec) 
Heartbeat CPU 0 instructions: 600000000 cycles: 688506024 heartbeat IPC: 0.691945 cumulative IPC: 0.692261 (Simulation time: 0 hr 29 min 8 sec) 
Heartbeat CPU 0 instructions: 610000000 cycles: 702966926 heartbeat IPC: 0.69152 cumulative IPC: 0.692243 (Simulation time: 0 hr 29 min 40 sec) 
Heartbeat CPU 0 instructions: 620000000 cycles: 717435750 heartbeat IPC: 0.691141 cumulative IPC: 0.692217 (Simulation time: 0 hr 30 min 12 sec) 
Heartbeat CPU 0 instructions: 630000000 cycles: 731918781 heartbeat IPC: 0.690463 cumulative IPC: 0.692176 (Simulation time: 0 hr 30 min 44 sec) 
Heartbeat CPU 0 instructions: 640000000 cycles: 746381682 heartbeat IPC: 0.691424 cumulative IPC: 0.692159 (Simulation time: 0 hr 31 min 16 sec) 
Heartbeat CPU 0 instructions: 650000002 cycles: 760863877 heartbeat IPC: 0.690503 cumulative IPC: 0.692122 (Simulation time: 0 hr 31 min 48 sec) 
Heartbeat CPU 0 instructions: 660000000 cycles: 775346155 heartbeat IPC: 0.690499 cumulative IPC: 0.692087 (Simulation time: 0 hr 32 min 21 sec) 
Heartbeat CPU 0 instructions: 670000001 cycles: 789861223 heartbeat IPC: 0.688939 cumulative IPC: 0.69202 (Simulation time: 0 hr 32 min 53 sec) 
Heartbeat CPU 0 instructions: 680000000 cycles: 804363924 heartbeat IPC: 0.689527 cumulative IPC: 0.691967 (Simulation time: 0 hr 33 min 25 sec) 
Heartbeat CPU 0 instructions: 690000002 cycles: 818835147 heartbeat IPC: 0.691027 cumulative IPC: 0.691948 (Simulation time: 0 hr 33 min 57 sec) 
Heartbeat CPU 0 instructions: 700000000 cycles: 833331731 heartbeat IPC: 0.689818 cumulative IPC: 0.691905 (Simulation time: 0 hr 34 min 29 sec) 
Heartbeat CPU 0 instructions: 710000000 cycles: 847826335 heartbeat IPC: 0.689912 cumulative IPC: 0.691866 (Simulation time: 0 hr 35 min 1 sec) 
Heartbeat CPU 0 instructions: 720000000 cycles: 862379035 heartbeat IPC: 0.687158 cumulative IPC: 0.691775 (Simulation time: 0 hr 35 min 34 sec) 
Heartbeat CPU 0 instructions: 730000003 cycles: 876913024 heartbeat IPC: 0.688043 cumulative IPC: 0.691704 (Simulation time: 0 hr 36 min 6 sec) 
Heartbeat CPU 0 instructions: 740000000 cycles: 891385633 heartbeat IPC: 0.69096 cumulative IPC: 0.691691 (Simulation time: 0 hr 36 min 38 sec) 
Heartbeat CPU 0 instructions: 750000000 cycles: 905870882 heartbeat IPC: 0.690358 cumulative IPC: 0.691666 (Simulation time: 0 hr 37 min 10 sec) 
Heartbeat CPU 0 instructions: 760000000 cycles: 920330140 heartbeat IPC: 0.691598 cumulative IPC: 0.691665 (Simulation time: 0 hr 37 min 42 sec) 
Heartbeat CPU 0 instructions: 770000000 cycles: 934789030 heartbeat IPC: 0.691616 cumulative IPC: 0.691664 (Simulation time: 0 hr 38 min 14 sec) 
Heartbeat CPU 0 instructions: 780000000 cycles: 949245840 heartbeat IPC: 0.691716 cumulative IPC: 0.691665 (Simulation time: 0 hr 38 min 47 sec) 
Heartbeat CPU 0 instructions: 790000000 cycles: 963681965 heartbeat IPC: 0.692707 cumulative IPC: 0.691683 (Simulation time: 0 hr 39 min 19 sec) 
Heartbeat CPU 0 instructions: 800000000 cycles: 978128710 heartbeat IPC: 0.692197 cumulative IPC: 0.691691 (Simulation time: 0 hr 39 min 51 sec) 
Heartbeat CPU 0 instructions: 810000002 cycles: 992560324 heartbeat IPC: 0.692923 cumulative IPC: 0.691711 (Simulation time: 0 hr 40 min 23 sec) 
Heartbeat CPU 0 instructions: 820000000 cycles: 1006972100 heartbeat IPC: 0.693877 cumulative IPC: 0.691746 (Simulation time: 0 hr 40 min 55 sec) 
Heartbeat CPU 0 instructions: 830000001 cycles: 1021388380 heartbeat IPC: 0.69366 cumulative IPC: 0.691777 (Simulation time: 0 hr 41 min 27 sec) 
Heartbeat CPU 0 instructions: 840000000 cycles: 1035803899 heartbeat IPC: 0.693697 cumulative IPC: 0.691806 (Simulation time: 0 hr 41 min 59 sec) 
Heartbeat CPU 0 instructions: 850000003 cycles: 1050231151 heartbeat IPC: 0.693133 cumulative IPC: 0.691827 (Simulation time: 0 hr 42 min 31 sec) 
Heartbeat CPU 0 instructions: 860000000 cycles: 1064665277 heartbeat IPC: 0.692802 cumulative IPC: 0.691842 (Simulation time: 0 hr 43 min 3 sec) 
Heartbeat CPU 0 instructions: 870000000 cycles: 1079075781 heartbeat IPC: 0.693938 cumulative IPC: 0.691873 (Simulation time: 0 hr 43 min 35 sec) 
Heartbeat CPU 0 instructions: 880000000 cycles: 1093506437 heartbeat IPC: 0.692969 cumulative IPC: 0.691889 (Simulation time: 0 hr 44 min 7 sec) 
Heartbeat CPU 0 instructions: 890000001 cycles: 1107926948 heartbeat IPC: 0.693457 cumulative IPC: 0.691912 (Simulation time: 0 hr 44 min 39 sec) 
Heartbeat CPU 0 instructions: 900000000 cycles: 1122363968 heartbeat IPC: 0.692664 cumulative IPC: 0.691922 (Simulation time: 0 hr 45 min 11 sec) 
Heartbeat CPU 0 instructions: 910000000 cycles: 1136782962 heartbeat IPC: 0.69353 cumulative IPC: 0.691945 (Simulation time: 0 hr 45 min 43 sec) 
Heartbeat CPU 0 instructions: 920000000 cycles: 1151192885 heartbeat IPC: 0.693966 cumulative IPC: 0.691973 (Simulation time: 0 hr 46 min 15 sec) 
Heartbeat CPU 0 instructions: 930000000 cycles: 1165639848 heartbeat IPC: 0.692187 cumulative IPC: 0.691976 (Simulation time: 0 hr 46 min 47 sec) 
Heartbeat CPU 0 instructions: 940000000 cycles: 1180114486 heartbeat IPC: 0.690864 cumulative IPC: 0.691961 (Simulation time: 0 hr 47 min 19 sec) 
Heartbeat CPU 0 instructions: 950000000 cycles: 1194579643 heartbeat IPC: 0.691316 cumulative IPC: 0.691952 (Simulation time: 0 hr 47 min 51 sec) 
Heartbeat CPU 0 instructions: 960000000 cycles: 1209111596 heartbeat IPC: 0.688139 cumulative IPC: 0.691902 (Simulation time: 0 hr 48 min 23 sec) 
Heartbeat CPU 0 instructions: 970000000 cycles: 1223641003 heartbeat IPC: 0.688259 cumulative IPC: 0.691854 (Simulation time: 0 hr 48 min 56 sec) 
Heartbeat CPU 0 instructions: 980000000 cycles: 1238164753 heartbeat IPC: 0.688527 cumulative IPC: 0.691811 (Simulation time: 0 hr 49 min 28 sec) 
Heartbeat CPU 0 instructions: 990000000 cycles: 1252670906 heartbeat IPC: 0.689363 cumulative IPC: 0.69178 (Simulation time: 0 hr 50 min 0 sec) 
Heartbeat CPU 0 instructions: 1000000000 cycles: 1267163958 heartbeat IPC: 0.689986 cumulative IPC: 0.691758 (Simulation time: 0 hr 50 min 32 sec) 
Heartbeat CPU 0 instructions: 1010000002 cycles: 1281712871 heartbeat IPC: 0.687337 cumulative IPC: 0.691703 (Simulation time: 0 hr 51 min 4 sec) 
Heartbeat CPU 0 instructions: 1020000000 cycles: 1296289242 heartbeat IPC: 0.686042 cumulative IPC: 0.691633 (Simulation time: 0 hr 51 min 36 sec) 
Heartbeat CPU 0 instructions: 1030000003 cycles: 1310880434 heartbeat IPC: 0.685345 cumulative IPC: 0.691557 (Simulation time: 0 hr 52 min 9 sec) 
Heartbeat CPU 0 instructions: 1040000000 cycles: 1325493605 heartbeat IPC: 0.684314 cumulative IPC: 0.69147 (Simulation time: 0 hr 52 min 41 sec) 
Heartbeat CPU 0 instructions: 1050000001 cycles: 1340133904 heartbeat IPC: 0.683046 cumulative IPC: 0.691369 (Simulation time: 0 hr 53 min 13 sec) 
Heartbeat CPU 0 instructions: 1060000000 cycles: 1354767627 heartbeat IPC: 0.683353 cumulative IPC: 0.691275 (Simulation time: 0 hr 53 min 45 sec) 
Heartbeat CPU 0 instructions: 1070000003 cycles: 1369416430 heartbeat IPC: 0.68265 cumulative IPC: 0.691175 (Simulation time: 0 hr 54 min 18 sec) 
Heartbeat CPU 0 instructions: 1080000000 cycles: 1384055371 heartbeat IPC: 0.683109 cumulative IPC: 0.691082 (Simulation time: 0 hr 54 min 50 sec) 
Heartbeat CPU 0 instructions: 1090000002 cycles: 1398722159 heartbeat IPC: 0.681813 cumulative IPC: 0.690976 (Simulation time: 0 hr 55 min 22 sec) 
Heartbeat CPU 0 instructions: 1100000000 cycles: 1413392037 heartbeat IPC: 0.681669 cumulative IPC: 0.690872 (Simulation time: 0 hr 55 min 54 sec) 
Heartbeat CPU 0 instructions: 1110000001 cycles: 1428041453 heartbeat IPC: 0.682621 cumulative IPC: 0.69078 (Simulation time: 0 hr 56 min 27 sec) 
Heartbeat CPU 0 instructions: 1120000000 cycles: 1442663923 heartbeat IPC: 0.683879 cumulative IPC: 0.690704 (Simulation time: 0 hr 56 min 59 sec) 
Heartbeat CPU 0 instructions: 1130000000 cycles: 1457168008 heartbeat IPC: 0.689461 cumulative IPC: 0.690691 (Simulation time: 0 hr 57 min 31 sec) 
Heartbeat CPU 0 instructions: 1140000000 cycles: 1471668629 heartbeat IPC: 0.689626 cumulative IPC: 0.690679 (Simulation time: 0 hr 58 min 3 sec) 
Heartbeat CPU 0 instructions: 1150000002 cycles: 1486184758 heartbeat IPC: 0.688889 cumulative IPC: 0.69066 (Simulation time: 0 hr 58 min 35 sec) 
Heartbeat CPU 0 instructions: 1160000000 cycles: 1500641828 heartbeat IPC: 0.691703 cumulative IPC: 0.690671 (Simulation time: 0 hr 59 min 7 sec) 
Heartbeat CPU 0 instructions: 1170000001 cycles: 1515203383 heartbeat IPC: 0.68674 cumulative IPC: 0.69063 (Simulation time: 0 hr 59 min 39 sec) 
Heartbeat CPU 0 instructions: 1180000000 cycles: 1529870406 heartbeat IPC: 0.681802 cumulative IPC: 0.690539 (Simulation time: 1 hr 0 min 11 sec) 
Heartbeat CPU 0 instructions: 1190000003 cycles: 1544463535 heartbeat IPC: 0.685254 cumulative IPC: 0.690485 (Simulation time: 1 hr 0 min 43 sec) 
Heartbeat CPU 0 instructions: 1200000000 cycles: 1559032505 heartbeat IPC: 0.68639 cumulative IPC: 0.690444 (Simulation time: 1 hr 1 min 16 sec) 
Finished CPU 0 instructions: 1000000000 cycles: 1448342856 cumulative IPC: 0.690444 (Simulation time: 1 hr 1 min 16 sec) 

CPU 0 Branch Prediction Accuracy: 99.9534% MPKI: 0.034807

ChampSim completed all CPUs

Region of Interest Statistics

CPU 0 cumulative IPC: 0.690444 instructions: 1000000000 cycles: 1448342856
L1D TOTAL     ACCESS:  328591093  HIT:  323614010  MISS:    4977083
L1D LOAD      ACCESS:  217942761  HIT:  212973033  MISS:    4969728
L1D RFO       ACCESS:  110648332  HIT:  110640977  MISS:       7355
L1D PREFETCH  ACCESS:          0  HIT:          0  MISS:          0
L1D WRITEBACK ACCESS:          0  HIT:          0  MISS:          0
L1D PREFETCH  REQUESTED:          0  ISSUED:          0  USEFUL:          0  USELESS:          0
L1I TOTAL     ACCESS:  385503467  HIT:  385503465  MISS:          2
L1I LOAD      ACCESS:  385503467  HIT:  385503465  MISS:          2
L1I RFO       ACCESS:          0  HIT:          0  MISS:          0
L1I PREFETCH  ACCESS:          0  HIT:          0  MISS:          0
L1I WRITEBACK ACCESS:          0  HIT:          0  MISS:          0
L1I PREFETCH  REQUESTED:          0  ISSUED:          0  USEFUL:          0  USELESS:          0
L2C TOTAL     ACCESS:    6651311  HIT:    6429577  MISS:     221734
L2C LOAD      ACCESS:    4969725  HIT:    4942010  MISS:      27715
L2C RFO       ACCESS:       7355  HIT:       6315  MISS:       1040
L2C PREFETCH  ACCESS:     203490  HIT:      10527  MISS:     192963
L2C WRITEBACK ACCESS:    1470741  HIT:    1470725  MISS:         16
L2C PREFETCH  REQUESTED:     245307  ISSUED:     245307  USEFUL:     218923  USELESS:      13060
LLC TOTAL     ACCESS:     232869  HIT:      29684  MISS:     203185
LLC LOAD      ACCESS:      27616  HIT:       9915  MISS:      17701
LLC RFO       ACCESS:       1040  HIT:       1039  MISS:          1
LLC PREFETCH  ACCESS:     193062  HIT:       8642  MISS:     184420
LLC WRITEBACK ACCESS:      11151  HIT:      10088  MISS:       1063
LLC PREFETCH  REQUESTED:          0  ISSUED:          0  USEFUL:       3523  USELESS:     190205
Major fault: 0 Minor fault: 9224

L2C Best-offset prefetcher final stats

DRAM Statistics
 CHANNEL 0
 RQ ROW_BUFFER_HIT:     183345  ROW_BUFFER_MISS:      18705
 DBUS_CONGESTED:      16566
 WQ ROW_BUFFER_HIT:       1717  ROW_BUFFER_MISS:       2986  FULL:          0

 AVG_CONGESTED_CYCLE: 10
