
*** ChampSim Multicore Out-of-Order Simulator ***

Warmup Instructions: 200000000
Simulation Instructions: 1000000000
Number of CPUs: 1
LLC sets: 2048
LLC ways: 16
Off-chip DRAM Size: 4096 MB Channels: 1 Width: 64-bit Data Rate: 1600 MT/s

CPU 0 runs /scratch/user/djimenez/champsim-traces/speccpu2017/xz/649.fotonik3d_s/649.fotonik3d_s-10881B.champsimtrace.xz
L2C Best-offset prefetcher
Heartbeat CPU 0 instructions: 10000001 cycles: 8411509 heartbeat IPC: 1.18885 cumulative IPC: 1.18885 (Simulation time: 0 hr 0 min 31 sec) 
Heartbeat CPU 0 instructions: 20000000 cycles: 16787213 heartbeat IPC: 1.19393 cumulative IPC: 1.19138 (Simulation time: 0 hr 1 min 1 sec) 
Heartbeat CPU 0 instructions: 30000000 cycles: 25158151 heartbeat IPC: 1.19461 cumulative IPC: 1.19246 (Simulation time: 0 hr 1 min 31 sec) 
Heartbeat CPU 0 instructions: 40000000 cycles: 33536535 heartbeat IPC: 1.19355 cumulative IPC: 1.19273 (Simulation time: 0 hr 2 min 2 sec) 
Heartbeat CPU 0 instructions: 50000001 cycles: 41956487 heartbeat IPC: 1.18766 cumulative IPC: 1.19171 (Simulation time: 0 hr 2 min 32 sec) 
Heartbeat CPU 0 instructions: 60000000 cycles: 50339238 heartbeat IPC: 1.19293 cumulative IPC: 1.19191 (Simulation time: 0 hr 3 min 3 sec) 
Heartbeat CPU 0 instructions: 70000003 cycles: 58710076 heartbeat IPC: 1.19462 cumulative IPC: 1.1923 (Simulation time: 0 hr 3 min 33 sec) 
Heartbeat CPU 0 instructions: 80000000 cycles: 67099769 heartbeat IPC: 1.19194 cumulative IPC: 1.19225 (Simulation time: 0 hr 4 min 4 sec) 
Heartbeat CPU 0 instructions: 90000001 cycles: 75506565 heartbeat IPC: 1.18951 cumulative IPC: 1.19195 (Simulation time: 0 hr 4 min 34 sec) 
Heartbeat CPU 0 instructions: 100000000 cycles: 83885102 heartbeat IPC: 1.19353 cumulative IPC: 1.19211 (Simulation time: 0 hr 5 min 5 sec) 
Heartbeat CPU 0 instructions: 110000002 cycles: 92266885 heartbeat IPC: 1.19306 cumulative IPC: 1.19219 (Simulation time: 0 hr 5 min 35 sec) 
Heartbeat CPU 0 instructions: 120000000 cycles: 100656858 heartbeat IPC: 1.1919 cumulative IPC: 1.19217 (Simulation time: 0 hr 6 min 6 sec) 
Heartbeat CPU 0 instructions: 130000001 cycles: 109060589 heartbeat IPC: 1.18995 cumulative IPC: 1.192 (Simulation time: 0 hr 6 min 36 sec) 
Heartbeat CPU 0 instructions: 140000000 cycles: 117439513 heartbeat IPC: 1.19347 cumulative IPC: 1.1921 (Simulation time: 0 hr 7 min 6 sec) 
Heartbeat CPU 0 instructions: 150000002 cycles: 125810042 heartbeat IPC: 1.19467 cumulative IPC: 1.19227 (Simulation time: 0 hr 7 min 37 sec) 
Heartbeat CPU 0 instructions: 160000000 cycles: 134208721 heartbeat IPC: 1.19066 cumulative IPC: 1.19217 (Simulation time: 0 hr 8 min 7 sec) 
Heartbeat CPU 0 instructions: 170000000 cycles: 142610585 heartbeat IPC: 1.19021 cumulative IPC: 1.19206 (Simulation time: 0 hr 8 min 38 sec) 
Heartbeat CPU 0 instructions: 180000000 cycles: 150983705 heartbeat IPC: 1.1943 cumulative IPC: 1.19218 (Simulation time: 0 hr 9 min 8 sec) 
Heartbeat CPU 0 instructions: 190000001 cycles: 159365546 heartbeat IPC: 1.19306 cumulative IPC: 1.19223 (Simulation time: 0 hr 9 min 39 sec) 
Heartbeat CPU 0 instructions: 200000000 cycles: 167754792 heartbeat IPC: 1.192 cumulative IPC: 1.19222 (Simulation time: 0 hr 10 min 9 sec) 

Warmup complete CPU 0 instructions: 200000001 cycles: 167754811 (Simulation time: 0 hr 10 min 9 sec) 

Heartbeat CPU 0 instructions: 210000002 cycles: 185591713 heartbeat IPC: 0.560635 cumulative IPC: 0.560636 (Simulation time: 0 hr 10 min 47 sec) 
Heartbeat CPU 0 instructions: 220000000 cycles: 203343187 heartbeat IPC: 0.563333 cumulative IPC: 0.561981 (Simulation time: 0 hr 11 min 25 sec) 
Heartbeat CPU 0 instructions: 230000002 cycles: 221075753 heartbeat IPC: 0.563934 cumulative IPC: 0.562631 (Simulation time: 0 hr 12 min 3 sec) 
Heartbeat CPU 0 instructions: 240000000 cycles: 238839765 heartbeat IPC: 0.562936 cumulative IPC: 0.562707 (Simulation time: 0 hr 12 min 41 sec) 
Heartbeat CPU 0 instructions: 250000001 cycles: 256621203 heartbeat IPC: 0.562384 cumulative IPC: 0.562642 (Simulation time: 0 hr 13 min 19 sec) 
Heartbeat CPU 0 instructions: 260000000 cycles: 274426331 heartbeat IPC: 0.561636 cumulative IPC: 0.562474 (Simulation time: 0 hr 13 min 57 sec) 
Heartbeat CPU 0 instructions: 270000001 cycles: 292145093 heartbeat IPC: 0.564374 cumulative IPC: 0.562745 (Simulation time: 0 hr 14 min 35 sec) 
Heartbeat CPU 0 instructions: 280000000 cycles: 337977692 heartbeat IPC: 0.218185 cumulative IPC: 0.469972 (Simulation time: 0 hr 15 min 24 sec) 
Heartbeat CPU 0 instructions: 290000000 cycles: 391282232 heartbeat IPC: 0.187601 cumulative IPC: 0.402635 (Simulation time: 0 hr 16 min 17 sec) 
Heartbeat CPU 0 instructions: 300000000 cycles: 409040944 heartbeat IPC: 0.563104 cumulative IPC: 0.414446 (Simulation time: 0 hr 16 min 55 sec) 
Heartbeat CPU 0 instructions: 310000002 cycles: 426858620 heartbeat IPC: 0.561241 cumulative IPC: 0.42454 (Simulation time: 0 hr 17 min 33 sec) 
Heartbeat CPU 0 instructions: 320000000 cycles: 444619000 heartbeat IPC: 0.563051 cumulative IPC: 0.433425 (Simulation time: 0 hr 18 min 11 sec) 
Heartbeat CPU 0 instructions: 330000002 cycles: 462388614 heartbeat IPC: 0.562759 cumulative IPC: 0.441226 (Simulation time: 0 hr 18 min 49 sec) 
Heartbeat CPU 0 instructions: 340000000 cycles: 480161632 heartbeat IPC: 0.562651 cumulative IPC: 0.448134 (Simulation time: 0 hr 19 min 28 sec) 
Heartbeat CPU 0 instructions: 350000003 cycles: 497867193 heartbeat IPC: 0.564794 cumulative IPC: 0.454391 (Simulation time: 0 hr 20 min 6 sec) 
Heartbeat CPU 0 instructions: 360000000 cycles: 515622564 heartbeat IPC: 0.56321 cumulative IPC: 0.459945 (Simulation time: 0 hr 20 min 44 sec) 
Heartbeat CPU 0 instructions: 370000000 cycles: 533366864 heartbeat IPC: 0.563561 cumulative IPC: 0.464974 (Simulation time: 0 hr 21 min 22 sec) 
Heartbeat CPU 0 instructions: 380000000 cycles: 551088874 heartbeat IPC: 0.56427 cumulative IPC: 0.469564 (Simulation time: 0 hr 22 min 0 sec) 
Heartbeat CPU 0 instructions: 390000001 cycles: 568815898 heartbeat IPC: 0.564111 cumulative IPC: 0.473743 (Simulation time: 0 hr 22 min 38 sec) 
Heartbeat CPU 0 instructions: 400000000 cycles: 586567918 heartbeat IPC: 0.563316 cumulative IPC: 0.47754 (Simulation time: 0 hr 23 min 16 sec) 
Heartbeat CPU 0 instructions: 410000003 cycles: 604286747 heartbeat IPC: 0.564372 cumulative IPC: 0.481064 (Simulation time: 0 hr 23 min 54 sec) 
Heartbeat CPU 0 instructions: 420000000 cycles: 621999731 heartbeat IPC: 0.564557 cumulative IPC: 0.48432 (Simulation time: 0 hr 24 min 32 sec) 
Heartbeat CPU 0 instructions: 430000003 cycles: 639701309 heartbeat IPC: 0.564922 cumulative IPC: 0.487343 (Simulation time: 0 hr 25 min 10 sec) 
Heartbeat CPU 0 instructions: 440000000 cycles: 657461677 heartbeat IPC: 0.563051 cumulative IPC: 0.490089 (Simulation time: 0 hr 25 min 48 sec) 
Heartbeat CPU 0 instructions: 450000002 cycles: 675214913 heartbeat IPC: 0.563278 cumulative IPC: 0.49265 (Simulation time: 0 hr 26 min 26 sec) 
Heartbeat CPU 0 instructions: 460000000 cycles: 692978212 heartbeat IPC: 0.562958 cumulative IPC: 0.495027 (Simulation time: 0 hr 27 min 4 sec) 
Heartbeat CPU 0 instructions: 470000003 cycles: 710724650 heartbeat IPC: 0.563494 cumulative IPC: 0.497265 (Simulation time: 0 hr 27 min 42 sec) 
Heartbeat CPU 0 instructions: 480000000 cycles: 728463080 heartbeat IPC: 0.563748 cumulative IPC: 0.499368 (Simulation time: 0 hr 28 min 20 sec) 
Heartbeat CPU 0 instructions: 490000000 cycles: 746171337 heartbeat IPC: 0.564708 cumulative IPC: 0.501369 (Simulation time: 0 hr 28 min 58 sec) 
Heartbeat CPU 0 instructions: 500000000 cycles: 763911374 heartbeat IPC: 0.563697 cumulative IPC: 0.503224 (Simulation time: 0 hr 29 min 36 sec) 
Heartbeat CPU 0 instructions: 510000000 cycles: 781643218 heartbeat IPC: 0.563957 cumulative IPC: 0.504978 (Simulation time: 0 hr 30 min 14 sec) 
Heartbeat CPU 0 instructions: 520000000 cycles: 799379930 heartbeat IPC: 0.563802 cumulative IPC: 0.50663 (Simulation time: 0 hr 30 min 52 sec) 
Heartbeat CPU 0 instructions: 530000002 cycles: 817100245 heartbeat IPC: 0.564324 cumulative IPC: 0.508204 (Simulation time: 0 hr 31 min 30 sec) 
Heartbeat CPU 0 instructions: 540000000 cycles: 834816327 heartbeat IPC: 0.564459 cumulative IPC: 0.509698 (Simulation time: 0 hr 32 min 8 sec) 
Heartbeat CPU 0 instructions: 550000000 cycles: 852559403 heartbeat IPC: 0.5636 cumulative IPC: 0.511095 (Simulation time: 0 hr 32 min 46 sec) 
Heartbeat CPU 0 instructions: 560000000 cycles: 870296777 heartbeat IPC: 0.563781 cumulative IPC: 0.512425 (Simulation time: 0 hr 33 min 24 sec) 
Heartbeat CPU 0 instructions: 570000001 cycles: 888034770 heartbeat IPC: 0.563762 cumulative IPC: 0.513689 (Simulation time: 0 hr 34 min 2 sec) 
Heartbeat CPU 0 instructions: 580000000 cycles: 905748990 heartbeat IPC: 0.564518 cumulative IPC: 0.514909 (Simulation time: 0 hr 34 min 40 sec) 
Heartbeat CPU 0 instructions: 590000003 cycles: 923507271 heartbeat IPC: 0.563118 cumulative IPC: 0.516042 (Simulation time: 0 hr 35 min 18 sec) 
Heartbeat CPU 0 instructions: 600000000 cycles: 941181612 heartbeat IPC: 0.565792 cumulative IPC: 0.517179 (Simulation time: 0 hr 35 min 56 sec) 
Heartbeat CPU 0 instructions: 610000000 cycles: 957292540 heartbeat IPC: 0.620697 cumulative IPC: 0.519291 (Simulation time: 0 hr 36 min 33 sec) 
Heartbeat CPU 0 instructions: 620000000 cycles: 969608529 heartbeat IPC: 0.811953 cumulative IPC: 0.523786 (Simulation time: 0 hr 37 min 9 sec) 
Heartbeat CPU 0 instructions: 630000000 cycles: 981957155 heartbeat IPC: 0.809807 cumulative IPC: 0.528124 (Simulation time: 0 hr 37 min 45 sec) 
Heartbeat CPU 0 instructions: 640000000 cycles: 994334233 heartbeat IPC: 0.807945 cumulative IPC: 0.532314 (Simulation time: 0 hr 38 min 21 sec) 
Heartbeat CPU 0 instructions: 650000002 cycles: 1006594471 heartbeat IPC: 0.815645 cumulative IPC: 0.536455 (Simulation time: 0 hr 38 min 57 sec) 
Heartbeat CPU 0 instructions: 660000000 cycles: 1018804622 heartbeat IPC: 0.818991 cumulative IPC: 0.540509 (Simulation time: 0 hr 39 min 33 sec) 
Heartbeat CPU 0 instructions: 670000000 cycles: 1031071044 heartbeat IPC: 0.815234 cumulative IPC: 0.544412 (Simulation time: 0 hr 40 min 9 sec) 
Heartbeat CPU 0 instructions: 680000000 cycles: 1043499085 heartbeat IPC: 0.804632 cumulative IPC: 0.548105 (Simulation time: 0 hr 40 min 45 sec) 
Heartbeat CPU 0 instructions: 690000003 cycles: 1056051646 heartbeat IPC: 0.79665 cumulative IPC: 0.551617 (Simulation time: 0 hr 41 min 19 sec) 
Heartbeat CPU 0 instructions: 700000000 cycles: 1067968751 heartbeat IPC: 0.83913 cumulative IPC: 0.555423 (Simulation time: 0 hr 41 min 52 sec) 
Heartbeat CPU 0 instructions: 710000003 cycles: 1079892827 heartbeat IPC: 0.83864 cumulative IPC: 0.559126 (Simulation time: 0 hr 42 min 26 sec) 
Heartbeat CPU 0 instructions: 720000000 cycles: 1091796572 heartbeat IPC: 0.840071 cumulative IPC: 0.562745 (Simulation time: 0 hr 43 min 0 sec) 
Heartbeat CPU 0 instructions: 730000001 cycles: 1103758636 heartbeat IPC: 0.835976 cumulative IPC: 0.566237 (Simulation time: 0 hr 43 min 33 sec) 
Heartbeat CPU 0 instructions: 740000000 cycles: 1115597687 heartbeat IPC: 0.844662 cumulative IPC: 0.569715 (Simulation time: 0 hr 44 min 7 sec) 
Heartbeat CPU 0 instructions: 750000003 cycles: 1127421988 heartbeat IPC: 0.845716 cumulative IPC: 0.573115 (Simulation time: 0 hr 44 min 40 sec) 
Heartbeat CPU 0 instructions: 760000000 cycles: 1139310462 heartbeat IPC: 0.841151 cumulative IPC: 0.576395 (Simulation time: 0 hr 45 min 14 sec) 
Heartbeat CPU 0 instructions: 770000000 cycles: 1151287807 heartbeat IPC: 0.83491 cumulative IPC: 0.579543 (Simulation time: 0 hr 45 min 47 sec) 
Heartbeat CPU 0 instructions: 780000000 cycles: 1163751380 heartbeat IPC: 0.802338 cumulative IPC: 0.582331 (Simulation time: 0 hr 46 min 23 sec) 
Heartbeat CPU 0 instructions: 790000000 cycles: 1176311839 heartbeat IPC: 0.796149 cumulative IPC: 0.584994 (Simulation time: 0 hr 46 min 59 sec) 
Heartbeat CPU 0 instructions: 800000000 cycles: 1189101898 heartbeat IPC: 0.781857 cumulative IPC: 0.587459 (Simulation time: 0 hr 47 min 35 sec) 
Heartbeat CPU 0 instructions: 810000000 cycles: 1201756830 heartbeat IPC: 0.790206 cumulative IPC: 0.589941 (Simulation time: 0 hr 48 min 12 sec) 
Heartbeat CPU 0 instructions: 820000000 cycles: 1214440540 heartbeat IPC: 0.788413 cumulative IPC: 0.592346 (Simulation time: 0 hr 48 min 48 sec) 
Heartbeat CPU 0 instructions: 830000003 cycles: 1227005043 heartbeat IPC: 0.795893 cumulative IPC: 0.59476 (Simulation time: 0 hr 49 min 23 sec) 
Heartbeat CPU 0 instructions: 840000000 cycles: 1239663519 heartbeat IPC: 0.789984 cumulative IPC: 0.597066 (Simulation time: 0 hr 50 min 0 sec) 
Heartbeat CPU 0 instructions: 850000003 cycles: 1252266183 heartbeat IPC: 0.793483 cumulative IPC: 0.599348 (Simulation time: 0 hr 50 min 36 sec) 
Heartbeat CPU 0 instructions: 860000000 cycles: 1264949092 heartbeat IPC: 0.788462 cumulative IPC: 0.601534 (Simulation time: 0 hr 51 min 12 sec) 
Heartbeat CPU 0 instructions: 870000000 cycles: 1277508739 heartbeat IPC: 0.796201 cumulative IPC: 0.603737 (Simulation time: 0 hr 51 min 48 sec) 
Heartbeat CPU 0 instructions: 880000000 cycles: 1290201633 heartbeat IPC: 0.787842 cumulative IPC: 0.605819 (Simulation time: 0 hr 52 min 24 sec) 
Heartbeat CPU 0 instructions: 890000000 cycles: 1302913179 heartbeat IPC: 0.786686 cumulative IPC: 0.607845 (Simulation time: 0 hr 53 min 0 sec) 
Heartbeat CPU 0 instructions: 900000000 cycles: 1315557729 heartbeat IPC: 0.790855 cumulative IPC: 0.609861 (Simulation time: 0 hr 53 min 36 sec) 
Heartbeat CPU 0 instructions: 910000002 cycles: 1328109856 heartbeat IPC: 0.796678 cumulative IPC: 0.611882 (Simulation time: 0 hr 54 min 12 sec) 
Heartbeat CPU 0 instructions: 920000000 cycles: 1340716370 heartbeat IPC: 0.793241 cumulative IPC: 0.613831 (Simulation time: 0 hr 54 min 47 sec) 
Heartbeat CPU 0 instructions: 930000001 cycles: 1353299509 heartbeat IPC: 0.794714 cumulative IPC: 0.615751 (Simulation time: 0 hr 55 min 23 sec) 
Heartbeat CPU 0 instructions: 940000000 cycles: 1365909475 heartbeat IPC: 0.793023 cumulative IPC: 0.617616 (Simulation time: 0 hr 55 min 59 sec) 
Heartbeat CPU 0 instructions: 950000003 cycles: 1378515429 heartbeat IPC: 0.793276 cumulative IPC: 0.619445 (Simulation time: 0 hr 56 min 35 sec) 
Heartbeat CPU 0 instructions: 960000000 cycles: 1391178620 heartbeat IPC: 0.78969 cumulative IPC: 0.621207 (Simulation time: 0 hr 57 min 11 sec) 
Heartbeat CPU 0 instructions: 970000000 cycles: 1403812503 heartbeat IPC: 0.791522 cumulative IPC: 0.622948 (Simulation time: 0 hr 57 min 47 sec) 
Heartbeat CPU 0 instructions: 980000000 cycles: 1416539581 heartbeat IPC: 0.785726 cumulative IPC: 0.624607 (Simulation time: 0 hr 58 min 23 sec) 
Heartbeat CPU 0 instructions: 990000000 cycles: 1429248718 heartbeat IPC: 0.786835 cumulative IPC: 0.626242 (Simulation time: 0 hr 59 min 0 sec) 
Heartbeat CPU 0 instructions: 1000000000 cycles: 1441896730 heartbeat IPC: 0.790638 cumulative IPC: 0.627874 (Simulation time: 0 hr 59 min 36 sec) 
Heartbeat CPU 0 instructions: 1010000002 cycles: 1454630556 heartbeat IPC: 0.78531 cumulative IPC: 0.629431 (Simulation time: 1 hr 0 min 12 sec) 
Heartbeat CPU 0 instructions: 1020000000 cycles: 1467235262 heartbeat IPC: 0.793354 cumulative IPC: 0.631021 (Simulation time: 1 hr 0 min 48 sec) 
Heartbeat CPU 0 instructions: 1030000001 cycles: 1481382893 heartbeat IPC: 0.706832 cumulative IPC: 0.631838 (Simulation time: 1 hr 1 min 24 sec) 
Heartbeat CPU 0 instructions: 1040000000 cycles: 1494840555 heartbeat IPC: 0.743071 cumulative IPC: 0.632966 (Simulation time: 1 hr 2 min 0 sec) 
Heartbeat CPU 0 instructions: 1050000000 cycles: 1508135016 heartbeat IPC: 0.752193 cumulative IPC: 0.634148 (Simulation time: 1 hr 2 min 37 sec) 
Heartbeat CPU 0 instructions: 1060000000 cycles: 1521430963 heartbeat IPC: 0.752109 cumulative IPC: 0.635307 (Simulation time: 1 hr 3 min 13 sec) 
Heartbeat CPU 0 instructions: 1070000001 cycles: 1534673083 heartbeat IPC: 0.755166 cumulative IPC: 0.636468 (Simulation time: 1 hr 3 min 50 sec) 
Heartbeat CPU 0 instructions: 1080000000 cycles: 1547812674 heartbeat IPC: 0.761059 cumulative IPC: 0.637654 (Simulation time: 1 hr 4 min 26 sec) 
Heartbeat CPU 0 instructions: 1090000002 cycles: 1560902145 heartbeat IPC: 0.763973 cumulative IPC: 0.638841 (Simulation time: 1 hr 5 min 2 sec) 
Heartbeat CPU 0 instructions: 1100000000 cycles: 1574176878 heartbeat IPC: 0.753311 cumulative IPC: 0.639922 (Simulation time: 1 hr 5 min 39 sec) 
Heartbeat CPU 0 instructions: 1110000001 cycles: 1587551554 heartbeat IPC: 0.747682 cumulative IPC: 0.640937 (Simulation time: 1 hr 6 min 15 sec) 
Heartbeat CPU 0 instructions: 1120000000 cycles: 1600697191 heartbeat IPC: 0.760709 cumulative IPC: 0.642036 (Simulation time: 1 hr 6 min 51 sec) 
Heartbeat CPU 0 instructions: 1130000002 cycles: 1614009638 heartbeat IPC: 0.751177 cumulative IPC: 0.64304 (Simulation time: 1 hr 7 min 28 sec) 
Heartbeat CPU 0 instructions: 1140000000 cycles: 1627466509 heartbeat IPC: 0.743115 cumulative IPC: 0.643963 (Simulation time: 1 hr 8 min 4 sec) 
Heartbeat CPU 0 instructions: 1150000003 cycles: 1640718598 heartbeat IPC: 0.754598 cumulative IPC: 0.644958 (Simulation time: 1 hr 8 min 41 sec) 
Heartbeat CPU 0 instructions: 1160000000 cycles: 1654005040 heartbeat IPC: 0.752647 cumulative IPC: 0.645921 (Simulation time: 1 hr 9 min 17 sec) 
Heartbeat CPU 0 instructions: 1170000003 cycles: 1667208798 heartbeat IPC: 0.75736 cumulative IPC: 0.646902 (Simulation time: 1 hr 9 min 54 sec) 
Heartbeat CPU 0 instructions: 1180000000 cycles: 1680409803 heartbeat IPC: 0.757518 cumulative IPC: 0.647868 (Simulation time: 1 hr 10 min 30 sec) 
Heartbeat CPU 0 instructions: 1190000003 cycles: 1693671295 heartbeat IPC: 0.754063 cumulative IPC: 0.64879 (Simulation time: 1 hr 11 min 6 sec) 
Heartbeat CPU 0 instructions: 1200000000 cycles: 1706895314 heartbeat IPC: 0.7562 cumulative IPC: 0.649713 (Simulation time: 1 hr 11 min 43 sec) 
Finished CPU 0 instructions: 1000000000 cycles: 1539140531 cumulative IPC: 0.649713 (Simulation time: 1 hr 11 min 43 sec) 

CPU 0 Branch Prediction Accuracy: 99.7591% MPKI: 0.02718

ChampSim completed all CPUs

Region of Interest Statistics

CPU 0 cumulative IPC: 0.649713 instructions: 1000000000 cycles: 1539140531
L1D TOTAL     ACCESS:  562538283  HIT:  541810213  MISS:   20728070
L1D LOAD      ACCESS:  498193945  HIT:  477466199  MISS:   20727746
L1D RFO       ACCESS:   64344338  HIT:   64344014  MISS:        324
L1D PREFETCH  ACCESS:          0  HIT:          0  MISS:          0
L1D WRITEBACK ACCESS:          0  HIT:          0  MISS:          0
L1D PREFETCH  REQUESTED:          0  ISSUED:          0  USEFUL:          0  USELESS:          0
L1I TOTAL     ACCESS:  287476922  HIT:  287476588  MISS:        334
L1I LOAD      ACCESS:  287476922  HIT:  287476588  MISS:        334
L1I RFO       ACCESS:          0  HIT:          0  MISS:          0
L1I PREFETCH  ACCESS:          0  HIT:          0  MISS:          0
L1I WRITEBACK ACCESS:          0  HIT:          0  MISS:          0
L1I PREFETCH  REQUESTED:          0  ISSUED:          0  USEFUL:          0  USELESS:          0
L2C TOTAL     ACCESS:   46282338  HIT:   25092763  MISS:   21189575
L2C LOAD      ACCESS:   20728076  HIT:   16215270  MISS:    4512806
L2C RFO       ACCESS:        317  HIT:        294  MISS:         23
L2C PREFETCH  ACCESS:   16756493  HIT:      79803  MISS:   16676690
L2C WRITEBACK ACCESS:    8797452  HIT:    8797396  MISS:         56
L2C PREFETCH  REQUESTED:   20770310  ISSUED:   20770309  USEFUL:   15589673  USELESS:    4873065
LLC TOTAL     ACCESS:   30071188  HIT:   10668301  MISS:   19402887
LLC LOAD      ACCESS:    4404691  HIT:     683519  MISS:    3721172
LLC RFO       ACCESS:         23  HIT:         11  MISS:         12
LLC PREFETCH  ACCESS:   16873415  HIT:    1191732  MISS:   15681683
LLC WRITEBACK ACCESS:    8793059  HIT:    8793039  MISS:         20
LLC PREFETCH  REQUESTED:          0  ISSUED:          0  USEFUL:      92684  USELESS:   18900611
Major fault: 0 Minor fault: 864441

L2C Best-offset prefetcher final stats

DRAM Statistics
 CHANNEL 0
 RQ ROW_BUFFER_HIT:   13721172  ROW_BUFFER_MISS:    5681695
 DBUS_CONGESTED:   15330074
 WQ ROW_BUFFER_HIT:    3223057  ROW_BUFFER_MISS:    5566303  FULL:          0

 AVG_CONGESTED_CYCLE: 13
