
*** ChampSim Multicore Out-of-Order Simulator ***

Warmup Instructions: 200000000
Simulation Instructions: 1000000000
Number of CPUs: 1
LLC sets: 2048
LLC ways: 16
Off-chip DRAM Size: 4096 MB Channels: 1 Width: 64-bit Data Rate: 400 MT/s

CPU 0 runs /scratch/user/djimenez/champsim-traces/speccpu2017/xz/648.exchange2_s/648.exchange2_s-72B.champsimtrace.xz
Heartbeat CPU 0 instructions: 10000000 cycles: 4333460 heartbeat IPC: 2.30762 cumulative IPC: 2.30762 (Simulation time: 0 hr 0 min 14 sec) 
Heartbeat CPU 0 instructions: 20000000 cycles: 8670646 heartbeat IPC: 2.30564 cumulative IPC: 2.30663 (Simulation time: 0 hr 0 min 28 sec) 
Heartbeat CPU 0 instructions: 30000000 cycles: 13001029 heartbeat IPC: 2.30926 cumulative IPC: 2.30751 (Simulation time: 0 hr 0 min 42 sec) 
Heartbeat CPU 0 instructions: 40000000 cycles: 17294974 heartbeat IPC: 2.32886 cumulative IPC: 2.31281 (Simulation time: 0 hr 0 min 56 sec) 
Heartbeat CPU 0 instructions: 50000001 cycles: 21641941 heartbeat IPC: 2.30045 cumulative IPC: 2.31033 (Simulation time: 0 hr 1 min 10 sec) 
Heartbeat CPU 0 instructions: 60000000 cycles: 25994011 heartbeat IPC: 2.29776 cumulative IPC: 2.30822 (Simulation time: 0 hr 1 min 24 sec) 
Heartbeat CPU 0 instructions: 70000003 cycles: 30285559 heartbeat IPC: 2.33016 cumulative IPC: 2.31133 (Simulation time: 0 hr 1 min 38 sec) 
Heartbeat CPU 0 instructions: 80000000 cycles: 34633852 heartbeat IPC: 2.29975 cumulative IPC: 2.30988 (Simulation time: 0 hr 1 min 52 sec) 
Heartbeat CPU 0 instructions: 90000001 cycles: 38934465 heartbeat IPC: 2.32525 cumulative IPC: 2.31158 (Simulation time: 0 hr 2 min 7 sec) 
Heartbeat CPU 0 instructions: 100000000 cycles: 43206794 heartbeat IPC: 2.34064 cumulative IPC: 2.31445 (Simulation time: 0 hr 2 min 20 sec) 
Heartbeat CPU 0 instructions: 110000001 cycles: 47468291 heartbeat IPC: 2.34659 cumulative IPC: 2.31734 (Simulation time: 0 hr 2 min 34 sec) 
Heartbeat CPU 0 instructions: 120000000 cycles: 51677105 heartbeat IPC: 2.37597 cumulative IPC: 2.32211 (Simulation time: 0 hr 2 min 48 sec) 
Heartbeat CPU 0 instructions: 130000003 cycles: 55870448 heartbeat IPC: 2.38473 cumulative IPC: 2.32681 (Simulation time: 0 hr 3 min 1 sec) 
Heartbeat CPU 0 instructions: 140000000 cycles: 60102522 heartbeat IPC: 2.36291 cumulative IPC: 2.32935 (Simulation time: 0 hr 3 min 15 sec) 
Heartbeat CPU 0 instructions: 150000001 cycles: 64264631 heartbeat IPC: 2.40263 cumulative IPC: 2.3341 (Simulation time: 0 hr 3 min 29 sec) 
Heartbeat CPU 0 instructions: 160000000 cycles: 68532197 heartbeat IPC: 2.34326 cumulative IPC: 2.33467 (Simulation time: 0 hr 3 min 43 sec) 
Heartbeat CPU 0 instructions: 170000003 cycles: 72753683 heartbeat IPC: 2.36883 cumulative IPC: 2.33665 (Simulation time: 0 hr 3 min 57 sec) 
Heartbeat CPU 0 instructions: 180000000 cycles: 76961277 heartbeat IPC: 2.37665 cumulative IPC: 2.33884 (Simulation time: 0 hr 4 min 11 sec) 
Heartbeat CPU 0 instructions: 190000003 cycles: 81168116 heartbeat IPC: 2.37708 cumulative IPC: 2.34082 (Simulation time: 0 hr 4 min 25 sec) 
Heartbeat CPU 0 instructions: 200000000 cycles: 85467157 heartbeat IPC: 2.3261 cumulative IPC: 2.34008 (Simulation time: 0 hr 4 min 39 sec) 

Warmup complete CPU 0 instructions: 200000001 cycles: 85467158 (Simulation time: 0 hr 4 min 39 sec) 

Heartbeat CPU 0 instructions: 210000001 cycles: 91852053 heartbeat IPC: 1.5662 cumulative IPC: 1.5662 (Simulation time: 0 hr 4 min 57 sec) 
Heartbeat CPU 0 instructions: 220000000 cycles: 98255251 heartbeat IPC: 1.56172 cumulative IPC: 1.56395 (Simulation time: 0 hr 5 min 16 sec) 
Heartbeat CPU 0 instructions: 230000003 cycles: 104643240 heartbeat IPC: 1.56544 cumulative IPC: 1.56445 (Simulation time: 0 hr 5 min 35 sec) 
Heartbeat CPU 0 instructions: 240000000 cycles: 111064884 heartbeat IPC: 1.55723 cumulative IPC: 1.56264 (Simulation time: 0 hr 5 min 54 sec) 
Heartbeat CPU 0 instructions: 250000003 cycles: 117436683 heartbeat IPC: 1.56942 cumulative IPC: 1.56399 (Simulation time: 0 hr 6 min 12 sec) 
Heartbeat CPU 0 instructions: 260000000 cycles: 123846898 heartbeat IPC: 1.56001 cumulative IPC: 1.56332 (Simulation time: 0 hr 6 min 31 sec) 
Heartbeat CPU 0 instructions: 270000000 cycles: 130220446 heartbeat IPC: 1.56898 cumulative IPC: 1.56413 (Simulation time: 0 hr 6 min 50 sec) 
Heartbeat CPU 0 instructions: 280000000 cycles: 136733118 heartbeat IPC: 1.53547 cumulative IPC: 1.56049 (Simulation time: 0 hr 7 min 8 sec) 
Heartbeat CPU 0 instructions: 290000003 cycles: 143214414 heartbeat IPC: 1.5429 cumulative IPC: 1.55852 (Simulation time: 0 hr 7 min 27 sec) 
Heartbeat CPU 0 instructions: 300000000 cycles: 149684070 heartbeat IPC: 1.54568 cumulative IPC: 1.55722 (Simulation time: 0 hr 7 min 46 sec) 
Heartbeat CPU 0 instructions: 310000000 cycles: 156081105 heartbeat IPC: 1.56322 cumulative IPC: 1.55777 (Simulation time: 0 hr 8 min 4 sec) 
Heartbeat CPU 0 instructions: 320000000 cycles: 162438995 heartbeat IPC: 1.57285 cumulative IPC: 1.55901 (Simulation time: 0 hr 8 min 23 sec) 
Heartbeat CPU 0 instructions: 330000002 cycles: 168715545 heartbeat IPC: 1.59323 cumulative IPC: 1.56159 (Simulation time: 0 hr 8 min 42 sec) 
Heartbeat CPU 0 instructions: 340000000 cycles: 174800138 heartbeat IPC: 1.64349 cumulative IPC: 1.56717 (Simulation time: 0 hr 9 min 0 sec) 
Heartbeat CPU 0 instructions: 350000003 cycles: 180805693 heartbeat IPC: 1.66513 cumulative IPC: 1.57334 (Simulation time: 0 hr 9 min 19 sec) 
Heartbeat CPU 0 instructions: 360000000 cycles: 186807895 heartbeat IPC: 1.66605 cumulative IPC: 1.57883 (Simulation time: 0 hr 9 min 37 sec) 
Heartbeat CPU 0 instructions: 370000000 cycles: 192913386 heartbeat IPC: 1.63787 cumulative IPC: 1.58219 (Simulation time: 0 hr 9 min 56 sec) 
Heartbeat CPU 0 instructions: 380000000 cycles: 199003114 heartbeat IPC: 1.64211 cumulative IPC: 1.5854 (Simulation time: 0 hr 10 min 15 sec) 
Heartbeat CPU 0 instructions: 390000002 cycles: 204966933 heartbeat IPC: 1.67678 cumulative IPC: 1.58996 (Simulation time: 0 hr 10 min 33 sec) 
Heartbeat CPU 0 instructions: 400000000 cycles: 211200354 heartbeat IPC: 1.60426 cumulative IPC: 1.59067 (Simulation time: 0 hr 10 min 52 sec) 
Heartbeat CPU 0 instructions: 410000002 cycles: 217434832 heartbeat IPC: 1.60398 cumulative IPC: 1.5913 (Simulation time: 0 hr 11 min 10 sec) 
Heartbeat CPU 0 instructions: 420000000 cycles: 223717288 heartbeat IPC: 1.59173 cumulative IPC: 1.59132 (Simulation time: 0 hr 11 min 29 sec) 
Heartbeat CPU 0 instructions: 430000000 cycles: 229740670 heartbeat IPC: 1.6602 cumulative IPC: 1.59419 (Simulation time: 0 hr 11 min 47 sec) 
Heartbeat CPU 0 instructions: 440000000 cycles: 235957082 heartbeat IPC: 1.60864 cumulative IPC: 1.59479 (Simulation time: 0 hr 12 min 6 sec) 
Heartbeat CPU 0 instructions: 450000000 cycles: 242106746 heartbeat IPC: 1.62611 cumulative IPC: 1.59602 (Simulation time: 0 hr 12 min 25 sec) 
Heartbeat CPU 0 instructions: 460000000 cycles: 248300637 heartbeat IPC: 1.61449 cumulative IPC: 1.59672 (Simulation time: 0 hr 12 min 43 sec) 
Heartbeat CPU 0 instructions: 470000003 cycles: 254524994 heartbeat IPC: 1.60659 cumulative IPC: 1.59709 (Simulation time: 0 hr 13 min 2 sec) 
Heartbeat CPU 0 instructions: 480000000 cycles: 260692025 heartbeat IPC: 1.62153 cumulative IPC: 1.59795 (Simulation time: 0 hr 13 min 21 sec) 
Heartbeat CPU 0 instructions: 490000000 cycles: 267887902 heartbeat IPC: 1.38968 cumulative IPC: 1.58973 (Simulation time: 0 hr 13 min 40 sec) 
Heartbeat CPU 0 instructions: 500000000 cycles: 274447756 heartbeat IPC: 1.52442 cumulative IPC: 1.58746 (Simulation time: 0 hr 13 min 58 sec) 
Heartbeat CPU 0 instructions: 510000002 cycles: 280957795 heartbeat IPC: 1.53609 cumulative IPC: 1.58575 (Simulation time: 0 hr 14 min 17 sec) 
Heartbeat CPU 0 instructions: 520000000 cycles: 287412560 heartbeat IPC: 1.54924 cumulative IPC: 1.58459 (Simulation time: 0 hr 14 min 36 sec) 
Heartbeat CPU 0 instructions: 530000001 cycles: 293978021 heartbeat IPC: 1.52312 cumulative IPC: 1.58265 (Simulation time: 0 hr 14 min 54 sec) 
Heartbeat CPU 0 instructions: 540000000 cycles: 300472076 heartbeat IPC: 1.53987 cumulative IPC: 1.58136 (Simulation time: 0 hr 15 min 13 sec) 
Heartbeat CPU 0 instructions: 550000002 cycles: 306933325 heartbeat IPC: 1.54769 cumulative IPC: 1.58038 (Simulation time: 0 hr 15 min 32 sec) 
Heartbeat CPU 0 instructions: 560000000 cycles: 313948369 heartbeat IPC: 1.42551 cumulative IPC: 1.57562 (Simulation time: 0 hr 15 min 51 sec) 
Heartbeat CPU 0 instructions: 570000000 cycles: 320274023 heartbeat IPC: 1.58086 cumulative IPC: 1.57576 (Simulation time: 0 hr 16 min 9 sec) 
Heartbeat CPU 0 instructions: 580000000 cycles: 326681226 heartbeat IPC: 1.56074 cumulative IPC: 1.57536 (Simulation time: 0 hr 16 min 28 sec) 
Heartbeat CPU 0 instructions: 590000003 cycles: 334160253 heartbeat IPC: 1.33707 cumulative IPC: 1.5682 (Simulation time: 0 hr 16 min 47 sec) 
Heartbeat CPU 0 instructions: 600000000 cycles: 340287774 heartbeat IPC: 1.63198 cumulative IPC: 1.56973 (Simulation time: 0 hr 17 min 6 sec) 
Heartbeat CPU 0 instructions: 610000002 cycles: 346528903 heartbeat IPC: 1.60227 cumulative IPC: 1.57051 (Simulation time: 0 hr 17 min 25 sec) 
Heartbeat CPU 0 instructions: 620000000 cycles: 352633640 heartbeat IPC: 1.63807 cumulative IPC: 1.57205 (Simulation time: 0 hr 17 min 44 sec) 
Heartbeat CPU 0 instructions: 630000003 cycles: 359529472 heartbeat IPC: 1.45015 cumulative IPC: 1.56899 (Simulation time: 0 hr 18 min 2 sec) 
Heartbeat CPU 0 instructions: 640000000 cycles: 366508129 heartbeat IPC: 1.43294 cumulative IPC: 1.56561 (Simulation time: 0 hr 18 min 21 sec) 
Heartbeat CPU 0 instructions: 650000000 cycles: 372737565 heartbeat IPC: 1.60528 cumulative IPC: 1.56647 (Simulation time: 0 hr 18 min 40 sec) 
Heartbeat CPU 0 instructions: 660000000 cycles: 379712527 heartbeat IPC: 1.4337 cumulative IPC: 1.56332 (Simulation time: 0 hr 18 min 59 sec) 
Heartbeat CPU 0 instructions: 670000001 cycles: 386208958 heartbeat IPC: 1.53931 cumulative IPC: 1.5628 (Simulation time: 0 hr 19 min 18 sec) 
Heartbeat CPU 0 instructions: 680000000 cycles: 392718916 heartbeat IPC: 1.53611 cumulative IPC: 1.56224 (Simulation time: 0 hr 19 min 36 sec) 
Heartbeat CPU 0 instructions: 690000003 cycles: 399225182 heartbeat IPC: 1.53698 cumulative IPC: 1.56171 (Simulation time: 0 hr 19 min 55 sec) 
Heartbeat CPU 0 instructions: 700000000 cycles: 405699049 heartbeat IPC: 1.54467 cumulative IPC: 1.56137 (Simulation time: 0 hr 20 min 13 sec) 
Heartbeat CPU 0 instructions: 710000000 cycles: 412725637 heartbeat IPC: 1.42317 cumulative IPC: 1.5584 (Simulation time: 0 hr 20 min 32 sec) 
Heartbeat CPU 0 instructions: 720000000 cycles: 419792117 heartbeat IPC: 1.41513 cumulative IPC: 1.55537 (Simulation time: 0 hr 20 min 51 sec) 
Heartbeat CPU 0 instructions: 730000002 cycles: 426228151 heartbeat IPC: 1.55375 cumulative IPC: 1.55534 (Simulation time: 0 hr 21 min 10 sec) 
Heartbeat CPU 0 instructions: 740000000 cycles: 432677989 heartbeat IPC: 1.55043 cumulative IPC: 1.55525 (Simulation time: 0 hr 21 min 28 sec) 
Heartbeat CPU 0 instructions: 750000001 cycles: 439686324 heartbeat IPC: 1.42687 cumulative IPC: 1.55271 (Simulation time: 0 hr 21 min 48 sec) 
Heartbeat CPU 0 instructions: 760000000 cycles: 446124742 heartbeat IPC: 1.55318 cumulative IPC: 1.55272 (Simulation time: 0 hr 22 min 6 sec) 
Heartbeat CPU 0 instructions: 770000000 cycles: 452536148 heartbeat IPC: 1.55972 cumulative IPC: 1.55284 (Simulation time: 0 hr 22 min 25 sec) 
Heartbeat CPU 0 instructions: 780000000 cycles: 458943350 heartbeat IPC: 1.56074 cumulative IPC: 1.55298 (Simulation time: 0 hr 22 min 43 sec) 
Heartbeat CPU 0 instructions: 790000000 cycles: 466643083 heartbeat IPC: 1.29875 cumulative IPC: 1.54784 (Simulation time: 0 hr 23 min 3 sec) 
Heartbeat CPU 0 instructions: 800000000 cycles: 473856321 heartbeat IPC: 1.38634 cumulative IPC: 1.54484 (Simulation time: 0 hr 23 min 22 sec) 
Heartbeat CPU 0 instructions: 810000002 cycles: 480746454 heartbeat IPC: 1.45135 cumulative IPC: 1.54321 (Simulation time: 0 hr 23 min 41 sec) 
Heartbeat CPU 0 instructions: 820000000 cycles: 487130398 heartbeat IPC: 1.56643 cumulative IPC: 1.54358 (Simulation time: 0 hr 24 min 0 sec) 
Heartbeat CPU 0 instructions: 830000003 cycles: 494069523 heartbeat IPC: 1.4411 cumulative IPC: 1.54184 (Simulation time: 0 hr 24 min 19 sec) 
Heartbeat CPU 0 instructions: 840000000 cycles: 500490647 heartbeat IPC: 1.55736 cumulative IPC: 1.54208 (Simulation time: 0 hr 24 min 38 sec) 
Heartbeat CPU 0 instructions: 850000000 cycles: 507445532 heartbeat IPC: 1.43784 cumulative IPC: 1.54036 (Simulation time: 0 hr 24 min 57 sec) 
Heartbeat CPU 0 instructions: 860000000 cycles: 514441287 heartbeat IPC: 1.42944 cumulative IPC: 1.53855 (Simulation time: 0 hr 25 min 16 sec) 
Heartbeat CPU 0 instructions: 870000000 cycles: 523776523 heartbeat IPC: 1.07121 cumulative IPC: 1.5286 (Simulation time: 0 hr 25 min 37 sec) 
Heartbeat CPU 0 instructions: 880000000 cycles: 531839302 heartbeat IPC: 1.24027 cumulative IPC: 1.52339 (Simulation time: 0 hr 25 min 57 sec) 
Heartbeat CPU 0 instructions: 890000000 cycles: 538101319 heartbeat IPC: 1.59693 cumulative IPC: 1.52441 (Simulation time: 0 hr 26 min 16 sec) 
Heartbeat CPU 0 instructions: 900000000 cycles: 544367526 heartbeat IPC: 1.59586 cumulative IPC: 1.52539 (Simulation time: 0 hr 26 min 35 sec) 
Heartbeat CPU 0 instructions: 910000002 cycles: 550561988 heartbeat IPC: 1.61435 cumulative IPC: 1.52657 (Simulation time: 0 hr 26 min 54 sec) 
Heartbeat CPU 0 instructions: 920000000 cycles: 556830423 heartbeat IPC: 1.59529 cumulative IPC: 1.52748 (Simulation time: 0 hr 27 min 13 sec) 
Heartbeat CPU 0 instructions: 930000001 cycles: 563084010 heartbeat IPC: 1.59908 cumulative IPC: 1.52842 (Simulation time: 0 hr 27 min 32 sec) 
Heartbeat CPU 0 instructions: 940000000 cycles: 569328934 heartbeat IPC: 1.6013 cumulative IPC: 1.52936 (Simulation time: 0 hr 27 min 52 sec) 
Heartbeat CPU 0 instructions: 950000002 cycles: 575613819 heartbeat IPC: 1.59112 cumulative IPC: 1.53015 (Simulation time: 0 hr 28 min 11 sec) 
Heartbeat CPU 0 instructions: 960000000 cycles: 583154129 heartbeat IPC: 1.32621 cumulative IPC: 1.52706 (Simulation time: 0 hr 28 min 30 sec) 
Heartbeat CPU 0 instructions: 970000002 cycles: 589407774 heartbeat IPC: 1.59907 cumulative IPC: 1.52796 (Simulation time: 0 hr 28 min 49 sec) 
Heartbeat CPU 0 instructions: 980000000 cycles: 595738280 heartbeat IPC: 1.57965 cumulative IPC: 1.5286 (Simulation time: 0 hr 29 min 8 sec) 
Heartbeat CPU 0 instructions: 990000002 cycles: 602606412 heartbeat IPC: 1.456 cumulative IPC: 1.52763 (Simulation time: 0 hr 29 min 28 sec) 
Heartbeat CPU 0 instructions: 1000000000 cycles: 608910166 heartbeat IPC: 1.58636 cumulative IPC: 1.52834 (Simulation time: 0 hr 29 min 46 sec) 
Heartbeat CPU 0 instructions: 1010000000 cycles: 615289898 heartbeat IPC: 1.56746 cumulative IPC: 1.52881 (Simulation time: 0 hr 30 min 5 sec) 
Heartbeat CPU 0 instructions: 1020000000 cycles: 622168626 heartbeat IPC: 1.45376 cumulative IPC: 1.52785 (Simulation time: 0 hr 30 min 24 sec) 
Heartbeat CPU 0 instructions: 1030000000 cycles: 628386360 heartbeat IPC: 1.6083 cumulative IPC: 1.52877 (Simulation time: 0 hr 30 min 43 sec) 
Heartbeat CPU 0 instructions: 1040000000 cycles: 634802399 heartbeat IPC: 1.55859 cumulative IPC: 1.52912 (Simulation time: 0 hr 31 min 2 sec) 
Heartbeat CPU 0 instructions: 1050000001 cycles: 642568067 heartbeat IPC: 1.28772 cumulative IPC: 1.52576 (Simulation time: 0 hr 31 min 22 sec) 
Heartbeat CPU 0 instructions: 1060000000 cycles: 649005098 heartbeat IPC: 1.55351 cumulative IPC: 1.52607 (Simulation time: 0 hr 31 min 41 sec) 
Heartbeat CPU 0 instructions: 1070000002 cycles: 655432425 heartbeat IPC: 1.55586 cumulative IPC: 1.52641 (Simulation time: 0 hr 32 min 0 sec) 
Heartbeat CPU 0 instructions: 1080000000 cycles: 661714510 heartbeat IPC: 1.59183 cumulative IPC: 1.52712 (Simulation time: 0 hr 32 min 19 sec) 
Heartbeat CPU 0 instructions: 1090000003 cycles: 668777798 heartbeat IPC: 1.41577 cumulative IPC: 1.52577 (Simulation time: 0 hr 32 min 38 sec) 
Heartbeat CPU 0 instructions: 1100000000 cycles: 675245852 heartbeat IPC: 1.54606 cumulative IPC: 1.526 (Simulation time: 0 hr 32 min 57 sec) 
Heartbeat CPU 0 instructions: 1110000002 cycles: 682351818 heartbeat IPC: 1.40727 cumulative IPC: 1.52458 (Simulation time: 0 hr 33 min 17 sec) 
Heartbeat CPU 0 instructions: 1120000000 cycles: 688792623 heartbeat IPC: 1.5526 cumulative IPC: 1.52488 (Simulation time: 0 hr 33 min 36 sec) 
Heartbeat CPU 0 instructions: 1130000001 cycles: 695775569 heartbeat IPC: 1.43206 cumulative IPC: 1.52382 (Simulation time: 0 hr 33 min 55 sec) 
Heartbeat CPU 0 instructions: 1140000000 cycles: 702190686 heartbeat IPC: 1.55882 cumulative IPC: 1.52418 (Simulation time: 0 hr 34 min 14 sec) 
Heartbeat CPU 0 instructions: 1150000000 cycles: 709135751 heartbeat IPC: 1.43987 cumulative IPC: 1.52324 (Simulation time: 0 hr 34 min 33 sec) 
Heartbeat CPU 0 instructions: 1160000000 cycles: 715879270 heartbeat IPC: 1.48291 cumulative IPC: 1.52281 (Simulation time: 0 hr 34 min 52 sec) 
Heartbeat CPU 0 instructions: 1170000002 cycles: 722642752 heartbeat IPC: 1.47853 cumulative IPC: 1.52234 (Simulation time: 0 hr 35 min 11 sec) 
Heartbeat CPU 0 instructions: 1180000000 cycles: 729494697 heartbeat IPC: 1.45944 cumulative IPC: 1.52167 (Simulation time: 0 hr 35 min 29 sec) 
Heartbeat CPU 0 instructions: 1190000000 cycles: 736603124 heartbeat IPC: 1.40678 cumulative IPC: 1.52042 (Simulation time: 0 hr 35 min 49 sec) 
Heartbeat CPU 0 instructions: 1200000000 cycles: 744051076 heartbeat IPC: 1.34265 cumulative IPC: 1.51841 (Simulation time: 0 hr 36 min 8 sec) 
Finished CPU 0 instructions: 1000000000 cycles: 658583926 cumulative IPC: 1.51841 (Simulation time: 0 hr 36 min 8 sec) 

CPU 0 Branch Prediction Accuracy: 96.8129% MPKI: 4.43772

ChampSim completed all CPUs

Region of Interest Statistics

CPU 0 cumulative IPC: 1.51841 instructions: 1000000000 cycles: 658583926
L1D TOTAL     ACCESS:  278180191  HIT:  278180155  MISS:         36
L1D LOAD      ACCESS:  121349888  HIT:  121349870  MISS:         18
L1D RFO       ACCESS:  156830303  HIT:  156830285  MISS:         18
L1D PREFETCH  ACCESS:          0  HIT:          0  MISS:          0
L1D WRITEBACK ACCESS:          0  HIT:          0  MISS:          0
L1D PREFETCH  REQUESTED:          0  ISSUED:          0  USEFUL:          0  USELESS:          0
L1I TOTAL     ACCESS:  219088084  HIT:  219043720  MISS:      44364
L1I LOAD      ACCESS:  219088084  HIT:  219043720  MISS:      44364
L1I RFO       ACCESS:          0  HIT:          0  MISS:          0
L1I PREFETCH  ACCESS:          0  HIT:          0  MISS:          0
L1I WRITEBACK ACCESS:          0  HIT:          0  MISS:          0
L1I PREFETCH  REQUESTED:          0  ISSUED:          0  USEFUL:          0  USELESS:          0
L2C TOTAL     ACCESS:      44400  HIT:      44240  MISS:        160
L2C LOAD      ACCESS:      44382  HIT:      44240  MISS:        142
L2C RFO       ACCESS:         18  HIT:          0  MISS:         18
L2C PREFETCH  ACCESS:          0  HIT:          0  MISS:          0
L2C WRITEBACK ACCESS:          0  HIT:          0  MISS:          0
L2C PREFETCH  REQUESTED:          0  ISSUED:          0  USEFUL:          0  USELESS:          0
LLC TOTAL     ACCESS:        160  HIT:          0  MISS:        160
LLC LOAD      ACCESS:        142  HIT:          0  MISS:        142
LLC RFO       ACCESS:         18  HIT:          0  MISS:         18
LLC PREFETCH  ACCESS:          0  HIT:          0  MISS:          0
LLC WRITEBACK ACCESS:          0  HIT:          0  MISS:          0
LLC PREFETCH  REQUESTED:          0  ISSUED:          0  USEFUL:          0  USELESS:          0
Major fault: 0 Minor fault: 49

DRAM Statistics
 CHANNEL 0
 RQ ROW_BUFFER_HIT:        117  ROW_BUFFER_MISS:         43
 DBUS_CONGESTED:         71
 WQ ROW_BUFFER_HIT:          0  ROW_BUFFER_MISS:          0  FULL:          0

 AVG_CONGESTED_CYCLE: 67
