
*** ChampSim Multicore Out-of-Order Simulator ***

Warmup Instructions: 200000000
Simulation Instructions: 1000000000
Number of CPUs: 1
LLC sets: 2048
LLC ways: 16
Off-chip DRAM Size: 4096 MB Channels: 1 Width: 64-bit Data Rate: 400 MT/s

CPU 0 runs /scratch/user/djimenez/champsim-traces/speccpu2017/xz/648.exchange2_s/648.exchange2_s-210B.champsimtrace.xz
Heartbeat CPU 0 instructions: 10000002 cycles: 4421536 heartbeat IPC: 2.26166 cumulative IPC: 2.26166 (Simulation time: 0 hr 0 min 15 sec) 
Heartbeat CPU 0 instructions: 20000000 cycles: 8805979 heartbeat IPC: 2.28079 cumulative IPC: 2.27118 (Simulation time: 0 hr 0 min 30 sec) 
Heartbeat CPU 0 instructions: 30000000 cycles: 13155153 heartbeat IPC: 2.29929 cumulative IPC: 2.28048 (Simulation time: 0 hr 0 min 44 sec) 
Heartbeat CPU 0 instructions: 40000000 cycles: 17485054 heartbeat IPC: 2.30952 cumulative IPC: 2.28767 (Simulation time: 0 hr 0 min 59 sec) 
Heartbeat CPU 0 instructions: 50000003 cycles: 21887670 heartbeat IPC: 2.27138 cumulative IPC: 2.28439 (Simulation time: 0 hr 1 min 14 sec) 
Heartbeat CPU 0 instructions: 60000000 cycles: 26279877 heartbeat IPC: 2.27676 cumulative IPC: 2.28312 (Simulation time: 0 hr 1 min 29 sec) 
Heartbeat CPU 0 instructions: 70000002 cycles: 30655555 heartbeat IPC: 2.28536 cumulative IPC: 2.28344 (Simulation time: 0 hr 1 min 44 sec) 
Heartbeat CPU 0 instructions: 80000000 cycles: 35028811 heartbeat IPC: 2.28663 cumulative IPC: 2.28383 (Simulation time: 0 hr 1 min 59 sec) 
Heartbeat CPU 0 instructions: 90000003 cycles: 39420021 heartbeat IPC: 2.27728 cumulative IPC: 2.2831 (Simulation time: 0 hr 2 min 14 sec) 
Heartbeat CPU 0 instructions: 100000000 cycles: 43818015 heartbeat IPC: 2.27376 cumulative IPC: 2.28217 (Simulation time: 0 hr 2 min 29 sec) 
Heartbeat CPU 0 instructions: 110000001 cycles: 48219179 heartbeat IPC: 2.27213 cumulative IPC: 2.28125 (Simulation time: 0 hr 2 min 44 sec) 
Heartbeat CPU 0 instructions: 120000000 cycles: 52613455 heartbeat IPC: 2.27569 cumulative IPC: 2.28079 (Simulation time: 0 hr 2 min 58 sec) 
Heartbeat CPU 0 instructions: 130000000 cycles: 57035964 heartbeat IPC: 2.26116 cumulative IPC: 2.27926 (Simulation time: 0 hr 3 min 13 sec) 
Heartbeat CPU 0 instructions: 140000000 cycles: 61470434 heartbeat IPC: 2.25506 cumulative IPC: 2.27752 (Simulation time: 0 hr 3 min 28 sec) 
Heartbeat CPU 0 instructions: 150000001 cycles: 65821763 heartbeat IPC: 2.29815 cumulative IPC: 2.27888 (Simulation time: 0 hr 3 min 42 sec) 
Heartbeat CPU 0 instructions: 160000000 cycles: 70263819 heartbeat IPC: 2.25121 cumulative IPC: 2.27713 (Simulation time: 0 hr 3 min 57 sec) 
Heartbeat CPU 0 instructions: 170000000 cycles: 74696945 heartbeat IPC: 2.25574 cumulative IPC: 2.27586 (Simulation time: 0 hr 4 min 11 sec) 
Heartbeat CPU 0 instructions: 180000000 cycles: 79098668 heartbeat IPC: 2.27184 cumulative IPC: 2.27564 (Simulation time: 0 hr 4 min 26 sec) 
Heartbeat CPU 0 instructions: 190000003 cycles: 83508723 heartbeat IPC: 2.26755 cumulative IPC: 2.27521 (Simulation time: 0 hr 4 min 40 sec) 
Heartbeat CPU 0 instructions: 200000000 cycles: 87917718 heartbeat IPC: 2.26809 cumulative IPC: 2.27485 (Simulation time: 0 hr 4 min 55 sec) 

Warmup complete CPU 0 instructions: 200000001 cycles: 87917719 (Simulation time: 0 hr 4 min 55 sec) 

Heartbeat CPU 0 instructions: 210000001 cycles: 94384800 heartbeat IPC: 1.54629 cumulative IPC: 1.54629 (Simulation time: 0 hr 5 min 14 sec) 
Heartbeat CPU 0 instructions: 220000000 cycles: 100797077 heartbeat IPC: 1.55951 cumulative IPC: 1.55287 (Simulation time: 0 hr 5 min 33 sec) 
Heartbeat CPU 0 instructions: 230000003 cycles: 107100855 heartbeat IPC: 1.58635 cumulative IPC: 1.56387 (Simulation time: 0 hr 5 min 52 sec) 
Heartbeat CPU 0 instructions: 240000000 cycles: 113429070 heartbeat IPC: 1.58022 cumulative IPC: 1.56793 (Simulation time: 0 hr 6 min 11 sec) 
Heartbeat CPU 0 instructions: 250000003 cycles: 119898654 heartbeat IPC: 1.54569 cumulative IPC: 1.56343 (Simulation time: 0 hr 6 min 30 sec) 
Heartbeat CPU 0 instructions: 260000000 cycles: 126269357 heartbeat IPC: 1.56968 cumulative IPC: 1.56447 (Simulation time: 0 hr 6 min 50 sec) 
Heartbeat CPU 0 instructions: 270000003 cycles: 132709348 heartbeat IPC: 1.5528 cumulative IPC: 1.56279 (Simulation time: 0 hr 7 min 9 sec) 
Heartbeat CPU 0 instructions: 280000000 cycles: 139364278 heartbeat IPC: 1.50265 cumulative IPC: 1.55501 (Simulation time: 0 hr 7 min 27 sec) 
Heartbeat CPU 0 instructions: 290000001 cycles: 145791689 heartbeat IPC: 1.55584 cumulative IPC: 1.5551 (Simulation time: 0 hr 7 min 47 sec) 
Heartbeat CPU 0 instructions: 300000000 cycles: 152247468 heartbeat IPC: 1.549 cumulative IPC: 1.55449 (Simulation time: 0 hr 8 min 5 sec) 
Heartbeat CPU 0 instructions: 310000000 cycles: 158550677 heartbeat IPC: 1.58649 cumulative IPC: 1.55735 (Simulation time: 0 hr 8 min 25 sec) 
Heartbeat CPU 0 instructions: 320000000 cycles: 165115771 heartbeat IPC: 1.52321 cumulative IPC: 1.55444 (Simulation time: 0 hr 8 min 44 sec) 
Heartbeat CPU 0 instructions: 330000002 cycles: 171469643 heartbeat IPC: 1.57384 cumulative IPC: 1.55592 (Simulation time: 0 hr 9 min 3 sec) 
Heartbeat CPU 0 instructions: 340000000 cycles: 178004411 heartbeat IPC: 1.53028 cumulative IPC: 1.55406 (Simulation time: 0 hr 9 min 22 sec) 
Heartbeat CPU 0 instructions: 350000002 cycles: 184837664 heartbeat IPC: 1.46343 cumulative IPC: 1.54767 (Simulation time: 0 hr 9 min 42 sec) 
Heartbeat CPU 0 instructions: 360000000 cycles: 190969813 heartbeat IPC: 1.63075 cumulative IPC: 1.55261 (Simulation time: 0 hr 10 min 1 sec) 
Heartbeat CPU 0 instructions: 370000003 cycles: 197266026 heartbeat IPC: 1.58826 cumulative IPC: 1.55467 (Simulation time: 0 hr 10 min 20 sec) 
Heartbeat CPU 0 instructions: 380000000 cycles: 203454910 heartbeat IPC: 1.6158 cumulative IPC: 1.55794 (Simulation time: 0 hr 10 min 40 sec) 
Heartbeat CPU 0 instructions: 390000003 cycles: 209802121 heartbeat IPC: 1.5755 cumulative IPC: 1.55885 (Simulation time: 0 hr 10 min 59 sec) 
Heartbeat CPU 0 instructions: 400000000 cycles: 216092966 heartbeat IPC: 1.58961 cumulative IPC: 1.56036 (Simulation time: 0 hr 11 min 18 sec) 
Heartbeat CPU 0 instructions: 410000000 cycles: 222390696 heartbeat IPC: 1.58787 cumulative IPC: 1.56165 (Simulation time: 0 hr 11 min 37 sec) 
Heartbeat CPU 0 instructions: 420000000 cycles: 229273304 heartbeat IPC: 1.45294 cumulative IPC: 1.55636 (Simulation time: 0 hr 11 min 57 sec) 
Heartbeat CPU 0 instructions: 430000001 cycles: 235298620 heartbeat IPC: 1.65966 cumulative IPC: 1.56058 (Simulation time: 0 hr 12 min 16 sec) 
Heartbeat CPU 0 instructions: 440000000 cycles: 241478463 heartbeat IPC: 1.61816 cumulative IPC: 1.5629 (Simulation time: 0 hr 12 min 35 sec) 
Heartbeat CPU 0 instructions: 450000000 cycles: 247826621 heartbeat IPC: 1.57526 cumulative IPC: 1.56339 (Simulation time: 0 hr 12 min 54 sec) 
Heartbeat CPU 0 instructions: 460000000 cycles: 254081130 heartbeat IPC: 1.59885 cumulative IPC: 1.56472 (Simulation time: 0 hr 13 min 13 sec) 
Heartbeat CPU 0 instructions: 470000000 cycles: 261008090 heartbeat IPC: 1.44363 cumulative IPC: 1.55988 (Simulation time: 0 hr 13 min 33 sec) 
Heartbeat CPU 0 instructions: 480000000 cycles: 267235093 heartbeat IPC: 1.60591 cumulative IPC: 1.56148 (Simulation time: 0 hr 13 min 52 sec) 
Heartbeat CPU 0 instructions: 490000002 cycles: 275192341 heartbeat IPC: 1.25672 cumulative IPC: 1.54853 (Simulation time: 0 hr 14 min 12 sec) 
Heartbeat CPU 0 instructions: 500000000 cycles: 281390643 heartbeat IPC: 1.61334 cumulative IPC: 1.5506 (Simulation time: 0 hr 14 min 32 sec) 
Heartbeat CPU 0 instructions: 510000000 cycles: 287556699 heartbeat IPC: 1.62178 cumulative IPC: 1.5528 (Simulation time: 0 hr 14 min 51 sec) 
Heartbeat CPU 0 instructions: 520000000 cycles: 293827486 heartbeat IPC: 1.5947 cumulative IPC: 1.55408 (Simulation time: 0 hr 15 min 10 sec) 
Heartbeat CPU 0 instructions: 530000001 cycles: 300251139 heartbeat IPC: 1.55675 cumulative IPC: 1.55416 (Simulation time: 0 hr 15 min 29 sec) 
Heartbeat CPU 0 instructions: 540000000 cycles: 306646033 heartbeat IPC: 1.56375 cumulative IPC: 1.55444 (Simulation time: 0 hr 15 min 48 sec) 
Heartbeat CPU 0 instructions: 550000003 cycles: 312926876 heartbeat IPC: 1.59214 cumulative IPC: 1.55549 (Simulation time: 0 hr 16 min 7 sec) 
Heartbeat CPU 0 instructions: 560000000 cycles: 319716936 heartbeat IPC: 1.47274 cumulative IPC: 1.55307 (Simulation time: 0 hr 16 min 27 sec) 
Heartbeat CPU 0 instructions: 570000003 cycles: 326007519 heartbeat IPC: 1.58968 cumulative IPC: 1.55404 (Simulation time: 0 hr 16 min 46 sec) 
Heartbeat CPU 0 instructions: 580000000 cycles: 332230683 heartbeat IPC: 1.6069 cumulative IPC: 1.55538 (Simulation time: 0 hr 17 min 6 sec) 
Heartbeat CPU 0 instructions: 590000000 cycles: 338729231 heartbeat IPC: 1.53881 cumulative IPC: 1.55495 (Simulation time: 0 hr 17 min 25 sec) 
Heartbeat CPU 0 instructions: 600000000 cycles: 345271654 heartbeat IPC: 1.52849 cumulative IPC: 1.55428 (Simulation time: 0 hr 17 min 44 sec) 
Heartbeat CPU 0 instructions: 610000000 cycles: 351727410 heartbeat IPC: 1.54901 cumulative IPC: 1.55415 (Simulation time: 0 hr 18 min 3 sec) 
Heartbeat CPU 0 instructions: 620000000 cycles: 358059093 heartbeat IPC: 1.57936 cumulative IPC: 1.55474 (Simulation time: 0 hr 18 min 22 sec) 
Heartbeat CPU 0 instructions: 630000002 cycles: 364969672 heartbeat IPC: 1.44706 cumulative IPC: 1.55206 (Simulation time: 0 hr 18 min 42 sec) 
Heartbeat CPU 0 instructions: 640000000 cycles: 371180398 heartbeat IPC: 1.61012 cumulative IPC: 1.55333 (Simulation time: 0 hr 19 min 1 sec) 
Heartbeat CPU 0 instructions: 650000003 cycles: 377457044 heartbeat IPC: 1.59321 cumulative IPC: 1.55419 (Simulation time: 0 hr 19 min 20 sec) 
Heartbeat CPU 0 instructions: 660000000 cycles: 383955512 heartbeat IPC: 1.53882 cumulative IPC: 1.55386 (Simulation time: 0 hr 19 min 39 sec) 
Heartbeat CPU 0 instructions: 670000002 cycles: 390343446 heartbeat IPC: 1.56545 cumulative IPC: 1.5541 (Simulation time: 0 hr 19 min 58 sec) 
Heartbeat CPU 0 instructions: 680000000 cycles: 396816681 heartbeat IPC: 1.54482 cumulative IPC: 1.55391 (Simulation time: 0 hr 20 min 17 sec) 
Heartbeat CPU 0 instructions: 690000002 cycles: 403400934 heartbeat IPC: 1.51878 cumulative IPC: 1.55317 (Simulation time: 0 hr 20 min 37 sec) 
Heartbeat CPU 0 instructions: 700000000 cycles: 409643554 heartbeat IPC: 1.60189 cumulative IPC: 1.55412 (Simulation time: 0 hr 20 min 56 sec) 
Heartbeat CPU 0 instructions: 710000000 cycles: 416013410 heartbeat IPC: 1.56989 cumulative IPC: 1.55442 (Simulation time: 0 hr 21 min 15 sec) 
Heartbeat CPU 0 instructions: 720000000 cycles: 422507072 heartbeat IPC: 1.53996 cumulative IPC: 1.55414 (Simulation time: 0 hr 21 min 34 sec) 
Heartbeat CPU 0 instructions: 730000000 cycles: 428837175 heartbeat IPC: 1.57975 cumulative IPC: 1.55462 (Simulation time: 0 hr 21 min 53 sec) 
Heartbeat CPU 0 instructions: 740000000 cycles: 435509444 heartbeat IPC: 1.49874 cumulative IPC: 1.55355 (Simulation time: 0 hr 22 min 13 sec) 
Heartbeat CPU 0 instructions: 750000001 cycles: 442378231 heartbeat IPC: 1.45586 cumulative IPC: 1.55165 (Simulation time: 0 hr 22 min 33 sec) 
Heartbeat CPU 0 instructions: 760000000 cycles: 448699546 heartbeat IPC: 1.58195 cumulative IPC: 1.55218 (Simulation time: 0 hr 22 min 51 sec) 
Heartbeat CPU 0 instructions: 770000002 cycles: 455179047 heartbeat IPC: 1.54333 cumulative IPC: 1.55203 (Simulation time: 0 hr 23 min 10 sec) 
Heartbeat CPU 0 instructions: 780000000 cycles: 463048688 heartbeat IPC: 1.27071 cumulative IPC: 1.54613 (Simulation time: 0 hr 23 min 30 sec) 
Heartbeat CPU 0 instructions: 790000002 cycles: 469200094 heartbeat IPC: 1.62564 cumulative IPC: 1.54741 (Simulation time: 0 hr 23 min 49 sec) 
Heartbeat CPU 0 instructions: 800000000 cycles: 475712577 heartbeat IPC: 1.53551 cumulative IPC: 1.54721 (Simulation time: 0 hr 24 min 8 sec) 
Heartbeat CPU 0 instructions: 810000001 cycles: 482044692 heartbeat IPC: 1.57925 cumulative IPC: 1.54772 (Simulation time: 0 hr 24 min 27 sec) 
Heartbeat CPU 0 instructions: 820000000 cycles: 488307371 heartbeat IPC: 1.59676 cumulative IPC: 1.54849 (Simulation time: 0 hr 24 min 46 sec) 
Heartbeat CPU 0 instructions: 830000003 cycles: 494728325 heartbeat IPC: 1.5574 cumulative IPC: 1.54863 (Simulation time: 0 hr 25 min 6 sec) 
Heartbeat CPU 0 instructions: 840000000 cycles: 501083579 heartbeat IPC: 1.5735 cumulative IPC: 1.54901 (Simulation time: 0 hr 25 min 25 sec) 
Heartbeat CPU 0 instructions: 850000002 cycles: 507467412 heartbeat IPC: 1.56646 cumulative IPC: 1.54928 (Simulation time: 0 hr 25 min 44 sec) 
Heartbeat CPU 0 instructions: 860000000 cycles: 513920298 heartbeat IPC: 1.54969 cumulative IPC: 1.54929 (Simulation time: 0 hr 26 min 3 sec) 
Heartbeat CPU 0 instructions: 870000003 cycles: 520252071 heartbeat IPC: 1.57934 cumulative IPC: 1.54973 (Simulation time: 0 hr 26 min 22 sec) 
Heartbeat CPU 0 instructions: 880000000 cycles: 526490201 heartbeat IPC: 1.60304 cumulative IPC: 1.55048 (Simulation time: 0 hr 26 min 42 sec) 
Heartbeat CPU 0 instructions: 890000001 cycles: 532795339 heartbeat IPC: 1.58601 cumulative IPC: 1.55099 (Simulation time: 0 hr 27 min 1 sec) 
Heartbeat CPU 0 instructions: 900000000 cycles: 539161900 heartbeat IPC: 1.57071 cumulative IPC: 1.55127 (Simulation time: 0 hr 27 min 20 sec) 
Heartbeat CPU 0 instructions: 910000001 cycles: 545406691 heartbeat IPC: 1.60133 cumulative IPC: 1.55195 (Simulation time: 0 hr 27 min 40 sec) 
Heartbeat CPU 0 instructions: 920000000 cycles: 551649274 heartbeat IPC: 1.6019 cumulative IPC: 1.55262 (Simulation time: 0 hr 27 min 59 sec) 
Heartbeat CPU 0 instructions: 930000003 cycles: 557942598 heartbeat IPC: 1.58899 cumulative IPC: 1.55311 (Simulation time: 0 hr 28 min 18 sec) 
Heartbeat CPU 0 instructions: 940000000 cycles: 564318406 heartbeat IPC: 1.56843 cumulative IPC: 1.55331 (Simulation time: 0 hr 28 min 37 sec) 
Heartbeat CPU 0 instructions: 950000001 cycles: 571280739 heartbeat IPC: 1.4363 cumulative IPC: 1.55163 (Simulation time: 0 hr 28 min 57 sec) 
Heartbeat CPU 0 instructions: 960000000 cycles: 577595341 heartbeat IPC: 1.58363 cumulative IPC: 1.55204 (Simulation time: 0 hr 29 min 16 sec) 
Heartbeat CPU 0 instructions: 970000002 cycles: 583983072 heartbeat IPC: 1.5655 cumulative IPC: 1.55221 (Simulation time: 0 hr 29 min 35 sec) 
Heartbeat CPU 0 instructions: 980000000 cycles: 591532448 heartbeat IPC: 1.32461 cumulative IPC: 1.5488 (Simulation time: 0 hr 29 min 55 sec) 
Heartbeat CPU 0 instructions: 990000000 cycles: 597864597 heartbeat IPC: 1.57924 cumulative IPC: 1.54918 (Simulation time: 0 hr 30 min 14 sec) 
Heartbeat CPU 0 instructions: 1000000000 cycles: 604207816 heartbeat IPC: 1.57649 cumulative IPC: 1.54952 (Simulation time: 0 hr 30 min 33 sec) 
Heartbeat CPU 0 instructions: 1010000000 cycles: 610473961 heartbeat IPC: 1.59588 cumulative IPC: 1.55007 (Simulation time: 0 hr 30 min 53 sec) 
Heartbeat CPU 0 instructions: 1020000000 cycles: 616795625 heartbeat IPC: 1.58186 cumulative IPC: 1.55045 (Simulation time: 0 hr 31 min 12 sec) 
Heartbeat CPU 0 instructions: 1030000003 cycles: 623327480 heartbeat IPC: 1.53096 cumulative IPC: 1.55021 (Simulation time: 0 hr 31 min 31 sec) 
Heartbeat CPU 0 instructions: 1040000000 cycles: 630480799 heartbeat IPC: 1.39795 cumulative IPC: 1.54821 (Simulation time: 0 hr 31 min 51 sec) 
Heartbeat CPU 0 instructions: 1050000002 cycles: 636867046 heartbeat IPC: 1.56587 cumulative IPC: 1.54841 (Simulation time: 0 hr 32 min 10 sec) 
Heartbeat CPU 0 instructions: 1060000000 cycles: 643118322 heartbeat IPC: 1.59967 cumulative IPC: 1.54899 (Simulation time: 0 hr 32 min 29 sec) 
Heartbeat CPU 0 instructions: 1070000001 cycles: 649572159 heartbeat IPC: 1.54947 cumulative IPC: 1.549 (Simulation time: 0 hr 32 min 48 sec) 
Heartbeat CPU 0 instructions: 1080000000 cycles: 656727030 heartbeat IPC: 1.39765 cumulative IPC: 1.54709 (Simulation time: 0 hr 33 min 7 sec) 
Heartbeat CPU 0 instructions: 1090000001 cycles: 662968570 heartbeat IPC: 1.60217 cumulative IPC: 1.54769 (Simulation time: 0 hr 33 min 26 sec) 
Heartbeat CPU 0 instructions: 1100000000 cycles: 669180286 heartbeat IPC: 1.60986 cumulative IPC: 1.54835 (Simulation time: 0 hr 33 min 46 sec) 
Heartbeat CPU 0 instructions: 1110000000 cycles: 675539700 heartbeat IPC: 1.57247 cumulative IPC: 1.54861 (Simulation time: 0 hr 34 min 5 sec) 
Heartbeat CPU 0 instructions: 1120000000 cycles: 681961527 heartbeat IPC: 1.55719 cumulative IPC: 1.54871 (Simulation time: 0 hr 34 min 24 sec) 
Heartbeat CPU 0 instructions: 1130000002 cycles: 688387726 heartbeat IPC: 1.55613 cumulative IPC: 1.54879 (Simulation time: 0 hr 34 min 43 sec) 
Heartbeat CPU 0 instructions: 1140000000 cycles: 695879776 heartbeat IPC: 1.33475 cumulative IPC: 1.54615 (Simulation time: 0 hr 35 min 3 sec) 
Heartbeat CPU 0 instructions: 1150000002 cycles: 702191346 heartbeat IPC: 1.58439 cumulative IPC: 1.54654 (Simulation time: 0 hr 35 min 23 sec) 
Heartbeat CPU 0 instructions: 1160000000 cycles: 708495853 heartbeat IPC: 1.58617 cumulative IPC: 1.54694 (Simulation time: 0 hr 35 min 42 sec) 
Heartbeat CPU 0 instructions: 1170000002 cycles: 714845637 heartbeat IPC: 1.57486 cumulative IPC: 1.54723 (Simulation time: 0 hr 36 min 1 sec) 
Heartbeat CPU 0 instructions: 1180000000 cycles: 721195351 heartbeat IPC: 1.57487 cumulative IPC: 1.5475 (Simulation time: 0 hr 36 min 21 sec) 
Heartbeat CPU 0 instructions: 1190000000 cycles: 727543046 heartbeat IPC: 1.57537 cumulative IPC: 1.54778 (Simulation time: 0 hr 36 min 40 sec) 
Heartbeat CPU 0 instructions: 1200000000 cycles: 734174260 heartbeat IPC: 1.50802 cumulative IPC: 1.54737 (Simulation time: 0 hr 36 min 59 sec) 
Finished CPU 0 instructions: 1000000000 cycles: 646256555 cumulative IPC: 1.54737 (Simulation time: 0 hr 36 min 59 sec) 

CPU 0 Branch Prediction Accuracy: 96.9494% MPKI: 4.16717

ChampSim completed all CPUs

Region of Interest Statistics

CPU 0 cumulative IPC: 1.54737 instructions: 1000000000 cycles: 646256555
L1D TOTAL     ACCESS:  290691189  HIT:  290691073  MISS:        116
L1D LOAD      ACCESS:  126677659  HIT:  126677614  MISS:         45
L1D RFO       ACCESS:  164013530  HIT:  164013459  MISS:         71
L1D PREFETCH  ACCESS:          0  HIT:          0  MISS:          0
L1D WRITEBACK ACCESS:          0  HIT:          0  MISS:          0
L1D PREFETCH  REQUESTED:          0  ISSUED:          0  USEFUL:          0  USELESS:          0
L1I TOTAL     ACCESS:  220208476  HIT:  220185804  MISS:      22672
L1I LOAD      ACCESS:  220208476  HIT:  220185804  MISS:      22672
L1I RFO       ACCESS:          0  HIT:          0  MISS:          0
L1I PREFETCH  ACCESS:          0  HIT:          0  MISS:          0
L1I WRITEBACK ACCESS:          0  HIT:          0  MISS:          0
L1I PREFETCH  REQUESTED:          0  ISSUED:          0  USEFUL:          0  USELESS:          0
L2C TOTAL     ACCESS:      22788  HIT:      21658  MISS:       1130
L2C LOAD      ACCESS:      22717  HIT:      21658  MISS:       1059
L2C RFO       ACCESS:         71  HIT:          0  MISS:         71
L2C PREFETCH  ACCESS:          0  HIT:          0  MISS:          0
L2C WRITEBACK ACCESS:          0  HIT:          0  MISS:          0
L2C PREFETCH  REQUESTED:          0  ISSUED:          0  USEFUL:          0  USELESS:          0
LLC TOTAL     ACCESS:       1130  HIT:          0  MISS:       1130
LLC LOAD      ACCESS:       1059  HIT:          0  MISS:       1059
LLC RFO       ACCESS:         71  HIT:          0  MISS:         71
LLC PREFETCH  ACCESS:          0  HIT:          0  MISS:          0
LLC WRITEBACK ACCESS:          0  HIT:          0  MISS:          0
LLC PREFETCH  REQUESTED:          0  ISSUED:          0  USEFUL:          0  USELESS:          0
Major fault: 0 Minor fault: 48

DRAM Statistics
 CHANNEL 0
 RQ ROW_BUFFER_HIT:       1074  ROW_BUFFER_MISS:         56
 DBUS_CONGESTED:        678
 WQ ROW_BUFFER_HIT:          0  ROW_BUFFER_MISS:          0  FULL:          0

 AVG_CONGESTED_CYCLE: 71
