Initialize SIGNATURE TABLE
ST_SET: 1
ST_WAY: 256
ST_TAG_BIT: 16
ST_TAG_MASK: ffff

Initialize PATTERN TABLE
PT_SET: 512
PT_WAY: 4
SIG_DELTA_BIT: 7
C_SIG_BIT: 4
C_DELTA_BIT: 4

Initialize PREFETCH FILTER
FILTER_SET: 1024

*** ChampSim Multicore Out-of-Order Simulator ***

Warmup Instructions: 200000000
Simulation Instructions: 1000000000
Number of CPUs: 1
LLC sets: 2048
LLC ways: 16
Off-chip DRAM Size: 4096 MB Channels: 1 Width: 64-bit Data Rate: 400 MT/s

CPU 0 runs /scratch/user/djimenez/champsim-traces/speccpu2017/xz/605.mcf_s/605.mcf_s-782B.champsimtrace.xz
Heartbeat CPU 0 instructions: 10000001 cycles: 6168903 heartbeat IPC: 1.62103 cumulative IPC: 1.62103 (Simulation time: 0 hr 0 min 19 sec) 
Heartbeat CPU 0 instructions: 20000000 cycles: 12243896 heartbeat IPC: 1.64609 cumulative IPC: 1.63347 (Simulation time: 0 hr 0 min 39 sec) 
Heartbeat CPU 0 instructions: 30000000 cycles: 18463546 heartbeat IPC: 1.60781 cumulative IPC: 1.62482 (Simulation time: 0 hr 0 min 59 sec) 
Heartbeat CPU 0 instructions: 40000000 cycles: 24642266 heartbeat IPC: 1.61846 cumulative IPC: 1.62323 (Simulation time: 0 hr 1 min 18 sec) 
Heartbeat CPU 0 instructions: 50000000 cycles: 30802784 heartbeat IPC: 1.62324 cumulative IPC: 1.62323 (Simulation time: 0 hr 1 min 38 sec) 
Heartbeat CPU 0 instructions: 60000000 cycles: 36926821 heartbeat IPC: 1.63291 cumulative IPC: 1.62484 (Simulation time: 0 hr 1 min 57 sec) 
Heartbeat CPU 0 instructions: 70000001 cycles: 43062774 heartbeat IPC: 1.62974 cumulative IPC: 1.62553 (Simulation time: 0 hr 2 min 17 sec) 
Heartbeat CPU 0 instructions: 80000000 cycles: 49203015 heartbeat IPC: 1.6286 cumulative IPC: 1.62592 (Simulation time: 0 hr 2 min 36 sec) 
Heartbeat CPU 0 instructions: 90000003 cycles: 55426976 heartbeat IPC: 1.60669 cumulative IPC: 1.62376 (Simulation time: 0 hr 2 min 56 sec) 
Heartbeat CPU 0 instructions: 100000000 cycles: 61677376 heartbeat IPC: 1.5999 cumulative IPC: 1.62134 (Simulation time: 0 hr 3 min 15 sec) 
Heartbeat CPU 0 instructions: 110000002 cycles: 67959971 heartbeat IPC: 1.5917 cumulative IPC: 1.6186 (Simulation time: 0 hr 3 min 34 sec) 
Heartbeat CPU 0 instructions: 120000000 cycles: 74214735 heartbeat IPC: 1.59878 cumulative IPC: 1.61693 (Simulation time: 0 hr 3 min 53 sec) 
Heartbeat CPU 0 instructions: 130000000 cycles: 80354525 heartbeat IPC: 1.62872 cumulative IPC: 1.61783 (Simulation time: 0 hr 4 min 13 sec) 
Heartbeat CPU 0 instructions: 140000000 cycles: 86482809 heartbeat IPC: 1.63178 cumulative IPC: 1.61882 (Simulation time: 0 hr 4 min 33 sec) 
Heartbeat CPU 0 instructions: 150000003 cycles: 92616403 heartbeat IPC: 1.63037 cumulative IPC: 1.61958 (Simulation time: 0 hr 4 min 52 sec) 
Heartbeat CPU 0 instructions: 160000000 cycles: 98800296 heartbeat IPC: 1.6171 cumulative IPC: 1.61943 (Simulation time: 0 hr 5 min 12 sec) 
Heartbeat CPU 0 instructions: 170000000 cycles: 104964510 heartbeat IPC: 1.62227 cumulative IPC: 1.6196 (Simulation time: 0 hr 5 min 31 sec) 
Heartbeat CPU 0 instructions: 180000000 cycles: 111116623 heartbeat IPC: 1.62546 cumulative IPC: 1.61992 (Simulation time: 0 hr 5 min 51 sec) 
Heartbeat CPU 0 instructions: 190000002 cycles: 117357741 heartbeat IPC: 1.60228 cumulative IPC: 1.61898 (Simulation time: 0 hr 6 min 10 sec) 
Heartbeat CPU 0 instructions: 200000000 cycles: 123618398 heartbeat IPC: 1.59728 cumulative IPC: 1.61788 (Simulation time: 0 hr 6 min 30 sec) 

Warmup complete CPU 0 instructions: 200000001 cycles: 123618399 (Simulation time: 0 hr 6 min 30 sec) 

Heartbeat CPU 0 instructions: 210000002 cycles: 217861897 heartbeat IPC: 0.106108 cumulative IPC: 0.106108 (Simulation time: 0 hr 7 min 34 sec) 
Heartbeat CPU 0 instructions: 220000000 cycles: 309544038 heartbeat IPC: 0.109072 cumulative IPC: 0.10757 (Simulation time: 0 hr 8 min 37 sec) 
Heartbeat CPU 0 instructions: 230000000 cycles: 401067310 heartbeat IPC: 0.109262 cumulative IPC: 0.108128 (Simulation time: 0 hr 9 min 39 sec) 
Heartbeat CPU 0 instructions: 240000000 cycles: 490434513 heartbeat IPC: 0.111898 cumulative IPC: 0.109046 (Simulation time: 0 hr 10 min 41 sec) 
Heartbeat CPU 0 instructions: 250000002 cycles: 577826120 heartbeat IPC: 0.114427 cumulative IPC: 0.110082 (Simulation time: 0 hr 11 min 42 sec) 
Heartbeat CPU 0 instructions: 260000000 cycles: 665724920 heartbeat IPC: 0.113767 cumulative IPC: 0.110679 (Simulation time: 0 hr 12 min 44 sec) 
Heartbeat CPU 0 instructions: 270000001 cycles: 751346809 heartbeat IPC: 0.116793 cumulative IPC: 0.111513 (Simulation time: 0 hr 13 min 45 sec) 
Heartbeat CPU 0 instructions: 280000000 cycles: 839697483 heartbeat IPC: 0.113185 cumulative IPC: 0.11172 (Simulation time: 0 hr 14 min 47 sec) 
Heartbeat CPU 0 instructions: 290000001 cycles: 925545555 heartbeat IPC: 0.116485 cumulative IPC: 0.11223 (Simulation time: 0 hr 15 min 49 sec) 
Heartbeat CPU 0 instructions: 300000000 cycles: 1010566337 heartbeat IPC: 0.117618 cumulative IPC: 0.112746 (Simulation time: 0 hr 16 min 49 sec) 
Heartbeat CPU 0 instructions: 310000001 cycles: 1096634915 heartbeat IPC: 0.116186 cumulative IPC: 0.11305 (Simulation time: 0 hr 17 min 50 sec) 
Heartbeat CPU 0 instructions: 320000000 cycles: 1180420098 heartbeat IPC: 0.119353 cumulative IPC: 0.11355 (Simulation time: 0 hr 18 min 51 sec) 
Heartbeat CPU 0 instructions: 330000000 cycles: 1264990604 heartbeat IPC: 0.118245 cumulative IPC: 0.113898 (Simulation time: 0 hr 19 min 52 sec) 
Heartbeat CPU 0 instructions: 340000000 cycles: 1354251078 heartbeat IPC: 0.112032 cumulative IPC: 0.113763 (Simulation time: 0 hr 20 min 54 sec) 
Heartbeat CPU 0 instructions: 350000000 cycles: 1438489319 heartbeat IPC: 0.118711 cumulative IPC: 0.11408 (Simulation time: 0 hr 21 min 55 sec) 
Heartbeat CPU 0 instructions: 360000000 cycles: 1522886780 heartbeat IPC: 0.118487 cumulative IPC: 0.114345 (Simulation time: 0 hr 22 min 56 sec) 
Heartbeat CPU 0 instructions: 370000001 cycles: 1605747932 heartbeat IPC: 0.120684 cumulative IPC: 0.1147 (Simulation time: 0 hr 23 min 55 sec) 
Heartbeat CPU 0 instructions: 380000000 cycles: 1695789512 heartbeat IPC: 0.11106 cumulative IPC: 0.114491 (Simulation time: 0 hr 24 min 57 sec) 
Heartbeat CPU 0 instructions: 390000001 cycles: 1777350687 heartbeat IPC: 0.122607 cumulative IPC: 0.114892 (Simulation time: 0 hr 25 min 54 sec) 
Heartbeat CPU 0 instructions: 400000000 cycles: 1854040003 heartbeat IPC: 0.130396 cumulative IPC: 0.115579 (Simulation time: 0 hr 26 min 50 sec) 
Heartbeat CPU 0 instructions: 410000002 cycles: 1935779320 heartbeat IPC: 0.12234 cumulative IPC: 0.115884 (Simulation time: 0 hr 27 min 49 sec) 
Heartbeat CPU 0 instructions: 420000000 cycles: 2016777640 heartbeat IPC: 0.123459 cumulative IPC: 0.116208 (Simulation time: 0 hr 28 min 47 sec) 
Heartbeat CPU 0 instructions: 430000000 cycles: 2096510279 heartbeat IPC: 0.125419 cumulative IPC: 0.11658 (Simulation time: 0 hr 29 min 45 sec) 
Heartbeat CPU 0 instructions: 440000000 cycles: 2182792843 heartbeat IPC: 0.115898 cumulative IPC: 0.116552 (Simulation time: 0 hr 30 min 46 sec) 
Heartbeat CPU 0 instructions: 450000003 cycles: 2268042512 heartbeat IPC: 0.117303 cumulative IPC: 0.116581 (Simulation time: 0 hr 31 min 47 sec) 
Heartbeat CPU 0 instructions: 460000000 cycles: 2353451845 heartbeat IPC: 0.117083 cumulative IPC: 0.116601 (Simulation time: 0 hr 32 min 49 sec) 
Heartbeat CPU 0 instructions: 470000000 cycles: 2448601911 heartbeat IPC: 0.105097 cumulative IPC: 0.11613 (Simulation time: 0 hr 33 min 55 sec) 
Heartbeat CPU 0 instructions: 480000000 cycles: 2532059078 heartbeat IPC: 0.119822 cumulative IPC: 0.116258 (Simulation time: 0 hr 34 min 56 sec) 
Heartbeat CPU 0 instructions: 490000003 cycles: 2613898438 heartbeat IPC: 0.122191 cumulative IPC: 0.116453 (Simulation time: 0 hr 35 min 55 sec) 
Heartbeat CPU 0 instructions: 500000000 cycles: 2698362181 heartbeat IPC: 0.118394 cumulative IPC: 0.116516 (Simulation time: 0 hr 36 min 56 sec) 
Heartbeat CPU 0 instructions: 510000000 cycles: 2786743986 heartbeat IPC: 0.113145 cumulative IPC: 0.116405 (Simulation time: 0 hr 37 min 58 sec) 
Heartbeat CPU 0 instructions: 520000000 cycles: 2872787654 heartbeat IPC: 0.11622 cumulative IPC: 0.116399 (Simulation time: 0 hr 38 min 59 sec) 
Heartbeat CPU 0 instructions: 530000000 cycles: 2967802957 heartbeat IPC: 0.105246 cumulative IPC: 0.116026 (Simulation time: 0 hr 40 min 3 sec) 
Heartbeat CPU 0 instructions: 540000000 cycles: 3054666703 heartbeat IPC: 0.115123 cumulative IPC: 0.115999 (Simulation time: 0 hr 41 min 4 sec) 
Heartbeat CPU 0 instructions: 550000001 cycles: 3144264710 heartbeat IPC: 0.11161 cumulative IPC: 0.115869 (Simulation time: 0 hr 42 min 6 sec) 
Heartbeat CPU 0 instructions: 560000000 cycles: 3234293682 heartbeat IPC: 0.111075 cumulative IPC: 0.11573 (Simulation time: 0 hr 43 min 8 sec) 
Heartbeat CPU 0 instructions: 570000000 cycles: 3324820448 heartbeat IPC: 0.110465 cumulative IPC: 0.115582 (Simulation time: 0 hr 44 min 12 sec) 
Heartbeat CPU 0 instructions: 580000000 cycles: 3419169721 heartbeat IPC: 0.105989 cumulative IPC: 0.115307 (Simulation time: 0 hr 45 min 16 sec) 
Heartbeat CPU 0 instructions: 590000002 cycles: 3508663424 heartbeat IPC: 0.11174 cumulative IPC: 0.115213 (Simulation time: 0 hr 46 min 19 sec) 
Heartbeat CPU 0 instructions: 600000000 cycles: 3590905781 heartbeat IPC: 0.121592 cumulative IPC: 0.115364 (Simulation time: 0 hr 47 min 18 sec) 
Heartbeat CPU 0 instructions: 610000001 cycles: 3674108220 heartbeat IPC: 0.120189 cumulative IPC: 0.115477 (Simulation time: 0 hr 48 min 19 sec) 
Heartbeat CPU 0 instructions: 620000000 cycles: 3759261269 heartbeat IPC: 0.117436 cumulative IPC: 0.115523 (Simulation time: 0 hr 49 min 20 sec) 
Heartbeat CPU 0 instructions: 630000000 cycles: 3852424808 heartbeat IPC: 0.107338 cumulative IPC: 0.115318 (Simulation time: 0 hr 50 min 24 sec) 
Heartbeat CPU 0 instructions: 640000000 cycles: 3946209951 heartbeat IPC: 0.106627 cumulative IPC: 0.115105 (Simulation time: 0 hr 51 min 29 sec) 
Heartbeat CPU 0 instructions: 650000001 cycles: 4040903796 heartbeat IPC: 0.105603 cumulative IPC: 0.114875 (Simulation time: 0 hr 52 min 34 sec) 
Heartbeat CPU 0 instructions: 660000000 cycles: 4134455583 heartbeat IPC: 0.106893 cumulative IPC: 0.114689 (Simulation time: 0 hr 53 min 38 sec) 
Heartbeat CPU 0 instructions: 670000003 cycles: 4224592407 heartbeat IPC: 0.110942 cumulative IPC: 0.114607 (Simulation time: 0 hr 54 min 41 sec) 
Heartbeat CPU 0 instructions: 680000000 cycles: 4310504831 heartbeat IPC: 0.116398 cumulative IPC: 0.114644 (Simulation time: 0 hr 55 min 42 sec) 
Heartbeat CPU 0 instructions: 690000001 cycles: 4392063542 heartbeat IPC: 0.122611 cumulative IPC: 0.114796 (Simulation time: 0 hr 56 min 41 sec) 
Heartbeat CPU 0 instructions: 700000000 cycles: 4481859971 heartbeat IPC: 0.111363 cumulative IPC: 0.114725 (Simulation time: 0 hr 57 min 44 sec) 
Heartbeat CPU 0 instructions: 710000000 cycles: 4579052429 heartbeat IPC: 0.102889 cumulative IPC: 0.114467 (Simulation time: 0 hr 58 min 50 sec) 
Heartbeat CPU 0 instructions: 720000000 cycles: 4663942734 heartbeat IPC: 0.117799 cumulative IPC: 0.114529 (Simulation time: 0 hr 59 min 50 sec) 
Heartbeat CPU 0 instructions: 730000000 cycles: 4746608050 heartbeat IPC: 0.12097 cumulative IPC: 0.114644 (Simulation time: 1 hr 0 min 49 sec) 
Heartbeat CPU 0 instructions: 740000000 cycles: 4834167635 heartbeat IPC: 0.114208 cumulative IPC: 0.114636 (Simulation time: 1 hr 1 min 51 sec) 
Heartbeat CPU 0 instructions: 750000000 cycles: 4921413010 heartbeat IPC: 0.114619 cumulative IPC: 0.114636 (Simulation time: 1 hr 2 min 53 sec) 
Heartbeat CPU 0 instructions: 760000000 cycles: 5005098632 heartbeat IPC: 0.119495 cumulative IPC: 0.114719 (Simulation time: 1 hr 3 min 54 sec) 
Heartbeat CPU 0 instructions: 770000000 cycles: 5087567992 heartbeat IPC: 0.121257 cumulative IPC: 0.114828 (Simulation time: 1 hr 4 min 54 sec) 
Heartbeat CPU 0 instructions: 780000000 cycles: 5170345101 heartbeat IPC: 0.120806 cumulative IPC: 0.114926 (Simulation time: 1 hr 5 min 56 sec) 
Heartbeat CPU 0 instructions: 790000000 cycles: 5251610950 heartbeat IPC: 0.123053 cumulative IPC: 0.115055 (Simulation time: 1 hr 6 min 56 sec) 
Heartbeat CPU 0 instructions: 800000000 cycles: 5338064068 heartbeat IPC: 0.11567 cumulative IPC: 0.115065 (Simulation time: 1 hr 7 min 58 sec) 
Heartbeat CPU 0 instructions: 810000003 cycles: 5422811147 heartbeat IPC: 0.117998 cumulative IPC: 0.115112 (Simulation time: 1 hr 9 min 0 sec) 
Heartbeat CPU 0 instructions: 820000000 cycles: 5505144091 heartbeat IPC: 0.121458 cumulative IPC: 0.115209 (Simulation time: 1 hr 10 min 0 sec) 
Heartbeat CPU 0 instructions: 830000000 cycles: 5585935016 heartbeat IPC: 0.123776 cumulative IPC: 0.115336 (Simulation time: 1 hr 11 min 0 sec) 
Heartbeat CPU 0 instructions: 840000000 cycles: 5668505460 heartbeat IPC: 0.121109 cumulative IPC: 0.115422 (Simulation time: 1 hr 12 min 1 sec) 
Heartbeat CPU 0 instructions: 850000002 cycles: 5752122686 heartbeat IPC: 0.119593 cumulative IPC: 0.115484 (Simulation time: 1 hr 13 min 2 sec) 
Heartbeat CPU 0 instructions: 860000000 cycles: 5840654094 heartbeat IPC: 0.112954 cumulative IPC: 0.115444 (Simulation time: 1 hr 14 min 4 sec) 
Heartbeat CPU 0 instructions: 870000000 cycles: 5924758746 heartbeat IPC: 0.118899 cumulative IPC: 0.115495 (Simulation time: 1 hr 15 min 4 sec) 
Heartbeat CPU 0 instructions: 880000000 cycles: 6011979541 heartbeat IPC: 0.114652 cumulative IPC: 0.115482 (Simulation time: 1 hr 16 min 6 sec) 
Heartbeat CPU 0 instructions: 890000000 cycles: 6101302037 heartbeat IPC: 0.111954 cumulative IPC: 0.115429 (Simulation time: 1 hr 17 min 10 sec) 
Heartbeat CPU 0 instructions: 900000000 cycles: 6197043432 heartbeat IPC: 0.104448 cumulative IPC: 0.115256 (Simulation time: 1 hr 18 min 15 sec) 
Heartbeat CPU 0 instructions: 910000000 cycles: 6290380510 heartbeat IPC: 0.107139 cumulative IPC: 0.115133 (Simulation time: 1 hr 19 min 20 sec) 
Heartbeat CPU 0 instructions: 920000000 cycles: 6376870769 heartbeat IPC: 0.11562 cumulative IPC: 0.11514 (Simulation time: 1 hr 20 min 22 sec) 
Heartbeat CPU 0 instructions: 930000000 cycles: 6466698475 heartbeat IPC: 0.111324 cumulative IPC: 0.115086 (Simulation time: 1 hr 21 min 25 sec) 
Heartbeat CPU 0 instructions: 940000000 cycles: 6554474678 heartbeat IPC: 0.113926 cumulative IPC: 0.11507 (Simulation time: 1 hr 22 min 27 sec) 
Heartbeat CPU 0 instructions: 950000001 cycles: 6640276964 heartbeat IPC: 0.116547 cumulative IPC: 0.11509 (Simulation time: 1 hr 23 min 29 sec) 
Heartbeat CPU 0 instructions: 960000000 cycles: 6729892369 heartbeat IPC: 0.111588 cumulative IPC: 0.115042 (Simulation time: 1 hr 24 min 33 sec) 
Heartbeat CPU 0 instructions: 970000000 cycles: 6817782965 heartbeat IPC: 0.113778 cumulative IPC: 0.115026 (Simulation time: 1 hr 25 min 36 sec) 
Heartbeat CPU 0 instructions: 980000000 cycles: 6897652589 heartbeat IPC: 0.125204 cumulative IPC: 0.115146 (Simulation time: 1 hr 26 min 35 sec) 
Heartbeat CPU 0 instructions: 990000002 cycles: 6992958030 heartbeat IPC: 0.104926 cumulative IPC: 0.115004 (Simulation time: 1 hr 27 min 41 sec) 
Heartbeat CPU 0 instructions: 1000000000 cycles: 7084973777 heartbeat IPC: 0.108677 cumulative IPC: 0.11492 (Simulation time: 1 hr 28 min 45 sec) 
Heartbeat CPU 0 instructions: 1010000001 cycles: 7177025895 heartbeat IPC: 0.108634 cumulative IPC: 0.114838 (Simulation time: 1 hr 29 min 49 sec) 
Heartbeat CPU 0 instructions: 1020000000 cycles: 7267447025 heartbeat IPC: 0.110594 cumulative IPC: 0.114784 (Simulation time: 1 hr 30 min 53 sec) 
Heartbeat CPU 0 instructions: 1030000001 cycles: 7360133207 heartbeat IPC: 0.107891 cumulative IPC: 0.114696 (Simulation time: 1 hr 31 min 57 sec) 
Heartbeat CPU 0 instructions: 1040000000 cycles: 7457401699 heartbeat IPC: 0.102808 cumulative IPC: 0.114538 (Simulation time: 1 hr 33 min 2 sec) 
Heartbeat CPU 0 instructions: 1050000000 cycles: 7548165187 heartbeat IPC: 0.110176 cumulative IPC: 0.114485 (Simulation time: 1 hr 34 min 6 sec) 
Heartbeat CPU 0 instructions: 1060000000 cycles: 7640614661 heartbeat IPC: 0.108167 cumulative IPC: 0.114407 (Simulation time: 1 hr 35 min 10 sec) 
Heartbeat CPU 0 instructions: 1070000001 cycles: 7734635266 heartbeat IPC: 0.10636 cumulative IPC: 0.114308 (Simulation time: 1 hr 36 min 15 sec) 
Heartbeat CPU 0 instructions: 1080000000 cycles: 7829870163 heartbeat IPC: 0.105004 cumulative IPC: 0.114193 (Simulation time: 1 hr 37 min 20 sec) 
Heartbeat CPU 0 instructions: 1090000000 cycles: 7919335003 heartbeat IPC: 0.111776 cumulative IPC: 0.114165 (Simulation time: 1 hr 38 min 23 sec) 
Heartbeat CPU 0 instructions: 1100000000 cycles: 8005447827 heartbeat IPC: 0.116127 cumulative IPC: 0.114187 (Simulation time: 1 hr 39 min 25 sec) 
Heartbeat CPU 0 instructions: 1110000000 cycles: 8091939009 heartbeat IPC: 0.115619 cumulative IPC: 0.114202 (Simulation time: 1 hr 40 min 25 sec) 
Heartbeat CPU 0 instructions: 1120000000 cycles: 8177027066 heartbeat IPC: 0.117525 cumulative IPC: 0.114237 (Simulation time: 1 hr 41 min 26 sec) 
Heartbeat CPU 0 instructions: 1130000003 cycles: 8269567774 heartbeat IPC: 0.108061 cumulative IPC: 0.114167 (Simulation time: 1 hr 42 min 30 sec) 
Heartbeat CPU 0 instructions: 1140000000 cycles: 8357290138 heartbeat IPC: 0.113996 cumulative IPC: 0.114165 (Simulation time: 1 hr 43 min 32 sec) 
Heartbeat CPU 0 instructions: 1150000000 cycles: 8447460300 heartbeat IPC: 0.110901 cumulative IPC: 0.11413 (Simulation time: 1 hr 44 min 35 sec) 
Heartbeat CPU 0 instructions: 1160000000 cycles: 8539634165 heartbeat IPC: 0.108491 cumulative IPC: 0.114068 (Simulation time: 1 hr 45 min 40 sec) 
Heartbeat CPU 0 instructions: 1170000002 cycles: 8628305819 heartbeat IPC: 0.112776 cumulative IPC: 0.114055 (Simulation time: 1 hr 46 min 42 sec) 
Heartbeat CPU 0 instructions: 1180000000 cycles: 8719506029 heartbeat IPC: 0.109649 cumulative IPC: 0.114008 (Simulation time: 1 hr 47 min 46 sec) 
Heartbeat CPU 0 instructions: 1190000002 cycles: 8805205579 heartbeat IPC: 0.116687 cumulative IPC: 0.114034 (Simulation time: 1 hr 48 min 46 sec) 
Heartbeat CPU 0 instructions: 1200000000 cycles: 8901466698 heartbeat IPC: 0.103884 cumulative IPC: 0.113923 (Simulation time: 1 hr 49 min 51 sec) 
Finished CPU 0 instructions: 1000000000 cycles: 8777848312 cumulative IPC: 0.113923 (Simulation time: 1 hr 49 min 51 sec) 

CPU 0 Branch Prediction Accuracy: 96.8196% MPKI: 9.50327

ChampSim completed all CPUs

Region of Interest Statistics

CPU 0 cumulative IPC: 0.113923 instructions: 1000000000 cycles: 8777848312
L1D TOTAL     ACCESS:  224019711  HIT:   67135679  MISS:  156884032
L1D LOAD      ACCESS:  207945126  HIT:   51380466  MISS:  156564660
L1D RFO       ACCESS:   16074585  HIT:   15755213  MISS:     319372
L1D PREFETCH  ACCESS:          0  HIT:          0  MISS:          0
L1D WRITEBACK ACCESS:          0  HIT:          0  MISS:          0
L1D PREFETCH  REQUESTED:          0  ISSUED:          0  USEFUL:          0  USELESS:          0
L1I TOTAL     ACCESS:  218164511  HIT:  218164511  MISS:          0
L1I LOAD      ACCESS:  218164511  HIT:  218164511  MISS:          0
L1I RFO       ACCESS:          0  HIT:          0  MISS:          0
L1I PREFETCH  ACCESS:          0  HIT:          0  MISS:          0
L1I WRITEBACK ACCESS:          0  HIT:          0  MISS:          0
L1I PREFETCH  REQUESTED:          0  ISSUED:          0  USEFUL:          0  USELESS:          0
L2C TOTAL     ACCESS:  166816313  HIT:   17245623  MISS:  149570690
L2C LOAD      ACCESS:  156564351  HIT:   13805529  MISS:  142758822
L2C RFO       ACCESS:     319372  HIT:      10296  MISS:     309076
L2C PREFETCH  ACCESS:    7638537  HIT:    1135901  MISS:    6502636
L2C WRITEBACK ACCESS:    2294053  HIT:    2293897  MISS:        156
L2C PREFETCH  REQUESTED:  257008369  ISSUED:  257008369  USEFUL:    8872990  USELESS:    1482748
LLC TOTAL     ACCESS:  199309713  HIT:  113743043  MISS:   85566670
LLC LOAD      ACCESS:  139699945  HIT:   89854687  MISS:   49845258
LLC RFO       ACCESS:     309076  HIT:     266949  MISS:      42127
LLC PREFETCH  ACCESS:   57111298  HIT:   21432119  MISS:   35679179
LLC WRITEBACK ACCESS:    2189394  HIT:    2189288  MISS:        106
LLC PREFETCH  REQUESTED:          0  ISSUED:          0  USEFUL:   28953619  USELESS:   19357873
Major fault: 0 Minor fault: 443600

DRAM Statistics
 CHANNEL 0
 RQ ROW_BUFFER_HIT:   55417757  ROW_BUFFER_MISS:   30101111
 DBUS_CONGESTED:   72708803
 WQ ROW_BUFFER_HIT:      74197  ROW_BUFFER_MISS:     636505  FULL:          0

 AVG_CONGESTED_CYCLE: 75
