Initialize SIGNATURE TABLE
ST_SET: 1
ST_WAY: 256
ST_TAG_BIT: 16
ST_TAG_MASK: ffff

Initialize PATTERN TABLE
PT_SET: 512
PT_WAY: 4
SIG_DELTA_BIT: 7
C_SIG_BIT: 4
C_DELTA_BIT: 4

Initialize PREFETCH FILTER
FILTER_SET: 1024

*** ChampSim Multicore Out-of-Order Simulator ***

Warmup Instructions: 200000000
Simulation Instructions: 1000000000
Number of CPUs: 1
LLC sets: 2048
LLC ways: 16
Off-chip DRAM Size: 4096 MB Channels: 1 Width: 64-bit Data Rate: 400 MT/s

CPU 0 runs /scratch/user/djimenez/champsim-traces/speccpu2017/xz/625.x264_s/625.x264_s-20B.champsimtrace.xz
Heartbeat CPU 0 instructions: 10000001 cycles: 4003788 heartbeat IPC: 2.49763 cumulative IPC: 2.49763 (Simulation time: 0 hr 0 min 16 sec) 
Heartbeat CPU 0 instructions: 20000000 cycles: 7976454 heartbeat IPC: 2.5172 cumulative IPC: 2.50738 (Simulation time: 0 hr 0 min 34 sec) 
Heartbeat CPU 0 instructions: 30000002 cycles: 11948280 heartbeat IPC: 2.51773 cumulative IPC: 2.51082 (Simulation time: 0 hr 0 min 52 sec) 
Heartbeat CPU 0 instructions: 40000000 cycles: 15921961 heartbeat IPC: 2.51656 cumulative IPC: 2.51225 (Simulation time: 0 hr 1 min 10 sec) 
Heartbeat CPU 0 instructions: 50000000 cycles: 19888983 heartbeat IPC: 2.52078 cumulative IPC: 2.51395 (Simulation time: 0 hr 1 min 27 sec) 
Heartbeat CPU 0 instructions: 60000000 cycles: 23864288 heartbeat IPC: 2.51553 cumulative IPC: 2.51422 (Simulation time: 0 hr 1 min 45 sec) 
Heartbeat CPU 0 instructions: 70000002 cycles: 27844416 heartbeat IPC: 2.51248 cumulative IPC: 2.51397 (Simulation time: 0 hr 2 min 3 sec) 
Heartbeat CPU 0 instructions: 80000000 cycles: 31828125 heartbeat IPC: 2.51022 cumulative IPC: 2.5135 (Simulation time: 0 hr 2 min 21 sec) 
Heartbeat CPU 0 instructions: 90000000 cycles: 36775933 heartbeat IPC: 2.0211 cumulative IPC: 2.44725 (Simulation time: 0 hr 2 min 39 sec) 
Heartbeat CPU 0 instructions: 100000000 cycles: 41076257 heartbeat IPC: 2.32541 cumulative IPC: 2.4345 (Simulation time: 0 hr 2 min 58 sec) 
Heartbeat CPU 0 instructions: 110000003 cycles: 44872752 heartbeat IPC: 2.63401 cumulative IPC: 2.45138 (Simulation time: 0 hr 3 min 14 sec) 
Heartbeat CPU 0 instructions: 120000000 cycles: 48817525 heartbeat IPC: 2.535 cumulative IPC: 2.45813 (Simulation time: 0 hr 3 min 31 sec) 
Heartbeat CPU 0 instructions: 130000003 cycles: 52758994 heartbeat IPC: 2.53713 cumulative IPC: 2.46403 (Simulation time: 0 hr 3 min 48 sec) 
Heartbeat CPU 0 instructions: 140000000 cycles: 56697369 heartbeat IPC: 2.53912 cumulative IPC: 2.46925 (Simulation time: 0 hr 4 min 5 sec) 
Heartbeat CPU 0 instructions: 150000002 cycles: 60635131 heartbeat IPC: 2.53951 cumulative IPC: 2.47381 (Simulation time: 0 hr 4 min 22 sec) 
Heartbeat CPU 0 instructions: 160000000 cycles: 64574282 heartbeat IPC: 2.53862 cumulative IPC: 2.47777 (Simulation time: 0 hr 4 min 39 sec) 
Heartbeat CPU 0 instructions: 170000000 cycles: 68517402 heartbeat IPC: 2.53606 cumulative IPC: 2.48112 (Simulation time: 0 hr 4 min 56 sec) 
Heartbeat CPU 0 instructions: 180000000 cycles: 72463145 heartbeat IPC: 2.53438 cumulative IPC: 2.48402 (Simulation time: 0 hr 5 min 13 sec) 
Heartbeat CPU 0 instructions: 190000003 cycles: 76410618 heartbeat IPC: 2.53327 cumulative IPC: 2.48657 (Simulation time: 0 hr 5 min 31 sec) 
Heartbeat CPU 0 instructions: 200000000 cycles: 80347721 heartbeat IPC: 2.53994 cumulative IPC: 2.48918 (Simulation time: 0 hr 5 min 48 sec) 

Warmup complete CPU 0 instructions: 200000001 cycles: 80347722 (Simulation time: 0 hr 5 min 48 sec) 

Heartbeat CPU 0 instructions: 210000003 cycles: 87776651 heartbeat IPC: 1.34609 cumulative IPC: 1.34609 (Simulation time: 0 hr 6 min 8 sec) 
Heartbeat CPU 0 instructions: 220000000 cycles: 95186299 heartbeat IPC: 1.34959 cumulative IPC: 1.34784 (Simulation time: 0 hr 6 min 29 sec) 
Heartbeat CPU 0 instructions: 230000002 cycles: 102609468 heartbeat IPC: 1.34713 cumulative IPC: 1.3476 (Simulation time: 0 hr 6 min 49 sec) 
Heartbeat CPU 0 instructions: 240000000 cycles: 110032590 heartbeat IPC: 1.34714 cumulative IPC: 1.34749 (Simulation time: 0 hr 7 min 10 sec) 
Heartbeat CPU 0 instructions: 250000003 cycles: 117431593 heartbeat IPC: 1.35153 cumulative IPC: 1.3483 (Simulation time: 0 hr 7 min 30 sec) 
Heartbeat CPU 0 instructions: 260000000 cycles: 124833444 heartbeat IPC: 1.35101 cumulative IPC: 1.34875 (Simulation time: 0 hr 7 min 51 sec) 
Heartbeat CPU 0 instructions: 270000002 cycles: 132232714 heartbeat IPC: 1.35148 cumulative IPC: 1.34914 (Simulation time: 0 hr 8 min 11 sec) 
Heartbeat CPU 0 instructions: 280000000 cycles: 139641702 heartbeat IPC: 1.34971 cumulative IPC: 1.34921 (Simulation time: 0 hr 8 min 31 sec) 
Heartbeat CPU 0 instructions: 290000000 cycles: 147067139 heartbeat IPC: 1.34672 cumulative IPC: 1.34893 (Simulation time: 0 hr 8 min 52 sec) 
Heartbeat CPU 0 instructions: 300000000 cycles: 154508936 heartbeat IPC: 1.34376 cumulative IPC: 1.34841 (Simulation time: 0 hr 9 min 12 sec) 
Heartbeat CPU 0 instructions: 310000002 cycles: 161963221 heartbeat IPC: 1.34151 cumulative IPC: 1.34778 (Simulation time: 0 hr 9 min 33 sec) 
Heartbeat CPU 0 instructions: 320000000 cycles: 169402259 heartbeat IPC: 1.34426 cumulative IPC: 1.34749 (Simulation time: 0 hr 9 min 54 sec) 
Heartbeat CPU 0 instructions: 330000000 cycles: 176861148 heartbeat IPC: 1.34068 cumulative IPC: 1.34696 (Simulation time: 0 hr 10 min 15 sec) 
Heartbeat CPU 0 instructions: 340000000 cycles: 184318885 heartbeat IPC: 1.34089 cumulative IPC: 1.34653 (Simulation time: 0 hr 10 min 36 sec) 
Heartbeat CPU 0 instructions: 350000002 cycles: 191761878 heartbeat IPC: 1.34355 cumulative IPC: 1.34633 (Simulation time: 0 hr 10 min 57 sec) 
Heartbeat CPU 0 instructions: 360000000 cycles: 199193067 heartbeat IPC: 1.34568 cumulative IPC: 1.34629 (Simulation time: 0 hr 11 min 18 sec) 
Heartbeat CPU 0 instructions: 370000000 cycles: 206625407 heartbeat IPC: 1.34547 cumulative IPC: 1.34624 (Simulation time: 0 hr 11 min 39 sec) 
Heartbeat CPU 0 instructions: 380000000 cycles: 214058790 heartbeat IPC: 1.34528 cumulative IPC: 1.34619 (Simulation time: 0 hr 12 min 0 sec) 
Heartbeat CPU 0 instructions: 390000003 cycles: 221531540 heartbeat IPC: 1.3382 cumulative IPC: 1.34576 (Simulation time: 0 hr 12 min 21 sec) 
Heartbeat CPU 0 instructions: 400000000 cycles: 228998128 heartbeat IPC: 1.3393 cumulative IPC: 1.34544 (Simulation time: 0 hr 12 min 42 sec) 
Heartbeat CPU 0 instructions: 410000002 cycles: 236447140 heartbeat IPC: 1.34246 cumulative IPC: 1.3453 (Simulation time: 0 hr 13 min 3 sec) 
Heartbeat CPU 0 instructions: 420000000 cycles: 243914961 heartbeat IPC: 1.33908 cumulative IPC: 1.34501 (Simulation time: 0 hr 13 min 24 sec) 
Heartbeat CPU 0 instructions: 430000003 cycles: 251371725 heartbeat IPC: 1.34106 cumulative IPC: 1.34484 (Simulation time: 0 hr 13 min 45 sec) 
Heartbeat CPU 0 instructions: 440000000 cycles: 258855466 heartbeat IPC: 1.33623 cumulative IPC: 1.34448 (Simulation time: 0 hr 14 min 6 sec) 
Heartbeat CPU 0 instructions: 450000000 cycles: 266291810 heartbeat IPC: 1.34475 cumulative IPC: 1.34449 (Simulation time: 0 hr 14 min 26 sec) 
Heartbeat CPU 0 instructions: 460000000 cycles: 273704136 heartbeat IPC: 1.3491 cumulative IPC: 1.34467 (Simulation time: 0 hr 14 min 47 sec) 
Heartbeat CPU 0 instructions: 470000002 cycles: 281096990 heartbeat IPC: 1.35266 cumulative IPC: 1.34496 (Simulation time: 0 hr 15 min 7 sec) 
Heartbeat CPU 0 instructions: 480000000 cycles: 288496231 heartbeat IPC: 1.35149 cumulative IPC: 1.34519 (Simulation time: 0 hr 15 min 28 sec) 
Heartbeat CPU 0 instructions: 490000000 cycles: 295921066 heartbeat IPC: 1.34683 cumulative IPC: 1.34525 (Simulation time: 0 hr 15 min 48 sec) 
Heartbeat CPU 0 instructions: 500000000 cycles: 303380697 heartbeat IPC: 1.34055 cumulative IPC: 1.34509 (Simulation time: 0 hr 16 min 9 sec) 
Heartbeat CPU 0 instructions: 510000003 cycles: 310838844 heartbeat IPC: 1.34082 cumulative IPC: 1.34495 (Simulation time: 0 hr 16 min 30 sec) 
Heartbeat CPU 0 instructions: 520000000 cycles: 318296544 heartbeat IPC: 1.3409 cumulative IPC: 1.34483 (Simulation time: 0 hr 16 min 50 sec) 
Heartbeat CPU 0 instructions: 530000001 cycles: 325692075 heartbeat IPC: 1.35217 cumulative IPC: 1.34505 (Simulation time: 0 hr 17 min 11 sec) 
Heartbeat CPU 0 instructions: 540000000 cycles: 333029413 heartbeat IPC: 1.36289 cumulative IPC: 1.34557 (Simulation time: 0 hr 17 min 31 sec) 
Heartbeat CPU 0 instructions: 550000001 cycles: 340380545 heartbeat IPC: 1.36033 cumulative IPC: 1.34598 (Simulation time: 0 hr 17 min 52 sec) 
Heartbeat CPU 0 instructions: 560000000 cycles: 347698865 heartbeat IPC: 1.36643 cumulative IPC: 1.34654 (Simulation time: 0 hr 18 min 12 sec) 
Heartbeat CPU 0 instructions: 570000003 cycles: 355035612 heartbeat IPC: 1.363 cumulative IPC: 1.34698 (Simulation time: 0 hr 18 min 33 sec) 
Heartbeat CPU 0 instructions: 580000000 cycles: 362358047 heartbeat IPC: 1.36567 cumulative IPC: 1.34747 (Simulation time: 0 hr 18 min 53 sec) 
Heartbeat CPU 0 instructions: 590000003 cycles: 369706199 heartbeat IPC: 1.36089 cumulative IPC: 1.34781 (Simulation time: 0 hr 19 min 13 sec) 
Heartbeat CPU 0 instructions: 600000000 cycles: 377104532 heartbeat IPC: 1.35166 cumulative IPC: 1.34791 (Simulation time: 0 hr 19 min 34 sec) 
Heartbeat CPU 0 instructions: 610000001 cycles: 384524224 heartbeat IPC: 1.34776 cumulative IPC: 1.3479 (Simulation time: 0 hr 19 min 55 sec) 
Heartbeat CPU 0 instructions: 620000000 cycles: 392692831 heartbeat IPC: 1.2242 cumulative IPC: 1.34467 (Simulation time: 0 hr 20 min 17 sec) 
Heartbeat CPU 0 instructions: 630000000 cycles: 400202863 heartbeat IPC: 1.33155 cumulative IPC: 1.34436 (Simulation time: 0 hr 20 min 38 sec) 
Heartbeat CPU 0 instructions: 640000000 cycles: 407718801 heartbeat IPC: 1.33051 cumulative IPC: 1.34404 (Simulation time: 0 hr 21 min 0 sec) 
Heartbeat CPU 0 instructions: 650000001 cycles: 415240646 heartbeat IPC: 1.32946 cumulative IPC: 1.34371 (Simulation time: 0 hr 21 min 21 sec) 
Heartbeat CPU 0 instructions: 660000000 cycles: 422764803 heartbeat IPC: 1.32905 cumulative IPC: 1.34339 (Simulation time: 0 hr 21 min 42 sec) 
Heartbeat CPU 0 instructions: 670000000 cycles: 430387366 heartbeat IPC: 1.31189 cumulative IPC: 1.34271 (Simulation time: 0 hr 22 min 3 sec) 
Heartbeat CPU 0 instructions: 680000000 cycles: 438001272 heartbeat IPC: 1.31339 cumulative IPC: 1.34208 (Simulation time: 0 hr 22 min 24 sec) 
Heartbeat CPU 0 instructions: 690000001 cycles: 445545937 heartbeat IPC: 1.32544 cumulative IPC: 1.34174 (Simulation time: 0 hr 22 min 45 sec) 
Heartbeat CPU 0 instructions: 700000000 cycles: 453127223 heartbeat IPC: 1.31904 cumulative IPC: 1.34128 (Simulation time: 0 hr 23 min 6 sec) 
Heartbeat CPU 0 instructions: 710000000 cycles: 460735974 heartbeat IPC: 1.31428 cumulative IPC: 1.34074 (Simulation time: 0 hr 23 min 27 sec) 
Heartbeat CPU 0 instructions: 720000000 cycles: 468380397 heartbeat IPC: 1.30814 cumulative IPC: 1.34009 (Simulation time: 0 hr 23 min 49 sec) 
Heartbeat CPU 0 instructions: 730000002 cycles: 475928445 heartbeat IPC: 1.32485 cumulative IPC: 1.3398 (Simulation time: 0 hr 24 min 10 sec) 
Heartbeat CPU 0 instructions: 740000000 cycles: 483394749 heartbeat IPC: 1.33935 cumulative IPC: 1.33979 (Simulation time: 0 hr 24 min 31 sec) 
Heartbeat CPU 0 instructions: 750000001 cycles: 490861965 heartbeat IPC: 1.33919 cumulative IPC: 1.33978 (Simulation time: 0 hr 24 min 52 sec) 
Heartbeat CPU 0 instructions: 760000000 cycles: 498326096 heartbeat IPC: 1.33974 cumulative IPC: 1.33978 (Simulation time: 0 hr 25 min 13 sec) 
Heartbeat CPU 0 instructions: 770000002 cycles: 505796460 heartbeat IPC: 1.33862 cumulative IPC: 1.33976 (Simulation time: 0 hr 25 min 34 sec) 
Heartbeat CPU 0 instructions: 780000000 cycles: 513270396 heartbeat IPC: 1.33798 cumulative IPC: 1.33973 (Simulation time: 0 hr 25 min 55 sec) 
Heartbeat CPU 0 instructions: 790000002 cycles: 520750000 heartbeat IPC: 1.33697 cumulative IPC: 1.33968 (Simulation time: 0 hr 26 min 15 sec) 
Heartbeat CPU 0 instructions: 800000000 cycles: 528229008 heartbeat IPC: 1.33708 cumulative IPC: 1.33964 (Simulation time: 0 hr 26 min 37 sec) 
Heartbeat CPU 0 instructions: 810000001 cycles: 535690443 heartbeat IPC: 1.34022 cumulative IPC: 1.33965 (Simulation time: 0 hr 26 min 58 sec) 
Heartbeat CPU 0 instructions: 820000000 cycles: 543158818 heartbeat IPC: 1.33898 cumulative IPC: 1.33964 (Simulation time: 0 hr 27 min 19 sec) 
Heartbeat CPU 0 instructions: 830000000 cycles: 550936317 heartbeat IPC: 1.28576 cumulative IPC: 1.33875 (Simulation time: 0 hr 27 min 40 sec) 
Heartbeat CPU 0 instructions: 840000000 cycles: 559395086 heartbeat IPC: 1.18221 cumulative IPC: 1.33598 (Simulation time: 0 hr 28 min 2 sec) 
Heartbeat CPU 0 instructions: 850000000 cycles: 566483656 heartbeat IPC: 1.41072 cumulative IPC: 1.33707 (Simulation time: 0 hr 28 min 23 sec) 
Heartbeat CPU 0 instructions: 860000000 cycles: 573233187 heartbeat IPC: 1.48158 cumulative IPC: 1.33905 (Simulation time: 0 hr 28 min 43 sec) 
Heartbeat CPU 0 instructions: 870000002 cycles: 580127684 heartbeat IPC: 1.45043 cumulative IPC: 1.34059 (Simulation time: 0 hr 29 min 3 sec) 
Heartbeat CPU 0 instructions: 880000000 cycles: 587075707 heartbeat IPC: 1.43926 cumulative IPC: 1.34194 (Simulation time: 0 hr 29 min 23 sec) 
Heartbeat CPU 0 instructions: 890000003 cycles: 593989343 heartbeat IPC: 1.44642 cumulative IPC: 1.34335 (Simulation time: 0 hr 29 min 43 sec) 
Heartbeat CPU 0 instructions: 900000000 cycles: 600857481 heartbeat IPC: 1.456 cumulative IPC: 1.34484 (Simulation time: 0 hr 30 min 4 sec) 
Heartbeat CPU 0 instructions: 910000000 cycles: 608103695 heartbeat IPC: 1.38003 cumulative IPC: 1.34532 (Simulation time: 0 hr 30 min 24 sec) 
Heartbeat CPU 0 instructions: 920000000 cycles: 615020392 heartbeat IPC: 1.44578 cumulative IPC: 1.34662 (Simulation time: 0 hr 30 min 44 sec) 
Heartbeat CPU 0 instructions: 930000000 cycles: 621721800 heartbeat IPC: 1.49222 cumulative IPC: 1.34842 (Simulation time: 0 hr 31 min 4 sec) 
Heartbeat CPU 0 instructions: 940000000 cycles: 628549262 heartbeat IPC: 1.46467 cumulative IPC: 1.34987 (Simulation time: 0 hr 31 min 25 sec) 
Heartbeat CPU 0 instructions: 950000003 cycles: 635342713 heartbeat IPC: 1.47201 cumulative IPC: 1.35136 (Simulation time: 0 hr 31 min 45 sec) 
Heartbeat CPU 0 instructions: 960000000 cycles: 642052888 heartbeat IPC: 1.49027 cumulative IPC: 1.35302 (Simulation time: 0 hr 32 min 5 sec) 
Heartbeat CPU 0 instructions: 970000003 cycles: 648912633 heartbeat IPC: 1.45778 cumulative IPC: 1.35429 (Simulation time: 0 hr 32 min 26 sec) 
Heartbeat CPU 0 instructions: 980000000 cycles: 665768702 heartbeat IPC: 0.593258 cumulative IPC: 1.33237 (Simulation time: 0 hr 32 min 55 sec) 
Heartbeat CPU 0 instructions: 990000003 cycles: 670548763 heartbeat IPC: 2.09202 cumulative IPC: 1.33853 (Simulation time: 0 hr 33 min 14 sec) 
Heartbeat CPU 0 instructions: 1000000000 cycles: 678015619 heartbeat IPC: 1.33925 cumulative IPC: 1.33854 (Simulation time: 0 hr 33 min 35 sec) 
Heartbeat CPU 0 instructions: 1010000000 cycles: 685455329 heartbeat IPC: 1.34414 cumulative IPC: 1.3386 (Simulation time: 0 hr 33 min 56 sec) 
Heartbeat CPU 0 instructions: 1020000000 cycles: 692601589 heartbeat IPC: 1.39933 cumulative IPC: 1.33931 (Simulation time: 0 hr 34 min 17 sec) 
Heartbeat CPU 0 instructions: 1030000001 cycles: 699510092 heartbeat IPC: 1.44749 cumulative IPC: 1.34052 (Simulation time: 0 hr 34 min 37 sec) 
Heartbeat CPU 0 instructions: 1040000000 cycles: 706509300 heartbeat IPC: 1.42873 cumulative IPC: 1.34151 (Simulation time: 0 hr 34 min 58 sec) 
Heartbeat CPU 0 instructions: 1050000002 cycles: 713515749 heartbeat IPC: 1.42726 cumulative IPC: 1.34246 (Simulation time: 0 hr 35 min 19 sec) 
Heartbeat CPU 0 instructions: 1060000000 cycles: 720713736 heartbeat IPC: 1.38928 cumulative IPC: 1.34298 (Simulation time: 0 hr 35 min 39 sec) 
Heartbeat CPU 0 instructions: 1070000003 cycles: 727715356 heartbeat IPC: 1.42824 cumulative IPC: 1.3439 (Simulation time: 0 hr 36 min 0 sec) 
Heartbeat CPU 0 instructions: 1080000000 cycles: 734807822 heartbeat IPC: 1.40995 cumulative IPC: 1.34462 (Simulation time: 0 hr 36 min 21 sec) 
Heartbeat CPU 0 instructions: 1090000001 cycles: 741918273 heartbeat IPC: 1.40638 cumulative IPC: 1.34528 (Simulation time: 0 hr 36 min 42 sec) 
Heartbeat CPU 0 instructions: 1100000000 cycles: 748852020 heartbeat IPC: 1.44222 cumulative IPC: 1.34629 (Simulation time: 0 hr 37 min 2 sec) 
Heartbeat CPU 0 instructions: 1110000001 cycles: 755828778 heartbeat IPC: 1.43333 cumulative IPC: 1.34719 (Simulation time: 0 hr 37 min 23 sec) 
Heartbeat CPU 0 instructions: 1120000000 cycles: 762747588 heartbeat IPC: 1.44534 cumulative IPC: 1.34818 (Simulation time: 0 hr 37 min 44 sec) 
Heartbeat CPU 0 instructions: 1130000000 cycles: 769658397 heartbeat IPC: 1.44701 cumulative IPC: 1.34917 (Simulation time: 0 hr 38 min 4 sec) 
Heartbeat CPU 0 instructions: 1140000000 cycles: 776633719 heartbeat IPC: 1.43363 cumulative IPC: 1.35002 (Simulation time: 0 hr 38 min 25 sec) 
Heartbeat CPU 0 instructions: 1150000002 cycles: 783706639 heartbeat IPC: 1.41384 cumulative IPC: 1.35066 (Simulation time: 0 hr 38 min 46 sec) 
Heartbeat CPU 0 instructions: 1160000000 cycles: 790850429 heartbeat IPC: 1.39982 cumulative IPC: 1.35116 (Simulation time: 0 hr 39 min 7 sec) 
Heartbeat CPU 0 instructions: 1170000000 cycles: 806253211 heartbeat IPC: 0.649233 cumulative IPC: 1.33626 (Simulation time: 0 hr 39 min 35 sec) 
Heartbeat CPU 0 instructions: 1180000000 cycles: 812117773 heartbeat IPC: 1.70516 cumulative IPC: 1.33922 (Simulation time: 0 hr 39 min 55 sec) 
Heartbeat CPU 0 instructions: 1190000002 cycles: 820166765 heartbeat IPC: 1.24239 cumulative IPC: 1.33817 (Simulation time: 0 hr 40 min 17 sec) 
Heartbeat CPU 0 instructions: 1200000000 cycles: 827873877 heartbeat IPC: 1.2975 cumulative IPC: 1.33775 (Simulation time: 0 hr 40 min 39 sec) 
Finished CPU 0 instructions: 1000000000 cycles: 747526168 cumulative IPC: 1.33775 (Simulation time: 0 hr 40 min 39 sec) 

CPU 0 Branch Prediction Accuracy: 97.7925% MPKI: 0.730719

ChampSim completed all CPUs

Region of Interest Statistics

CPU 0 cumulative IPC: 1.33775 instructions: 1000000000 cycles: 747526168
L1D TOTAL     ACCESS:  157178133  HIT:  155495654  MISS:    1682479
L1D LOAD      ACCESS:   87242698  HIT:   86053547  MISS:    1189151
L1D RFO       ACCESS:   69935435  HIT:   69442107  MISS:     493328
L1D PREFETCH  ACCESS:          0  HIT:          0  MISS:          0
L1D WRITEBACK ACCESS:          0  HIT:          0  MISS:          0
L1D PREFETCH  REQUESTED:          0  ISSUED:          0  USEFUL:          0  USELESS:          0
L1I TOTAL     ACCESS:  239407589  HIT:  238590589  MISS:     817000
L1I LOAD      ACCESS:  239407589  HIT:  238590589  MISS:     817000
L1I RFO       ACCESS:          0  HIT:          0  MISS:          0
L1I PREFETCH  ACCESS:          0  HIT:          0  MISS:          0
L1I WRITEBACK ACCESS:          0  HIT:          0  MISS:          0
L1I PREFETCH  REQUESTED:          0  ISSUED:          0  USEFUL:          0  USELESS:          0
L2C TOTAL     ACCESS:    4626437  HIT:    3652437  MISS:     974000
L2C LOAD      ACCESS:    2006141  HIT:    1451065  MISS:     555076
L2C RFO       ACCESS:     492502  HIT:     207124  MISS:     285378
L2C PREFETCH  ACCESS:    1561023  HIT:    1429694  MISS:     131329
L2C WRITEBACK ACCESS:     566771  HIT:     564554  MISS:       2217
L2C PREFETCH  REQUESTED:    7484842  ISSUED:    7452858  USEFUL:     220085  USELESS:       4201
LLC TOTAL     ACCESS:    3194669  HIT:    2433251  MISS:     761418
LLC LOAD      ACCESS:     518138  HIT:     386871  MISS:     131267
LLC RFO       ACCESS:     285372  HIT:      15767  MISS:     269605
LLC PREFETCH  ACCESS:    2061775  HIT:    1701696  MISS:     360079
LLC WRITEBACK ACCESS:     329384  HIT:     328917  MISS:        467
LLC PREFETCH  REQUESTED:          0  ISSUED:          0  USEFUL:     327666  USELESS:     209019
Major fault: 0 Minor fault: 10752

DRAM Statistics
 CHANNEL 0
 RQ ROW_BUFFER_HIT:     537423  ROW_BUFFER_MISS:     223267
 DBUS_CONGESTED:     867948
 WQ ROW_BUFFER_HIT:     123605  ROW_BUFFER_MISS:     183892  FULL:          0

 AVG_CONGESTED_CYCLE: 75
