Initialize SIGNATURE TABLE
ST_SET: 1
ST_WAY: 256
ST_TAG_BIT: 16
ST_TAG_MASK: ffff

Initialize PATTERN TABLE
PT_SET: 512
PT_WAY: 4
SIG_DELTA_BIT: 7
C_SIG_BIT: 4
C_DELTA_BIT: 4

Initialize PREFETCH FILTER
FILTER_SET: 1024

*** ChampSim Multicore Out-of-Order Simulator ***

Warmup Instructions: 200000000
Simulation Instructions: 1000000000
Number of CPUs: 1
LLC sets: 2048
LLC ways: 16
Off-chip DRAM Size: 4096 MB Channels: 1 Width: 64-bit Data Rate: 400 MT/s

CPU 0 runs /scratch/user/djimenez/champsim-traces/speccpu2017/xz/625.x264_s/625.x264_s-33B.champsimtrace.xz
Heartbeat CPU 0 instructions: 10000000 cycles: 3804660 heartbeat IPC: 2.62836 cumulative IPC: 2.62836 (Simulation time: 0 hr 0 min 17 sec) 
Heartbeat CPU 0 instructions: 20000000 cycles: 7612275 heartbeat IPC: 2.62632 cumulative IPC: 2.62734 (Simulation time: 0 hr 0 min 34 sec) 
Heartbeat CPU 0 instructions: 30000003 cycles: 11518372 heartbeat IPC: 2.5601 cumulative IPC: 2.60454 (Simulation time: 0 hr 0 min 51 sec) 
Heartbeat CPU 0 instructions: 40000000 cycles: 15450312 heartbeat IPC: 2.54327 cumulative IPC: 2.58894 (Simulation time: 0 hr 1 min 7 sec) 
Heartbeat CPU 0 instructions: 50000003 cycles: 19376568 heartbeat IPC: 2.54696 cumulative IPC: 2.58044 (Simulation time: 0 hr 1 min 24 sec) 
Heartbeat CPU 0 instructions: 60000000 cycles: 23294142 heartbeat IPC: 2.5526 cumulative IPC: 2.57575 (Simulation time: 0 hr 1 min 41 sec) 
Heartbeat CPU 0 instructions: 70000003 cycles: 27219485 heartbeat IPC: 2.54755 cumulative IPC: 2.57169 (Simulation time: 0 hr 1 min 57 sec) 
Heartbeat CPU 0 instructions: 80000000 cycles: 31141437 heartbeat IPC: 2.54975 cumulative IPC: 2.56892 (Simulation time: 0 hr 2 min 14 sec) 
Heartbeat CPU 0 instructions: 90000003 cycles: 35065378 heartbeat IPC: 2.54846 cumulative IPC: 2.56663 (Simulation time: 0 hr 2 min 31 sec) 
Heartbeat CPU 0 instructions: 100000000 cycles: 38994626 heartbeat IPC: 2.54502 cumulative IPC: 2.56446 (Simulation time: 0 hr 2 min 47 sec) 
Heartbeat CPU 0 instructions: 110000002 cycles: 42931094 heartbeat IPC: 2.54035 cumulative IPC: 2.56225 (Simulation time: 0 hr 3 min 4 sec) 
Heartbeat CPU 0 instructions: 120000000 cycles: 47024224 heartbeat IPC: 2.44312 cumulative IPC: 2.55188 (Simulation time: 0 hr 3 min 22 sec) 
Heartbeat CPU 0 instructions: 130000000 cycles: 50835637 heartbeat IPC: 2.6237 cumulative IPC: 2.55726 (Simulation time: 0 hr 3 min 39 sec) 
Heartbeat CPU 0 instructions: 140000000 cycles: 54647323 heartbeat IPC: 2.62351 cumulative IPC: 2.56188 (Simulation time: 0 hr 3 min 56 sec) 
Heartbeat CPU 0 instructions: 150000000 cycles: 58462773 heartbeat IPC: 2.62092 cumulative IPC: 2.56574 (Simulation time: 0 hr 4 min 13 sec) 
Heartbeat CPU 0 instructions: 160000000 cycles: 62272464 heartbeat IPC: 2.62488 cumulative IPC: 2.56935 (Simulation time: 0 hr 4 min 30 sec) 
Heartbeat CPU 0 instructions: 170000002 cycles: 66095794 heartbeat IPC: 2.61552 cumulative IPC: 2.57202 (Simulation time: 0 hr 4 min 48 sec) 
Heartbeat CPU 0 instructions: 180000000 cycles: 69940740 heartbeat IPC: 2.60082 cumulative IPC: 2.57361 (Simulation time: 0 hr 5 min 5 sec) 
Heartbeat CPU 0 instructions: 190000000 cycles: 73774837 heartbeat IPC: 2.60818 cumulative IPC: 2.5754 (Simulation time: 0 hr 5 min 22 sec) 
Heartbeat CPU 0 instructions: 200000000 cycles: 77603303 heartbeat IPC: 2.61201 cumulative IPC: 2.57721 (Simulation time: 0 hr 5 min 39 sec) 

Warmup complete CPU 0 instructions: 200000001 cycles: 77603304 (Simulation time: 0 hr 5 min 39 sec) 

Heartbeat CPU 0 instructions: 210000001 cycles: 85008111 heartbeat IPC: 1.35047 cumulative IPC: 1.35047 (Simulation time: 0 hr 5 min 59 sec) 
Heartbeat CPU 0 instructions: 220000000 cycles: 92418845 heartbeat IPC: 1.34939 cumulative IPC: 1.34993 (Simulation time: 0 hr 6 min 20 sec) 
Heartbeat CPU 0 instructions: 230000001 cycles: 99960513 heartbeat IPC: 1.32597 cumulative IPC: 1.34185 (Simulation time: 0 hr 6 min 41 sec) 
Heartbeat CPU 0 instructions: 240000000 cycles: 107572876 heartbeat IPC: 1.31365 cumulative IPC: 1.33469 (Simulation time: 0 hr 7 min 2 sec) 
Heartbeat CPU 0 instructions: 250000000 cycles: 115015117 heartbeat IPC: 1.34368 cumulative IPC: 1.33648 (Simulation time: 0 hr 7 min 22 sec) 
Heartbeat CPU 0 instructions: 260000000 cycles: 122400252 heartbeat IPC: 1.35407 cumulative IPC: 1.33938 (Simulation time: 0 hr 7 min 43 sec) 
Heartbeat CPU 0 instructions: 270000000 cycles: 129721359 heartbeat IPC: 1.36591 cumulative IPC: 1.3431 (Simulation time: 0 hr 8 min 3 sec) 
Heartbeat CPU 0 instructions: 280000000 cycles: 137071167 heartbeat IPC: 1.36058 cumulative IPC: 1.34526 (Simulation time: 0 hr 8 min 23 sec) 
Heartbeat CPU 0 instructions: 290000003 cycles: 144378211 heartbeat IPC: 1.36854 cumulative IPC: 1.34781 (Simulation time: 0 hr 8 min 44 sec) 
Heartbeat CPU 0 instructions: 300000000 cycles: 151733258 heartbeat IPC: 1.35961 cumulative IPC: 1.34898 (Simulation time: 0 hr 9 min 4 sec) 
Heartbeat CPU 0 instructions: 310000001 cycles: 159076416 heartbeat IPC: 1.36181 cumulative IPC: 1.35014 (Simulation time: 0 hr 9 min 25 sec) 
Heartbeat CPU 0 instructions: 320000000 cycles: 166440106 heartbeat IPC: 1.35801 cumulative IPC: 1.35079 (Simulation time: 0 hr 9 min 45 sec) 
Heartbeat CPU 0 instructions: 330000000 cycles: 173808223 heartbeat IPC: 1.3572 cumulative IPC: 1.35128 (Simulation time: 0 hr 10 min 5 sec) 
Heartbeat CPU 0 instructions: 340000000 cycles: 181174121 heartbeat IPC: 1.35761 cumulative IPC: 1.35173 (Simulation time: 0 hr 10 min 26 sec) 
Heartbeat CPU 0 instructions: 350000000 cycles: 188580887 heartbeat IPC: 1.35012 cumulative IPC: 1.35162 (Simulation time: 0 hr 10 min 47 sec) 
Heartbeat CPU 0 instructions: 360000000 cycles: 196238491 heartbeat IPC: 1.30589 cumulative IPC: 1.34867 (Simulation time: 0 hr 11 min 7 sec) 
Heartbeat CPU 0 instructions: 370000002 cycles: 205186893 heartbeat IPC: 1.11752 cumulative IPC: 1.33246 (Simulation time: 0 hr 11 min 29 sec) 
Heartbeat CPU 0 instructions: 380000000 cycles: 212795616 heartbeat IPC: 1.31428 cumulative IPC: 1.33144 (Simulation time: 0 hr 11 min 50 sec) 
Heartbeat CPU 0 instructions: 390000001 cycles: 219625438 heartbeat IPC: 1.46417 cumulative IPC: 1.33782 (Simulation time: 0 hr 12 min 10 sec) 
Heartbeat CPU 0 instructions: 400000000 cycles: 226461560 heartbeat IPC: 1.46282 cumulative IPC: 1.34356 (Simulation time: 0 hr 12 min 30 sec) 
Heartbeat CPU 0 instructions: 410000000 cycles: 233721720 heartbeat IPC: 1.37738 cumulative IPC: 1.34513 (Simulation time: 0 hr 12 min 50 sec) 
Heartbeat CPU 0 instructions: 420000000 cycles: 240642259 heartbeat IPC: 1.44497 cumulative IPC: 1.34937 (Simulation time: 0 hr 13 min 10 sec) 
Heartbeat CPU 0 instructions: 430000002 cycles: 247763753 heartbeat IPC: 1.4042 cumulative IPC: 1.35167 (Simulation time: 0 hr 13 min 30 sec) 
Heartbeat CPU 0 instructions: 440000000 cycles: 254920018 heartbeat IPC: 1.39738 cumulative IPC: 1.35351 (Simulation time: 0 hr 13 min 51 sec) 
Heartbeat CPU 0 instructions: 450000000 cycles: 261800915 heartbeat IPC: 1.4533 cumulative IPC: 1.35724 (Simulation time: 0 hr 14 min 11 sec) 
Heartbeat CPU 0 instructions: 460000000 cycles: 268703705 heartbeat IPC: 1.44869 cumulative IPC: 1.36054 (Simulation time: 0 hr 14 min 31 sec) 
Heartbeat CPU 0 instructions: 470000000 cycles: 275751633 heartbeat IPC: 1.41886 cumulative IPC: 1.36262 (Simulation time: 0 hr 14 min 51 sec) 
Heartbeat CPU 0 instructions: 480000000 cycles: 282652390 heartbeat IPC: 1.44912 cumulative IPC: 1.36553 (Simulation time: 0 hr 15 min 11 sec) 
Heartbeat CPU 0 instructions: 490000002 cycles: 289762490 heartbeat IPC: 1.40645 cumulative IPC: 1.3669 (Simulation time: 0 hr 15 min 31 sec) 
Heartbeat CPU 0 instructions: 500000000 cycles: 296755769 heartbeat IPC: 1.42994 cumulative IPC: 1.36891 (Simulation time: 0 hr 15 min 51 sec) 
Heartbeat CPU 0 instructions: 510000001 cycles: 303738046 heartbeat IPC: 1.4322 cumulative IPC: 1.37086 (Simulation time: 0 hr 16 min 12 sec) 
Heartbeat CPU 0 instructions: 520000000 cycles: 310777000 heartbeat IPC: 1.42067 cumulative IPC: 1.37237 (Simulation time: 0 hr 16 min 32 sec) 
Heartbeat CPU 0 instructions: 530000003 cycles: 317846442 heartbeat IPC: 1.41454 cumulative IPC: 1.37361 (Simulation time: 0 hr 16 min 52 sec) 
Heartbeat CPU 0 instructions: 540000000 cycles: 324680219 heartbeat IPC: 1.46332 cumulative IPC: 1.37609 (Simulation time: 0 hr 17 min 12 sec) 
Heartbeat CPU 0 instructions: 550000000 cycles: 331720886 heartbeat IPC: 1.42032 cumulative IPC: 1.37732 (Simulation time: 0 hr 17 min 32 sec) 
Heartbeat CPU 0 instructions: 560000000 cycles: 347760785 heartbeat IPC: 0.623445 cumulative IPC: 1.33256 (Simulation time: 0 hr 18 min 1 sec) 
Heartbeat CPU 0 instructions: 570000002 cycles: 353076974 heartbeat IPC: 1.88105 cumulative IPC: 1.34314 (Simulation time: 0 hr 18 min 21 sec) 
Heartbeat CPU 0 instructions: 580000000 cycles: 360870767 heartbeat IPC: 1.28307 cumulative IPC: 1.34149 (Simulation time: 0 hr 18 min 41 sec) 
Heartbeat CPU 0 instructions: 590000003 cycles: 367587111 heartbeat IPC: 1.48891 cumulative IPC: 1.3449 (Simulation time: 0 hr 19 min 2 sec) 
Heartbeat CPU 0 instructions: 600000000 cycles: 374468097 heartbeat IPC: 1.45328 cumulative IPC: 1.34741 (Simulation time: 0 hr 19 min 22 sec) 
Heartbeat CPU 0 instructions: 610000001 cycles: 381604945 heartbeat IPC: 1.40118 cumulative IPC: 1.34868 (Simulation time: 0 hr 19 min 43 sec) 
Heartbeat CPU 0 instructions: 620000000 cycles: 388499556 heartbeat IPC: 1.45041 cumulative IPC: 1.35093 (Simulation time: 0 hr 20 min 4 sec) 
Heartbeat CPU 0 instructions: 630000001 cycles: 395480951 heartbeat IPC: 1.43238 cumulative IPC: 1.35272 (Simulation time: 0 hr 20 min 24 sec) 
Heartbeat CPU 0 instructions: 640000000 cycles: 402363562 heartbeat IPC: 1.45294 cumulative IPC: 1.35485 (Simulation time: 0 hr 20 min 45 sec) 
Heartbeat CPU 0 instructions: 650000001 cycles: 409271635 heartbeat IPC: 1.44758 cumulative IPC: 1.35678 (Simulation time: 0 hr 21 min 5 sec) 
Heartbeat CPU 0 instructions: 660000000 cycles: 416261379 heartbeat IPC: 1.43067 cumulative IPC: 1.3583 (Simulation time: 0 hr 21 min 26 sec) 
Heartbeat CPU 0 instructions: 670000000 cycles: 423267224 heartbeat IPC: 1.42738 cumulative IPC: 1.3597 (Simulation time: 0 hr 21 min 47 sec) 
Heartbeat CPU 0 instructions: 680000000 cycles: 429968299 heartbeat IPC: 1.4923 cumulative IPC: 1.36222 (Simulation time: 0 hr 22 min 7 sec) 
Heartbeat CPU 0 instructions: 690000002 cycles: 436842154 heartbeat IPC: 1.45479 cumulative IPC: 1.364 (Simulation time: 0 hr 22 min 28 sec) 
Heartbeat CPU 0 instructions: 700000000 cycles: 443833900 heartbeat IPC: 1.43026 cumulative IPC: 1.36526 (Simulation time: 0 hr 22 min 48 sec) 
Heartbeat CPU 0 instructions: 710000000 cycles: 450791166 heartbeat IPC: 1.43735 cumulative IPC: 1.3666 (Simulation time: 0 hr 23 min 9 sec) 
Heartbeat CPU 0 instructions: 720000000 cycles: 465326986 heartbeat IPC: 0.687956 cumulative IPC: 1.34116 (Simulation time: 0 hr 23 min 36 sec) 
Heartbeat CPU 0 instructions: 730000001 cycles: 472988665 heartbeat IPC: 1.3052 cumulative IPC: 1.34046 (Simulation time: 0 hr 23 min 58 sec) 
Heartbeat CPU 0 instructions: 740000000 cycles: 479285424 heartbeat IPC: 1.58812 cumulative IPC: 1.34435 (Simulation time: 0 hr 24 min 18 sec) 
Heartbeat CPU 0 instructions: 750000003 cycles: 487464923 heartbeat IPC: 1.22257 cumulative IPC: 1.34192 (Simulation time: 0 hr 24 min 40 sec) 
Heartbeat CPU 0 instructions: 760000000 cycles: 495183275 heartbeat IPC: 1.29561 cumulative IPC: 1.34106 (Simulation time: 0 hr 25 min 2 sec) 
Heartbeat CPU 0 instructions: 770000003 cycles: 502912942 heartbeat IPC: 1.29372 cumulative IPC: 1.3402 (Simulation time: 0 hr 25 min 25 sec) 
Heartbeat CPU 0 instructions: 780000000 cycles: 510632731 heartbeat IPC: 1.29537 cumulative IPC: 1.3394 (Simulation time: 0 hr 25 min 47 sec) 
Heartbeat CPU 0 instructions: 790000003 cycles: 518320020 heartbeat IPC: 1.30085 cumulative IPC: 1.33873 (Simulation time: 0 hr 26 min 9 sec) 
Heartbeat CPU 0 instructions: 800000000 cycles: 526011262 heartbeat IPC: 1.30018 cumulative IPC: 1.33807 (Simulation time: 0 hr 26 min 32 sec) 
Heartbeat CPU 0 instructions: 810000000 cycles: 533780815 heartbeat IPC: 1.28708 cumulative IPC: 1.3372 (Simulation time: 0 hr 26 min 54 sec) 
Heartbeat CPU 0 instructions: 820000000 cycles: 550569608 heartbeat IPC: 0.595635 cumulative IPC: 1.31088 (Simulation time: 0 hr 27 min 24 sec) 
Heartbeat CPU 0 instructions: 830000002 cycles: 555482111 heartbeat IPC: 2.03562 cumulative IPC: 1.31833 (Simulation time: 0 hr 27 min 44 sec) 
Heartbeat CPU 0 instructions: 840000000 cycles: 562395668 heartbeat IPC: 1.44643 cumulative IPC: 1.32015 (Simulation time: 0 hr 28 min 4 sec) 
Heartbeat CPU 0 instructions: 850000003 cycles: 570326425 heartbeat IPC: 1.26091 cumulative IPC: 1.3192 (Simulation time: 0 hr 28 min 27 sec) 
Heartbeat CPU 0 instructions: 860000000 cycles: 578108433 heartbeat IPC: 1.28501 cumulative IPC: 1.31867 (Simulation time: 0 hr 28 min 49 sec) 
Heartbeat CPU 0 instructions: 870000001 cycles: 585822390 heartbeat IPC: 1.29635 cumulative IPC: 1.31833 (Simulation time: 0 hr 29 min 11 sec) 
Heartbeat CPU 0 instructions: 880000000 cycles: 593548241 heartbeat IPC: 1.29436 cumulative IPC: 1.31797 (Simulation time: 0 hr 29 min 34 sec) 
Heartbeat CPU 0 instructions: 890000001 cycles: 601270577 heartbeat IPC: 1.29495 cumulative IPC: 1.31763 (Simulation time: 0 hr 29 min 56 sec) 
Heartbeat CPU 0 instructions: 900000000 cycles: 608985994 heartbeat IPC: 1.29611 cumulative IPC: 1.31732 (Simulation time: 0 hr 30 min 18 sec) 
Heartbeat CPU 0 instructions: 910000002 cycles: 616727319 heartbeat IPC: 1.29177 cumulative IPC: 1.31695 (Simulation time: 0 hr 30 min 41 sec) 
Heartbeat CPU 0 instructions: 920000000 cycles: 632720287 heartbeat IPC: 0.625275 cumulative IPC: 1.29702 (Simulation time: 0 hr 31 min 10 sec) 
Heartbeat CPU 0 instructions: 930000000 cycles: 637880045 heartbeat IPC: 1.93808 cumulative IPC: 1.30293 (Simulation time: 0 hr 31 min 30 sec) 
Heartbeat CPU 0 instructions: 940000000 cycles: 645338710 heartbeat IPC: 1.34072 cumulative IPC: 1.30342 (Simulation time: 0 hr 31 min 50 sec) 
Heartbeat CPU 0 instructions: 950000000 cycles: 652896043 heartbeat IPC: 1.32322 cumulative IPC: 1.30368 (Simulation time: 0 hr 32 min 11 sec) 
Heartbeat CPU 0 instructions: 960000000 cycles: 660389829 heartbeat IPC: 1.33444 cumulative IPC: 1.30408 (Simulation time: 0 hr 32 min 31 sec) 
Heartbeat CPU 0 instructions: 970000000 cycles: 667820605 heartbeat IPC: 1.34575 cumulative IPC: 1.3046 (Simulation time: 0 hr 32 min 52 sec) 
Heartbeat CPU 0 instructions: 980000000 cycles: 675256488 heartbeat IPC: 1.34483 cumulative IPC: 1.3051 (Simulation time: 0 hr 33 min 12 sec) 
Heartbeat CPU 0 instructions: 990000002 cycles: 682707117 heartbeat IPC: 1.34217 cumulative IPC: 1.30556 (Simulation time: 0 hr 33 min 32 sec) 
Heartbeat CPU 0 instructions: 1000000000 cycles: 690124340 heartbeat IPC: 1.34821 cumulative IPC: 1.30608 (Simulation time: 0 hr 33 min 53 sec) 
Heartbeat CPU 0 instructions: 1010000002 cycles: 697549104 heartbeat IPC: 1.34684 cumulative IPC: 1.30657 (Simulation time: 0 hr 34 min 13 sec) 
Heartbeat CPU 0 instructions: 1020000000 cycles: 705000160 heartbeat IPC: 1.34209 cumulative IPC: 1.30699 (Simulation time: 0 hr 34 min 34 sec) 
Heartbeat CPU 0 instructions: 1030000003 cycles: 712469670 heartbeat IPC: 1.33878 cumulative IPC: 1.30736 (Simulation time: 0 hr 34 min 54 sec) 
Heartbeat CPU 0 instructions: 1040000000 cycles: 719956048 heartbeat IPC: 1.33576 cumulative IPC: 1.30769 (Simulation time: 0 hr 35 min 15 sec) 
Heartbeat CPU 0 instructions: 1050000003 cycles: 727410328 heartbeat IPC: 1.34151 cumulative IPC: 1.30808 (Simulation time: 0 hr 35 min 35 sec) 
Heartbeat CPU 0 instructions: 1060000000 cycles: 734821427 heartbeat IPC: 1.34933 cumulative IPC: 1.30855 (Simulation time: 0 hr 35 min 56 sec) 
Heartbeat CPU 0 instructions: 1070000001 cycles: 742211491 heartbeat IPC: 1.35317 cumulative IPC: 1.30904 (Simulation time: 0 hr 36 min 16 sec) 
Heartbeat CPU 0 instructions: 1080000000 cycles: 749642641 heartbeat IPC: 1.34569 cumulative IPC: 1.30945 (Simulation time: 0 hr 36 min 36 sec) 
Heartbeat CPU 0 instructions: 1090000002 cycles: 757075125 heartbeat IPC: 1.34545 cumulative IPC: 1.30984 (Simulation time: 0 hr 36 min 57 sec) 
Heartbeat CPU 0 instructions: 1100000000 cycles: 764496218 heartbeat IPC: 1.34751 cumulative IPC: 1.31025 (Simulation time: 0 hr 37 min 17 sec) 
Heartbeat CPU 0 instructions: 1110000002 cycles: 771914072 heartbeat IPC: 1.3481 cumulative IPC: 1.31065 (Simulation time: 0 hr 37 min 38 sec) 
Heartbeat CPU 0 instructions: 1120000000 cycles: 779339192 heartbeat IPC: 1.34678 cumulative IPC: 1.31103 (Simulation time: 0 hr 37 min 58 sec) 
Heartbeat CPU 0 instructions: 1130000001 cycles: 786807826 heartbeat IPC: 1.33893 cumulative IPC: 1.31133 (Simulation time: 0 hr 38 min 19 sec) 
Heartbeat CPU 0 instructions: 1140000000 cycles: 794241276 heartbeat IPC: 1.34527 cumulative IPC: 1.31168 (Simulation time: 0 hr 38 min 39 sec) 
Heartbeat CPU 0 instructions: 1150000002 cycles: 801672121 heartbeat IPC: 1.34574 cumulative IPC: 1.31203 (Simulation time: 0 hr 39 min 0 sec) 
Heartbeat CPU 0 instructions: 1160000000 cycles: 809067171 heartbeat IPC: 1.35226 cumulative IPC: 1.31244 (Simulation time: 0 hr 39 min 20 sec) 
Heartbeat CPU 0 instructions: 1170000000 cycles: 816460759 heartbeat IPC: 1.35252 cumulative IPC: 1.31284 (Simulation time: 0 hr 39 min 40 sec) 
Heartbeat CPU 0 instructions: 1180000000 cycles: 823835311 heartbeat IPC: 1.35601 cumulative IPC: 1.31326 (Simulation time: 0 hr 40 min 0 sec) 
Heartbeat CPU 0 instructions: 1190000000 cycles: 831220461 heartbeat IPC: 1.35407 cumulative IPC: 1.31366 (Simulation time: 0 hr 40 min 21 sec) 
Heartbeat CPU 0 instructions: 1200000000 cycles: 838618644 heartbeat IPC: 1.35168 cumulative IPC: 1.31403 (Simulation time: 0 hr 40 min 41 sec) 
Finished CPU 0 instructions: 1000000000 cycles: 761015348 cumulative IPC: 1.31403 (Simulation time: 0 hr 40 min 41 sec) 

CPU 0 Branch Prediction Accuracy: 97.5951% MPKI: 0.835225

ChampSim completed all CPUs

Region of Interest Statistics

CPU 0 cumulative IPC: 1.31403 instructions: 1000000000 cycles: 761015348
L1D TOTAL     ACCESS:  161748412  HIT:  158912861  MISS:    2835551
L1D LOAD      ACCESS:   89620754  HIT:   87620142  MISS:    2000612
L1D RFO       ACCESS:   72127658  HIT:   71292719  MISS:     834939
L1D PREFETCH  ACCESS:          0  HIT:          0  MISS:          0
L1D WRITEBACK ACCESS:          0  HIT:          0  MISS:          0
L1D PREFETCH  REQUESTED:          0  ISSUED:          0  USEFUL:          0  USELESS:          0
L1I TOTAL     ACCESS:  235437088  HIT:  234077827  MISS:    1359261
L1I LOAD      ACCESS:  235437088  HIT:  234077827  MISS:    1359261
L1I RFO       ACCESS:          0  HIT:          0  MISS:          0
L1I PREFETCH  ACCESS:          0  HIT:          0  MISS:          0
L1I WRITEBACK ACCESS:          0  HIT:          0  MISS:          0
L1I PREFETCH  REQUESTED:          0  ISSUED:          0  USEFUL:          0  USELESS:          0
L2C TOTAL     ACCESS:    7624577  HIT:    6187943  MISS:    1436634
L2C LOAD      ACCESS:    3359847  HIT:    2559882  MISS:     799965
L2C RFO       ACCESS:     833054  HIT:     407786  MISS:     425268
L2C PREFETCH  ACCESS:    2460546  HIT:    2253904  MISS:     206642
L2C WRITEBACK ACCESS:     971130  HIT:     966371  MISS:       4759
L2C PREFETCH  REQUESTED:    8907247  ISSUED:    8839327  USEFUL:     214637  USELESS:       4724
LLC TOTAL     ACCESS:    4694944  HIT:    3518034  MISS:    1176910
LLC LOAD      ACCESS:     743313  HIT:     542777  MISS:     200536
LLC RFO       ACCESS:     425250  HIT:      17521  MISS:     407729
LLC PREFETCH  ACCESS:    3006013  HIT:    2438174  MISS:     567839
LLC WRITEBACK ACCESS:     520368  HIT:     519562  MISS:        806
LLC PREFETCH  REQUESTED:          0  ISSUED:          0  USEFUL:     384027  USELESS:     220594
Major fault: 0 Minor fault: 9927

DRAM Statistics
 CHANNEL 0
 RQ ROW_BUFFER_HIT:     813501  ROW_BUFFER_MISS:     362353
 DBUS_CONGESTED:    1409642
 WQ ROW_BUFFER_HIT:     208147  ROW_BUFFER_MISS:     291441  FULL:          0

 AVG_CONGESTED_CYCLE: 75
