Initialize SIGNATURE TABLE
ST_SET: 1
ST_WAY: 256
ST_TAG_BIT: 16
ST_TAG_MASK: ffff

Initialize PATTERN TABLE
PT_SET: 512
PT_WAY: 4
SIG_DELTA_BIT: 7
C_SIG_BIT: 4
C_DELTA_BIT: 4

Initialize PREFETCH FILTER
FILTER_SET: 1024

*** ChampSim Multicore Out-of-Order Simulator ***

Warmup Instructions: 200000000
Simulation Instructions: 1000000000
Number of CPUs: 1
LLC sets: 2048
LLC ways: 16
Off-chip DRAM Size: 4096 MB Channels: 1 Width: 64-bit Data Rate: 400 MT/s

CPU 0 runs /scratch/user/djimenez/champsim-traces/speccpu2017/xz/638.imagick_s/638.imagick_s-10316B.champsimtrace.xz
Heartbeat CPU 0 instructions: 10000000 cycles: 3516275 heartbeat IPC: 2.84392 cumulative IPC: 2.84392 (Simulation time: 0 hr 0 min 9 sec) 
Heartbeat CPU 0 instructions: 20000000 cycles: 7032846 heartbeat IPC: 2.84368 cumulative IPC: 2.8438 (Simulation time: 0 hr 0 min 18 sec) 
Heartbeat CPU 0 instructions: 30000001 cycles: 10550032 heartbeat IPC: 2.84318 cumulative IPC: 2.84359 (Simulation time: 0 hr 0 min 27 sec) 
Heartbeat CPU 0 instructions: 40000000 cycles: 14067113 heartbeat IPC: 2.84327 cumulative IPC: 2.84351 (Simulation time: 0 hr 0 min 36 sec) 
Heartbeat CPU 0 instructions: 50000000 cycles: 17584244 heartbeat IPC: 2.84323 cumulative IPC: 2.84345 (Simulation time: 0 hr 0 min 46 sec) 
Heartbeat CPU 0 instructions: 60000000 cycles: 21100099 heartbeat IPC: 2.84426 cumulative IPC: 2.84359 (Simulation time: 0 hr 0 min 55 sec) 
Heartbeat CPU 0 instructions: 70000003 cycles: 24615902 heartbeat IPC: 2.8443 cumulative IPC: 2.84369 (Simulation time: 0 hr 1 min 4 sec) 
Heartbeat CPU 0 instructions: 80000000 cycles: 28131759 heartbeat IPC: 2.84426 cumulative IPC: 2.84376 (Simulation time: 0 hr 1 min 13 sec) 
Heartbeat CPU 0 instructions: 90000003 cycles: 31647882 heartbeat IPC: 2.84404 cumulative IPC: 2.84379 (Simulation time: 0 hr 1 min 22 sec) 
Heartbeat CPU 0 instructions: 100000000 cycles: 35164247 heartbeat IPC: 2.84384 cumulative IPC: 2.8438 (Simulation time: 0 hr 1 min 31 sec) 
Heartbeat CPU 0 instructions: 110000000 cycles: 38680238 heartbeat IPC: 2.84415 cumulative IPC: 2.84383 (Simulation time: 0 hr 1 min 40 sec) 
Heartbeat CPU 0 instructions: 120000000 cycles: 42195439 heartbeat IPC: 2.84479 cumulative IPC: 2.84391 (Simulation time: 0 hr 1 min 49 sec) 
Heartbeat CPU 0 instructions: 130000003 cycles: 45710941 heartbeat IPC: 2.84454 cumulative IPC: 2.84396 (Simulation time: 0 hr 1 min 59 sec) 
Heartbeat CPU 0 instructions: 140000000 cycles: 49226471 heartbeat IPC: 2.84452 cumulative IPC: 2.844 (Simulation time: 0 hr 2 min 8 sec) 
Heartbeat CPU 0 instructions: 150000000 cycles: 52741840 heartbeat IPC: 2.84465 cumulative IPC: 2.84404 (Simulation time: 0 hr 2 min 17 sec) 
Heartbeat CPU 0 instructions: 160000000 cycles: 56257414 heartbeat IPC: 2.84449 cumulative IPC: 2.84407 (Simulation time: 0 hr 2 min 26 sec) 
Heartbeat CPU 0 instructions: 170000003 cycles: 59772134 heartbeat IPC: 2.84518 cumulative IPC: 2.84413 (Simulation time: 0 hr 2 min 35 sec) 
Heartbeat CPU 0 instructions: 180000000 cycles: 63287265 heartbeat IPC: 2.84484 cumulative IPC: 2.84417 (Simulation time: 0 hr 2 min 44 sec) 
Heartbeat CPU 0 instructions: 190000003 cycles: 66802392 heartbeat IPC: 2.84485 cumulative IPC: 2.84421 (Simulation time: 0 hr 2 min 53 sec) 
Heartbeat CPU 0 instructions: 200000000 cycles: 70317555 heartbeat IPC: 2.84482 cumulative IPC: 2.84424 (Simulation time: 0 hr 3 min 3 sec) 

Warmup complete CPU 0 instructions: 200000001 cycles: 70317556 (Simulation time: 0 hr 3 min 3 sec) 

Heartbeat CPU 0 instructions: 210000002 cycles: 74967849 heartbeat IPC: 2.1504 cumulative IPC: 2.1504 (Simulation time: 0 hr 3 min 20 sec) 
Heartbeat CPU 0 instructions: 220000000 cycles: 79618340 heartbeat IPC: 2.15031 cumulative IPC: 2.15036 (Simulation time: 0 hr 3 min 37 sec) 
Heartbeat CPU 0 instructions: 230000001 cycles: 84278488 heartbeat IPC: 2.14585 cumulative IPC: 2.14885 (Simulation time: 0 hr 3 min 54 sec) 
Heartbeat CPU 0 instructions: 240000000 cycles: 88938943 heartbeat IPC: 2.14571 cumulative IPC: 2.14807 (Simulation time: 0 hr 4 min 11 sec) 
Heartbeat CPU 0 instructions: 250000001 cycles: 93602766 heartbeat IPC: 2.14416 cumulative IPC: 2.14729 (Simulation time: 0 hr 4 min 28 sec) 
Heartbeat CPU 0 instructions: 260000000 cycles: 98261157 heartbeat IPC: 2.14666 cumulative IPC: 2.14718 (Simulation time: 0 hr 4 min 45 sec) 
Heartbeat CPU 0 instructions: 270000003 cycles: 102922841 heartbeat IPC: 2.14515 cumulative IPC: 2.14689 (Simulation time: 0 hr 5 min 2 sec) 
Heartbeat CPU 0 instructions: 280000000 cycles: 107581348 heartbeat IPC: 2.14661 cumulative IPC: 2.14686 (Simulation time: 0 hr 5 min 19 sec) 
Heartbeat CPU 0 instructions: 290000003 cycles: 112238051 heartbeat IPC: 2.14744 cumulative IPC: 2.14692 (Simulation time: 0 hr 5 min 36 sec) 
Heartbeat CPU 0 instructions: 300000000 cycles: 116897574 heartbeat IPC: 2.14614 cumulative IPC: 2.14684 (Simulation time: 0 hr 5 min 53 sec) 
Heartbeat CPU 0 instructions: 310000000 cycles: 121559599 heartbeat IPC: 2.14499 cumulative IPC: 2.14667 (Simulation time: 0 hr 6 min 10 sec) 
Heartbeat CPU 0 instructions: 320000000 cycles: 126218006 heartbeat IPC: 2.14666 cumulative IPC: 2.14667 (Simulation time: 0 hr 6 min 27 sec) 
Heartbeat CPU 0 instructions: 330000000 cycles: 130872558 heartbeat IPC: 2.14843 cumulative IPC: 2.14681 (Simulation time: 0 hr 6 min 44 sec) 
Heartbeat CPU 0 instructions: 340000000 cycles: 135527599 heartbeat IPC: 2.14821 cumulative IPC: 2.14691 (Simulation time: 0 hr 7 min 1 sec) 
Heartbeat CPU 0 instructions: 350000000 cycles: 140183196 heartbeat IPC: 2.14795 cumulative IPC: 2.14698 (Simulation time: 0 hr 7 min 18 sec) 
Heartbeat CPU 0 instructions: 360000000 cycles: 144845686 heartbeat IPC: 2.14478 cumulative IPC: 2.14684 (Simulation time: 0 hr 7 min 35 sec) 
Heartbeat CPU 0 instructions: 370000001 cycles: 149507176 heartbeat IPC: 2.14524 cumulative IPC: 2.14675 (Simulation time: 0 hr 7 min 52 sec) 
Heartbeat CPU 0 instructions: 380000000 cycles: 154170693 heartbeat IPC: 2.1443 cumulative IPC: 2.14661 (Simulation time: 0 hr 8 min 9 sec) 
Heartbeat CPU 0 instructions: 390000001 cycles: 158831463 heartbeat IPC: 2.14557 cumulative IPC: 2.14656 (Simulation time: 0 hr 8 min 26 sec) 
Heartbeat CPU 0 instructions: 400000000 cycles: 163489775 heartbeat IPC: 2.1467 cumulative IPC: 2.14656 (Simulation time: 0 hr 8 min 43 sec) 
Heartbeat CPU 0 instructions: 410000000 cycles: 168150198 heartbeat IPC: 2.14573 cumulative IPC: 2.14652 (Simulation time: 0 hr 9 min 0 sec) 
Heartbeat CPU 0 instructions: 420000000 cycles: 172812125 heartbeat IPC: 2.14504 cumulative IPC: 2.14646 (Simulation time: 0 hr 9 min 17 sec) 
Heartbeat CPU 0 instructions: 430000000 cycles: 177472647 heartbeat IPC: 2.14568 cumulative IPC: 2.14642 (Simulation time: 0 hr 9 min 34 sec) 
Heartbeat CPU 0 instructions: 440000000 cycles: 182135922 heartbeat IPC: 2.14442 cumulative IPC: 2.14634 (Simulation time: 0 hr 9 min 51 sec) 
Heartbeat CPU 0 instructions: 450000000 cycles: 186796093 heartbeat IPC: 2.14584 cumulative IPC: 2.14632 (Simulation time: 0 hr 10 min 8 sec) 
Heartbeat CPU 0 instructions: 460000000 cycles: 191454975 heartbeat IPC: 2.14644 cumulative IPC: 2.14632 (Simulation time: 0 hr 10 min 25 sec) 
Heartbeat CPU 0 instructions: 470000000 cycles: 196114415 heartbeat IPC: 2.14618 cumulative IPC: 2.14632 (Simulation time: 0 hr 10 min 42 sec) 
Heartbeat CPU 0 instructions: 480000000 cycles: 200772658 heartbeat IPC: 2.14673 cumulative IPC: 2.14633 (Simulation time: 0 hr 10 min 59 sec) 
Heartbeat CPU 0 instructions: 490000000 cycles: 205431616 heartbeat IPC: 2.1464 cumulative IPC: 2.14633 (Simulation time: 0 hr 11 min 16 sec) 
Heartbeat CPU 0 instructions: 500000000 cycles: 210091558 heartbeat IPC: 2.14595 cumulative IPC: 2.14632 (Simulation time: 0 hr 11 min 33 sec) 
Heartbeat CPU 0 instructions: 510000003 cycles: 214746870 heartbeat IPC: 2.14808 cumulative IPC: 2.14638 (Simulation time: 0 hr 11 min 50 sec) 
Heartbeat CPU 0 instructions: 520000000 cycles: 219402699 heartbeat IPC: 2.14784 cumulative IPC: 2.14642 (Simulation time: 0 hr 12 min 7 sec) 
Heartbeat CPU 0 instructions: 530000002 cycles: 224059893 heartbeat IPC: 2.14722 cumulative IPC: 2.14645 (Simulation time: 0 hr 12 min 24 sec) 
Heartbeat CPU 0 instructions: 540000000 cycles: 228723056 heartbeat IPC: 2.14447 cumulative IPC: 2.14639 (Simulation time: 0 hr 12 min 41 sec) 
Heartbeat CPU 0 instructions: 550000000 cycles: 233382912 heartbeat IPC: 2.14599 cumulative IPC: 2.14638 (Simulation time: 0 hr 12 min 58 sec) 
Heartbeat CPU 0 instructions: 560000000 cycles: 238051881 heartbeat IPC: 2.1418 cumulative IPC: 2.14625 (Simulation time: 0 hr 13 min 15 sec) 
Heartbeat CPU 0 instructions: 570000002 cycles: 242714729 heartbeat IPC: 2.14461 cumulative IPC: 2.14621 (Simulation time: 0 hr 13 min 32 sec) 
Heartbeat CPU 0 instructions: 580000000 cycles: 247372911 heartbeat IPC: 2.14676 cumulative IPC: 2.14622 (Simulation time: 0 hr 13 min 49 sec) 
Heartbeat CPU 0 instructions: 590000000 cycles: 252023838 heartbeat IPC: 2.15011 cumulative IPC: 2.14632 (Simulation time: 0 hr 14 min 6 sec) 
Heartbeat CPU 0 instructions: 600000000 cycles: 256677205 heartbeat IPC: 2.14898 cumulative IPC: 2.14639 (Simulation time: 0 hr 14 min 23 sec) 
Heartbeat CPU 0 instructions: 610000000 cycles: 261327888 heartbeat IPC: 2.15022 cumulative IPC: 2.14648 (Simulation time: 0 hr 14 min 40 sec) 
Heartbeat CPU 0 instructions: 620000000 cycles: 265974192 heartbeat IPC: 2.15225 cumulative IPC: 2.14662 (Simulation time: 0 hr 14 min 57 sec) 
Heartbeat CPU 0 instructions: 630000001 cycles: 270616082 heartbeat IPC: 2.1543 cumulative IPC: 2.1468 (Simulation time: 0 hr 15 min 14 sec) 
Heartbeat CPU 0 instructions: 640000000 cycles: 275261944 heartbeat IPC: 2.15245 cumulative IPC: 2.14692 (Simulation time: 0 hr 15 min 31 sec) 
Heartbeat CPU 0 instructions: 650000001 cycles: 279907230 heartbeat IPC: 2.15272 cumulative IPC: 2.14705 (Simulation time: 0 hr 15 min 48 sec) 
Heartbeat CPU 0 instructions: 660000000 cycles: 284556338 heartbeat IPC: 2.15095 cumulative IPC: 2.14714 (Simulation time: 0 hr 16 min 5 sec) 
Heartbeat CPU 0 instructions: 670000002 cycles: 289208324 heartbeat IPC: 2.14962 cumulative IPC: 2.14719 (Simulation time: 0 hr 16 min 22 sec) 
Heartbeat CPU 0 instructions: 680000000 cycles: 293855622 heartbeat IPC: 2.15179 cumulative IPC: 2.14729 (Simulation time: 0 hr 16 min 39 sec) 
Heartbeat CPU 0 instructions: 690000000 cycles: 298498288 heartbeat IPC: 2.15393 cumulative IPC: 2.14742 (Simulation time: 0 hr 16 min 56 sec) 
Heartbeat CPU 0 instructions: 700000000 cycles: 303138579 heartbeat IPC: 2.15504 cumulative IPC: 2.14757 (Simulation time: 0 hr 17 min 13 sec) 
Heartbeat CPU 0 instructions: 710000001 cycles: 307786174 heartbeat IPC: 2.15165 cumulative IPC: 2.14765 (Simulation time: 0 hr 17 min 30 sec) 
Heartbeat CPU 0 instructions: 720000000 cycles: 312431702 heartbeat IPC: 2.15261 cumulative IPC: 2.14775 (Simulation time: 0 hr 17 min 47 sec) 
Heartbeat CPU 0 instructions: 730000000 cycles: 317075573 heartbeat IPC: 2.15338 cumulative IPC: 2.14785 (Simulation time: 0 hr 18 min 4 sec) 
Heartbeat CPU 0 instructions: 740000000 cycles: 321716133 heartbeat IPC: 2.15491 cumulative IPC: 2.14798 (Simulation time: 0 hr 18 min 21 sec) 
Heartbeat CPU 0 instructions: 750000001 cycles: 326357106 heartbeat IPC: 2.15472 cumulative IPC: 2.14811 (Simulation time: 0 hr 18 min 38 sec) 
Heartbeat CPU 0 instructions: 760000000 cycles: 331001519 heartbeat IPC: 2.15312 cumulative IPC: 2.1482 (Simulation time: 0 hr 18 min 55 sec) 
Heartbeat CPU 0 instructions: 770000001 cycles: 335643602 heartbeat IPC: 2.15421 cumulative IPC: 2.1483 (Simulation time: 0 hr 19 min 12 sec) 
Heartbeat CPU 0 instructions: 780000000 cycles: 340292644 heartbeat IPC: 2.15098 cumulative IPC: 2.14835 (Simulation time: 0 hr 19 min 29 sec) 
Heartbeat CPU 0 instructions: 790000001 cycles: 344939601 heartbeat IPC: 2.15195 cumulative IPC: 2.14841 (Simulation time: 0 hr 19 min 46 sec) 
Heartbeat CPU 0 instructions: 800000000 cycles: 349583292 heartbeat IPC: 2.15346 cumulative IPC: 2.14849 (Simulation time: 0 hr 20 min 3 sec) 
Heartbeat CPU 0 instructions: 810000002 cycles: 354226817 heartbeat IPC: 2.15354 cumulative IPC: 2.14857 (Simulation time: 0 hr 20 min 20 sec) 
Heartbeat CPU 0 instructions: 820000000 cycles: 358862607 heartbeat IPC: 2.15713 cumulative IPC: 2.14871 (Simulation time: 0 hr 20 min 37 sec) 
Heartbeat CPU 0 instructions: 830000000 cycles: 363495536 heartbeat IPC: 2.15846 cumulative IPC: 2.14887 (Simulation time: 0 hr 20 min 54 sec) 
Heartbeat CPU 0 instructions: 840000000 cycles: 368131464 heartbeat IPC: 2.15707 cumulative IPC: 2.14899 (Simulation time: 0 hr 21 min 11 sec) 
Heartbeat CPU 0 instructions: 850000000 cycles: 372768349 heartbeat IPC: 2.15662 cumulative IPC: 2.14911 (Simulation time: 0 hr 21 min 28 sec) 
Heartbeat CPU 0 instructions: 860000000 cycles: 377405390 heartbeat IPC: 2.15655 cumulative IPC: 2.14922 (Simulation time: 0 hr 21 min 45 sec) 
Heartbeat CPU 0 instructions: 870000003 cycles: 382041762 heartbeat IPC: 2.15686 cumulative IPC: 2.14934 (Simulation time: 0 hr 22 min 2 sec) 
Heartbeat CPU 0 instructions: 880000000 cycles: 386676330 heartbeat IPC: 2.1577 cumulative IPC: 2.14946 (Simulation time: 0 hr 22 min 19 sec) 
Heartbeat CPU 0 instructions: 890000000 cycles: 391310260 heartbeat IPC: 2.158 cumulative IPC: 2.14958 (Simulation time: 0 hr 22 min 36 sec) 
Heartbeat CPU 0 instructions: 900000000 cycles: 395948206 heartbeat IPC: 2.15613 cumulative IPC: 2.14967 (Simulation time: 0 hr 22 min 53 sec) 
Heartbeat CPU 0 instructions: 910000001 cycles: 400591301 heartbeat IPC: 2.15374 cumulative IPC: 2.14973 (Simulation time: 0 hr 23 min 10 sec) 
Heartbeat CPU 0 instructions: 920000000 cycles: 405226569 heartbeat IPC: 2.15737 cumulative IPC: 2.14984 (Simulation time: 0 hr 23 min 27 sec) 
Heartbeat CPU 0 instructions: 930000001 cycles: 409858143 heartbeat IPC: 2.15909 cumulative IPC: 2.14996 (Simulation time: 0 hr 23 min 44 sec) 
Heartbeat CPU 0 instructions: 940000000 cycles: 414493118 heartbeat IPC: 2.15751 cumulative IPC: 2.15007 (Simulation time: 0 hr 24 min 1 sec) 
Heartbeat CPU 0 instructions: 950000003 cycles: 419129170 heartbeat IPC: 2.15701 cumulative IPC: 2.15016 (Simulation time: 0 hr 24 min 18 sec) 
Heartbeat CPU 0 instructions: 960000000 cycles: 423761294 heartbeat IPC: 2.15884 cumulative IPC: 2.15027 (Simulation time: 0 hr 24 min 35 sec) 
Heartbeat CPU 0 instructions: 970000001 cycles: 428399584 heartbeat IPC: 2.15597 cumulative IPC: 2.15035 (Simulation time: 0 hr 24 min 52 sec) 
Heartbeat CPU 0 instructions: 980000000 cycles: 433042084 heartbeat IPC: 2.15401 cumulative IPC: 2.15039 (Simulation time: 0 hr 25 min 9 sec) 
Heartbeat CPU 0 instructions: 990000001 cycles: 437682594 heartbeat IPC: 2.15494 cumulative IPC: 2.15045 (Simulation time: 0 hr 25 min 26 sec) 
Heartbeat CPU 0 instructions: 1000000000 cycles: 442315440 heartbeat IPC: 2.1585 cumulative IPC: 2.15055 (Simulation time: 0 hr 25 min 43 sec) 
Heartbeat CPU 0 instructions: 1010000003 cycles: 446947908 heartbeat IPC: 2.15868 cumulative IPC: 2.15065 (Simulation time: 0 hr 26 min 0 sec) 
Heartbeat CPU 0 instructions: 1020000000 cycles: 451584540 heartbeat IPC: 2.15674 cumulative IPC: 2.15072 (Simulation time: 0 hr 26 min 17 sec) 
Heartbeat CPU 0 instructions: 1030000000 cycles: 456218543 heartbeat IPC: 2.15796 cumulative IPC: 2.15081 (Simulation time: 0 hr 26 min 34 sec) 
Heartbeat CPU 0 instructions: 1040000000 cycles: 460852801 heartbeat IPC: 2.15784 cumulative IPC: 2.15089 (Simulation time: 0 hr 26 min 51 sec) 
Heartbeat CPU 0 instructions: 1050000000 cycles: 465489708 heartbeat IPC: 2.15661 cumulative IPC: 2.15096 (Simulation time: 0 hr 27 min 8 sec) 
Heartbeat CPU 0 instructions: 1060000000 cycles: 470124042 heartbeat IPC: 2.15781 cumulative IPC: 2.15104 (Simulation time: 0 hr 27 min 25 sec) 
Heartbeat CPU 0 instructions: 1070000003 cycles: 474754364 heartbeat IPC: 2.15968 cumulative IPC: 2.15114 (Simulation time: 0 hr 27 min 42 sec) 
Heartbeat CPU 0 instructions: 1080000000 cycles: 479390804 heartbeat IPC: 2.15683 cumulative IPC: 2.1512 (Simulation time: 0 hr 27 min 59 sec) 
Heartbeat CPU 0 instructions: 1090000001 cycles: 484030978 heartbeat IPC: 2.15509 cumulative IPC: 2.15125 (Simulation time: 0 hr 28 min 16 sec) 
Heartbeat CPU 0 instructions: 1100000000 cycles: 488666583 heartbeat IPC: 2.15722 cumulative IPC: 2.15131 (Simulation time: 0 hr 28 min 33 sec) 
Heartbeat CPU 0 instructions: 1110000002 cycles: 493297672 heartbeat IPC: 2.15932 cumulative IPC: 2.1514 (Simulation time: 0 hr 28 min 50 sec) 
Heartbeat CPU 0 instructions: 1120000000 cycles: 497932647 heartbeat IPC: 2.15751 cumulative IPC: 2.15147 (Simulation time: 0 hr 29 min 7 sec) 
Heartbeat CPU 0 instructions: 1130000000 cycles: 502566193 heartbeat IPC: 2.15817 cumulative IPC: 2.15154 (Simulation time: 0 hr 29 min 24 sec) 
Heartbeat CPU 0 instructions: 1140000000 cycles: 507200444 heartbeat IPC: 2.15785 cumulative IPC: 2.15161 (Simulation time: 0 hr 29 min 41 sec) 
Heartbeat CPU 0 instructions: 1150000003 cycles: 511837570 heartbeat IPC: 2.15651 cumulative IPC: 2.15166 (Simulation time: 0 hr 29 min 58 sec) 
Heartbeat CPU 0 instructions: 1160000000 cycles: 516477886 heartbeat IPC: 2.15503 cumulative IPC: 2.15169 (Simulation time: 0 hr 30 min 15 sec) 
Heartbeat CPU 0 instructions: 1170000000 cycles: 521119807 heartbeat IPC: 2.15428 cumulative IPC: 2.15172 (Simulation time: 0 hr 30 min 32 sec) 
Heartbeat CPU 0 instructions: 1180000000 cycles: 525761534 heartbeat IPC: 2.15437 cumulative IPC: 2.15175 (Simulation time: 0 hr 30 min 49 sec) 
Heartbeat CPU 0 instructions: 1190000000 cycles: 530399703 heartbeat IPC: 2.15602 cumulative IPC: 2.15179 (Simulation time: 0 hr 31 min 5 sec) 
Heartbeat CPU 0 instructions: 1200000000 cycles: 535033374 heartbeat IPC: 2.15812 cumulative IPC: 2.15185 (Simulation time: 0 hr 31 min 22 sec) 
Finished CPU 0 instructions: 1000000001 cycles: 464715826 cumulative IPC: 2.15185 (Simulation time: 0 hr 31 min 22 sec) 

CPU 0 Branch Prediction Accuracy: 99.6977% MPKI: 0.312902

ChampSim completed all CPUs

Region of Interest Statistics

CPU 0 cumulative IPC: 2.15185 instructions: 1000000001 cycles: 464715826
L1D TOTAL     ACCESS:   59572747  HIT:   50673075  MISS:    8899672
L1D LOAD      ACCESS:   59528282  HIT:   50634539  MISS:    8893743
L1D RFO       ACCESS:      44465  HIT:      38536  MISS:       5929
L1D PREFETCH  ACCESS:          0  HIT:          0  MISS:          0
L1D WRITEBACK ACCESS:          0  HIT:          0  MISS:          0
L1D PREFETCH  REQUESTED:          0  ISSUED:          0  USEFUL:          0  USELESS:          0
L1I TOTAL     ACCESS:  241781101  HIT:  241781101  MISS:          0
L1I LOAD      ACCESS:  241781101  HIT:  241781101  MISS:          0
L1I RFO       ACCESS:          0  HIT:          0  MISS:          0
L1I PREFETCH  ACCESS:          0  HIT:          0  MISS:          0
L1I WRITEBACK ACCESS:          0  HIT:          0  MISS:          0
L1I PREFETCH  REQUESTED:          0  ISSUED:          0  USEFUL:          0  USELESS:          0
L2C TOTAL     ACCESS:   44449109  HIT:   42305642  MISS:    2143467
L2C LOAD      ACCESS:    8893743  HIT:    7965033  MISS:     928710
L2C RFO       ACCESS:       5929  HIT:       4952  MISS:        977
L2C PREFETCH  ACCESS:   35535143  HIT:   34321363  MISS:    1213780
L2C WRITEBACK ACCESS:      14294  HIT:      14294  MISS:          0
L2C PREFETCH  REQUESTED:   65320593  ISSUED:   65320593  USEFUL:    1381650  USELESS:      44616
LLC TOTAL     ACCESS:   20471973  HIT:   20432933  MISS:      39040
LLC LOAD      ACCESS:     928606  HIT:     927972  MISS:        634
LLC RFO       ACCESS:        977  HIT:        628  MISS:        349
LLC PREFETCH  ACCESS:   19541410  HIT:   19503353  MISS:      38057
LLC WRITEBACK ACCESS:        980  HIT:        980  MISS:          0
LLC PREFETCH  REQUESTED:          0  ISSUED:          0  USEFUL:      18769  USELESS:      10547
Major fault: 0 Minor fault: 900

DRAM Statistics
 CHANNEL 0
 RQ ROW_BUFFER_HIT:      33722  ROW_BUFFER_MISS:       5318
 DBUS_CONGESTED:       8085
 WQ ROW_BUFFER_HIT:         82  ROW_BUFFER_MISS:         51  FULL:          0

 AVG_CONGESTED_CYCLE: 66
