Initialize SIGNATURE TABLE
ST_SET: 1
ST_WAY: 256
ST_TAG_BIT: 16
ST_TAG_MASK: ffff

Initialize PATTERN TABLE
PT_SET: 512
PT_WAY: 4
SIG_DELTA_BIT: 7
C_SIG_BIT: 4
C_DELTA_BIT: 4

Initialize PREFETCH FILTER
FILTER_SET: 1024

*** ChampSim Multicore Out-of-Order Simulator ***

Warmup Instructions: 200000000
Simulation Instructions: 1000000000
Number of CPUs: 1
LLC sets: 2048
LLC ways: 16
Off-chip DRAM Size: 4096 MB Channels: 1 Width: 64-bit Data Rate: 400 MT/s

CPU 0 runs /scratch/user/djimenez/champsim-traces/speccpu2017/xz/641.leela_s/641.leela_s-800B.champsimtrace.xz
Heartbeat CPU 0 instructions: 10000001 cycles: 6351456 heartbeat IPC: 1.57444 cumulative IPC: 1.57444 (Simulation time: 0 hr 0 min 14 sec) 
Heartbeat CPU 0 instructions: 20000000 cycles: 12675428 heartbeat IPC: 1.58128 cumulative IPC: 1.57786 (Simulation time: 0 hr 0 min 28 sec) 
Heartbeat CPU 0 instructions: 30000000 cycles: 19021336 heartbeat IPC: 1.57582 cumulative IPC: 1.57718 (Simulation time: 0 hr 0 min 42 sec) 
Heartbeat CPU 0 instructions: 40000000 cycles: 25346918 heartbeat IPC: 1.58088 cumulative IPC: 1.5781 (Simulation time: 0 hr 0 min 56 sec) 
Heartbeat CPU 0 instructions: 50000000 cycles: 31675484 heartbeat IPC: 1.58014 cumulative IPC: 1.57851 (Simulation time: 0 hr 1 min 10 sec) 
Heartbeat CPU 0 instructions: 60000000 cycles: 38060578 heartbeat IPC: 1.56615 cumulative IPC: 1.57643 (Simulation time: 0 hr 1 min 24 sec) 
Heartbeat CPU 0 instructions: 70000000 cycles: 44424428 heartbeat IPC: 1.57138 cumulative IPC: 1.57571 (Simulation time: 0 hr 1 min 38 sec) 
Heartbeat CPU 0 instructions: 80000000 cycles: 50798396 heartbeat IPC: 1.56888 cumulative IPC: 1.57485 (Simulation time: 0 hr 1 min 52 sec) 
Heartbeat CPU 0 instructions: 90000002 cycles: 57157531 heartbeat IPC: 1.57254 cumulative IPC: 1.5746 (Simulation time: 0 hr 2 min 6 sec) 
Heartbeat CPU 0 instructions: 100000000 cycles: 63501136 heartbeat IPC: 1.57639 cumulative IPC: 1.57477 (Simulation time: 0 hr 2 min 20 sec) 
Heartbeat CPU 0 instructions: 110000000 cycles: 69821050 heartbeat IPC: 1.5823 cumulative IPC: 1.57546 (Simulation time: 0 hr 2 min 34 sec) 
Heartbeat CPU 0 instructions: 120000000 cycles: 76685351 heartbeat IPC: 1.45681 cumulative IPC: 1.56484 (Simulation time: 0 hr 2 min 49 sec) 
Heartbeat CPU 0 instructions: 130000001 cycles: 83052525 heartbeat IPC: 1.57056 cumulative IPC: 1.56527 (Simulation time: 0 hr 3 min 3 sec) 
Heartbeat CPU 0 instructions: 140000000 cycles: 89406897 heartbeat IPC: 1.57372 cumulative IPC: 1.56587 (Simulation time: 0 hr 3 min 17 sec) 
Heartbeat CPU 0 instructions: 150000000 cycles: 95762579 heartbeat IPC: 1.5734 cumulative IPC: 1.56637 (Simulation time: 0 hr 3 min 31 sec) 
Heartbeat CPU 0 instructions: 160000000 cycles: 102132972 heartbeat IPC: 1.56976 cumulative IPC: 1.56659 (Simulation time: 0 hr 3 min 45 sec) 
Heartbeat CPU 0 instructions: 170000000 cycles: 108503435 heartbeat IPC: 1.56974 cumulative IPC: 1.56677 (Simulation time: 0 hr 3 min 59 sec) 
Heartbeat CPU 0 instructions: 180000000 cycles: 114880161 heartbeat IPC: 1.5682 cumulative IPC: 1.56685 (Simulation time: 0 hr 4 min 13 sec) 
Heartbeat CPU 0 instructions: 190000003 cycles: 121242493 heartbeat IPC: 1.57175 cumulative IPC: 1.56711 (Simulation time: 0 hr 4 min 27 sec) 
Heartbeat CPU 0 instructions: 200000000 cycles: 127593901 heartbeat IPC: 1.57445 cumulative IPC: 1.56747 (Simulation time: 0 hr 4 min 41 sec) 

Warmup complete CPU 0 instructions: 200000002 cycles: 127593902 (Simulation time: 0 hr 4 min 41 sec) 

Heartbeat CPU 0 instructions: 210000000 cycles: 150673108 heartbeat IPC: 0.43329 cumulative IPC: 0.43329 (Simulation time: 0 hr 5 min 6 sec) 
Heartbeat CPU 0 instructions: 220000000 cycles: 173863357 heartbeat IPC: 0.431216 cumulative IPC: 0.432251 (Simulation time: 0 hr 5 min 31 sec) 
Heartbeat CPU 0 instructions: 230000003 cycles: 197256317 heartbeat IPC: 0.427479 cumulative IPC: 0.430648 (Simulation time: 0 hr 5 min 57 sec) 
Heartbeat CPU 0 instructions: 240000000 cycles: 220546696 heartbeat IPC: 0.429362 cumulative IPC: 0.430326 (Simulation time: 0 hr 6 min 22 sec) 
Heartbeat CPU 0 instructions: 250000001 cycles: 243824458 heartbeat IPC: 0.429595 cumulative IPC: 0.430179 (Simulation time: 0 hr 6 min 47 sec) 
Heartbeat CPU 0 instructions: 260000000 cycles: 266996928 heartbeat IPC: 0.431547 cumulative IPC: 0.430407 (Simulation time: 0 hr 7 min 12 sec) 
Heartbeat CPU 0 instructions: 270000003 cycles: 290212668 heartbeat IPC: 0.430742 cumulative IPC: 0.430455 (Simulation time: 0 hr 7 min 37 sec) 
Heartbeat CPU 0 instructions: 280000000 cycles: 313540291 heartbeat IPC: 0.428676 cumulative IPC: 0.430232 (Simulation time: 0 hr 8 min 3 sec) 
Heartbeat CPU 0 instructions: 290000001 cycles: 336559598 heartbeat IPC: 0.434418 cumulative IPC: 0.430693 (Simulation time: 0 hr 8 min 28 sec) 
Heartbeat CPU 0 instructions: 300000000 cycles: 359737758 heartbeat IPC: 0.431441 cumulative IPC: 0.430767 (Simulation time: 0 hr 8 min 53 sec) 
Heartbeat CPU 0 instructions: 310000000 cycles: 382849544 heartbeat IPC: 0.43268 cumulative IPC: 0.430941 (Simulation time: 0 hr 9 min 18 sec) 
Heartbeat CPU 0 instructions: 320000000 cycles: 406022987 heartbeat IPC: 0.431528 cumulative IPC: 0.430989 (Simulation time: 0 hr 9 min 43 sec) 
Heartbeat CPU 0 instructions: 330000000 cycles: 429072286 heartbeat IPC: 0.433853 cumulative IPC: 0.431208 (Simulation time: 0 hr 10 min 8 sec) 
Heartbeat CPU 0 instructions: 340000000 cycles: 452225684 heartbeat IPC: 0.431902 cumulative IPC: 0.431258 (Simulation time: 0 hr 10 min 33 sec) 
Heartbeat CPU 0 instructions: 350000000 cycles: 475482007 heartbeat IPC: 0.429991 cumulative IPC: 0.431173 (Simulation time: 0 hr 10 min 58 sec) 
Heartbeat CPU 0 instructions: 360000000 cycles: 498649588 heartbeat IPC: 0.431638 cumulative IPC: 0.431202 (Simulation time: 0 hr 11 min 23 sec) 
Heartbeat CPU 0 instructions: 370000001 cycles: 521812469 heartbeat IPC: 0.431725 cumulative IPC: 0.431233 (Simulation time: 0 hr 11 min 49 sec) 
Heartbeat CPU 0 instructions: 380000000 cycles: 545028553 heartbeat IPC: 0.430736 cumulative IPC: 0.431205 (Simulation time: 0 hr 12 min 14 sec) 
Heartbeat CPU 0 instructions: 390000003 cycles: 568437049 heartbeat IPC: 0.427195 cumulative IPC: 0.430992 (Simulation time: 0 hr 12 min 39 sec) 
Heartbeat CPU 0 instructions: 400000000 cycles: 591714103 heartbeat IPC: 0.429608 cumulative IPC: 0.430923 (Simulation time: 0 hr 13 min 4 sec) 
Heartbeat CPU 0 instructions: 410000000 cycles: 614799728 heartbeat IPC: 0.43317 cumulative IPC: 0.431029 (Simulation time: 0 hr 13 min 29 sec) 
Heartbeat CPU 0 instructions: 420000000 cycles: 638020299 heartbeat IPC: 0.430653 cumulative IPC: 0.431012 (Simulation time: 0 hr 13 min 54 sec) 
Heartbeat CPU 0 instructions: 430000003 cycles: 661234889 heartbeat IPC: 0.430764 cumulative IPC: 0.431001 (Simulation time: 0 hr 14 min 20 sec) 
Heartbeat CPU 0 instructions: 440000000 cycles: 684272850 heartbeat IPC: 0.434066 cumulative IPC: 0.431128 (Simulation time: 0 hr 14 min 45 sec) 
Heartbeat CPU 0 instructions: 450000001 cycles: 707584323 heartbeat IPC: 0.428973 cumulative IPC: 0.431042 (Simulation time: 0 hr 15 min 10 sec) 
Heartbeat CPU 0 instructions: 460000000 cycles: 730753198 heartbeat IPC: 0.431614 cumulative IPC: 0.431064 (Simulation time: 0 hr 15 min 35 sec) 
Heartbeat CPU 0 instructions: 470000000 cycles: 753943414 heartbeat IPC: 0.431216 cumulative IPC: 0.431069 (Simulation time: 0 hr 16 min 0 sec) 
Heartbeat CPU 0 instructions: 480000000 cycles: 777288904 heartbeat IPC: 0.428348 cumulative IPC: 0.430971 (Simulation time: 0 hr 16 min 25 sec) 
Heartbeat CPU 0 instructions: 490000000 cycles: 800162230 heartbeat IPC: 0.43719 cumulative IPC: 0.431183 (Simulation time: 0 hr 16 min 50 sec) 
Heartbeat CPU 0 instructions: 500000000 cycles: 823217736 heartbeat IPC: 0.433736 cumulative IPC: 0.431268 (Simulation time: 0 hr 17 min 15 sec) 
Heartbeat CPU 0 instructions: 510000001 cycles: 846411616 heartbeat IPC: 0.431148 cumulative IPC: 0.431264 (Simulation time: 0 hr 17 min 40 sec) 
Heartbeat CPU 0 instructions: 520000000 cycles: 869918567 heartbeat IPC: 0.425406 cumulative IPC: 0.431078 (Simulation time: 0 hr 18 min 6 sec) 
Heartbeat CPU 0 instructions: 530000001 cycles: 893224631 heartbeat IPC: 0.429073 cumulative IPC: 0.431017 (Simulation time: 0 hr 18 min 31 sec) 
Heartbeat CPU 0 instructions: 540000000 cycles: 916438630 heartbeat IPC: 0.430775 cumulative IPC: 0.43101 (Simulation time: 0 hr 18 min 56 sec) 
Heartbeat CPU 0 instructions: 550000002 cycles: 939632352 heartbeat IPC: 0.431151 cumulative IPC: 0.431014 (Simulation time: 0 hr 19 min 21 sec) 
Heartbeat CPU 0 instructions: 560000000 cycles: 962973798 heartbeat IPC: 0.428422 cumulative IPC: 0.430942 (Simulation time: 0 hr 19 min 46 sec) 
Heartbeat CPU 0 instructions: 570000000 cycles: 986295352 heartbeat IPC: 0.428788 cumulative IPC: 0.430883 (Simulation time: 0 hr 20 min 11 sec) 
Heartbeat CPU 0 instructions: 580000000 cycles: 1009425499 heartbeat IPC: 0.432336 cumulative IPC: 0.430921 (Simulation time: 0 hr 20 min 37 sec) 
Heartbeat CPU 0 instructions: 590000000 cycles: 1032692974 heartbeat IPC: 0.429785 cumulative IPC: 0.430892 (Simulation time: 0 hr 21 min 2 sec) 
Heartbeat CPU 0 instructions: 600000000 cycles: 1055949435 heartbeat IPC: 0.429988 cumulative IPC: 0.430869 (Simulation time: 0 hr 21 min 27 sec) 
Heartbeat CPU 0 instructions: 610000001 cycles: 1079100017 heartbeat IPC: 0.431955 cumulative IPC: 0.430896 (Simulation time: 0 hr 21 min 52 sec) 
Heartbeat CPU 0 instructions: 620000000 cycles: 1102389833 heartbeat IPC: 0.429372 cumulative IPC: 0.430859 (Simulation time: 0 hr 22 min 17 sec) 
Heartbeat CPU 0 instructions: 630000000 cycles: 1125611337 heartbeat IPC: 0.430635 cumulative IPC: 0.430854 (Simulation time: 0 hr 22 min 42 sec) 
Heartbeat CPU 0 instructions: 640000000 cycles: 1148842723 heartbeat IPC: 0.430452 cumulative IPC: 0.430845 (Simulation time: 0 hr 23 min 7 sec) 
Heartbeat CPU 0 instructions: 650000000 cycles: 1172076846 heartbeat IPC: 0.430401 cumulative IPC: 0.430835 (Simulation time: 0 hr 23 min 32 sec) 
Heartbeat CPU 0 instructions: 660000000 cycles: 1195243811 heartbeat IPC: 0.431649 cumulative IPC: 0.430853 (Simulation time: 0 hr 23 min 57 sec) 
Heartbeat CPU 0 instructions: 670000000 cycles: 1218535056 heartbeat IPC: 0.429346 cumulative IPC: 0.430821 (Simulation time: 0 hr 24 min 22 sec) 
Heartbeat CPU 0 instructions: 680000000 cycles: 1241806496 heartbeat IPC: 0.429711 cumulative IPC: 0.430797 (Simulation time: 0 hr 24 min 47 sec) 
Heartbeat CPU 0 instructions: 690000000 cycles: 1264981822 heartbeat IPC: 0.431493 cumulative IPC: 0.430812 (Simulation time: 0 hr 25 min 13 sec) 
Heartbeat CPU 0 instructions: 700000000 cycles: 1288173929 heartbeat IPC: 0.431181 cumulative IPC: 0.430819 (Simulation time: 0 hr 25 min 38 sec) 
Heartbeat CPU 0 instructions: 710000001 cycles: 1311263546 heartbeat IPC: 0.433095 cumulative IPC: 0.430863 (Simulation time: 0 hr 26 min 3 sec) 
Heartbeat CPU 0 instructions: 720000000 cycles: 1334584594 heartbeat IPC: 0.428797 cumulative IPC: 0.430824 (Simulation time: 0 hr 26 min 28 sec) 
Heartbeat CPU 0 instructions: 730000000 cycles: 1357842753 heartbeat IPC: 0.429957 cumulative IPC: 0.430807 (Simulation time: 0 hr 26 min 53 sec) 
Heartbeat CPU 0 instructions: 740000000 cycles: 1381011103 heartbeat IPC: 0.431623 cumulative IPC: 0.430822 (Simulation time: 0 hr 27 min 18 sec) 
Heartbeat CPU 0 instructions: 750000000 cycles: 1404268789 heartbeat IPC: 0.429965 cumulative IPC: 0.430807 (Simulation time: 0 hr 27 min 43 sec) 
Heartbeat CPU 0 instructions: 760000000 cycles: 1427529107 heartbeat IPC: 0.429917 cumulative IPC: 0.430791 (Simulation time: 0 hr 28 min 8 sec) 
Heartbeat CPU 0 instructions: 770000002 cycles: 1450793365 heartbeat IPC: 0.429844 cumulative IPC: 0.430774 (Simulation time: 0 hr 28 min 33 sec) 
Heartbeat CPU 0 instructions: 780000000 cycles: 1474054844 heartbeat IPC: 0.429895 cumulative IPC: 0.430759 (Simulation time: 0 hr 28 min 58 sec) 
Heartbeat CPU 0 instructions: 790000000 cycles: 1497345413 heartbeat IPC: 0.429358 cumulative IPC: 0.430735 (Simulation time: 0 hr 29 min 24 sec) 
Heartbeat CPU 0 instructions: 800000000 cycles: 1520459051 heartbeat IPC: 0.432645 cumulative IPC: 0.430767 (Simulation time: 0 hr 29 min 49 sec) 
Heartbeat CPU 0 instructions: 810000000 cycles: 1543751965 heartbeat IPC: 0.429315 cumulative IPC: 0.430743 (Simulation time: 0 hr 30 min 14 sec) 
Heartbeat CPU 0 instructions: 820000000 cycles: 1566952456 heartbeat IPC: 0.431025 cumulative IPC: 0.430747 (Simulation time: 0 hr 30 min 39 sec) 
Heartbeat CPU 0 instructions: 830000002 cycles: 1590081661 heartbeat IPC: 0.432354 cumulative IPC: 0.430773 (Simulation time: 0 hr 31 min 4 sec) 
Heartbeat CPU 0 instructions: 840000000 cycles: 1613205580 heartbeat IPC: 0.432453 cumulative IPC: 0.430799 (Simulation time: 0 hr 31 min 29 sec) 
Heartbeat CPU 0 instructions: 850000003 cycles: 1636393365 heartbeat IPC: 0.431262 cumulative IPC: 0.430806 (Simulation time: 0 hr 31 min 54 sec) 
Heartbeat CPU 0 instructions: 860000000 cycles: 1659679507 heartbeat IPC: 0.42944 cumulative IPC: 0.430785 (Simulation time: 0 hr 32 min 20 sec) 
Heartbeat CPU 0 instructions: 870000000 cycles: 1682909883 heartbeat IPC: 0.430471 cumulative IPC: 0.430781 (Simulation time: 0 hr 32 min 45 sec) 
Heartbeat CPU 0 instructions: 880000000 cycles: 1706198196 heartbeat IPC: 0.4294 cumulative IPC: 0.43076 (Simulation time: 0 hr 33 min 10 sec) 
Heartbeat CPU 0 instructions: 890000001 cycles: 1729385319 heartbeat IPC: 0.431274 cumulative IPC: 0.430768 (Simulation time: 0 hr 33 min 35 sec) 
Heartbeat CPU 0 instructions: 900000000 cycles: 1752278513 heartbeat IPC: 0.436811 cumulative IPC: 0.430853 (Simulation time: 0 hr 34 min 0 sec) 
Heartbeat CPU 0 instructions: 910000000 cycles: 1775344166 heartbeat IPC: 0.433545 cumulative IPC: 0.430891 (Simulation time: 0 hr 34 min 25 sec) 
Heartbeat CPU 0 instructions: 920000000 cycles: 1798574944 heartbeat IPC: 0.430463 cumulative IPC: 0.430885 (Simulation time: 0 hr 34 min 50 sec) 
Heartbeat CPU 0 instructions: 930000001 cycles: 1821745438 heartbeat IPC: 0.431583 cumulative IPC: 0.430894 (Simulation time: 0 hr 35 min 16 sec) 
Heartbeat CPU 0 instructions: 940000000 cycles: 1844793286 heartbeat IPC: 0.43388 cumulative IPC: 0.430934 (Simulation time: 0 hr 35 min 41 sec) 
Heartbeat CPU 0 instructions: 950000003 cycles: 1867773102 heartbeat IPC: 0.435165 cumulative IPC: 0.43099 (Simulation time: 0 hr 36 min 6 sec) 
Heartbeat CPU 0 instructions: 960000000 cycles: 1896856260 heartbeat IPC: 0.343842 cumulative IPC: 0.429558 (Simulation time: 0 hr 36 min 37 sec) 
Heartbeat CPU 0 instructions: 970000003 cycles: 1919832757 heartbeat IPC: 0.435227 cumulative IPC: 0.42963 (Simulation time: 0 hr 37 min 2 sec) 
Heartbeat CPU 0 instructions: 980000000 cycles: 1942775500 heartbeat IPC: 0.435868 cumulative IPC: 0.429709 (Simulation time: 0 hr 37 min 27 sec) 
Heartbeat CPU 0 instructions: 990000001 cycles: 1965772935 heartbeat IPC: 0.434831 cumulative IPC: 0.429773 (Simulation time: 0 hr 37 min 52 sec) 
Heartbeat CPU 0 instructions: 1000000000 cycles: 1988777208 heartbeat IPC: 0.434702 cumulative IPC: 0.429834 (Simulation time: 0 hr 38 min 17 sec) 
Heartbeat CPU 0 instructions: 1010000000 cycles: 2011706829 heartbeat IPC: 0.436117 cumulative IPC: 0.429911 (Simulation time: 0 hr 38 min 42 sec) 
Heartbeat CPU 0 instructions: 1020000000 cycles: 2034643160 heartbeat IPC: 0.43599 cumulative IPC: 0.429984 (Simulation time: 0 hr 39 min 7 sec) 
Heartbeat CPU 0 instructions: 1030000000 cycles: 2057541228 heartbeat IPC: 0.436718 cumulative IPC: 0.430064 (Simulation time: 0 hr 39 min 32 sec) 
Heartbeat CPU 0 instructions: 1040000000 cycles: 2080473964 heartbeat IPC: 0.436058 cumulative IPC: 0.430134 (Simulation time: 0 hr 39 min 57 sec) 
Heartbeat CPU 0 instructions: 1050000001 cycles: 2103632162 heartbeat IPC: 0.431813 cumulative IPC: 0.430154 (Simulation time: 0 hr 40 min 23 sec) 
Heartbeat CPU 0 instructions: 1060000000 cycles: 2126571086 heartbeat IPC: 0.43594 cumulative IPC: 0.43022 (Simulation time: 0 hr 40 min 48 sec) 
Heartbeat CPU 0 instructions: 1070000002 cycles: 2149582356 heartbeat IPC: 0.43457 cumulative IPC: 0.43027 (Simulation time: 0 hr 41 min 13 sec) 
Heartbeat CPU 0 instructions: 1080000000 cycles: 2172599397 heartbeat IPC: 0.434461 cumulative IPC: 0.430317 (Simulation time: 0 hr 41 min 38 sec) 
Heartbeat CPU 0 instructions: 1090000000 cycles: 2195783614 heartbeat IPC: 0.431328 cumulative IPC: 0.430328 (Simulation time: 0 hr 42 min 3 sec) 
Heartbeat CPU 0 instructions: 1100000000 cycles: 2218613222 heartbeat IPC: 0.438028 cumulative IPC: 0.430412 (Simulation time: 0 hr 42 min 28 sec) 
Heartbeat CPU 0 instructions: 1110000000 cycles: 2241873132 heartbeat IPC: 0.429924 cumulative IPC: 0.430407 (Simulation time: 0 hr 42 min 53 sec) 
Heartbeat CPU 0 instructions: 1120000000 cycles: 2265059812 heartbeat IPC: 0.431282 cumulative IPC: 0.430416 (Simulation time: 0 hr 43 min 18 sec) 
Heartbeat CPU 0 instructions: 1130000002 cycles: 2288198697 heartbeat IPC: 0.432173 cumulative IPC: 0.430435 (Simulation time: 0 hr 43 min 43 sec) 
Heartbeat CPU 0 instructions: 1140000000 cycles: 2311143686 heartbeat IPC: 0.435825 cumulative IPC: 0.430492 (Simulation time: 0 hr 44 min 8 sec) 
Heartbeat CPU 0 instructions: 1150000000 cycles: 2334198125 heartbeat IPC: 0.433756 cumulative IPC: 0.430526 (Simulation time: 0 hr 44 min 34 sec) 
Heartbeat CPU 0 instructions: 1160000000 cycles: 2357431740 heartbeat IPC: 0.430411 cumulative IPC: 0.430525 (Simulation time: 0 hr 44 min 59 sec) 
Heartbeat CPU 0 instructions: 1170000000 cycles: 2380621675 heartbeat IPC: 0.431222 cumulative IPC: 0.430532 (Simulation time: 0 hr 45 min 24 sec) 
Heartbeat CPU 0 instructions: 1180000000 cycles: 2403656331 heartbeat IPC: 0.434128 cumulative IPC: 0.430568 (Simulation time: 0 hr 45 min 49 sec) 
Heartbeat CPU 0 instructions: 1190000001 cycles: 2426646623 heartbeat IPC: 0.434966 cumulative IPC: 0.430612 (Simulation time: 0 hr 46 min 14 sec) 
Heartbeat CPU 0 instructions: 1200000000 cycles: 2449707912 heartbeat IPC: 0.433627 cumulative IPC: 0.430642 (Simulation time: 0 hr 46 min 39 sec) 
Finished CPU 0 instructions: 1000000000 cycles: 2322114018 cumulative IPC: 0.430642 (Simulation time: 0 hr 46 min 39 sec) 

CPU 0 Branch Prediction Accuracy: 84.7757% MPKI: 15.9388

ChampSim completed all CPUs

Region of Interest Statistics

CPU 0 cumulative IPC: 0.430642 instructions: 1000000000 cycles: 2322114018
L1D TOTAL     ACCESS:  332474131  HIT:  329558317  MISS:    2915814
L1D LOAD      ACCESS:  217330037  HIT:  214736763  MISS:    2593274
L1D RFO       ACCESS:  115144094  HIT:  114821554  MISS:     322540
L1D PREFETCH  ACCESS:          0  HIT:          0  MISS:          0
L1D WRITEBACK ACCESS:          0  HIT:          0  MISS:          0
L1D PREFETCH  REQUESTED:          0  ISSUED:          0  USEFUL:          0  USELESS:          0
L1I TOTAL     ACCESS:  229017991  HIT:  228962359  MISS:      55632
L1I LOAD      ACCESS:  229017991  HIT:  228962359  MISS:      55632
L1I RFO       ACCESS:          0  HIT:          0  MISS:          0
L1I PREFETCH  ACCESS:          0  HIT:          0  MISS:          0
L1I WRITEBACK ACCESS:          0  HIT:          0  MISS:          0
L1I PREFETCH  REQUESTED:          0  ISSUED:          0  USEFUL:          0  USELESS:          0
L2C TOTAL     ACCESS:    5748260  HIT:    5599550  MISS:     148710
L2C LOAD      ACCESS:    2648879  HIT:    2560663  MISS:      88216
L2C RFO       ACCESS:     322540  HIT:     283394  MISS:      39146
L2C PREFETCH  ACCESS:    2225663  HIT:    2204424  MISS:      21239
L2C WRITEBACK ACCESS:     551178  HIT:     551069  MISS:        109
L2C PREFETCH  REQUESTED:    3801417  ISSUED:    3801417  USEFUL:      41248  USELESS:        678
LLC TOTAL     ACCESS:     815749  HIT:     743679  MISS:      72070
LLC LOAD      ACCESS:      85353  HIT:      77944  MISS:       7409
LLC RFO       ACCESS:      39146  HIT:       7602  MISS:      31544
LLC PREFETCH  ACCESS:     644585  HIT:     611485  MISS:      33100
LLC WRITEBACK ACCESS:      46665  HIT:      46648  MISS:         17
LLC PREFETCH  REQUESTED:          0  ISSUED:          0  USEFUL:      22103  USELESS:      36391
Major fault: 0 Minor fault: 1756

DRAM Statistics
 CHANNEL 0
 RQ ROW_BUFFER_HIT:      49297  ROW_BUFFER_MISS:      22633
 DBUS_CONGESTED:      91982
 WQ ROW_BUFFER_HIT:      12513  ROW_BUFFER_MISS:      24281  FULL:          0

 AVG_CONGESTED_CYCLE: 76
