Initialize SIGNATURE TABLE
ST_SET: 1
ST_WAY: 256
ST_TAG_BIT: 16
ST_TAG_MASK: ffff

Initialize PATTERN TABLE
PT_SET: 512
PT_WAY: 4
SIG_DELTA_BIT: 7
C_SIG_BIT: 4
C_DELTA_BIT: 4

Initialize PREFETCH FILTER
FILTER_SET: 1024

*** ChampSim Multicore Out-of-Order Simulator ***

Warmup Instructions: 200000000
Simulation Instructions: 1000000000
Number of CPUs: 1
LLC sets: 2048
LLC ways: 16
Off-chip DRAM Size: 4096 MB Channels: 1 Width: 64-bit Data Rate: 400 MT/s

CPU 0 runs /scratch/user/djimenez/champsim-traces/speccpu2017/xz/648.exchange2_s/648.exchange2_s-584B.champsimtrace.xz
Heartbeat CPU 0 instructions: 10000001 cycles: 4404183 heartbeat IPC: 2.27057 cumulative IPC: 2.27057 (Simulation time: 0 hr 0 min 15 sec) 
Heartbeat CPU 0 instructions: 20000000 cycles: 8824432 heartbeat IPC: 2.26232 cumulative IPC: 2.26643 (Simulation time: 0 hr 0 min 30 sec) 
Heartbeat CPU 0 instructions: 30000001 cycles: 13236860 heartbeat IPC: 2.26633 cumulative IPC: 2.2664 (Simulation time: 0 hr 0 min 44 sec) 
Heartbeat CPU 0 instructions: 40000000 cycles: 17687088 heartbeat IPC: 2.24708 cumulative IPC: 2.26154 (Simulation time: 0 hr 0 min 59 sec) 
Heartbeat CPU 0 instructions: 50000003 cycles: 22145594 heartbeat IPC: 2.2429 cumulative IPC: 2.25779 (Simulation time: 0 hr 1 min 15 sec) 
Heartbeat CPU 0 instructions: 60000000 cycles: 26580285 heartbeat IPC: 2.25495 cumulative IPC: 2.25731 (Simulation time: 0 hr 1 min 30 sec) 
Heartbeat CPU 0 instructions: 70000000 cycles: 31026634 heartbeat IPC: 2.24904 cumulative IPC: 2.25613 (Simulation time: 0 hr 1 min 45 sec) 
Heartbeat CPU 0 instructions: 80000000 cycles: 35480082 heartbeat IPC: 2.24545 cumulative IPC: 2.25479 (Simulation time: 0 hr 2 min 1 sec) 
Heartbeat CPU 0 instructions: 90000002 cycles: 39833953 heartbeat IPC: 2.29681 cumulative IPC: 2.25938 (Simulation time: 0 hr 2 min 14 sec) 
Heartbeat CPU 0 instructions: 100000000 cycles: 44165253 heartbeat IPC: 2.30878 cumulative IPC: 2.26422 (Simulation time: 0 hr 2 min 28 sec) 
Heartbeat CPU 0 instructions: 110000003 cycles: 48657229 heartbeat IPC: 2.22619 cumulative IPC: 2.26071 (Simulation time: 0 hr 2 min 43 sec) 
Heartbeat CPU 0 instructions: 120000000 cycles: 53124373 heartbeat IPC: 2.23857 cumulative IPC: 2.25885 (Simulation time: 0 hr 2 min 58 sec) 
Heartbeat CPU 0 instructions: 130000000 cycles: 57433368 heartbeat IPC: 2.32073 cumulative IPC: 2.26349 (Simulation time: 0 hr 3 min 11 sec) 
Heartbeat CPU 0 instructions: 140000000 cycles: 61820723 heartbeat IPC: 2.27928 cumulative IPC: 2.26461 (Simulation time: 0 hr 3 min 26 sec) 
Heartbeat CPU 0 instructions: 150000003 cycles: 66327585 heartbeat IPC: 2.21884 cumulative IPC: 2.2615 (Simulation time: 0 hr 3 min 41 sec) 
Heartbeat CPU 0 instructions: 160000000 cycles: 70798383 heartbeat IPC: 2.23674 cumulative IPC: 2.25994 (Simulation time: 0 hr 3 min 55 sec) 
Heartbeat CPU 0 instructions: 170000002 cycles: 75092334 heartbeat IPC: 2.32886 cumulative IPC: 2.26388 (Simulation time: 0 hr 4 min 9 sec) 
Heartbeat CPU 0 instructions: 180000000 cycles: 79519238 heartbeat IPC: 2.25891 cumulative IPC: 2.2636 (Simulation time: 0 hr 4 min 23 sec) 
Heartbeat CPU 0 instructions: 190000000 cycles: 84019867 heartbeat IPC: 2.22191 cumulative IPC: 2.26137 (Simulation time: 0 hr 4 min 38 sec) 
Heartbeat CPU 0 instructions: 200000000 cycles: 88443265 heartbeat IPC: 2.26071 cumulative IPC: 2.26134 (Simulation time: 0 hr 4 min 53 sec) 

Warmup complete CPU 0 instructions: 200000002 cycles: 88443266 (Simulation time: 0 hr 4 min 53 sec) 

Heartbeat CPU 0 instructions: 210000002 cycles: 95159732 heartbeat IPC: 1.48888 cumulative IPC: 1.48888 (Simulation time: 0 hr 5 min 12 sec) 
Heartbeat CPU 0 instructions: 220000000 cycles: 102070211 heartbeat IPC: 1.44708 cumulative IPC: 1.46768 (Simulation time: 0 hr 5 min 31 sec) 
Heartbeat CPU 0 instructions: 230000002 cycles: 108979635 heartbeat IPC: 1.4473 cumulative IPC: 1.46082 (Simulation time: 0 hr 5 min 50 sec) 
Heartbeat CPU 0 instructions: 240000000 cycles: 116620461 heartbeat IPC: 1.30876 cumulative IPC: 1.41959 (Simulation time: 0 hr 6 min 10 sec) 
Heartbeat CPU 0 instructions: 250000003 cycles: 123144247 heartbeat IPC: 1.53285 cumulative IPC: 1.44088 (Simulation time: 0 hr 6 min 29 sec) 
Heartbeat CPU 0 instructions: 260000000 cycles: 129528366 heartbeat IPC: 1.56639 cumulative IPC: 1.46038 (Simulation time: 0 hr 6 min 48 sec) 
Heartbeat CPU 0 instructions: 270000002 cycles: 135818607 heartbeat IPC: 1.58976 cumulative IPC: 1.47756 (Simulation time: 0 hr 7 min 7 sec) 
Heartbeat CPU 0 instructions: 280000000 cycles: 142824472 heartbeat IPC: 1.42738 cumulative IPC: 1.4711 (Simulation time: 0 hr 7 min 26 sec) 
Heartbeat CPU 0 instructions: 290000001 cycles: 149737708 heartbeat IPC: 1.4465 cumulative IPC: 1.46832 (Simulation time: 0 hr 7 min 45 sec) 
Heartbeat CPU 0 instructions: 300000000 cycles: 156818183 heartbeat IPC: 1.41233 cumulative IPC: 1.46252 (Simulation time: 0 hr 8 min 4 sec) 
Heartbeat CPU 0 instructions: 310000003 cycles: 163133368 heartbeat IPC: 1.58349 cumulative IPC: 1.47275 (Simulation time: 0 hr 8 min 23 sec) 
Heartbeat CPU 0 instructions: 320000000 cycles: 169576298 heartbeat IPC: 1.55209 cumulative IPC: 1.47905 (Simulation time: 0 hr 8 min 41 sec) 
Heartbeat CPU 0 instructions: 330000003 cycles: 175934325 heartbeat IPC: 1.57282 cumulative IPC: 1.48587 (Simulation time: 0 hr 9 min 0 sec) 
Heartbeat CPU 0 instructions: 340000000 cycles: 182343500 heartbeat IPC: 1.56026 cumulative IPC: 1.49094 (Simulation time: 0 hr 9 min 19 sec) 
Heartbeat CPU 0 instructions: 350000000 cycles: 188639373 heartbeat IPC: 1.58834 cumulative IPC: 1.49706 (Simulation time: 0 hr 9 min 38 sec) 
Heartbeat CPU 0 instructions: 360000000 cycles: 195597612 heartbeat IPC: 1.43715 cumulative IPC: 1.49317 (Simulation time: 0 hr 9 min 57 sec) 
Heartbeat CPU 0 instructions: 370000003 cycles: 201975276 heartbeat IPC: 1.56797 cumulative IPC: 1.49738 (Simulation time: 0 hr 10 min 16 sec) 
Heartbeat CPU 0 instructions: 380000000 cycles: 208319920 heartbeat IPC: 1.57613 cumulative IPC: 1.50154 (Simulation time: 0 hr 10 min 35 sec) 
Heartbeat CPU 0 instructions: 390000000 cycles: 214736577 heartbeat IPC: 1.55844 cumulative IPC: 1.50443 (Simulation time: 0 hr 10 min 53 sec) 
Heartbeat CPU 0 instructions: 400000000 cycles: 221181911 heartbeat IPC: 1.55151 cumulative IPC: 1.50672 (Simulation time: 0 hr 11 min 12 sec) 
Heartbeat CPU 0 instructions: 410000002 cycles: 228198788 heartbeat IPC: 1.42514 cumulative IPC: 1.50262 (Simulation time: 0 hr 11 min 31 sec) 
Heartbeat CPU 0 instructions: 420000000 cycles: 234567194 heartbeat IPC: 1.57025 cumulative IPC: 1.50557 (Simulation time: 0 hr 11 min 50 sec) 
Heartbeat CPU 0 instructions: 430000000 cycles: 240945190 heartbeat IPC: 1.56789 cumulative IPC: 1.50818 (Simulation time: 0 hr 12 min 9 sec) 
Heartbeat CPU 0 instructions: 440000000 cycles: 247406378 heartbeat IPC: 1.5477 cumulative IPC: 1.50978 (Simulation time: 0 hr 12 min 28 sec) 
Heartbeat CPU 0 instructions: 450000000 cycles: 253825097 heartbeat IPC: 1.55794 cumulative IPC: 1.51165 (Simulation time: 0 hr 12 min 47 sec) 
Heartbeat CPU 0 instructions: 460000000 cycles: 260197023 heartbeat IPC: 1.56938 cumulative IPC: 1.5138 (Simulation time: 0 hr 13 min 6 sec) 
Heartbeat CPU 0 instructions: 470000001 cycles: 266581399 heartbeat IPC: 1.56632 cumulative IPC: 1.51568 (Simulation time: 0 hr 13 min 25 sec) 
Heartbeat CPU 0 instructions: 480000000 cycles: 272980487 heartbeat IPC: 1.56272 cumulative IPC: 1.51731 (Simulation time: 0 hr 13 min 43 sec) 
Heartbeat CPU 0 instructions: 490000000 cycles: 279344229 heartbeat IPC: 1.5714 cumulative IPC: 1.51911 (Simulation time: 0 hr 14 min 2 sec) 
Heartbeat CPU 0 instructions: 500000000 cycles: 285856816 heartbeat IPC: 1.53549 cumulative IPC: 1.51965 (Simulation time: 0 hr 14 min 21 sec) 
Heartbeat CPU 0 instructions: 510000000 cycles: 292291323 heartbeat IPC: 1.55412 cumulative IPC: 1.52074 (Simulation time: 0 hr 14 min 40 sec) 
Heartbeat CPU 0 instructions: 520000000 cycles: 298733151 heartbeat IPC: 1.55235 cumulative IPC: 1.52171 (Simulation time: 0 hr 14 min 59 sec) 
Heartbeat CPU 0 instructions: 530000001 cycles: 305221625 heartbeat IPC: 1.54119 cumulative IPC: 1.52229 (Simulation time: 0 hr 15 min 18 sec) 
Heartbeat CPU 0 instructions: 540000000 cycles: 311764143 heartbeat IPC: 1.52846 cumulative IPC: 1.52247 (Simulation time: 0 hr 15 min 36 sec) 
Heartbeat CPU 0 instructions: 550000001 cycles: 318258881 heartbeat IPC: 1.53971 cumulative IPC: 1.52296 (Simulation time: 0 hr 15 min 55 sec) 
Heartbeat CPU 0 instructions: 560000000 cycles: 324705606 heartbeat IPC: 1.55117 cumulative IPC: 1.52373 (Simulation time: 0 hr 16 min 14 sec) 
Heartbeat CPU 0 instructions: 570000000 cycles: 331232651 heartbeat IPC: 1.53209 cumulative IPC: 1.52395 (Simulation time: 0 hr 16 min 33 sec) 
Heartbeat CPU 0 instructions: 580000000 cycles: 337693462 heartbeat IPC: 1.54779 cumulative IPC: 1.52457 (Simulation time: 0 hr 16 min 52 sec) 
Heartbeat CPU 0 instructions: 590000002 cycles: 344239948 heartbeat IPC: 1.52754 cumulative IPC: 1.52465 (Simulation time: 0 hr 17 min 10 sec) 
Heartbeat CPU 0 instructions: 600000000 cycles: 350764903 heartbeat IPC: 1.53258 cumulative IPC: 1.52485 (Simulation time: 0 hr 17 min 29 sec) 
Heartbeat CPU 0 instructions: 610000003 cycles: 357328875 heartbeat IPC: 1.52347 cumulative IPC: 1.52481 (Simulation time: 0 hr 17 min 48 sec) 
Heartbeat CPU 0 instructions: 620000000 cycles: 363776892 heartbeat IPC: 1.55086 cumulative IPC: 1.52542 (Simulation time: 0 hr 18 min 7 sec) 
Heartbeat CPU 0 instructions: 630000000 cycles: 370267374 heartbeat IPC: 1.54072 cumulative IPC: 1.52577 (Simulation time: 0 hr 18 min 25 sec) 
Heartbeat CPU 0 instructions: 640000000 cycles: 376718952 heartbeat IPC: 1.55001 cumulative IPC: 1.52632 (Simulation time: 0 hr 18 min 44 sec) 
Heartbeat CPU 0 instructions: 650000001 cycles: 383124982 heartbeat IPC: 1.56103 cumulative IPC: 1.52707 (Simulation time: 0 hr 19 min 3 sec) 
Heartbeat CPU 0 instructions: 660000000 cycles: 389610417 heartbeat IPC: 1.54192 cumulative IPC: 1.52739 (Simulation time: 0 hr 19 min 22 sec) 
Heartbeat CPU 0 instructions: 670000002 cycles: 396150432 heartbeat IPC: 1.52905 cumulative IPC: 1.52743 (Simulation time: 0 hr 19 min 41 sec) 
Heartbeat CPU 0 instructions: 680000000 cycles: 402685304 heartbeat IPC: 1.53025 cumulative IPC: 1.52749 (Simulation time: 0 hr 20 min 0 sec) 
Heartbeat CPU 0 instructions: 690000001 cycles: 409179333 heartbeat IPC: 1.53988 cumulative IPC: 1.52774 (Simulation time: 0 hr 20 min 19 sec) 
Heartbeat CPU 0 instructions: 700000000 cycles: 415610738 heartbeat IPC: 1.55487 cumulative IPC: 1.52827 (Simulation time: 0 hr 20 min 37 sec) 
Heartbeat CPU 0 instructions: 710000000 cycles: 422088959 heartbeat IPC: 1.54363 cumulative IPC: 1.52857 (Simulation time: 0 hr 20 min 56 sec) 
Heartbeat CPU 0 instructions: 720000000 cycles: 428494410 heartbeat IPC: 1.56117 cumulative IPC: 1.52918 (Simulation time: 0 hr 21 min 15 sec) 
Heartbeat CPU 0 instructions: 730000003 cycles: 434988118 heartbeat IPC: 1.53995 cumulative IPC: 1.52938 (Simulation time: 0 hr 21 min 34 sec) 
Heartbeat CPU 0 instructions: 740000000 cycles: 441393378 heartbeat IPC: 1.56122 cumulative IPC: 1.52996 (Simulation time: 0 hr 21 min 53 sec) 
Heartbeat CPU 0 instructions: 750000000 cycles: 447832311 heartbeat IPC: 1.55305 cumulative IPC: 1.53038 (Simulation time: 0 hr 22 min 11 sec) 
Heartbeat CPU 0 instructions: 760000000 cycles: 454241708 heartbeat IPC: 1.56021 cumulative IPC: 1.5309 (Simulation time: 0 hr 22 min 30 sec) 
Heartbeat CPU 0 instructions: 770000000 cycles: 460610960 heartbeat IPC: 1.57004 cumulative IPC: 1.53157 (Simulation time: 0 hr 22 min 49 sec) 
Heartbeat CPU 0 instructions: 780000000 cycles: 467066528 heartbeat IPC: 1.54905 cumulative IPC: 1.53187 (Simulation time: 0 hr 23 min 8 sec) 
Heartbeat CPU 0 instructions: 790000001 cycles: 473457927 heartbeat IPC: 1.5646 cumulative IPC: 1.53241 (Simulation time: 0 hr 23 min 27 sec) 
Heartbeat CPU 0 instructions: 800000000 cycles: 479901980 heartbeat IPC: 1.55182 cumulative IPC: 1.53273 (Simulation time: 0 hr 23 min 46 sec) 
Heartbeat CPU 0 instructions: 810000001 cycles: 486326180 heartbeat IPC: 1.55661 cumulative IPC: 1.53311 (Simulation time: 0 hr 24 min 4 sec) 
Heartbeat CPU 0 instructions: 820000000 cycles: 492766851 heartbeat IPC: 1.55263 cumulative IPC: 1.53343 (Simulation time: 0 hr 24 min 23 sec) 
Heartbeat CPU 0 instructions: 830000002 cycles: 499950550 heartbeat IPC: 1.39204 cumulative IPC: 1.53096 (Simulation time: 0 hr 24 min 42 sec) 
Heartbeat CPU 0 instructions: 840000000 cycles: 508775011 heartbeat IPC: 1.13321 cumulative IPC: 1.52261 (Simulation time: 0 hr 25 min 3 sec) 
Heartbeat CPU 0 instructions: 850000003 cycles: 516042763 heartbeat IPC: 1.37594 cumulative IPC: 1.52011 (Simulation time: 0 hr 25 min 22 sec) 
Heartbeat CPU 0 instructions: 860000000 cycles: 522874419 heartbeat IPC: 1.46377 cumulative IPC: 1.51923 (Simulation time: 0 hr 25 min 41 sec) 
Heartbeat CPU 0 instructions: 870000000 cycles: 529539630 heartbeat IPC: 1.50033 cumulative IPC: 1.51894 (Simulation time: 0 hr 25 min 59 sec) 
Heartbeat CPU 0 instructions: 880000000 cycles: 536186343 heartbeat IPC: 1.5045 cumulative IPC: 1.51873 (Simulation time: 0 hr 26 min 18 sec) 
Heartbeat CPU 0 instructions: 890000000 cycles: 543476323 heartbeat IPC: 1.37175 cumulative IPC: 1.51637 (Simulation time: 0 hr 26 min 37 sec) 
Heartbeat CPU 0 instructions: 900000000 cycles: 550187444 heartbeat IPC: 1.49006 cumulative IPC: 1.51599 (Simulation time: 0 hr 26 min 56 sec) 
Heartbeat CPU 0 instructions: 910000003 cycles: 556955410 heartbeat IPC: 1.47755 cumulative IPC: 1.51544 (Simulation time: 0 hr 27 min 15 sec) 
Heartbeat CPU 0 instructions: 920000000 cycles: 563678672 heartbeat IPC: 1.48737 cumulative IPC: 1.51504 (Simulation time: 0 hr 27 min 34 sec) 
Heartbeat CPU 0 instructions: 930000002 cycles: 570464936 heartbeat IPC: 1.47357 cumulative IPC: 1.51445 (Simulation time: 0 hr 27 min 53 sec) 
Heartbeat CPU 0 instructions: 940000000 cycles: 577248113 heartbeat IPC: 1.47424 cumulative IPC: 1.5139 (Simulation time: 0 hr 28 min 12 sec) 
Heartbeat CPU 0 instructions: 950000003 cycles: 584050137 heartbeat IPC: 1.47015 cumulative IPC: 1.5133 (Simulation time: 0 hr 28 min 31 sec) 
Heartbeat CPU 0 instructions: 960000000 cycles: 590910009 heartbeat IPC: 1.45775 cumulative IPC: 1.51254 (Simulation time: 0 hr 28 min 50 sec) 
Heartbeat CPU 0 instructions: 970000000 cycles: 597731836 heartbeat IPC: 1.46588 cumulative IPC: 1.51191 (Simulation time: 0 hr 29 min 9 sec) 
Heartbeat CPU 0 instructions: 980000000 cycles: 604480741 heartbeat IPC: 1.48172 cumulative IPC: 1.51152 (Simulation time: 0 hr 29 min 28 sec) 
Heartbeat CPU 0 instructions: 990000001 cycles: 611269207 heartbeat IPC: 1.47309 cumulative IPC: 1.51102 (Simulation time: 0 hr 29 min 47 sec) 
Heartbeat CPU 0 instructions: 1000000000 cycles: 618073997 heartbeat IPC: 1.46955 cumulative IPC: 1.51049 (Simulation time: 0 hr 30 min 7 sec) 
Heartbeat CPU 0 instructions: 1010000003 cycles: 625522027 heartbeat IPC: 1.34264 cumulative IPC: 1.50816 (Simulation time: 0 hr 30 min 26 sec) 
Heartbeat CPU 0 instructions: 1020000000 cycles: 632490944 heartbeat IPC: 1.43494 cumulative IPC: 1.50722 (Simulation time: 0 hr 30 min 45 sec) 
Heartbeat CPU 0 instructions: 1030000001 cycles: 639500047 heartbeat IPC: 1.42672 cumulative IPC: 1.5062 (Simulation time: 0 hr 31 min 4 sec) 
Heartbeat CPU 0 instructions: 1040000000 cycles: 646530629 heartbeat IPC: 1.42236 cumulative IPC: 1.50514 (Simulation time: 0 hr 31 min 23 sec) 
Heartbeat CPU 0 instructions: 1050000000 cycles: 653628594 heartbeat IPC: 1.40885 cumulative IPC: 1.50393 (Simulation time: 0 hr 31 min 42 sec) 
Heartbeat CPU 0 instructions: 1060000000 cycles: 660140675 heartbeat IPC: 1.53561 cumulative IPC: 1.50429 (Simulation time: 0 hr 32 min 1 sec) 
Heartbeat CPU 0 instructions: 1070000001 cycles: 666720164 heartbeat IPC: 1.51988 cumulative IPC: 1.50447 (Simulation time: 0 hr 32 min 20 sec) 
Heartbeat CPU 0 instructions: 1080000000 cycles: 673292123 heartbeat IPC: 1.52162 cumulative IPC: 1.50466 (Simulation time: 0 hr 32 min 38 sec) 
Heartbeat CPU 0 instructions: 1090000002 cycles: 680000505 heartbeat IPC: 1.49067 cumulative IPC: 1.5045 (Simulation time: 0 hr 32 min 57 sec) 
Heartbeat CPU 0 instructions: 1100000000 cycles: 686600072 heartbeat IPC: 1.51525 cumulative IPC: 1.50462 (Simulation time: 0 hr 33 min 16 sec) 
Heartbeat CPU 0 instructions: 1110000003 cycles: 693274596 heartbeat IPC: 1.49823 cumulative IPC: 1.50455 (Simulation time: 0 hr 33 min 34 sec) 
Heartbeat CPU 0 instructions: 1120000000 cycles: 699930072 heartbeat IPC: 1.50252 cumulative IPC: 1.50453 (Simulation time: 0 hr 33 min 53 sec) 
Heartbeat CPU 0 instructions: 1130000000 cycles: 707051939 heartbeat IPC: 1.40413 cumulative IPC: 1.50337 (Simulation time: 0 hr 34 min 12 sec) 
Heartbeat CPU 0 instructions: 1140000000 cycles: 713716418 heartbeat IPC: 1.50049 cumulative IPC: 1.50334 (Simulation time: 0 hr 34 min 31 sec) 
Heartbeat CPU 0 instructions: 1150000000 cycles: 720400234 heartbeat IPC: 1.49615 cumulative IPC: 1.50327 (Simulation time: 0 hr 34 min 50 sec) 
Heartbeat CPU 0 instructions: 1160000000 cycles: 727014441 heartbeat IPC: 1.5119 cumulative IPC: 1.50336 (Simulation time: 0 hr 35 min 9 sec) 
Heartbeat CPU 0 instructions: 1170000000 cycles: 735132163 heartbeat IPC: 1.23187 cumulative IPC: 1.49995 (Simulation time: 0 hr 35 min 29 sec) 
Heartbeat CPU 0 instructions: 1180000000 cycles: 741691803 heartbeat IPC: 1.52447 cumulative IPC: 1.50019 (Simulation time: 0 hr 35 min 47 sec) 
Heartbeat CPU 0 instructions: 1190000001 cycles: 748295863 heartbeat IPC: 1.51422 cumulative IPC: 1.50034 (Simulation time: 0 hr 36 min 6 sec) 
Heartbeat CPU 0 instructions: 1200000000 cycles: 755002475 heartbeat IPC: 1.49107 cumulative IPC: 1.50024 (Simulation time: 0 hr 36 min 25 sec) 
Finished CPU 0 instructions: 1000000002 cycles: 666559223 cumulative IPC: 1.50024 (Simulation time: 0 hr 36 min 25 sec) 

CPU 0 Branch Prediction Accuracy: 96.7628% MPKI: 4.64389

ChampSim completed all CPUs

Region of Interest Statistics

CPU 0 cumulative IPC: 1.50024 instructions: 1000000002 cycles: 666559223
L1D TOTAL     ACCESS:  272016985  HIT:  272016955  MISS:         30
L1D LOAD      ACCESS:  119345143  HIT:  119345133  MISS:         10
L1D RFO       ACCESS:  152671842  HIT:  152671822  MISS:         20
L1D PREFETCH  ACCESS:          0  HIT:          0  MISS:          0
L1D WRITEBACK ACCESS:          0  HIT:          0  MISS:          0
L1D PREFETCH  REQUESTED:          0  ISSUED:          0  USEFUL:          0  USELESS:          0
L1I TOTAL     ACCESS:  217824966  HIT:  217802103  MISS:      22863
L1I LOAD      ACCESS:  217824966  HIT:  217802103  MISS:      22863
L1I RFO       ACCESS:          0  HIT:          0  MISS:          0
L1I PREFETCH  ACCESS:          0  HIT:          0  MISS:          0
L1I WRITEBACK ACCESS:          0  HIT:          0  MISS:          0
L1I PREFETCH  REQUESTED:          0  ISSUED:          0  USEFUL:          0  USELESS:          0
L2C TOTAL     ACCESS:      58316  HIT:      58211  MISS:        105
L2C LOAD      ACCESS:      22873  HIT:      22801  MISS:         72
L2C RFO       ACCESS:         20  HIT:          0  MISS:         20
L2C PREFETCH  ACCESS:      35423  HIT:      35410  MISS:         13
L2C WRITEBACK ACCESS:          0  HIT:          0  MISS:          0
L2C PREFETCH  REQUESTED:      80864  ISSUED:      80864  USEFUL:        180  USELESS:          0
LLC TOTAL     ACCESS:       4645  HIT:       4494  MISS:        151
LLC LOAD      ACCESS:         71  HIT:         38  MISS:         33
LLC RFO       ACCESS:         20  HIT:          0  MISS:         20
LLC PREFETCH  ACCESS:       4554  HIT:       4456  MISS:         98
LLC WRITEBACK ACCESS:          0  HIT:          0  MISS:          0
LLC PREFETCH  REQUESTED:          0  ISSUED:          0  USEFUL:        762  USELESS:          0
Major fault: 0 Minor fault: 48

DRAM Statistics
 CHANNEL 0
 RQ ROW_BUFFER_HIT:        110  ROW_BUFFER_MISS:         41
 DBUS_CONGESTED:         93
 WQ ROW_BUFFER_HIT:          0  ROW_BUFFER_MISS:          0  FULL:          0

 AVG_CONGESTED_CYCLE: 68
