Initialize SIGNATURE TABLE
ST_SET: 1
ST_WAY: 256
ST_TAG_BIT: 16
ST_TAG_MASK: ffff

Initialize PATTERN TABLE
PT_SET: 512
PT_WAY: 4
SIG_DELTA_BIT: 7
C_SIG_BIT: 4
C_DELTA_BIT: 4

Initialize PREFETCH FILTER
FILTER_SET: 1024

*** ChampSim Multicore Out-of-Order Simulator ***

Warmup Instructions: 200000000
Simulation Instructions: 1000000000
Number of CPUs: 1
LLC sets: 2048
LLC ways: 16
Off-chip DRAM Size: 4096 MB Channels: 1 Width: 64-bit Data Rate: 400 MT/s

CPU 0 runs /scratch/user/djimenez/champsim-traces/speccpu2017/xz/648.exchange2_s/648.exchange2_s-72B.champsimtrace.xz
Heartbeat CPU 0 instructions: 10000000 cycles: 4333429 heartbeat IPC: 2.30764 cumulative IPC: 2.30764 (Simulation time: 0 hr 0 min 14 sec) 
Heartbeat CPU 0 instructions: 20000000 cycles: 8670615 heartbeat IPC: 2.30564 cumulative IPC: 2.30664 (Simulation time: 0 hr 0 min 28 sec) 
Heartbeat CPU 0 instructions: 30000000 cycles: 13000998 heartbeat IPC: 2.30926 cumulative IPC: 2.30752 (Simulation time: 0 hr 0 min 42 sec) 
Heartbeat CPU 0 instructions: 40000000 cycles: 17294943 heartbeat IPC: 2.32886 cumulative IPC: 2.31281 (Simulation time: 0 hr 0 min 56 sec) 
Heartbeat CPU 0 instructions: 50000001 cycles: 21641732 heartbeat IPC: 2.30055 cumulative IPC: 2.31035 (Simulation time: 0 hr 1 min 10 sec) 
Heartbeat CPU 0 instructions: 60000000 cycles: 25993802 heartbeat IPC: 2.29776 cumulative IPC: 2.30824 (Simulation time: 0 hr 1 min 25 sec) 
Heartbeat CPU 0 instructions: 70000003 cycles: 30285350 heartbeat IPC: 2.33016 cumulative IPC: 2.31135 (Simulation time: 0 hr 1 min 39 sec) 
Heartbeat CPU 0 instructions: 80000000 cycles: 34633643 heartbeat IPC: 2.29975 cumulative IPC: 2.30989 (Simulation time: 0 hr 1 min 53 sec) 
Heartbeat CPU 0 instructions: 90000001 cycles: 38934256 heartbeat IPC: 2.32525 cumulative IPC: 2.31159 (Simulation time: 0 hr 2 min 7 sec) 
Heartbeat CPU 0 instructions: 100000000 cycles: 43206585 heartbeat IPC: 2.34064 cumulative IPC: 2.31446 (Simulation time: 0 hr 2 min 21 sec) 
Heartbeat CPU 0 instructions: 110000001 cycles: 47468080 heartbeat IPC: 2.34659 cumulative IPC: 2.31735 (Simulation time: 0 hr 2 min 35 sec) 
Heartbeat CPU 0 instructions: 120000000 cycles: 51676894 heartbeat IPC: 2.37597 cumulative IPC: 2.32212 (Simulation time: 0 hr 2 min 48 sec) 
Heartbeat CPU 0 instructions: 130000003 cycles: 55870237 heartbeat IPC: 2.38473 cumulative IPC: 2.32682 (Simulation time: 0 hr 3 min 2 sec) 
Heartbeat CPU 0 instructions: 140000000 cycles: 60102311 heartbeat IPC: 2.36291 cumulative IPC: 2.32936 (Simulation time: 0 hr 3 min 16 sec) 
Heartbeat CPU 0 instructions: 150000001 cycles: 64264420 heartbeat IPC: 2.40263 cumulative IPC: 2.33411 (Simulation time: 0 hr 3 min 30 sec) 
Heartbeat CPU 0 instructions: 160000000 cycles: 68531986 heartbeat IPC: 2.34326 cumulative IPC: 2.33468 (Simulation time: 0 hr 3 min 44 sec) 
Heartbeat CPU 0 instructions: 170000003 cycles: 72753472 heartbeat IPC: 2.36883 cumulative IPC: 2.33666 (Simulation time: 0 hr 3 min 58 sec) 
Heartbeat CPU 0 instructions: 180000000 cycles: 76961066 heartbeat IPC: 2.37665 cumulative IPC: 2.33885 (Simulation time: 0 hr 4 min 12 sec) 
Heartbeat CPU 0 instructions: 190000003 cycles: 81167905 heartbeat IPC: 2.37708 cumulative IPC: 2.34083 (Simulation time: 0 hr 4 min 26 sec) 
Heartbeat CPU 0 instructions: 200000000 cycles: 85466946 heartbeat IPC: 2.3261 cumulative IPC: 2.34009 (Simulation time: 0 hr 4 min 40 sec) 

Warmup complete CPU 0 instructions: 200000001 cycles: 85466947 (Simulation time: 0 hr 4 min 40 sec) 

Heartbeat CPU 0 instructions: 210000001 cycles: 91851842 heartbeat IPC: 1.5662 cumulative IPC: 1.5662 (Simulation time: 0 hr 4 min 59 sec) 
Heartbeat CPU 0 instructions: 220000000 cycles: 98255040 heartbeat IPC: 1.56172 cumulative IPC: 1.56395 (Simulation time: 0 hr 5 min 18 sec) 
Heartbeat CPU 0 instructions: 230000003 cycles: 104643029 heartbeat IPC: 1.56544 cumulative IPC: 1.56445 (Simulation time: 0 hr 5 min 37 sec) 
Heartbeat CPU 0 instructions: 240000000 cycles: 111064673 heartbeat IPC: 1.55723 cumulative IPC: 1.56264 (Simulation time: 0 hr 5 min 55 sec) 
Heartbeat CPU 0 instructions: 250000003 cycles: 117436472 heartbeat IPC: 1.56942 cumulative IPC: 1.56399 (Simulation time: 0 hr 6 min 14 sec) 
Heartbeat CPU 0 instructions: 260000000 cycles: 123846687 heartbeat IPC: 1.56001 cumulative IPC: 1.56332 (Simulation time: 0 hr 6 min 33 sec) 
Heartbeat CPU 0 instructions: 270000000 cycles: 130220235 heartbeat IPC: 1.56898 cumulative IPC: 1.56413 (Simulation time: 0 hr 6 min 52 sec) 
Heartbeat CPU 0 instructions: 280000000 cycles: 136732907 heartbeat IPC: 1.53547 cumulative IPC: 1.56049 (Simulation time: 0 hr 7 min 10 sec) 
Heartbeat CPU 0 instructions: 290000003 cycles: 143214203 heartbeat IPC: 1.5429 cumulative IPC: 1.55852 (Simulation time: 0 hr 7 min 29 sec) 
Heartbeat CPU 0 instructions: 300000000 cycles: 149683859 heartbeat IPC: 1.54568 cumulative IPC: 1.55722 (Simulation time: 0 hr 7 min 48 sec) 
Heartbeat CPU 0 instructions: 310000000 cycles: 156080894 heartbeat IPC: 1.56322 cumulative IPC: 1.55777 (Simulation time: 0 hr 8 min 6 sec) 
Heartbeat CPU 0 instructions: 320000000 cycles: 162438784 heartbeat IPC: 1.57285 cumulative IPC: 1.55901 (Simulation time: 0 hr 8 min 25 sec) 
Heartbeat CPU 0 instructions: 330000002 cycles: 168715334 heartbeat IPC: 1.59323 cumulative IPC: 1.56159 (Simulation time: 0 hr 8 min 44 sec) 
Heartbeat CPU 0 instructions: 340000000 cycles: 174799927 heartbeat IPC: 1.64349 cumulative IPC: 1.56717 (Simulation time: 0 hr 9 min 3 sec) 
Heartbeat CPU 0 instructions: 350000003 cycles: 180805482 heartbeat IPC: 1.66513 cumulative IPC: 1.57334 (Simulation time: 0 hr 9 min 21 sec) 
Heartbeat CPU 0 instructions: 360000000 cycles: 186807684 heartbeat IPC: 1.66605 cumulative IPC: 1.57883 (Simulation time: 0 hr 9 min 40 sec) 
Heartbeat CPU 0 instructions: 370000000 cycles: 192913175 heartbeat IPC: 1.63787 cumulative IPC: 1.58219 (Simulation time: 0 hr 9 min 58 sec) 
Heartbeat CPU 0 instructions: 380000000 cycles: 199002903 heartbeat IPC: 1.64211 cumulative IPC: 1.5854 (Simulation time: 0 hr 10 min 17 sec) 
Heartbeat CPU 0 instructions: 390000002 cycles: 204966722 heartbeat IPC: 1.67678 cumulative IPC: 1.58996 (Simulation time: 0 hr 10 min 36 sec) 
Heartbeat CPU 0 instructions: 400000000 cycles: 211200143 heartbeat IPC: 1.60426 cumulative IPC: 1.59067 (Simulation time: 0 hr 10 min 54 sec) 
Heartbeat CPU 0 instructions: 410000002 cycles: 217434621 heartbeat IPC: 1.60398 cumulative IPC: 1.5913 (Simulation time: 0 hr 11 min 13 sec) 
Heartbeat CPU 0 instructions: 420000000 cycles: 223717077 heartbeat IPC: 1.59173 cumulative IPC: 1.59132 (Simulation time: 0 hr 11 min 32 sec) 
Heartbeat CPU 0 instructions: 430000000 cycles: 229740459 heartbeat IPC: 1.6602 cumulative IPC: 1.59419 (Simulation time: 0 hr 11 min 50 sec) 
Heartbeat CPU 0 instructions: 440000000 cycles: 235956871 heartbeat IPC: 1.60864 cumulative IPC: 1.59479 (Simulation time: 0 hr 12 min 9 sec) 
Heartbeat CPU 0 instructions: 450000000 cycles: 242106535 heartbeat IPC: 1.62611 cumulative IPC: 1.59602 (Simulation time: 0 hr 12 min 28 sec) 
Heartbeat CPU 0 instructions: 460000000 cycles: 248300426 heartbeat IPC: 1.61449 cumulative IPC: 1.59672 (Simulation time: 0 hr 12 min 46 sec) 
Heartbeat CPU 0 instructions: 470000003 cycles: 254524783 heartbeat IPC: 1.60659 cumulative IPC: 1.59709 (Simulation time: 0 hr 13 min 5 sec) 
Heartbeat CPU 0 instructions: 480000000 cycles: 260691814 heartbeat IPC: 1.62153 cumulative IPC: 1.59795 (Simulation time: 0 hr 13 min 24 sec) 
Heartbeat CPU 0 instructions: 490000000 cycles: 267885960 heartbeat IPC: 1.39002 cumulative IPC: 1.58975 (Simulation time: 0 hr 13 min 43 sec) 
Heartbeat CPU 0 instructions: 500000000 cycles: 274445814 heartbeat IPC: 1.52442 cumulative IPC: 1.58748 (Simulation time: 0 hr 14 min 2 sec) 
Heartbeat CPU 0 instructions: 510000002 cycles: 280955853 heartbeat IPC: 1.53609 cumulative IPC: 1.58577 (Simulation time: 0 hr 14 min 20 sec) 
Heartbeat CPU 0 instructions: 520000000 cycles: 287410618 heartbeat IPC: 1.54924 cumulative IPC: 1.5846 (Simulation time: 0 hr 14 min 39 sec) 
Heartbeat CPU 0 instructions: 530000001 cycles: 293976079 heartbeat IPC: 1.52312 cumulative IPC: 1.58266 (Simulation time: 0 hr 14 min 58 sec) 
Heartbeat CPU 0 instructions: 540000000 cycles: 300470134 heartbeat IPC: 1.53987 cumulative IPC: 1.58137 (Simulation time: 0 hr 15 min 16 sec) 
Heartbeat CPU 0 instructions: 550000002 cycles: 306931383 heartbeat IPC: 1.54769 cumulative IPC: 1.58039 (Simulation time: 0 hr 15 min 35 sec) 
Heartbeat CPU 0 instructions: 560000000 cycles: 313946427 heartbeat IPC: 1.42551 cumulative IPC: 1.57563 (Simulation time: 0 hr 15 min 54 sec) 
Heartbeat CPU 0 instructions: 570000000 cycles: 320272081 heartbeat IPC: 1.58086 cumulative IPC: 1.57577 (Simulation time: 0 hr 16 min 13 sec) 
Heartbeat CPU 0 instructions: 580000000 cycles: 326678111 heartbeat IPC: 1.56103 cumulative IPC: 1.57538 (Simulation time: 0 hr 16 min 31 sec) 
Heartbeat CPU 0 instructions: 590000003 cycles: 334155585 heartbeat IPC: 1.33735 cumulative IPC: 1.56823 (Simulation time: 0 hr 16 min 51 sec) 
Heartbeat CPU 0 instructions: 600000000 cycles: 340283106 heartbeat IPC: 1.63198 cumulative IPC: 1.56976 (Simulation time: 0 hr 17 min 10 sec) 
Heartbeat CPU 0 instructions: 610000002 cycles: 346524235 heartbeat IPC: 1.60227 cumulative IPC: 1.57054 (Simulation time: 0 hr 17 min 28 sec) 
Heartbeat CPU 0 instructions: 620000000 cycles: 352628972 heartbeat IPC: 1.63807 cumulative IPC: 1.57208 (Simulation time: 0 hr 17 min 47 sec) 
Heartbeat CPU 0 instructions: 630000003 cycles: 359524141 heartbeat IPC: 1.45029 cumulative IPC: 1.56902 (Simulation time: 0 hr 18 min 6 sec) 
Heartbeat CPU 0 instructions: 640000000 cycles: 366502798 heartbeat IPC: 1.43294 cumulative IPC: 1.56564 (Simulation time: 0 hr 18 min 25 sec) 
Heartbeat CPU 0 instructions: 650000000 cycles: 372732234 heartbeat IPC: 1.60528 cumulative IPC: 1.5665 (Simulation time: 0 hr 18 min 44 sec) 
Heartbeat CPU 0 instructions: 660000000 cycles: 379707046 heartbeat IPC: 1.43373 cumulative IPC: 1.56335 (Simulation time: 0 hr 19 min 3 sec) 
Heartbeat CPU 0 instructions: 670000001 cycles: 386203477 heartbeat IPC: 1.53931 cumulative IPC: 1.56283 (Simulation time: 0 hr 19 min 22 sec) 
Heartbeat CPU 0 instructions: 680000000 cycles: 392713435 heartbeat IPC: 1.53611 cumulative IPC: 1.56226 (Simulation time: 0 hr 19 min 40 sec) 
Heartbeat CPU 0 instructions: 690000003 cycles: 399219701 heartbeat IPC: 1.53698 cumulative IPC: 1.56174 (Simulation time: 0 hr 19 min 59 sec) 
Heartbeat CPU 0 instructions: 700000000 cycles: 405693568 heartbeat IPC: 1.54467 cumulative IPC: 1.56139 (Simulation time: 0 hr 20 min 17 sec) 
Heartbeat CPU 0 instructions: 710000000 cycles: 412720156 heartbeat IPC: 1.42317 cumulative IPC: 1.55843 (Simulation time: 0 hr 20 min 36 sec) 
Heartbeat CPU 0 instructions: 720000000 cycles: 419786454 heartbeat IPC: 1.41517 cumulative IPC: 1.5554 (Simulation time: 0 hr 20 min 56 sec) 
Heartbeat CPU 0 instructions: 730000002 cycles: 426222488 heartbeat IPC: 1.55375 cumulative IPC: 1.55537 (Simulation time: 0 hr 21 min 14 sec) 
Heartbeat CPU 0 instructions: 740000000 cycles: 432672326 heartbeat IPC: 1.55043 cumulative IPC: 1.55528 (Simulation time: 0 hr 21 min 33 sec) 
Heartbeat CPU 0 instructions: 750000001 cycles: 439680661 heartbeat IPC: 1.42687 cumulative IPC: 1.55273 (Simulation time: 0 hr 21 min 52 sec) 
Heartbeat CPU 0 instructions: 760000000 cycles: 446119079 heartbeat IPC: 1.55318 cumulative IPC: 1.55274 (Simulation time: 0 hr 22 min 11 sec) 
Heartbeat CPU 0 instructions: 770000000 cycles: 452530485 heartbeat IPC: 1.55972 cumulative IPC: 1.55286 (Simulation time: 0 hr 22 min 29 sec) 
Heartbeat CPU 0 instructions: 780000000 cycles: 458937687 heartbeat IPC: 1.56074 cumulative IPC: 1.553 (Simulation time: 0 hr 22 min 48 sec) 
Heartbeat CPU 0 instructions: 790000000 cycles: 466636533 heartbeat IPC: 1.2989 cumulative IPC: 1.54787 (Simulation time: 0 hr 23 min 7 sec) 
Heartbeat CPU 0 instructions: 800000000 cycles: 473849771 heartbeat IPC: 1.38634 cumulative IPC: 1.54487 (Simulation time: 0 hr 23 min 27 sec) 
Heartbeat CPU 0 instructions: 810000002 cycles: 480739904 heartbeat IPC: 1.45135 cumulative IPC: 1.54324 (Simulation time: 0 hr 23 min 46 sec) 
Heartbeat CPU 0 instructions: 820000000 cycles: 487123848 heartbeat IPC: 1.56643 cumulative IPC: 1.54361 (Simulation time: 0 hr 24 min 5 sec) 
Heartbeat CPU 0 instructions: 830000003 cycles: 494062973 heartbeat IPC: 1.4411 cumulative IPC: 1.54187 (Simulation time: 0 hr 24 min 24 sec) 
Heartbeat CPU 0 instructions: 840000000 cycles: 500484097 heartbeat IPC: 1.55736 cumulative IPC: 1.5421 (Simulation time: 0 hr 24 min 43 sec) 
Heartbeat CPU 0 instructions: 850000000 cycles: 507438982 heartbeat IPC: 1.43784 cumulative IPC: 1.54039 (Simulation time: 0 hr 25 min 2 sec) 
Heartbeat CPU 0 instructions: 860000000 cycles: 514434737 heartbeat IPC: 1.42944 cumulative IPC: 1.53858 (Simulation time: 0 hr 25 min 21 sec) 
Heartbeat CPU 0 instructions: 870000000 cycles: 523769973 heartbeat IPC: 1.07121 cumulative IPC: 1.52862 (Simulation time: 0 hr 25 min 42 sec) 
Heartbeat CPU 0 instructions: 880000000 cycles: 531832752 heartbeat IPC: 1.24027 cumulative IPC: 1.52341 (Simulation time: 0 hr 26 min 2 sec) 
Heartbeat CPU 0 instructions: 890000000 cycles: 538094769 heartbeat IPC: 1.59693 cumulative IPC: 1.52443 (Simulation time: 0 hr 26 min 21 sec) 
Heartbeat CPU 0 instructions: 900000000 cycles: 544360976 heartbeat IPC: 1.59586 cumulative IPC: 1.52541 (Simulation time: 0 hr 26 min 40 sec) 
Heartbeat CPU 0 instructions: 910000002 cycles: 550555438 heartbeat IPC: 1.61435 cumulative IPC: 1.52659 (Simulation time: 0 hr 27 min 0 sec) 
Heartbeat CPU 0 instructions: 920000000 cycles: 556823873 heartbeat IPC: 1.59529 cumulative IPC: 1.5275 (Simulation time: 0 hr 27 min 19 sec) 
Heartbeat CPU 0 instructions: 930000001 cycles: 563077460 heartbeat IPC: 1.59908 cumulative IPC: 1.52844 (Simulation time: 0 hr 27 min 38 sec) 
Heartbeat CPU 0 instructions: 940000000 cycles: 569322384 heartbeat IPC: 1.6013 cumulative IPC: 1.52938 (Simulation time: 0 hr 27 min 57 sec) 
Heartbeat CPU 0 instructions: 950000002 cycles: 575607269 heartbeat IPC: 1.59112 cumulative IPC: 1.53017 (Simulation time: 0 hr 28 min 16 sec) 
Heartbeat CPU 0 instructions: 960000000 cycles: 583147504 heartbeat IPC: 1.32622 cumulative IPC: 1.52708 (Simulation time: 0 hr 28 min 36 sec) 
Heartbeat CPU 0 instructions: 970000002 cycles: 589401149 heartbeat IPC: 1.59907 cumulative IPC: 1.52798 (Simulation time: 0 hr 28 min 55 sec) 
Heartbeat CPU 0 instructions: 980000000 cycles: 595731655 heartbeat IPC: 1.57965 cumulative IPC: 1.52862 (Simulation time: 0 hr 29 min 14 sec) 
Heartbeat CPU 0 instructions: 990000002 cycles: 602599787 heartbeat IPC: 1.456 cumulative IPC: 1.52765 (Simulation time: 0 hr 29 min 33 sec) 
Heartbeat CPU 0 instructions: 1000000000 cycles: 608903541 heartbeat IPC: 1.58636 cumulative IPC: 1.52836 (Simulation time: 0 hr 29 min 52 sec) 
Heartbeat CPU 0 instructions: 1010000000 cycles: 615283273 heartbeat IPC: 1.56746 cumulative IPC: 1.52883 (Simulation time: 0 hr 30 min 11 sec) 
Heartbeat CPU 0 instructions: 1020000000 cycles: 622162001 heartbeat IPC: 1.45376 cumulative IPC: 1.52787 (Simulation time: 0 hr 30 min 30 sec) 
Heartbeat CPU 0 instructions: 1030000000 cycles: 628379735 heartbeat IPC: 1.6083 cumulative IPC: 1.52879 (Simulation time: 0 hr 30 min 49 sec) 
Heartbeat CPU 0 instructions: 1040000000 cycles: 634795664 heartbeat IPC: 1.55862 cumulative IPC: 1.52914 (Simulation time: 0 hr 31 min 8 sec) 
Heartbeat CPU 0 instructions: 1050000001 cycles: 642561332 heartbeat IPC: 1.28772 cumulative IPC: 1.52577 (Simulation time: 0 hr 31 min 28 sec) 
Heartbeat CPU 0 instructions: 1060000000 cycles: 648998363 heartbeat IPC: 1.55351 cumulative IPC: 1.52609 (Simulation time: 0 hr 31 min 47 sec) 
Heartbeat CPU 0 instructions: 1070000002 cycles: 655425690 heartbeat IPC: 1.55586 cumulative IPC: 1.52643 (Simulation time: 0 hr 32 min 6 sec) 
Heartbeat CPU 0 instructions: 1080000000 cycles: 661707775 heartbeat IPC: 1.59183 cumulative IPC: 1.52714 (Simulation time: 0 hr 32 min 25 sec) 
Heartbeat CPU 0 instructions: 1090000003 cycles: 668770988 heartbeat IPC: 1.41579 cumulative IPC: 1.52579 (Simulation time: 0 hr 32 min 45 sec) 
Heartbeat CPU 0 instructions: 1100000000 cycles: 675239042 heartbeat IPC: 1.54606 cumulative IPC: 1.52601 (Simulation time: 0 hr 33 min 4 sec) 
Heartbeat CPU 0 instructions: 1110000002 cycles: 682345008 heartbeat IPC: 1.40727 cumulative IPC: 1.5246 (Simulation time: 0 hr 33 min 23 sec) 
Heartbeat CPU 0 instructions: 1120000000 cycles: 688785813 heartbeat IPC: 1.5526 cumulative IPC: 1.5249 (Simulation time: 0 hr 33 min 42 sec) 
Heartbeat CPU 0 instructions: 1130000001 cycles: 695768759 heartbeat IPC: 1.43206 cumulative IPC: 1.52384 (Simulation time: 0 hr 34 min 2 sec) 
Heartbeat CPU 0 instructions: 1140000000 cycles: 702183876 heartbeat IPC: 1.55882 cumulative IPC: 1.5242 (Simulation time: 0 hr 34 min 21 sec) 
Heartbeat CPU 0 instructions: 1150000000 cycles: 709128941 heartbeat IPC: 1.43987 cumulative IPC: 1.52326 (Simulation time: 0 hr 34 min 40 sec) 
Heartbeat CPU 0 instructions: 1160000000 cycles: 715872460 heartbeat IPC: 1.48291 cumulative IPC: 1.52283 (Simulation time: 0 hr 34 min 59 sec) 
Heartbeat CPU 0 instructions: 1170000002 cycles: 722635942 heartbeat IPC: 1.47853 cumulative IPC: 1.52236 (Simulation time: 0 hr 35 min 17 sec) 
Heartbeat CPU 0 instructions: 1180000000 cycles: 729487812 heartbeat IPC: 1.45946 cumulative IPC: 1.52169 (Simulation time: 0 hr 35 min 36 sec) 
Heartbeat CPU 0 instructions: 1190000000 cycles: 736596014 heartbeat IPC: 1.40683 cumulative IPC: 1.52044 (Simulation time: 0 hr 35 min 55 sec) 
Heartbeat CPU 0 instructions: 1200000000 cycles: 744043966 heartbeat IPC: 1.34265 cumulative IPC: 1.51843 (Simulation time: 0 hr 36 min 15 sec) 
Finished CPU 0 instructions: 1000000000 cycles: 658577027 cumulative IPC: 1.51843 (Simulation time: 0 hr 36 min 15 sec) 

CPU 0 Branch Prediction Accuracy: 96.8129% MPKI: 4.43772

ChampSim completed all CPUs

Region of Interest Statistics

CPU 0 cumulative IPC: 1.51843 instructions: 1000000000 cycles: 658577027
L1D TOTAL     ACCESS:  278180161  HIT:  278180125  MISS:         36
L1D LOAD      ACCESS:  121349871  HIT:  121349853  MISS:         18
L1D RFO       ACCESS:  156830290  HIT:  156830272  MISS:         18
L1D PREFETCH  ACCESS:          0  HIT:          0  MISS:          0
L1D WRITEBACK ACCESS:          0  HIT:          0  MISS:          0
L1D PREFETCH  REQUESTED:          0  ISSUED:          0  USEFUL:          0  USELESS:          0
L1I TOTAL     ACCESS:  219088084  HIT:  219043720  MISS:      44364
L1I LOAD      ACCESS:  219088084  HIT:  219043720  MISS:      44364
L1I RFO       ACCESS:          0  HIT:          0  MISS:          0
L1I PREFETCH  ACCESS:          0  HIT:          0  MISS:          0
L1I WRITEBACK ACCESS:          0  HIT:          0  MISS:          0
L1I PREFETCH  REQUESTED:          0  ISSUED:          0  USEFUL:          0  USELESS:          0
L2C TOTAL     ACCESS:     106689  HIT:     106522  MISS:        167
L2C LOAD      ACCESS:      44382  HIT:      44250  MISS:        132
L2C RFO       ACCESS:         18  HIT:          0  MISS:         18
L2C PREFETCH  ACCESS:      62289  HIT:      62272  MISS:         17
L2C WRITEBACK ACCESS:          0  HIT:          0  MISS:          0
L2C PREFETCH  REQUESTED:     135949  ISSUED:     135949  USEFUL:        167  USELESS:          0
LLC TOTAL     ACCESS:       6567  HIT:       6348  MISS:        219
LLC LOAD      ACCESS:        130  HIT:         87  MISS:         43
LLC RFO       ACCESS:         18  HIT:          0  MISS:         18
LLC PREFETCH  ACCESS:       6419  HIT:       6261  MISS:        158
LLC WRITEBACK ACCESS:          0  HIT:          0  MISS:          0
LLC PREFETCH  REQUESTED:          0  ISSUED:          0  USEFUL:        803  USELESS:          0
Major fault: 0 Minor fault: 49

DRAM Statistics
 CHANNEL 0
 RQ ROW_BUFFER_HIT:        173  ROW_BUFFER_MISS:         46
 DBUS_CONGESTED:        120
 WQ ROW_BUFFER_HIT:          0  ROW_BUFFER_MISS:          0  FULL:          0

 AVG_CONGESTED_CYCLE: 67
