Initialize SIGNATURE TABLE
ST_SET: 1
ST_WAY: 256
ST_TAG_BIT: 16
ST_TAG_MASK: ffff

Initialize PATTERN TABLE
PT_SET: 512
PT_WAY: 4
SIG_DELTA_BIT: 7
C_SIG_BIT: 4
C_DELTA_BIT: 4

Initialize PREFETCH FILTER
FILTER_SET: 1024

*** ChampSim Multicore Out-of-Order Simulator ***

Warmup Instructions: 200000000
Simulation Instructions: 1000000000
Number of CPUs: 4
LLC sets: 8192
LLC ways: 16
Off-chip DRAM Size: 8192 MB Channels: 2 Width: 64-bit Data Rate: 1600 MT/s

CPU 0 runs /scratch/user/djimenez/champsim-traces/speccpu2017/xz/648.exchange2_s/648.exchange2_s-1227B.champsimtrace.xz
CPU 1 runs /scratch/user/djimenez/champsim-traces/speccpu2017/xz/605.mcf_s/605.mcf_s-1152B.champsimtrace.xz
CPU 2 runs /scratch/user/djimenez/champsim-traces/speccpu2017/xz/648.exchange2_s/648.exchange2_s-72B.champsimtrace.xz
CPU 3 runs /scratch/user/djimenez/champsim-traces/speccpu2017/xz/619.lbm_s/619.lbm_s-2676B.champsimtrace.xz
Heartbeat CPU 2 instructions: 10000000 cycles: 4333485 heartbeat IPC: 2.30761 cumulative IPC: 2.30761 (Simulation time: 0 hr 1 min 23 sec) 
Heartbeat CPU 0 instructions: 10000000 cycles: 4414254 heartbeat IPC: 2.26539 cumulative IPC: 2.26539 (Simulation time: 0 hr 1 min 25 sec) 
Heartbeat CPU 3 instructions: 10000000 cycles: 4848555 heartbeat IPC: 2.06247 cumulative IPC: 2.06247 (Simulation time: 0 hr 1 min 33 sec) 
Heartbeat CPU 1 instructions: 10000001 cycles: 6532123 heartbeat IPC: 1.5309 cumulative IPC: 1.5309 (Simulation time: 0 hr 2 min 5 sec) 
Heartbeat CPU 2 instructions: 20000000 cycles: 8670671 heartbeat IPC: 2.30564 cumulative IPC: 2.30663 (Simulation time: 0 hr 2 min 46 sec) 
Heartbeat CPU 0 instructions: 20000000 cycles: 8775221 heartbeat IPC: 2.29307 cumulative IPC: 2.27914 (Simulation time: 0 hr 2 min 48 sec) 
Heartbeat CPU 3 instructions: 20000000 cycles: 9675655 heartbeat IPC: 2.07164 cumulative IPC: 2.06704 (Simulation time: 0 hr 3 min 5 sec) 
Heartbeat CPU 2 instructions: 30000000 cycles: 13001054 heartbeat IPC: 2.30926 cumulative IPC: 2.30751 (Simulation time: 0 hr 4 min 7 sec) 
Heartbeat CPU 1 instructions: 20000000 cycles: 13067051 heartbeat IPC: 1.53024 cumulative IPC: 1.53057 (Simulation time: 0 hr 4 min 9 sec) 
Heartbeat CPU 0 instructions: 30000000 cycles: 13113917 heartbeat IPC: 2.30484 cumulative IPC: 2.28765 (Simulation time: 0 hr 4 min 9 sec) 
Heartbeat CPU 3 instructions: 30000003 cycles: 14476995 heartbeat IPC: 2.08275 cumulative IPC: 2.07225 (Simulation time: 0 hr 4 min 34 sec) 
Heartbeat CPU 2 instructions: 40000000 cycles: 17294999 heartbeat IPC: 2.32886 cumulative IPC: 2.31281 (Simulation time: 0 hr 5 min 25 sec) 
Heartbeat CPU 0 instructions: 40000000 cycles: 17455387 heartbeat IPC: 2.30337 cumulative IPC: 2.29156 (Simulation time: 0 hr 5 min 28 sec) 
Heartbeat CPU 3 instructions: 40000000 cycles: 19226726 heartbeat IPC: 2.10538 cumulative IPC: 2.08044 (Simulation time: 0 hr 5 min 59 sec) 
Heartbeat CPU 1 instructions: 30000001 cycles: 19588629 heartbeat IPC: 1.53337 cumulative IPC: 1.5315 (Simulation time: 0 hr 6 min 6 sec) 
Heartbeat CPU 0 instructions: 50000003 cycles: 21590127 heartbeat IPC: 2.41853 cumulative IPC: 2.31587 (Simulation time: 0 hr 6 min 42 sec) 
Heartbeat CPU 2 instructions: 50000001 cycles: 21641804 heartbeat IPC: 2.30054 cumulative IPC: 2.31034 (Simulation time: 0 hr 6 min 43 sec) 
Heartbeat CPU 3 instructions: 50000002 cycles: 23930832 heartbeat IPC: 2.1258 cumulative IPC: 2.08935 (Simulation time: 0 hr 7 min 23 sec) 
Heartbeat CPU 0 instructions: 60000000 cycles: 25919827 heartbeat IPC: 2.30963 cumulative IPC: 2.31483 (Simulation time: 0 hr 7 min 59 sec) 
Heartbeat CPU 2 instructions: 60000000 cycles: 25993874 heartbeat IPC: 2.29776 cumulative IPC: 2.30824 (Simulation time: 0 hr 8 min 1 sec) 
Heartbeat CPU 1 instructions: 40000000 cycles: 26117156 heartbeat IPC: 1.53174 cumulative IPC: 1.53156 (Simulation time: 0 hr 8 min 3 sec) 
Heartbeat CPU 3 instructions: 60000000 cycles: 28585693 heartbeat IPC: 2.14829 cumulative IPC: 2.09895 (Simulation time: 0 hr 8 min 48 sec) 
Heartbeat CPU 2 instructions: 70000003 cycles: 30285422 heartbeat IPC: 2.33016 cumulative IPC: 2.31134 (Simulation time: 0 hr 9 min 19 sec) 
Heartbeat CPU 0 instructions: 70000000 cycles: 30306371 heartbeat IPC: 2.2797 cumulative IPC: 2.30975 (Simulation time: 0 hr 9 min 19 sec) 
Heartbeat CPU 1 instructions: 50000000 cycles: 32638728 heartbeat IPC: 1.53337 cumulative IPC: 1.53192 (Simulation time: 0 hr 10 min 1 sec) 
Heartbeat CPU 3 instructions: 70000000 cycles: 33197747 heartbeat IPC: 2.16823 cumulative IPC: 2.10858 (Simulation time: 0 hr 10 min 12 sec) 
Heartbeat CPU 2 instructions: 80000000 cycles: 34633715 heartbeat IPC: 2.29975 cumulative IPC: 2.30989 (Simulation time: 0 hr 10 min 38 sec) 
Heartbeat CPU 0 instructions: 80000000 cycles: 34638692 heartbeat IPC: 2.30823 cumulative IPC: 2.30956 (Simulation time: 0 hr 10 min 38 sec) 
Heartbeat CPU 3 instructions: 80000000 cycles: 37732757 heartbeat IPC: 2.20507 cumulative IPC: 2.12017 (Simulation time: 0 hr 11 min 34 sec) 
Heartbeat CPU 0 instructions: 90000003 cycles: 38925912 heartbeat IPC: 2.33251 cumulative IPC: 2.31208 (Simulation time: 0 hr 11 min 56 sec) 
Heartbeat CPU 2 instructions: 90000001 cycles: 38934328 heartbeat IPC: 2.32525 cumulative IPC: 2.31158 (Simulation time: 0 hr 11 min 56 sec) 
Heartbeat CPU 1 instructions: 60000000 cycles: 39152726 heartbeat IPC: 1.53516 cumulative IPC: 1.53246 (Simulation time: 0 hr 12 min 0 sec) 
Heartbeat CPU 3 instructions: 90000000 cycles: 42265238 heartbeat IPC: 2.2063 cumulative IPC: 2.12941 (Simulation time: 0 hr 12 min 57 sec) 
Heartbeat CPU 2 instructions: 100000000 cycles: 43206657 heartbeat IPC: 2.34064 cumulative IPC: 2.31446 (Simulation time: 0 hr 13 min 14 sec) 
Heartbeat CPU 0 instructions: 100000000 cycles: 43300120 heartbeat IPC: 2.28613 cumulative IPC: 2.30946 (Simulation time: 0 hr 13 min 16 sec) 
Heartbeat CPU 1 instructions: 70000000 cycles: 45682726 heartbeat IPC: 1.53139 cumulative IPC: 1.53231 (Simulation time: 0 hr 14 min 1 sec) 
Heartbeat CPU 3 instructions: 100000000 cycles: 46750336 heartbeat IPC: 2.22961 cumulative IPC: 2.13902 (Simulation time: 0 hr 14 min 22 sec) 
Heartbeat CPU 2 instructions: 110000001 cycles: 47468152 heartbeat IPC: 2.34659 cumulative IPC: 2.31734 (Simulation time: 0 hr 14 min 36 sec) 
Heartbeat CPU 0 instructions: 110000000 cycles: 47608775 heartbeat IPC: 2.32091 cumulative IPC: 2.3105 (Simulation time: 0 hr 14 min 39 sec) 
Heartbeat CPU 3 instructions: 110000001 cycles: 51219430 heartbeat IPC: 2.23759 cumulative IPC: 2.14762 (Simulation time: 0 hr 15 min 50 sec) 
Heartbeat CPU 2 instructions: 120000000 cycles: 51676966 heartbeat IPC: 2.37597 cumulative IPC: 2.32212 (Simulation time: 0 hr 15 min 59 sec) 
Heartbeat CPU 0 instructions: 120000000 cycles: 51962829 heartbeat IPC: 2.29671 cumulative IPC: 2.30934 (Simulation time: 0 hr 16 min 4 sec) 
Heartbeat CPU 1 instructions: 80000000 cycles: 52185776 heartbeat IPC: 1.53774 cumulative IPC: 1.53298 (Simulation time: 0 hr 16 min 9 sec) 
Heartbeat CPU 3 instructions: 120000000 cycles: 55652744 heartbeat IPC: 2.25565 cumulative IPC: 2.15623 (Simulation time: 0 hr 17 min 17 sec) 
Heartbeat CPU 2 instructions: 130000003 cycles: 55870309 heartbeat IPC: 2.38473 cumulative IPC: 2.32682 (Simulation time: 0 hr 17 min 21 sec) 
Heartbeat CPU 0 instructions: 130000003 cycles: 56368119 heartbeat IPC: 2.27 cumulative IPC: 2.30627 (Simulation time: 0 hr 17 min 31 sec) 
Heartbeat CPU 1 instructions: 90000002 cycles: 58683699 heartbeat IPC: 1.53895 cumulative IPC: 1.53365 (Simulation time: 0 hr 18 min 16 sec) 
Heartbeat CPU 3 instructions: 130000001 cycles: 60058035 heartbeat IPC: 2.27 cumulative IPC: 2.16457 (Simulation time: 0 hr 18 min 43 sec) 
Heartbeat CPU 2 instructions: 140000000 cycles: 60102383 heartbeat IPC: 2.36291 cumulative IPC: 2.32936 (Simulation time: 0 hr 18 min 44 sec) 
Heartbeat CPU 0 instructions: 140000000 cycles: 60705259 heartbeat IPC: 2.30567 cumulative IPC: 2.30623 (Simulation time: 0 hr 18 min 56 sec) 
Heartbeat CPU 2 instructions: 150000001 cycles: 64264492 heartbeat IPC: 2.40263 cumulative IPC: 2.3341 (Simulation time: 0 hr 20 min 6 sec) 
Heartbeat CPU 3 instructions: 140000000 cycles: 64456140 heartbeat IPC: 2.27371 cumulative IPC: 2.17202 (Simulation time: 0 hr 20 min 10 sec) 
Heartbeat CPU 0 instructions: 150000003 cycles: 65048620 heartbeat IPC: 2.30237 cumulative IPC: 2.30597 (Simulation time: 0 hr 20 min 21 sec) 
Heartbeat CPU 1 instructions: 100000000 cycles: 65169128 heartbeat IPC: 1.54192 cumulative IPC: 1.53447 (Simulation time: 0 hr 20 min 24 sec) 
Heartbeat CPU 2 instructions: 160000000 cycles: 68532058 heartbeat IPC: 2.34326 cumulative IPC: 2.33467 (Simulation time: 0 hr 21 min 29 sec) 
Heartbeat CPU 3 instructions: 150000002 cycles: 68828042 heartbeat IPC: 2.28733 cumulative IPC: 2.17934 (Simulation time: 0 hr 21 min 35 sec) 
Heartbeat CPU 0 instructions: 160000000 cycles: 69440468 heartbeat IPC: 2.27695 cumulative IPC: 2.30413 (Simulation time: 0 hr 21 min 46 sec) 
Heartbeat CPU 1 instructions: 110000000 cycles: 71647825 heartbeat IPC: 1.54352 cumulative IPC: 1.53529 (Simulation time: 0 hr 22 min 29 sec) 
Heartbeat CPU 2 instructions: 170000003 cycles: 72753544 heartbeat IPC: 2.36883 cumulative IPC: 2.33666 (Simulation time: 0 hr 22 min 51 sec) 
Heartbeat CPU 3 instructions: 160000000 cycles: 73174032 heartbeat IPC: 2.30097 cumulative IPC: 2.18657 (Simulation time: 0 hr 22 min 59 sec) 
Heartbeat CPU 0 instructions: 170000003 cycles: 73781198 heartbeat IPC: 2.30376 cumulative IPC: 2.30411 (Simulation time: 0 hr 23 min 11 sec) 
Heartbeat CPU 2 instructions: 180000000 cycles: 76961138 heartbeat IPC: 2.37665 cumulative IPC: 2.33884 (Simulation time: 0 hr 24 min 15 sec) 
Heartbeat CPU 3 instructions: 170000003 cycles: 77515460 heartbeat IPC: 2.30339 cumulative IPC: 2.19311 (Simulation time: 0 hr 24 min 26 sec) 
Heartbeat CPU 1 instructions: 120000000 cycles: 78121369 heartbeat IPC: 1.54475 cumulative IPC: 1.53607 (Simulation time: 0 hr 24 min 38 sec) 
Heartbeat CPU 0 instructions: 180000000 cycles: 78168955 heartbeat IPC: 2.27907 cumulative IPC: 2.3027 (Simulation time: 0 hr 24 min 39 sec) 
Heartbeat CPU 2 instructions: 190000003 cycles: 81167977 heartbeat IPC: 2.37708 cumulative IPC: 2.34082 (Simulation time: 0 hr 25 min 37 sec) 
Heartbeat CPU 3 instructions: 180000000 cycles: 81855863 heartbeat IPC: 2.30393 cumulative IPC: 2.19899 (Simulation time: 0 hr 25 min 50 sec) 
Heartbeat CPU 0 instructions: 190000000 cycles: 82562009 heartbeat IPC: 2.27632 cumulative IPC: 2.3013 (Simulation time: 0 hr 26 min 3 sec) 
Heartbeat CPU 1 instructions: 130000001 cycles: 84562287 heartbeat IPC: 1.55257 cumulative IPC: 1.53733 (Simulation time: 0 hr 26 min 41 sec) 
Heartbeat CPU 2 instructions: 200000000 cycles: 85467018 heartbeat IPC: 2.3261 cumulative IPC: 2.34008 (Simulation time: 0 hr 26 min 57 sec) 
Heartbeat CPU 3 instructions: 190000002 cycles: 86174403 heartbeat IPC: 2.3156 cumulative IPC: 2.20483 (Simulation time: 0 hr 27 min 11 sec) 
Heartbeat CPU 0 instructions: 200000000 cycles: 86950103 heartbeat IPC: 2.27889 cumulative IPC: 2.30017 (Simulation time: 0 hr 27 min 25 sec) 
Heartbeat CPU 2 instructions: 210000000 cycles: 89755405 heartbeat IPC: 2.33188 cumulative IPC: 0.111414 (Simulation time: 0 hr 28 min 17 sec) 
Heartbeat CPU 3 instructions: 200000000 cycles: 90488839 heartbeat IPC: 2.3178 cumulative IPC: 2.21022 (Simulation time: 0 hr 28 min 31 sec) 
Heartbeat CPU 1 instructions: 140000000 cycles: 90985315 heartbeat IPC: 1.5569 cumulative IPC: 1.53871 (Simulation time: 0 hr 28 min 40 sec) 
Heartbeat CPU 0 instructions: 210000000 cycles: 91302058 heartbeat IPC: 2.29782 cumulative IPC: 0.109527 (Simulation time: 0 hr 28 min 46 sec) 
Heartbeat CPU 2 instructions: 220000000 cycles: 94074243 heartbeat IPC: 2.31544 cumulative IPC: 0.212598 (Simulation time: 0 hr 29 min 37 sec) 
Heartbeat CPU 3 instructions: 210000000 cycles: 94788822 heartbeat IPC: 2.32559 cumulative IPC: 0.105498 (Simulation time: 0 hr 29 min 50 sec) 
Heartbeat CPU 0 instructions: 220000000 cycles: 95686793 heartbeat IPC: 2.28064 cumulative IPC: 0.209015 (Simulation time: 0 hr 30 min 7 sec) 
Heartbeat CPU 1 instructions: 150000000 cycles: 97322236 heartbeat IPC: 1.57805 cumulative IPC: 1.54127 (Simulation time: 0 hr 30 min 37 sec) 
Heartbeat CPU 2 instructions: 230000003 cycles: 98395050 heartbeat IPC: 2.31438 cumulative IPC: 0.304893 (Simulation time: 0 hr 30 min 56 sec) 
Heartbeat CPU 3 instructions: 220000000 cycles: 99092307 heartbeat IPC: 2.3237 cumulative IPC: 0.201832 (Simulation time: 0 hr 31 min 9 sec) 
Heartbeat CPU 0 instructions: 230000003 cycles: 100034426 heartbeat IPC: 2.3001 cumulative IPC: 0.299897 (Simulation time: 0 hr 31 min 27 sec) 
Heartbeat CPU 2 instructions: 240000000 cycles: 102659016 heartbeat IPC: 2.34523 cumulative IPC: 0.389639 (Simulation time: 0 hr 32 min 16 sec) 
Heartbeat CPU 3 instructions: 230000001 cycles: 103385272 heartbeat IPC: 2.32939 cumulative IPC: 0.290177 (Simulation time: 0 hr 32 min 29 sec) 
Heartbeat CPU 1 instructions: 160000000 cycles: 103588269 heartbeat IPC: 1.59591 cumulative IPC: 1.54458 (Simulation time: 0 hr 32 min 33 sec) 
Heartbeat CPU 0 instructions: 240000000 cycles: 104351917 heartbeat IPC: 2.31616 cumulative IPC: 0.383318 (Simulation time: 0 hr 32 min 49 sec) 
Heartbeat CPU 2 instructions: 250000001 cycles: 106911155 heartbeat IPC: 2.35176 cumulative IPC: 0.467678 (Simulation time: 0 hr 33 min 40 sec) 
Heartbeat CPU 3 instructions: 240000000 cycles: 107683382 heartbeat IPC: 2.3266 cumulative IPC: 0.371459 (Simulation time: 0 hr 33 min 56 sec) 
Heartbeat CPU 0 instructions: 250000001 cycles: 108670897 heartbeat IPC: 2.31536 cumulative IPC: 0.460105 (Simulation time: 0 hr 34 min 16 sec) 
Heartbeat CPU 1 instructions: 170000000 cycles: 109833890 heartbeat IPC: 1.60112 cumulative IPC: 1.54779 (Simulation time: 0 hr 34 min 39 sec) 
Heartbeat CPU 2 instructions: 260000000 cycles: 111204093 heartbeat IPC: 2.32941 cumulative IPC: 0.539548 (Simulation time: 0 hr 35 min 7 sec) 
Heartbeat CPU 3 instructions: 250000002 cycles: 111976516 heartbeat IPC: 2.3293 cumulative IPC: 0.446522 (Simulation time: 0 hr 35 min 23 sec) 
Heartbeat CPU 0 instructions: 260000000 cycles: 113058379 heartbeat IPC: 2.27921 cumulative IPC: 0.530699 (Simulation time: 0 hr 35 min 45 sec) 
Heartbeat CPU 2 instructions: 270000000 cycles: 115507579 heartbeat IPC: 2.3237 cumulative IPC: 0.606021 (Simulation time: 0 hr 36 min 35 sec) 
Heartbeat CPU 1 instructions: 180000000 cycles: 115976293 heartbeat IPC: 1.62803 cumulative IPC: 1.55204 (Simulation time: 0 hr 36 min 44 sec) 
Heartbeat CPU 3 instructions: 260000000 cycles: 116269462 heartbeat IPC: 2.3294 cumulative IPC: 0.516043 (Simulation time: 0 hr 36 min 50 sec) 
Heartbeat CPU 0 instructions: 270000000 cycles: 117415303 heartbeat IPC: 2.2952 cumulative IPC: 0.596174 (Simulation time: 0 hr 37 min 12 sec) 
Heartbeat CPU 2 instructions: 280000000 cycles: 119827874 heartbeat IPC: 2.31466 cumulative IPC: 0.667624 (Simulation time: 0 hr 37 min 59 sec) 
Heartbeat CPU 3 instructions: 270000003 cycles: 120552808 heartbeat IPC: 2.33462 cumulative IPC: 0.580658 (Simulation time: 0 hr 38 min 14 sec) 
Heartbeat CPU 0 instructions: 280000000 cycles: 121771380 heartbeat IPC: 2.29564 cumulative IPC: 0.656969 (Simulation time: 0 hr 38 min 39 sec) 
Heartbeat CPU 1 instructions: 190000001 cycles: 122160035 heartbeat IPC: 1.61714 cumulative IPC: 1.55534 (Simulation time: 0 hr 38 min 46 sec) 
Heartbeat CPU 2 instructions: 290000003 cycles: 124153587 heartbeat IPC: 2.31176 cumulative IPC: 0.724909 (Simulation time: 0 hr 39 min 26 sec) 
Heartbeat CPU 3 instructions: 280000000 cycles: 124839825 heartbeat IPC: 2.33262 cumulative IPC: 0.640821 (Simulation time: 0 hr 39 min 40 sec) 
Heartbeat CPU 0 instructions: 290000000 cycles: 126096576 heartbeat IPC: 2.31203 cumulative IPC: 0.713739 (Simulation time: 0 hr 40 min 6 sec) 
Heartbeat CPU 1 instructions: 200000000 cycles: 128362115 heartbeat IPC: 1.61236 cumulative IPC: 1.55809 (Simulation time: 0 hr 40 min 51 sec) 

Warmup complete CPU 0 instructions: 295290771 cycles: 128362116 (Simulation time: 0 hr 40 min 51 sec) 
Warmup complete CPU 1 instructions: 200000001 cycles: 128362116 (Simulation time: 0 hr 40 min 51 sec) 
Warmup complete CPU 2 instructions: 299735297 cycles: 128362115 (Simulation time: 0 hr 40 min 51 sec) 
Warmup complete CPU 3 instructions: 288232255 cycles: 128362115 (Simulation time: 0 hr 40 min 51 sec) 

Heartbeat CPU 2 instructions: 300000000 cycles: 128529072 heartbeat IPC: 2.28546 cumulative IPC: 1.58546 (Simulation time: 0 hr 40 min 53 sec) 
Heartbeat CPU 3 instructions: 290000000 cycles: 130020798 heartbeat IPC: 1.93014 cumulative IPC: 1.06575 (Simulation time: 0 hr 41 min 16 sec) 
Heartbeat CPU 0 instructions: 300000000 cycles: 132027640 heartbeat IPC: 1.68604 cumulative IPC: 1.28474 (Simulation time: 0 hr 41 min 51 sec) 
Heartbeat CPU 2 instructions: 310000000 cycles: 134926107 heartbeat IPC: 1.56322 cumulative IPC: 1.56379 (Simulation time: 0 hr 42 min 28 sec) 
Heartbeat CPU 0 instructions: 310000001 cycles: 139562797 heartbeat IPC: 1.32711 cumulative IPC: 1.31324 (Simulation time: 0 hr 43 min 31 sec) 
Heartbeat CPU 3 instructions: 300000000 cycles: 139893016 heartbeat IPC: 1.01294 cumulative IPC: 1.02054 (Simulation time: 0 hr 43 min 37 sec) 
Heartbeat CPU 2 instructions: 320000000 cycles: 141283997 heartbeat IPC: 1.57285 cumulative IPC: 1.56825 (Simulation time: 0 hr 43 min 58 sec) 
Heartbeat CPU 0 instructions: 320000000 cycles: 146077571 heartbeat IPC: 1.53497 cumulative IPC: 1.39478 (Simulation time: 0 hr 44 min 59 sec) 
Heartbeat CPU 2 instructions: 330000002 cycles: 147560547 heartbeat IPC: 1.59323 cumulative IPC: 1.57642 (Simulation time: 0 hr 45 min 17 sec) 
Heartbeat CPU 3 instructions: 310000002 cycles: 149803273 heartbeat IPC: 1.00906 cumulative IPC: 1.01523 (Simulation time: 0 hr 45 min 44 sec) 
Heartbeat CPU 0 instructions: 330000002 cycles: 153133050 heartbeat IPC: 1.41734 cumulative IPC: 1.40121 (Simulation time: 0 hr 46 min 26 sec) 
Heartbeat CPU 2 instructions: 340000000 cycles: 153645140 heartbeat IPC: 1.64349 cumulative IPC: 1.59256 (Simulation time: 0 hr 46 min 33 sec) 
Heartbeat CPU 2 instructions: 350000003 cycles: 159650695 heartbeat IPC: 1.66513 cumulative IPC: 1.60649 (Simulation time: 0 hr 47 min 46 sec) 
Heartbeat CPU 3 instructions: 320000000 cycles: 159779270 heartbeat IPC: 1.00241 cumulative IPC: 1.01116 (Simulation time: 0 hr 47 min 47 sec) 
Heartbeat CPU 0 instructions: 340000000 cycles: 160884308 heartbeat IPC: 1.29011 cumulative IPC: 1.37473 (Simulation time: 0 hr 48 min 1 sec) 
Heartbeat CPU 2 instructions: 360000000 cycles: 165652897 heartbeat IPC: 1.66605 cumulative IPC: 1.61608 (Simulation time: 0 hr 48 min 55 sec) 
Heartbeat CPU 0 instructions: 350000000 cycles: 168965082 heartbeat IPC: 1.23751 cumulative IPC: 1.34742 (Simulation time: 0 hr 49 min 34 sec) 
Heartbeat CPU 3 instructions: 330000003 cycles: 169607374 heartbeat IPC: 1.01749 cumulative IPC: 1.01267 (Simulation time: 0 hr 49 min 43 sec) 
Heartbeat CPU 2 instructions: 370000000 cycles: 171758388 heartbeat IPC: 1.63787 cumulative IPC: 1.61914 (Simulation time: 0 hr 50 min 10 sec) 
Heartbeat CPU 1 instructions: 210000002 cycles: 172635943 heartbeat IPC: 0.225867 cumulative IPC: 0.225867 (Simulation time: 0 hr 50 min 20 sec) 
Heartbeat CPU 0 instructions: 360000000 cycles: 175467984 heartbeat IPC: 1.53778 cumulative IPC: 1.3737 (Simulation time: 0 hr 50 min 56 sec) 
Heartbeat CPU 2 instructions: 380000000 cycles: 177848116 heartbeat IPC: 1.64211 cumulative IPC: 1.62197 (Simulation time: 0 hr 51 min 27 sec) 
Heartbeat CPU 3 instructions: 340000000 cycles: 179509963 heartbeat IPC: 1.00984 cumulative IPC: 1.01212 (Simulation time: 0 hr 51 min 47 sec) 
Heartbeat CPU 0 instructions: 370000003 cycles: 183075135 heartbeat IPC: 1.31455 cumulative IPC: 1.36547 (Simulation time: 0 hr 52 min 30 sec) 
Heartbeat CPU 2 instructions: 390000002 cycles: 183811935 heartbeat IPC: 1.67678 cumulative IPC: 1.62786 (Simulation time: 0 hr 52 min 38 sec) 
Heartbeat CPU 3 instructions: 350000000 cycles: 189356939 heartbeat IPC: 1.01554 cumulative IPC: 1.01267 (Simulation time: 0 hr 53 min 45 sec) 
Heartbeat CPU 2 instructions: 400000000 cycles: 190045356 heartbeat IPC: 1.60426 cumulative IPC: 1.62548 (Simulation time: 0 hr 53 min 54 sec) 
Heartbeat CPU 0 instructions: 380000000 cycles: 190955095 heartbeat IPC: 1.26904 cumulative IPC: 1.35333 (Simulation time: 0 hr 54 min 4 sec) 
Heartbeat CPU 2 instructions: 410000002 cycles: 196279834 heartbeat IPC: 1.60398 cumulative IPC: 1.6235 (Simulation time: 0 hr 55 min 10 sec) 
Heartbeat CPU 0 instructions: 390000001 cycles: 197632088 heartbeat IPC: 1.49768 cumulative IPC: 1.36725 (Simulation time: 0 hr 55 min 27 sec) 
Heartbeat CPU 3 instructions: 360000000 cycles: 199263162 heartbeat IPC: 1.00947 cumulative IPC: 1.01222 (Simulation time: 0 hr 55 min 46 sec) 
Heartbeat CPU 2 instructions: 420000000 cycles: 202562290 heartbeat IPC: 1.59173 cumulative IPC: 1.62081 (Simulation time: 0 hr 56 min 26 sec) 
Heartbeat CPU 0 instructions: 400000000 cycles: 205160860 heartbeat IPC: 1.32824 cumulative IPC: 1.36342 (Simulation time: 0 hr 56 min 57 sec) 
Heartbeat CPU 2 instructions: 430000000 cycles: 208585672 heartbeat IPC: 1.6602 cumulative IPC: 1.62377 (Simulation time: 0 hr 57 min 40 sec) 
Heartbeat CPU 3 instructions: 370000002 cycles: 209218868 heartbeat IPC: 1.00445 cumulative IPC: 1.01127 (Simulation time: 0 hr 57 min 47 sec) 
Heartbeat CPU 0 instructions: 410000002 cycles: 212655960 heartbeat IPC: 1.33421 cumulative IPC: 1.36083 (Simulation time: 0 hr 58 min 28 sec) 
Heartbeat CPU 2 instructions: 440000000 cycles: 214802084 heartbeat IPC: 1.60864 cumulative IPC: 1.62268 (Simulation time: 0 hr 58 min 54 sec) 
Heartbeat CPU 1 instructions: 220000000 cycles: 216717872 heartbeat IPC: 0.22685 cumulative IPC: 0.226358 (Simulation time: 0 hr 59 min 18 sec) 
Heartbeat CPU 3 instructions: 380000000 cycles: 219060544 heartbeat IPC: 1.01609 cumulative IPC: 1.01179 (Simulation time: 0 hr 59 min 45 sec) 
Heartbeat CPU 0 instructions: 420000000 cycles: 220715776 heartbeat IPC: 1.24072 cumulative IPC: 1.35034 (Simulation time: 1 hr 0 min 4 sec) 
Heartbeat CPU 2 instructions: 450000000 cycles: 220951748 heartbeat IPC: 1.62611 cumulative IPC: 1.62291 (Simulation time: 1 hr 0 min 7 sec) 
Heartbeat CPU 2 instructions: 460000000 cycles: 227145639 heartbeat IPC: 1.61449 cumulative IPC: 1.62238 (Simulation time: 1 hr 1 min 21 sec) 
Heartbeat CPU 0 instructions: 430000000 cycles: 228812336 heartbeat IPC: 1.23509 cumulative IPC: 1.34105 (Simulation time: 1 hr 1 min 41 sec) 
Heartbeat CPU 3 instructions: 390000001 cycles: 229007316 heartbeat IPC: 1.00535 cumulative IPC: 1.01115 (Simulation time: 1 hr 1 min 43 sec) 
Heartbeat CPU 2 instructions: 470000003 cycles: 233369996 heartbeat IPC: 1.60659 cumulative IPC: 1.62145 (Simulation time: 1 hr 2 min 36 sec) 
Heartbeat CPU 0 instructions: 440000000 cycles: 236876788 heartbeat IPC: 1.24001 cumulative IPC: 1.33355 (Simulation time: 1 hr 3 min 17 sec) 
Heartbeat CPU 3 instructions: 400000000 cycles: 238811793 heartbeat IPC: 1.01994 cumulative IPC: 1.01193 (Simulation time: 1 hr 3 min 39 sec) 
Heartbeat CPU 2 instructions: 480000000 cycles: 239537027 heartbeat IPC: 1.62153 cumulative IPC: 1.62145 (Simulation time: 1 hr 3 min 47 sec) 
Heartbeat CPU 0 instructions: 450000001 cycles: 246666736 heartbeat IPC: 1.02146 cumulative IPC: 1.30772 (Simulation time: 1 hr 5 min 5 sec) 
Heartbeat CPU 2 instructions: 490000000 cycles: 246730611 heartbeat IPC: 1.39013 cumulative IPC: 1.60739 (Simulation time: 1 hr 5 min 6 sec) 
Heartbeat CPU 3 instructions: 410000003 cycles: 248747181 heartbeat IPC: 1.0065 cumulative IPC: 1.01149 (Simulation time: 1 hr 5 min 30 sec) 
Heartbeat CPU 2 instructions: 500000000 cycles: 253290465 heartbeat IPC: 1.52442 cumulative IPC: 1.60304 (Simulation time: 1 hr 6 min 25 sec) 
Heartbeat CPU 0 instructions: 460000000 cycles: 253459855 heartbeat IPC: 1.47208 cumulative IPC: 1.31664 (Simulation time: 1 hr 6 min 27 sec) 
Heartbeat CPU 3 instructions: 420000000 cycles: 258593699 heartbeat IPC: 1.01559 cumulative IPC: 1.0118 (Simulation time: 1 hr 7 min 27 sec) 
Heartbeat CPU 2 instructions: 510000002 cycles: 259800504 heartbeat IPC: 1.53609 cumulative IPC: 1.59972 (Simulation time: 1 hr 7 min 42 sec) 
Heartbeat CPU 1 instructions: 230000000 cycles: 260867956 heartbeat IPC: 0.2265 cumulative IPC: 0.226405 (Simulation time: 1 hr 7 min 54 sec) 
Heartbeat CPU 0 instructions: 470000000 cycles: 261074000 heartbeat IPC: 1.31335 cumulative IPC: 1.31646 (Simulation time: 1 hr 7 min 58 sec) 
Heartbeat CPU 2 instructions: 520000000 cycles: 266255269 heartbeat IPC: 1.54924 cumulative IPC: 1.59736 (Simulation time: 1 hr 9 min 1 sec) 
Heartbeat CPU 3 instructions: 430000002 cycles: 268554299 heartbeat IPC: 1.00396 cumulative IPC: 1.01124 (Simulation time: 1 hr 9 min 27 sec) 
Heartbeat CPU 0 instructions: 480000000 cycles: 269470075 heartbeat IPC: 1.19103 cumulative IPC: 1.30899 (Simulation time: 1 hr 9 min 38 sec) 
Heartbeat CPU 2 instructions: 530000001 cycles: 272820730 heartbeat IPC: 1.52312 cumulative IPC: 1.59398 (Simulation time: 1 hr 10 min 21 sec) 
Heartbeat CPU 0 instructions: 490000000 cycles: 276128781 heartbeat IPC: 1.50179 cumulative IPC: 1.31768 (Simulation time: 1 hr 10 min 59 sec) 
Heartbeat CPU 3 instructions: 440000000 cycles: 278391116 heartbeat IPC: 1.01659 cumulative IPC: 1.01159 (Simulation time: 1 hr 11 min 23 sec) 
Heartbeat CPU 2 instructions: 540000000 cycles: 279314785 heartbeat IPC: 1.53987 cumulative IPC: 1.59166 (Simulation time: 1 hr 11 min 33 sec) 
Heartbeat CPU 0 instructions: 500000000 cycles: 285173328 heartbeat IPC: 1.10564 cumulative IPC: 1.30545 (Simulation time: 1 hr 12 min 36 sec) 
Heartbeat CPU 2 instructions: 550000002 cycles: 285776034 heartbeat IPC: 1.54769 cumulative IPC: 1.58985 (Simulation time: 1 hr 12 min 43 sec) 
Heartbeat CPU 3 instructions: 450000002 cycles: 288300812 heartbeat IPC: 1.00911 cumulative IPC: 1.01144 (Simulation time: 1 hr 13 min 11 sec) 
Heartbeat CPU 2 instructions: 560000000 cycles: 292791188 heartbeat IPC: 1.42549 cumulative IPC: 1.58284 (Simulation time: 1 hr 13 min 57 sec) 
Heartbeat CPU 0 instructions: 510000000 cycles: 292843660 heartbeat IPC: 1.30372 cumulative IPC: 1.30537 (Simulation time: 1 hr 13 min 57 sec) 
Heartbeat CPU 3 instructions: 460000000 cycles: 298191488 heartbeat IPC: 1.01105 cumulative IPC: 1.01141 (Simulation time: 1 hr 14 min 57 sec) 
Heartbeat CPU 2 instructions: 570000000 cycles: 299116842 heartbeat IPC: 1.58086 cumulative IPC: 1.58277 (Simulation time: 1 hr 15 min 8 sec) 
Heartbeat CPU 0 instructions: 520000000 cycles: 299426579 heartbeat IPC: 1.51908 cumulative IPC: 1.31359 (Simulation time: 1 hr 15 min 12 sec) 
Heartbeat CPU 2 instructions: 580000000 cycles: 305524117 heartbeat IPC: 1.56073 cumulative IPC: 1.58197 (Simulation time: 1 hr 16 min 20 sec) 
Heartbeat CPU 0 instructions: 530000001 cycles: 306547665 heartbeat IPC: 1.40428 cumulative IPC: 1.31722 (Simulation time: 1 hr 16 min 31 sec) 
Heartbeat CPU 3 instructions: 470000001 cycles: 308193709 heartbeat IPC: 0.999778 cumulative IPC: 1.01077 (Simulation time: 1 hr 16 min 49 sec) 
Heartbeat CPU 1 instructions: 240000000 cycles: 309633078 heartbeat IPC: 0.205065 cumulative IPC: 0.220664 (Simulation time: 1 hr 17 min 5 sec) 
Heartbeat CPU 2 instructions: 590000003 cycles: 313003432 heartbeat IPC: 1.33702 cumulative IPC: 1.57205 (Simulation time: 1 hr 17 min 44 sec) 
Heartbeat CPU 0 instructions: 540000000 cycles: 313116264 heartbeat IPC: 1.52239 cumulative IPC: 1.32451 (Simulation time: 1 hr 17 min 46 sec) 
Heartbeat CPU 3 instructions: 480000000 cycles: 318011180 heartbeat IPC: 1.01859 cumulative IPC: 1.01117 (Simulation time: 1 hr 18 min 42 sec) 
Heartbeat CPU 2 instructions: 600000000 cycles: 319130953 heartbeat IPC: 1.63198 cumulative IPC: 1.57397 (Simulation time: 1 hr 18 min 56 sec) 
Heartbeat CPU 0 instructions: 550000003 cycles: 319928319 heartbeat IPC: 1.46799 cumulative IPC: 1.32961 (Simulation time: 1 hr 19 min 6 sec) 
Heartbeat CPU 2 instructions: 610000002 cycles: 325372082 heartbeat IPC: 1.60227 cumulative IPC: 1.57487 (Simulation time: 1 hr 20 min 12 sec) 
Heartbeat CPU 0 instructions: 560000000 cycles: 325921003 heartbeat IPC: 1.6687 cumulative IPC: 1.3399 (Simulation time: 1 hr 20 min 19 sec) 
Heartbeat CPU 3 instructions: 490000001 cycles: 327770921 heartbeat IPC: 1.02462 cumulative IPC: 1.01183 (Simulation time: 1 hr 20 min 41 sec) 
Heartbeat CPU 2 instructions: 620000000 cycles: 331476819 heartbeat IPC: 1.63807 cumulative IPC: 1.57677 (Simulation time: 1 hr 21 min 27 sec) 
Heartbeat CPU 0 instructions: 570000000 cycles: 331898970 heartbeat IPC: 1.67281 cumulative IPC: 1.34968 (Simulation time: 1 hr 21 min 32 sec) 
Heartbeat CPU 0 instructions: 580000000 cycles: 337891617 heartbeat IPC: 1.66871 cumulative IPC: 1.3588 (Simulation time: 1 hr 22 min 40 sec) 
Heartbeat CPU 2 instructions: 630000003 cycles: 338372715 heartbeat IPC: 1.45014 cumulative IPC: 1.57261 (Simulation time: 1 hr 22 min 44 sec) 
Heartbeat CPU 2 instructions: 640000000 cycles: 345351372 heartbeat IPC: 1.43294 cumulative IPC: 1.56812 (Simulation time: 1 hr 23 min 42 sec) 
Heartbeat CPU 3 instructions: 500000000 cycles: 345996153 heartbeat IPC: 0.54869 cumulative IPC: 0.973045 (Simulation time: 1 hr 23 min 48 sec) 
Heartbeat CPU 0 instructions: 590000000 cycles: 346412632 heartbeat IPC: 1.17357 cumulative IPC: 1.35156 (Simulation time: 1 hr 23 min 52 sec) 
Heartbeat CPU 2 instructions: 650000000 cycles: 351580808 heartbeat IPC: 1.60528 cumulative IPC: 1.56915 (Simulation time: 1 hr 24 min 42 sec) 
Heartbeat CPU 0 instructions: 600000000 cycles: 352559885 heartbeat IPC: 1.62674 cumulative IPC: 1.35911 (Simulation time: 1 hr 24 min 52 sec) 
Heartbeat CPU 1 instructions: 250000000 cycles: 357881399 heartbeat IPC: 0.207261 cumulative IPC: 0.217847 (Simulation time: 1 hr 25 min 41 sec) 
Heartbeat CPU 2 instructions: 660000000 cycles: 358555805 heartbeat IPC: 1.43369 cumulative IPC: 1.56505 (Simulation time: 1 hr 25 min 47 sec) 
Heartbeat CPU 0 instructions: 610000000 cycles: 359967648 heartbeat IPC: 1.34994 cumulative IPC: 1.35882 (Simulation time: 1 hr 26 min 0 sec) 
Heartbeat CPU 2 instructions: 670000001 cycles: 365052236 heartbeat IPC: 1.53931 cumulative IPC: 1.56434 (Simulation time: 1 hr 26 min 47 sec) 
Heartbeat CPU 0 instructions: 620000000 cycles: 369538949 heartbeat IPC: 1.04479 cumulative IPC: 1.34635 (Simulation time: 1 hr 27 min 34 sec) 
Heartbeat CPU 3 instructions: 510000001 cycles: 370768092 heartbeat IPC: 0.403683 cumulative IPC: 0.914861 (Simulation time: 1 hr 27 min 47 sec) 
Heartbeat CPU 2 instructions: 680000000 cycles: 371562194 heartbeat IPC: 1.53611 cumulative IPC: 1.56359 (Simulation time: 1 hr 27 min 56 sec) 
Heartbeat CPU 0 instructions: 630000002 cycles: 377275315 heartbeat IPC: 1.2926 cumulative IPC: 1.34468 (Simulation time: 1 hr 29 min 4 sec) 
Heartbeat CPU 2 instructions: 690000003 cycles: 378068460 heartbeat IPC: 1.53698 cumulative IPC: 1.56289 (Simulation time: 1 hr 29 min 14 sec) 
Heartbeat CPU 3 instructions: 520000000 cycles: 380522947 heartbeat IPC: 1.02513 cumulative IPC: 0.919127 (Simulation time: 1 hr 29 min 42 sec) 
Heartbeat CPU 2 instructions: 700000000 cycles: 384542327 heartbeat IPC: 1.54467 cumulative IPC: 1.56243 (Simulation time: 1 hr 30 min 28 sec) 
Heartbeat CPU 0 instructions: 640000000 cycles: 385505606 heartbeat IPC: 1.21502 cumulative IPC: 1.34053 (Simulation time: 1 hr 30 min 39 sec) 
Heartbeat CPU 3 instructions: 530000001 cycles: 390419202 heartbeat IPC: 1.01048 cumulative IPC: 0.922577 (Simulation time: 1 hr 31 min 35 sec) 
Heartbeat CPU 2 instructions: 710000000 cycles: 391568915 heartbeat IPC: 1.42317 cumulative IPC: 1.55872 (Simulation time: 1 hr 31 min 47 sec) 
Heartbeat CPU 0 instructions: 650000001 cycles: 394099532 heartbeat IPC: 1.16361 cumulative IPC: 1.33481 (Simulation time: 1 hr 32 min 16 sec) 
Heartbeat CPU 2 instructions: 720000000 cycles: 398635964 heartbeat IPC: 1.41502 cumulative IPC: 1.55496 (Simulation time: 1 hr 33 min 10 sec) 
Heartbeat CPU 3 instructions: 540000000 cycles: 400408667 heartbeat IPC: 1.00105 cumulative IPC: 0.925458 (Simulation time: 1 hr 33 min 32 sec) 
Heartbeat CPU 1 instructions: 260000000 cycles: 401004528 heartbeat IPC: 0.231894 cumulative IPC: 0.220068 (Simulation time: 1 hr 33 min 39 sec) 
Heartbeat CPU 0 instructions: 660000000 cycles: 401338661 heartbeat IPC: 1.38138 cumulative IPC: 1.33605 (Simulation time: 1 hr 33 min 42 sec) 
Heartbeat CPU 2 instructions: 730000002 cycles: 405071998 heartbeat IPC: 1.55375 cumulative IPC: 1.55493 (Simulation time: 1 hr 34 min 26 sec) 
Heartbeat CPU 0 instructions: 670000002 cycles: 410038454 heartbeat IPC: 1.14945 cumulative IPC: 1.33028 (Simulation time: 1 hr 35 min 23 sec) 
Heartbeat CPU 3 instructions: 550000003 cycles: 410235842 heartbeat IPC: 1.01759 cumulative IPC: 0.92867 (Simulation time: 1 hr 35 min 25 sec) 
Heartbeat CPU 2 instructions: 740000000 cycles: 411521836 heartbeat IPC: 1.55043 cumulative IPC: 1.55483 (Simulation time: 1 hr 35 min 40 sec) 
Heartbeat CPU 0 instructions: 680000000 cycles: 418154829 heartbeat IPC: 1.23208 cumulative IPC: 1.32753 (Simulation time: 1 hr 36 min 56 sec) 
Heartbeat CPU 2 instructions: 750000001 cycles: 418530171 heartbeat IPC: 1.42687 cumulative IPC: 1.55174 (Simulation time: 1 hr 37 min 1 sec) 
Heartbeat CPU 3 instructions: 560000000 cycles: 420142781 heartbeat IPC: 1.00939 cumulative IPC: 0.931411 (Simulation time: 1 hr 37 min 20 sec) 
Heartbeat CPU 0 instructions: 690000003 cycles: 424506066 heartbeat IPC: 1.5745 cumulative IPC: 1.33283 (Simulation time: 1 hr 38 min 14 sec) 
Heartbeat CPU 2 instructions: 760000000 cycles: 424968589 heartbeat IPC: 1.55318 cumulative IPC: 1.55177 (Simulation time: 1 hr 38 min 20 sec) 
Heartbeat CPU 3 instructions: 570000003 cycles: 429929626 heartbeat IPC: 1.02178 cumulative IPC: 0.934344 (Simulation time: 1 hr 39 min 21 sec) 
Heartbeat CPU 0 instructions: 700000000 cycles: 430913964 heartbeat IPC: 1.56057 cumulative IPC: 1.33765 (Simulation time: 1 hr 39 min 33 sec) 
Heartbeat CPU 2 instructions: 770000000 cycles: 431379995 heartbeat IPC: 1.55972 cumulative IPC: 1.55194 (Simulation time: 1 hr 39 min 38 sec) 
Heartbeat CPU 0 instructions: 710000002 cycles: 437196323 heartbeat IPC: 1.59176 cumulative IPC: 1.34282 (Simulation time: 1 hr 40 min 50 sec) 
Heartbeat CPU 2 instructions: 780000000 cycles: 437787197 heartbeat IPC: 1.56074 cumulative IPC: 1.55212 (Simulation time: 1 hr 40 min 57 sec) 
Heartbeat CPU 3 instructions: 580000000 cycles: 439877769 heartbeat IPC: 1.00521 cumulative IPC: 0.936607 (Simulation time: 1 hr 41 min 23 sec) 
Heartbeat CPU 0 instructions: 720000000 cycles: 443610243 heartbeat IPC: 1.55911 cumulative IPC: 1.34722 (Simulation time: 1 hr 42 min 7 sec) 
Heartbeat CPU 1 instructions: 270000000 cycles: 443840146 heartbeat IPC: 0.233451 cumulative IPC: 0.221886 (Simulation time: 1 hr 42 min 9 sec) 
Heartbeat CPU 2 instructions: 790000000 cycles: 445487184 heartbeat IPC: 1.2987 cumulative IPC: 1.54597 (Simulation time: 1 hr 42 min 28 sec) 
Heartbeat CPU 3 instructions: 590000000 cycles: 449688180 heartbeat IPC: 1.01933 cumulative IPC: 0.939133 (Simulation time: 1 hr 43 min 18 sec) 
Heartbeat CPU 0 instructions: 730000000 cycles: 449841404 heartbeat IPC: 1.60484 cumulative IPC: 1.35222 (Simulation time: 1 hr 43 min 20 sec) 
Heartbeat CPU 2 instructions: 800000000 cycles: 452700532 heartbeat IPC: 1.38632 cumulative IPC: 1.54242 (Simulation time: 1 hr 43 min 55 sec) 
Heartbeat CPU 0 instructions: 740000000 cycles: 456204072 heartbeat IPC: 1.57167 cumulative IPC: 1.35647 (Simulation time: 1 hr 44 min 39 sec) 
Heartbeat CPU 2 instructions: 810000002 cycles: 459590665 heartbeat IPC: 1.45135 cumulative IPC: 1.54052 (Simulation time: 1 hr 45 min 19 sec) 
Heartbeat CPU 3 instructions: 600000000 cycles: 459668500 heartbeat IPC: 1.00197 cumulative IPC: 0.941025 (Simulation time: 1 hr 45 min 20 sec) 
Heartbeat CPU 0 instructions: 750000001 cycles: 462472113 heartbeat IPC: 1.59539 cumulative IPC: 1.36096 (Simulation time: 1 hr 45 min 55 sec) 
Heartbeat CPU 2 instructions: 820000000 cycles: 465974609 heartbeat IPC: 1.56643 cumulative IPC: 1.54101 (Simulation time: 1 hr 46 min 38 sec) 
Heartbeat CPU 0 instructions: 760000000 cycles: 468813284 heartbeat IPC: 1.577 cumulative IPC: 1.36498 (Simulation time: 1 hr 47 min 13 sec) 
Heartbeat CPU 3 instructions: 610000002 cycles: 469457218 heartbeat IPC: 1.02158 cumulative IPC: 0.943337 (Simulation time: 1 hr 47 min 21 sec) 
Heartbeat CPU 2 instructions: 830000003 cycles: 472913734 heartbeat IPC: 1.4411 cumulative IPC: 1.539 (Simulation time: 1 hr 48 min 3 sec) 
Heartbeat CPU 0 instructions: 770000003 cycles: 475122630 heartbeat IPC: 1.58495 cumulative IPC: 1.36898 (Simulation time: 1 hr 48 min 30 sec) 
Heartbeat CPU 2 instructions: 840000000 cycles: 479334858 heartbeat IPC: 1.55736 cumulative IPC: 1.53934 (Simulation time: 1 hr 49 min 22 sec) 
Heartbeat CPU 3 instructions: 620000000 cycles: 479413128 heartbeat IPC: 1.00443 cumulative IPC: 0.94507 (Simulation time: 1 hr 49 min 23 sec) 
Heartbeat CPU 0 instructions: 780000000 cycles: 481435942 heartbeat IPC: 1.58395 cumulative IPC: 1.37283 (Simulation time: 1 hr 49 min 48 sec) 
Heartbeat CPU 1 instructions: 280000000 cycles: 486075991 heartbeat IPC: 0.236766 cumulative IPC: 0.223642 (Simulation time: 1 hr 50 min 44 sec) 
Heartbeat CPU 2 instructions: 850000000 cycles: 486289743 heartbeat IPC: 1.43784 cumulative IPC: 1.53736 (Simulation time: 1 hr 50 min 47 sec) 
Heartbeat CPU 0 instructions: 790000001 cycles: 487700705 heartbeat IPC: 1.59623 cumulative IPC: 1.37672 (Simulation time: 1 hr 51 min 4 sec) 
Heartbeat CPU 3 instructions: 630000001 cycles: 489285853 heartbeat IPC: 1.01289 cumulative IPC: 0.946925 (Simulation time: 1 hr 51 min 24 sec) 
Heartbeat CPU 2 instructions: 860000000 cycles: 493285498 heartbeat IPC: 1.42944 cumulative IPC: 1.53529 (Simulation time: 1 hr 52 min 12 sec) 
Heartbeat CPU 0 instructions: 800000000 cycles: 493948584 heartbeat IPC: 1.60054 cumulative IPC: 1.38055 (Simulation time: 1 hr 52 min 19 sec) 
Heartbeat CPU 3 instructions: 640000000 cycles: 499228670 heartbeat IPC: 1.00575 cumulative IPC: 0.948502 (Simulation time: 1 hr 53 min 20 sec) 
Heartbeat CPU 0 instructions: 810000001 cycles: 500180743 heartbeat IPC: 1.60458 cumulative IPC: 1.3843 (Simulation time: 1 hr 53 min 31 sec) 
Heartbeat CPU 2 instructions: 870000000 cycles: 502620954 heartbeat IPC: 1.07118 cumulative IPC: 1.52372 (Simulation time: 1 hr 54 min 0 sec) 
Heartbeat CPU 0 instructions: 820000000 cycles: 506385636 heartbeat IPC: 1.61163 cumulative IPC: 1.38803 (Simulation time: 1 hr 54 min 44 sec) 
Heartbeat CPU 3 instructions: 650000003 cycles: 509135411 heartbeat IPC: 1.00941 cumulative IPC: 0.950087 (Simulation time: 1 hr 55 min 13 sec) 
Heartbeat CPU 2 instructions: 880000000 cycles: 510683733 heartbeat IPC: 1.24027 cumulative IPC: 1.51774 (Simulation time: 1 hr 55 min 31 sec) 
Heartbeat CPU 0 instructions: 830000002 cycles: 512707995 heartbeat IPC: 1.58169 cumulative IPC: 1.39122 (Simulation time: 1 hr 55 min 55 sec) 
Heartbeat CPU 2 instructions: 890000000 cycles: 516945750 heartbeat IPC: 1.59693 cumulative IPC: 1.51902 (Simulation time: 1 hr 56 min 46 sec) 
Heartbeat CPU 0 instructions: 840000000 cycles: 518951103 heartbeat IPC: 1.60177 cumulative IPC: 1.39458 (Simulation time: 1 hr 57 min 11 sec) 
Heartbeat CPU 3 instructions: 660000000 cycles: 518959679 heartbeat IPC: 1.01789 cumulative IPC: 0.951792 (Simulation time: 1 hr 57 min 11 sec) 
Heartbeat CPU 2 instructions: 900000000 cycles: 523211957 heartbeat IPC: 1.59586 cumulative IPC: 1.52024 (Simulation time: 1 hr 58 min 4 sec) 
Heartbeat CPU 0 instructions: 850000001 cycles: 525224140 heartbeat IPC: 1.59412 cumulative IPC: 1.39774 (Simulation time: 1 hr 58 min 30 sec) 
Heartbeat CPU 1 instructions: 290000000 cycles: 528760722 heartbeat IPC: 0.234276 cumulative IPC: 0.224776 (Simulation time: 1 hr 59 min 14 sec) 
Heartbeat CPU 3 instructions: 670000002 cycles: 529081428 heartbeat IPC: 0.987972 cumulative IPC: 0.952706 (Simulation time: 1 hr 59 min 18 sec) 
Heartbeat CPU 2 instructions: 910000002 cycles: 529406419 heartbeat IPC: 1.61435 cumulative IPC: 1.52169 (Simulation time: 1 hr 59 min 22 sec) 
Heartbeat CPU 0 instructions: 860000000 cycles: 531540874 heartbeat IPC: 1.5831 cumulative IPC: 1.40064 (Simulation time: 1 hr 59 min 48 sec) 
Heartbeat CPU 2 instructions: 920000000 cycles: 535674854 heartbeat IPC: 1.59529 cumulative IPC: 1.52282 (Simulation time: 2 hr 0 min 39 sec) 
Heartbeat CPU 0 instructions: 870000001 cycles: 537842048 heartbeat IPC: 1.58701 cumulative IPC: 1.40351 (Simulation time: 2 hr 1 min 6 sec) 
Heartbeat CPU 3 instructions: 680000000 cycles: 539670281 heartbeat IPC: 0.944389 cumulative IPC: 0.952492 (Simulation time: 2 hr 1 min 29 sec) 
Heartbeat CPU 2 instructions: 930000001 cycles: 541928441 heartbeat IPC: 1.59908 cumulative IPC: 1.52397 (Simulation time: 2 hr 1 min 56 sec) 
Heartbeat CPU 0 instructions: 880000000 cycles: 544855661 heartbeat IPC: 1.4258 cumulative IPC: 1.40389 (Simulation time: 2 hr 2 min 30 sec) 
Heartbeat CPU 2 instructions: 940000000 cycles: 548173365 heartbeat IPC: 1.6013 cumulative IPC: 1.52513 (Simulation time: 2 hr 3 min 6 sec) 
Heartbeat CPU 3 instructions: 690000001 cycles: 551180582 heartbeat IPC: 0.868787 cumulative IPC: 0.950213 (Simulation time: 2 hr 3 min 41 sec) 
Heartbeat CPU 0 instructions: 890000001 cycles: 552687177 heartbeat IPC: 1.27689 cumulative IPC: 1.40154 (Simulation time: 2 hr 3 min 59 sec) 
Heartbeat CPU 2 instructions: 950000002 cycles: 554458250 heartbeat IPC: 1.59112 cumulative IPC: 1.5261 (Simulation time: 2 hr 4 min 20 sec) 
Heartbeat CPU 0 instructions: 900000000 cycles: 558889834 heartbeat IPC: 1.61221 cumulative IPC: 1.40458 (Simulation time: 2 hr 5 min 11 sec) 
Heartbeat CPU 2 instructions: 960000000 cycles: 561998678 heartbeat IPC: 1.32618 cumulative IPC: 1.52262 (Simulation time: 2 hr 5 min 47 sec) 
Heartbeat CPU 3 instructions: 700000000 cycles: 563636565 heartbeat IPC: 0.802827 cumulative IPC: 0.945996 (Simulation time: 2 hr 6 min 6 sec) 
Heartbeat CPU 0 instructions: 910000003 cycles: 565208503 heartbeat IPC: 1.58261 cumulative IPC: 1.40715 (Simulation time: 2 hr 6 min 24 sec) 
Heartbeat CPU 2 instructions: 970000002 cycles: 568252323 heartbeat IPC: 1.59907 cumulative IPC: 1.52371 (Simulation time: 2 hr 7 min 0 sec) 
Heartbeat CPU 0 instructions: 920000000 cycles: 571453987 heartbeat IPC: 1.60116 cumulative IPC: 1.40989 (Simulation time: 2 hr 7 min 37 sec) 
Heartbeat CPU 1 instructions: 300000000 cycles: 571900461 heartbeat IPC: 0.231805 cumulative IPC: 0.22546 (Simulation time: 2 hr 7 min 42 sec) 
Heartbeat CPU 2 instructions: 980000000 cycles: 574582829 heartbeat IPC: 1.57965 cumulative IPC: 1.5245 (Simulation time: 2 hr 8 min 14 sec) 
Heartbeat CPU 0 instructions: 930000001 cycles: 577767624 heartbeat IPC: 1.58387 cumulative IPC: 1.41233 (Simulation time: 2 hr 8 min 50 sec) 
Heartbeat CPU 3 instructions: 710000002 cycles: 577792878 heartbeat IPC: 0.706399 cumulative IPC: 0.938449 (Simulation time: 2 hr 8 min 51 sec) 
Heartbeat CPU 2 instructions: 990000002 cycles: 581450961 heartbeat IPC: 1.456 cumulative IPC: 1.52346 (Simulation time: 2 hr 9 min 32 sec) 
Heartbeat CPU 0 instructions: 940000000 cycles: 584138726 heartbeat IPC: 1.56959 cumulative IPC: 1.41453 (Simulation time: 2 hr 10 min 2 sec) 
Heartbeat CPU 2 instructions: 1000000000 cycles: 587754715 heartbeat IPC: 1.58636 cumulative IPC: 1.52433 (Simulation time: 2 hr 10 min 43 sec) 
Heartbeat CPU 0 instructions: 950000002 cycles: 590455574 heartbeat IPC: 1.58307 cumulative IPC: 1.41683 (Simulation time: 2 hr 11 min 14 sec) 
Heartbeat CPU 2 instructions: 1010000000 cycles: 594134447 heartbeat IPC: 1.56746 cumulative IPC: 1.52492 (Simulation time: 2 hr 11 min 56 sec) 
Heartbeat CPU 3 instructions: 720000000 cycles: 594186411 heartbeat IPC: 0.609996 cumulative IPC: 0.92689 (Simulation time: 2 hr 11 min 57 sec) 
Heartbeat CPU 0 instructions: 960000000 cycles: 596863399 heartbeat IPC: 1.56059 cumulative IPC: 1.4188 (Simulation time: 2 hr 12 min 26 sec) 
Heartbeat CPU 2 instructions: 1020000000 cycles: 601013175 heartbeat IPC: 1.45376 cumulative IPC: 1.52388 (Simulation time: 2 hr 13 min 11 sec) 
Heartbeat CPU 0 instructions: 970000003 cycles: 603105498 heartbeat IPC: 1.60203 cumulative IPC: 1.42121 (Simulation time: 2 hr 13 min 34 sec) 
Heartbeat CPU 2 instructions: 1030000000 cycles: 607230909 heartbeat IPC: 1.6083 cumulative IPC: 1.52498 (Simulation time: 2 hr 14 min 20 sec) 
Heartbeat CPU 0 instructions: 980000000 cycles: 609490400 heartbeat IPC: 1.56619 cumulative IPC: 1.42313 (Simulation time: 2 hr 14 min 47 sec) 
Heartbeat CPU 2 instructions: 1040000000 cycles: 613647553 heartbeat IPC: 1.55845 cumulative IPC: 1.52542 (Simulation time: 2 hr 15 min 31 sec) 
Heartbeat CPU 3 instructions: 730000002 cycles: 614784941 heartbeat IPC: 0.485472 cumulative IPC: 0.908197 (Simulation time: 2 hr 15 min 42 sec) 
Heartbeat CPU 0 instructions: 990000000 cycles: 615801656 heartbeat IPC: 1.58447 cumulative IPC: 1.42522 (Simulation time: 2 hr 15 min 51 sec) 
Heartbeat CPU 1 instructions: 310000003 cycles: 617111650 heartbeat IPC: 0.221184 cumulative IPC: 0.225064 (Simulation time: 2 hr 16 min 4 sec) 
Heartbeat CPU 2 instructions: 1050000001 cycles: 621413221 heartbeat IPC: 1.28772 cumulative IPC: 1.52168 (Simulation time: 2 hr 16 min 48 sec) 
Heartbeat CPU 0 instructions: 1000000000 cycles: 622009435 heartbeat IPC: 1.61088 cumulative IPC: 1.42756 (Simulation time: 2 hr 16 min 54 sec) 
Heartbeat CPU 2 instructions: 1060000000 cycles: 627850252 heartbeat IPC: 1.55351 cumulative IPC: 1.52209 (Simulation time: 2 hr 17 min 55 sec) 
Heartbeat CPU 0 instructions: 1010000001 cycles: 628251231 heartbeat IPC: 1.6021 cumulative IPC: 1.42974 (Simulation time: 2 hr 17 min 59 sec) 
Heartbeat CPU 2 instructions: 1070000002 cycles: 634277579 heartbeat IPC: 1.55586 cumulative IPC: 1.52252 (Simulation time: 2 hr 19 min 1 sec) 
Heartbeat CPU 0 instructions: 1020000000 cycles: 634426404 heartbeat IPC: 1.61939 cumulative IPC: 1.43205 (Simulation time: 2 hr 19 min 2 sec) 
Heartbeat CPU 3 instructions: 740000000 cycles: 637639409 heartbeat IPC: 0.437551 cumulative IPC: 0.887076 (Simulation time: 2 hr 19 min 35 sec) 
Heartbeat CPU 2 instructions: 1080000000 cycles: 640559664 heartbeat IPC: 1.59183 cumulative IPC: 1.52337 (Simulation time: 2 hr 20 min 6 sec) 
Heartbeat CPU 0 instructions: 1030000000 cycles: 640735957 heartbeat IPC: 1.5849 cumulative IPC: 1.43393 (Simulation time: 2 hr 20 min 8 sec) 
Heartbeat CPU 0 instructions: 1040000000 cycles: 646996976 heartbeat IPC: 1.59718 cumulative IPC: 1.4359 (Simulation time: 2 hr 21 min 10 sec) 
Heartbeat CPU 2 instructions: 1090000003 cycles: 647622849 heartbeat IPC: 1.41579 cumulative IPC: 1.5219 (Simulation time: 2 hr 21 min 16 sec) 
Heartbeat CPU 0 instructions: 1050000000 cycles: 653208903 heartbeat IPC: 1.60981 cumulative IPC: 1.43796 (Simulation time: 2 hr 22 min 14 sec) 
Heartbeat CPU 2 instructions: 1100000000 cycles: 654090903 heartbeat IPC: 1.54606 cumulative IPC: 1.5222 (Simulation time: 2 hr 22 min 24 sec) 
Heartbeat CPU 0 instructions: 1060000000 cycles: 659451221 heartbeat IPC: 1.60197 cumulative IPC: 1.43989 (Simulation time: 2 hr 23 min 20 sec) 
Heartbeat CPU 3 instructions: 750000000 cycles: 660975280 heartbeat IPC: 0.428525 cumulative IPC: 0.866985 (Simulation time: 2 hr 23 min 36 sec) 
Heartbeat CPU 2 instructions: 1110000002 cycles: 661196869 heartbeat IPC: 1.40727 cumulative IPC: 1.52067 (Simulation time: 2 hr 23 min 39 sec) 
Heartbeat CPU 1 instructions: 320000000 cycles: 662980533 heartbeat IPC: 0.218013 cumulative IPC: 0.224459 (Simulation time: 2 hr 23 min 58 sec) 
Heartbeat CPU 0 instructions: 1070000002 cycles: 665722068 heartbeat IPC: 1.59468 cumulative IPC: 1.4417 (Simulation time: 2 hr 24 min 28 sec) 
Heartbeat CPU 2 instructions: 1120000000 cycles: 667637674 heartbeat IPC: 1.5526 cumulative IPC: 1.52105 (Simulation time: 2 hr 24 min 49 sec) 
Heartbeat CPU 0 instructions: 1080000000 cycles: 671945256 heartbeat IPC: 1.60689 cumulative IPC: 1.44359 (Simulation time: 2 hr 25 min 37 sec) 
Heartbeat CPU 2 instructions: 1130000001 cycles: 674620620 heartbeat IPC: 1.43206 cumulative IPC: 1.51991 (Simulation time: 2 hr 26 min 5 sec) 
Heartbeat CPU 0 instructions: 1090000002 cycles: 678157989 heartbeat IPC: 1.6096 cumulative IPC: 1.44546 (Simulation time: 2 hr 26 min 44 sec) 
Heartbeat CPU 2 instructions: 1140000000 cycles: 681035737 heartbeat IPC: 1.55882 cumulative IPC: 1.52036 (Simulation time: 2 hr 27 min 15 sec) 
Heartbeat CPU 3 instructions: 760000000 cycles: 683244027 heartbeat IPC: 0.44906 cumulative IPC: 0.850213 (Simulation time: 2 hr 27 min 40 sec) 
Heartbeat CPU 0 instructions: 1100000000 cycles: 684463350 heartbeat IPC: 1.58595 cumulative IPC: 1.44706 (Simulation time: 2 hr 27 min 53 sec) 
Heartbeat CPU 2 instructions: 1150000000 cycles: 687981383 heartbeat IPC: 1.43975 cumulative IPC: 1.51936 (Simulation time: 2 hr 28 min 26 sec) 
Heartbeat CPU 0 instructions: 1110000001 cycles: 693611825 heartbeat IPC: 1.09308 cumulative IPC: 1.44133 (Simulation time: 2 hr 29 min 27 sec) 
Heartbeat CPU 2 instructions: 1160000000 cycles: 694724902 heartbeat IPC: 1.48291 cumulative IPC: 1.51893 (Simulation time: 2 hr 29 min 37 sec) 
Heartbeat CPU 2 instructions: 1170000002 cycles: 701488384 heartbeat IPC: 1.47853 cumulative IPC: 1.51845 (Simulation time: 2 hr 30 min 46 sec) 
Heartbeat CPU 0 instructions: 1120000000 cycles: 702286683 heartbeat IPC: 1.15276 cumulative IPC: 1.43696 (Simulation time: 2 hr 30 min 55 sec) 
Heartbeat CPU 3 instructions: 770000000 cycles: 704166117 heartbeat IPC: 0.477964 cumulative IPC: 0.836687 (Simulation time: 2 hr 31 min 17 sec) 
Heartbeat CPU 1 instructions: 330000002 cycles: 708300966 heartbeat IPC: 0.220651 cumulative IPC: 0.224162 (Simulation time: 2 hr 32 min 3 sec) 
Heartbeat CPU 2 instructions: 1180000000 cycles: 708340916 heartbeat IPC: 1.45931 cumulative IPC: 1.51775 (Simulation time: 2 hr 32 min 3 sec) 
Heartbeat CPU 0 instructions: 1130000003 cycles: 708354704 heartbeat IPC: 1.64798 cumulative IPC: 1.43917 (Simulation time: 2 hr 32 min 3 sec) 
Heartbeat CPU 0 instructions: 1140000000 cycles: 714394078 heartbeat IPC: 1.6558 cumulative IPC: 1.4414 (Simulation time: 2 hr 33 min 12 sec) 
Heartbeat CPU 2 instructions: 1190000000 cycles: 715449611 heartbeat IPC: 1.40673 cumulative IPC: 1.51641 (Simulation time: 2 hr 33 min 24 sec) 
Heartbeat CPU 0 instructions: 1150000001 cycles: 720568300 heartbeat IPC: 1.61964 cumulative IPC: 1.44326 (Simulation time: 2 hr 34 min 21 sec) 
Heartbeat CPU 2 instructions: 1200000000 cycles: 722897563 heartbeat IPC: 1.34265 cumulative IPC: 1.51423 (Simulation time: 2 hr 34 min 46 sec) 
Heartbeat CPU 3 instructions: 780000000 cycles: 723693566 heartbeat IPC: 0.5121 cumulative IPC: 0.82604 (Simulation time: 2 hr 34 min 54 sec) 
Heartbeat CPU 0 instructions: 1160000000 cycles: 726891360 heartbeat IPC: 1.58151 cumulative IPC: 1.44472 (Simulation time: 2 hr 35 min 30 sec) 
Heartbeat CPU 2 instructions: 1210000000 cycles: 729248004 heartbeat IPC: 1.57469 cumulative IPC: 1.51487 (Simulation time: 2 hr 35 min 58 sec) 
Heartbeat CPU 0 instructions: 1170000002 cycles: 732970149 heartbeat IPC: 1.64506 cumulative IPC: 1.44674 (Simulation time: 2 hr 36 min 39 sec) 
Heartbeat CPU 2 instructions: 1220000000 cycles: 736256952 heartbeat IPC: 1.42675 cumulative IPC: 1.51386 (Simulation time: 2 hr 37 min 17 sec) 
Heartbeat CPU 0 instructions: 1180000000 cycles: 739013749 heartbeat IPC: 1.65464 cumulative IPC: 1.4488 (Simulation time: 2 hr 37 min 48 sec) 
Heartbeat CPU 3 instructions: 790000003 cycles: 742597461 heartbeat IPC: 0.528992 cumulative IPC: 0.816898 (Simulation time: 2 hr 38 min 24 sec) 
Heartbeat CPU 2 instructions: 1230000001 cycles: 743817095 heartbeat IPC: 1.32273 cumulative IPC: 1.51151 (Simulation time: 2 hr 38 min 36 sec) 
Heartbeat CPU 0 instructions: 1190000003 cycles: 747685142 heartbeat IPC: 1.15322 cumulative IPC: 1.44466 (Simulation time: 2 hr 39 min 17 sec) 
Heartbeat CPU 2 instructions: 1240000000 cycles: 750059004 heartbeat IPC: 1.60207 cumulative IPC: 1.51242 (Simulation time: 2 hr 39 min 42 sec) 
Heartbeat CPU 1 instructions: 340000000 cycles: 753955593 heartbeat IPC: 0.219036 cumulative IPC: 0.223788 (Simulation time: 2 hr 40 min 22 sec) 
Heartbeat CPU 2 instructions: 1250000000 cycles: 756393670 heartbeat IPC: 1.57862 cumulative IPC: 1.51308 (Simulation time: 2 hr 40 min 49 sec) 
Heartbeat CPU 0 instructions: 1200000000 cycles: 756736048 heartbeat IPC: 1.10486 cumulative IPC: 1.43976 (Simulation time: 2 hr 40 min 52 sec) 
Heartbeat CPU 3 instructions: 800000000 cycles: 760582430 heartbeat IPC: 0.55602 cumulative IPC: 0.809477 (Simulation time: 2 hr 41 min 34 sec) 
Heartbeat CPU 2 instructions: 1260000000 cycles: 762731937 heartbeat IPC: 1.57772 cumulative IPC: 1.51373 (Simulation time: 2 hr 41 min 56 sec) 
Heartbeat CPU 0 instructions: 1210000002 cycles: 765456398 heartbeat IPC: 1.14674 cumulative IPC: 1.43575 (Simulation time: 2 hr 42 min 24 sec) 
Heartbeat CPU 2 instructions: 1270000001 cycles: 769079397 heartbeat IPC: 1.57543 cumulative IPC: 1.51434 (Simulation time: 2 hr 43 min 2 sec) 
Heartbeat CPU 0 instructions: 1220000000 cycles: 773463479 heartbeat IPC: 1.24889 cumulative IPC: 1.43343 (Simulation time: 2 hr 43 min 46 sec) 
Heartbeat CPU 2 instructions: 1280000000 cycles: 777352466 heartbeat IPC: 1.20874 cumulative IPC: 1.51045 (Simulation time: 2 hr 44 min 28 sec) 
Heartbeat CPU 3 instructions: 810000001 cycles: 778489649 heartbeat IPC: 0.558434 cumulative IPC: 0.802562 (Simulation time: 2 hr 44 min 39 sec) 
Heartbeat CPU 0 instructions: 1230000001 cycles: 779805200 heartbeat IPC: 1.57686 cumulative IPC: 1.43483 (Simulation time: 2 hr 44 min 54 sec) 
Heartbeat CPU 2 instructions: 1290000002 cycles: 784144109 heartbeat IPC: 1.4724 cumulative IPC: 1.51005 (Simulation time: 2 hr 45 min 43 sec) 
Heartbeat CPU 0 instructions: 1240000000 cycles: 786182043 heartbeat IPC: 1.56817 cumulative IPC: 1.43612 (Simulation time: 2 hr 46 min 7 sec) 
Finished CPU 2 instructions: 1000000000 cycles: 661845695 cumulative IPC: 1.51093 (Simulation time: 2 hr 46 min 53 sec) 
Heartbeat CPU 2 instructions: 1300000000 cycles: 790437598 heartbeat IPC: 1.58894 cumulative IPC: 1.5108 (Simulation time: 2 hr 46 min 55 sec) 
Heartbeat CPU 0 instructions: 1250000000 cycles: 792515933 heartbeat IPC: 1.57881 cumulative IPC: 1.43748 (Simulation time: 2 hr 47 min 17 sec) 
Heartbeat CPU 3 instructions: 820000000 cycles: 796234831 heartbeat IPC: 0.563533 cumulative IPC: 0.796211 (Simulation time: 2 hr 47 min 59 sec) 
Heartbeat CPU 2 instructions: 1310000000 cycles: 797405186 heartbeat IPC: 1.43522 cumulative IPC: 1.51001 (Simulation time: 2 hr 48 min 12 sec) 
Heartbeat CPU 0 instructions: 1260000000 cycles: 798785748 heartbeat IPC: 1.59494 cumulative IPC: 1.43895 (Simulation time: 2 hr 48 min 28 sec) 
Heartbeat CPU 1 instructions: 350000001 cycles: 799181488 heartbeat IPC: 0.221112 cumulative IPC: 0.223607 (Simulation time: 2 hr 48 min 32 sec) 
Heartbeat CPU 2 instructions: 1320000000 cycles: 803854316 heartbeat IPC: 1.5506 cumulative IPC: 1.5104 (Simulation time: 2 hr 49 min 25 sec) 
Heartbeat CPU 0 instructions: 1270000000 cycles: 804885675 heartbeat IPC: 1.63936 cumulative IPC: 1.44076 (Simulation time: 2 hr 49 min 37 sec) 
Heartbeat CPU 2 instructions: 1330000002 cycles: 810319236 heartbeat IPC: 1.54681 cumulative IPC: 1.51075 (Simulation time: 2 hr 50 min 40 sec) 
Heartbeat CPU 0 instructions: 1280000000 cycles: 810986170 heartbeat IPC: 1.63921 cumulative IPC: 1.44254 (Simulation time: 2 hr 50 min 47 sec) 
Heartbeat CPU 3 instructions: 830000000 cycles: 813955905 heartbeat IPC: 0.5643 cumulative IPC: 0.790217 (Simulation time: 2 hr 51 min 32 sec) 
Heartbeat CPU 2 instructions: 1340000000 cycles: 816747995 heartbeat IPC: 1.55551 cumulative IPC: 1.51117 (Simulation time: 2 hr 52 min 9 sec) 
Heartbeat CPU 0 instructions: 1290000002 cycles: 817391438 heartbeat IPC: 1.56122 cumulative IPC: 1.44364 (Simulation time: 2 hr 52 min 16 sec) 
Finished CPU 0 instructions: 1000000000 cycles: 692408165 cumulative IPC: 1.44423 (Simulation time: 2 hr 52 min 55 sec) 
Heartbeat CPU 2 instructions: 1350000000 cycles: 823216456 heartbeat IPC: 1.54596 cumulative IPC: 1.51149 (Simulation time: 2 hr 53 min 23 sec) 
Heartbeat CPU 0 instructions: 1300000000 cycles: 823747297 heartbeat IPC: 1.57335 cumulative IPC: 1.44482 (Simulation time: 2 hr 53 min 29 sec) 
Heartbeat CPU 2 instructions: 1360000000 cycles: 829703262 heartbeat IPC: 1.54159 cumulative IPC: 1.51177 (Simulation time: 2 hr 54 min 34 sec) 
Heartbeat CPU 0 instructions: 1310000000 cycles: 829997398 heartbeat IPC: 1.59997 cumulative IPC: 1.44621 (Simulation time: 2 hr 54 min 37 sec) 
Heartbeat CPU 3 instructions: 840000000 cycles: 831376817 heartbeat IPC: 0.574023 cumulative IPC: 0.784859 (Simulation time: 2 hr 54 min 52 sec) 
Heartbeat CPU 0 instructions: 1320000000 cycles: 836121512 heartbeat IPC: 1.63289 cumulative IPC: 1.44782 (Simulation time: 2 hr 55 min 44 sec) 
Heartbeat CPU 2 instructions: 1370000003 cycles: 836212147 heartbeat IPC: 1.53636 cumulative IPC: 1.51199 (Simulation time: 2 hr 55 min 45 sec) 
Heartbeat CPU 0 instructions: 1330000000 cycles: 842110299 heartbeat IPC: 1.66979 cumulative IPC: 1.44968 (Simulation time: 2 hr 56 min 49 sec) 
Heartbeat CPU 2 instructions: 1380000000 cycles: 842725375 heartbeat IPC: 1.53534 cumulative IPC: 1.51221 (Simulation time: 2 hr 56 min 56 sec) 
Heartbeat CPU 1 instructions: 360000000 cycles: 844213888 heartbeat IPC: 0.222062 cumulative IPC: 0.22351 (Simulation time: 2 hr 57 min 12 sec) 
Heartbeat CPU 0 instructions: 1340000000 cycles: 848257671 heartbeat IPC: 1.62671 cumulative IPC: 1.4512 (Simulation time: 2 hr 57 min 55 sec) 
Heartbeat CPU 3 instructions: 850000002 cycles: 848819032 heartbeat IPC: 0.573322 cumulative IPC: 0.779738 (Simulation time: 2 hr 58 min 1 sec) 
Heartbeat CPU 2 instructions: 1390000003 cycles: 849330469 heartbeat IPC: 1.51398 cumulative IPC: 1.51222 (Simulation time: 2 hr 58 min 7 sec) 
Heartbeat CPU 0 instructions: 1350000001 cycles: 854490158 heartbeat IPC: 1.6045 cumulative IPC: 1.45251 (Simulation time: 2 hr 59 min 2 sec) 
Heartbeat CPU 2 instructions: 1400000000 cycles: 855819466 heartbeat IPC: 1.54107 cumulative IPC: 1.51248 (Simulation time: 2 hr 59 min 17 sec) 
Heartbeat CPU 0 instructions: 1360000000 cycles: 860627215 heartbeat IPC: 1.62945 cumulative IPC: 1.45399 (Simulation time: 3 hr 0 min 9 sec) 
Heartbeat CPU 2 instructions: 1410000003 cycles: 862352566 heartbeat IPC: 1.53067 cumulative IPC: 1.51264 (Simulation time: 3 hr 0 min 28 sec) 
Heartbeat CPU 3 instructions: 860000000 cycles: 866677516 heartbeat IPC: 0.559958 cumulative IPC: 0.774422 (Simulation time: 3 hr 1 min 17 sec) 
Heartbeat CPU 0 instructions: 1370000000 cycles: 866805711 heartbeat IPC: 1.61852 cumulative IPC: 1.45537 (Simulation time: 3 hr 1 min 19 sec) 
Heartbeat CPU 2 instructions: 1420000000 cycles: 868885159 heartbeat IPC: 1.53079 cumulative IPC: 1.5128 (Simulation time: 3 hr 1 min 43 sec) 
Heartbeat CPU 0 instructions: 1380000000 cycles: 873065253 heartbeat IPC: 1.59756 cumulative IPC: 1.45657 (Simulation time: 3 hr 2 min 31 sec) 
Heartbeat CPU 2 instructions: 1430000002 cycles: 875974181 heartbeat IPC: 1.41063 cumulative IPC: 1.51183 (Simulation time: 3 hr 3 min 2 sec) 
Heartbeat CPU 0 instructions: 1390000001 cycles: 879243509 heartbeat IPC: 1.61858 cumulative IPC: 1.4579 (Simulation time: 3 hr 3 min 39 sec) 
Heartbeat CPU 2 instructions: 1440000000 cycles: 882322724 heartbeat IPC: 1.57516 cumulative IPC: 1.51237 (Simulation time: 3 hr 4 min 16 sec) 
Heartbeat CPU 3 instructions: 870000003 cycles: 885000550 heartbeat IPC: 0.545761 cumulative IPC: 0.768885 (Simulation time: 3 hr 4 min 47 sec) 
Heartbeat CPU 0 instructions: 1400000000 cycles: 885312274 heartbeat IPC: 1.64778 cumulative IPC: 1.45942 (Simulation time: 3 hr 4 min 51 sec) 
Heartbeat CPU 2 instructions: 1450000001 cycles: 889533486 heartbeat IPC: 1.38682 cumulative IPC: 1.51118 (Simulation time: 3 hr 5 min 37 sec) 
Heartbeat CPU 1 instructions: 370000001 cycles: 889902506 heartbeat IPC: 0.218873 cumulative IPC: 0.223232 (Simulation time: 3 hr 5 min 41 sec) 
Heartbeat CPU 0 instructions: 1410000000 cycles: 891448577 heartbeat IPC: 1.62965 cumulative IPC: 1.46079 (Simulation time: 3 hr 5 min 58 sec) 
Heartbeat CPU 0 instructions: 1420000000 cycles: 897567322 heartbeat IPC: 1.63432 cumulative IPC: 1.46217 (Simulation time: 3 hr 7 min 5 sec) 
Heartbeat CPU 2 instructions: 1460000000 cycles: 897579462 heartbeat IPC: 1.24286 cumulative IPC: 1.50837 (Simulation time: 3 hr 7 min 5 sec) 
Heartbeat CPU 0 instructions: 1430000002 cycles: 903624568 heartbeat IPC: 1.65092 cumulative IPC: 1.46365 (Simulation time: 3 hr 8 min 15 sec) 
Heartbeat CPU 3 instructions: 880000000 cycles: 903675988 heartbeat IPC: 0.535462 cumulative IPC: 0.763262 (Simulation time: 3 hr 8 min 15 sec) 
Heartbeat CPU 2 instructions: 1470000002 cycles: 904118419 heartbeat IPC: 1.5293 cumulative IPC: 1.50855 (Simulation time: 3 hr 8 min 21 sec) 
Heartbeat CPU 0 instructions: 1440000000 cycles: 909563828 heartbeat IPC: 1.68371 cumulative IPC: 1.46532 (Simulation time: 3 hr 9 min 24 sec) 
Heartbeat CPU 2 instructions: 1480000000 cycles: 910622559 heartbeat IPC: 1.53748 cumulative IPC: 1.50879 (Simulation time: 3 hr 9 min 36 sec) 
Heartbeat CPU 0 instructions: 1450000003 cycles: 915497402 heartbeat IPC: 1.68533 cumulative IPC: 1.46698 (Simulation time: 3 hr 10 min 33 sec) 
Heartbeat CPU 2 instructions: 1490000000 cycles: 917121173 heartbeat IPC: 1.53879 cumulative IPC: 1.50903 (Simulation time: 3 hr 10 min 52 sec) 
Heartbeat CPU 0 instructions: 1460000000 cycles: 921476734 heartbeat IPC: 1.67243 cumulative IPC: 1.46853 (Simulation time: 3 hr 11 min 43 sec) 
Heartbeat CPU 3 instructions: 890000002 cycles: 922150703 heartbeat IPC: 0.54128 cumulative IPC: 0.758096 (Simulation time: 3 hr 11 min 51 sec) 
Heartbeat CPU 2 instructions: 1500000000 cycles: 923514069 heartbeat IPC: 1.56424 cumulative IPC: 1.50948 (Simulation time: 3 hr 12 min 7 sec) 
Heartbeat CPU 0 instructions: 1470000003 cycles: 927421469 heartbeat IPC: 1.68216 cumulative IPC: 1.47012 (Simulation time: 3 hr 12 min 53 sec) 
Heartbeat CPU 2 instructions: 1510000002 cycles: 930024139 heartbeat IPC: 1.53608 cumulative IPC: 1.50969 (Simulation time: 3 hr 13 min 24 sec) 
Heartbeat CPU 0 instructions: 1480000000 cycles: 933347434 heartbeat IPC: 1.68749 cumulative IPC: 1.47172 (Simulation time: 3 hr 14 min 3 sec) 
Heartbeat CPU 2 instructions: 1520000000 cycles: 936476509 heartbeat IPC: 1.54982 cumulative IPC: 1.51001 (Simulation time: 3 hr 14 min 39 sec) 
Heartbeat CPU 1 instructions: 380000000 cycles: 936650811 heartbeat IPC: 0.213911 cumulative IPC: 0.222693 (Simulation time: 3 hr 14 min 41 sec) 
Heartbeat CPU 0 instructions: 1490000002 cycles: 939473526 heartbeat IPC: 1.63236 cumulative IPC: 1.47293 (Simulation time: 3 hr 15 min 14 sec) 
Heartbeat CPU 3 instructions: 900000000 cycles: 940842238 heartbeat IPC: 0.535001 cumulative IPC: 0.752963 (Simulation time: 3 hr 15 min 30 sec) 
Heartbeat CPU 2 instructions: 1530000002 cycles: 942884438 heartbeat IPC: 1.56057 cumulative IPC: 1.51041 (Simulation time: 3 hr 15 min 53 sec) 
Heartbeat CPU 0 instructions: 1500000000 cycles: 945594547 heartbeat IPC: 1.63371 cumulative IPC: 1.47413 (Simulation time: 3 hr 16 min 25 sec) 
Heartbeat CPU 2 instructions: 1540000000 cycles: 949317109 heartbeat IPC: 1.55456 cumulative IPC: 1.51076 (Simulation time: 3 hr 17 min 7 sec) 
Heartbeat CPU 0 instructions: 1510000003 cycles: 951933005 heartbeat IPC: 1.57767 cumulative IPC: 1.47493 (Simulation time: 3 hr 17 min 37 sec) 
Heartbeat CPU 2 instructions: 1550000002 cycles: 955756996 heartbeat IPC: 1.55282 cumulative IPC: 1.51109 (Simulation time: 3 hr 18 min 21 sec) 
Heartbeat CPU 0 instructions: 1520000000 cycles: 958159571 heartbeat IPC: 1.60602 cumulative IPC: 1.47591 (Simulation time: 3 hr 18 min 49 sec) 
Heartbeat CPU 3 instructions: 910000003 cycles: 958859818 heartbeat IPC: 0.555014 cumulative IPC: 0.748669 (Simulation time: 3 hr 18 min 57 sec) 
Heartbeat CPU 2 instructions: 1560000000 cycles: 962220382 heartbeat IPC: 1.54718 cumulative IPC: 1.51137 (Simulation time: 3 hr 19 min 36 sec) 
Heartbeat CPU 0 instructions: 1530000000 cycles: 964442211 heartbeat IPC: 1.59169 cumulative IPC: 1.47678 (Simulation time: 3 hr 20 min 1 sec) 
Heartbeat CPU 2 instructions: 1570000002 cycles: 968745138 heartbeat IPC: 1.53262 cumulative IPC: 1.51153 (Simulation time: 3 hr 20 min 51 sec) 
Heartbeat CPU 0 instructions: 1540000000 cycles: 970608397 heartbeat IPC: 1.62175 cumulative IPC: 1.47784 (Simulation time: 3 hr 21 min 11 sec) 
Heartbeat CPU 2 instructions: 1580000000 cycles: 975620953 heartbeat IPC: 1.45437 cumulative IPC: 1.51107 (Simulation time: 3 hr 22 min 9 sec) 
Heartbeat CPU 0 instructions: 1550000003 cycles: 976737944 heartbeat IPC: 1.63144 cumulative IPC: 1.47895 (Simulation time: 3 hr 22 min 22 sec) 
Heartbeat CPU 3 instructions: 920000000 cycles: 977074232 heartbeat IPC: 0.549016 cumulative IPC: 0.744384 (Simulation time: 3 hr 22 min 26 sec) 
Heartbeat CPU 2 instructions: 1590000003 cycles: 981850175 heartbeat IPC: 1.60534 cumulative IPC: 1.51175 (Simulation time: 3 hr 23 min 22 sec) 
Heartbeat CPU 0 instructions: 1560000000 cycles: 982793734 heartbeat IPC: 1.65131 cumulative IPC: 1.48018 (Simulation time: 3 hr 23 min 33 sec) 
Heartbeat CPU 1 instructions: 390000001 cycles: 983909248 heartbeat IPC: 0.211602 cumulative IPC: 0.22208 (Simulation time: 3 hr 23 min 47 sec) 
Heartbeat CPU 2 instructions: 1600000000 cycles: 988126058 heartbeat IPC: 1.5934 cumulative IPC: 1.51235 (Simulation time: 3 hr 24 min 33 sec) 
Heartbeat CPU 0 instructions: 1570000000 cycles: 989588905 heartbeat IPC: 1.47163 cumulative IPC: 1.48011 (Simulation time: 3 hr 24 min 50 sec) 
Heartbeat CPU 2 instructions: 1610000002 cycles: 994554087 heartbeat IPC: 1.55569 cumulative IPC: 1.51267 (Simulation time: 3 hr 25 min 47 sec) 
Heartbeat CPU 3 instructions: 930000000 cycles: 995474541 heartbeat IPC: 0.543469 cumulative IPC: 0.740121 (Simulation time: 3 hr 25 min 58 sec) 
Heartbeat CPU 0 instructions: 1580000000 cycles: 995803241 heartbeat IPC: 1.60918 cumulative IPC: 1.48103 (Simulation time: 3 hr 26 min 2 sec) 
Heartbeat CPU 2 instructions: 1620000000 cycles: 1000869756 heartbeat IPC: 1.58336 cumulative IPC: 1.51318 (Simulation time: 3 hr 27 min 0 sec) 
Heartbeat CPU 0 instructions: 1590000001 cycles: 1001992584 heartbeat IPC: 1.61568 cumulative IPC: 1.48199 (Simulation time: 3 hr 27 min 13 sec) 
Heartbeat CPU 2 instructions: 1630000003 cycles: 1007237495 heartbeat IPC: 1.57042 cumulative IPC: 1.5136 (Simulation time: 3 hr 28 min 15 sec) 
Heartbeat CPU 0 instructions: 1600000000 cycles: 1008102538 heartbeat IPC: 1.63667 cumulative IPC: 1.48306 (Simulation time: 3 hr 28 min 25 sec) 
Heartbeat CPU 2 instructions: 1640000000 cycles: 1013444703 heartbeat IPC: 1.61103 cumulative IPC: 1.51428 (Simulation time: 3 hr 29 min 27 sec) 
Heartbeat CPU 3 instructions: 940000000 cycles: 1013795081 heartbeat IPC: 0.545835 cumulative IPC: 0.736101 (Simulation time: 3 hr 29 min 31 sec) 
Heartbeat CPU 0 instructions: 1610000000 cycles: 1014049650 heartbeat IPC: 1.68149 cumulative IPC: 1.48439 (Simulation time: 3 hr 29 min 34 sec) 
Heartbeat CPU 0 instructions: 1620000000 cycles: 1020197488 heartbeat IPC: 1.62659 cumulative IPC: 1.48537 (Simulation time: 3 hr 30 min 45 sec) 
Heartbeat CPU 2 instructions: 1650000001 cycles: 1020543559 heartbeat IPC: 1.40868 cumulative IPC: 1.51344 (Simulation time: 3 hr 30 min 50 sec) 
Heartbeat CPU 0 instructions: 1630000001 cycles: 1026219319 heartbeat IPC: 1.66062 cumulative IPC: 1.48655 (Simulation time: 3 hr 32 min 1 sec) 
Heartbeat CPU 2 instructions: 1660000000 cycles: 1027088318 heartbeat IPC: 1.52794 cumulative IPC: 1.51355 (Simulation time: 3 hr 32 min 11 sec) 
Heartbeat CPU 3 instructions: 950000001 cycles: 1032001339 heartbeat IPC: 0.549262 cumulative IPC: 0.732336 (Simulation time: 3 hr 33 min 12 sec) 
Heartbeat CPU 0 instructions: 1640000000 cycles: 1032226584 heartbeat IPC: 1.66465 cumulative IPC: 1.48773 (Simulation time: 3 hr 33 min 15 sec) 
Heartbeat CPU 1 instructions: 400000000 cycles: 1032554063 heartbeat IPC: 0.205572 cumulative IPC: 0.221192 (Simulation time: 3 hr 33 min 19 sec) 
Heartbeat CPU 2 instructions: 1670000000 cycles: 1033551485 heartbeat IPC: 1.54723 cumulative IPC: 1.51379 (Simulation time: 3 hr 33 min 30 sec) 
Heartbeat CPU 0 instructions: 1650000003 cycles: 1038185333 heartbeat IPC: 1.67821 cumulative IPC: 1.48898 (Simulation time: 3 hr 34 min 23 sec) 
Heartbeat CPU 2 instructions: 1680000000 cycles: 1040044854 heartbeat IPC: 1.54003 cumulative IPC: 1.51397 (Simulation time: 3 hr 34 min 44 sec) 
Heartbeat CPU 0 instructions: 1660000000 cycles: 1044240802 heartbeat IPC: 1.6514 cumulative IPC: 1.49005 (Simulation time: 3 hr 35 min 29 sec) 
Heartbeat CPU 2 instructions: 1690000001 cycles: 1046539522 heartbeat IPC: 1.53972 cumulative IPC: 1.51416 (Simulation time: 3 hr 35 min 54 sec) 
Heartbeat CPU 3 instructions: 960000000 cycles: 1050151232 heartbeat IPC: 0.550967 cumulative IPC: 0.728765 (Simulation time: 3 hr 36 min 33 sec) 
Heartbeat CPU 0 instructions: 1670000002 cycles: 1050304066 heartbeat IPC: 1.64928 cumulative IPC: 1.4911 (Simulation time: 3 hr 36 min 34 sec) 
Heartbeat CPU 2 instructions: 1700000000 cycles: 1052992916 heartbeat IPC: 1.54957 cumulative IPC: 1.5144 (Simulation time: 3 hr 37 min 4 sec) 
Heartbeat CPU 0 instructions: 1680000000 cycles: 1056358131 heartbeat IPC: 1.65178 cumulative IPC: 1.49215 (Simulation time: 3 hr 37 min 38 sec) 
Heartbeat CPU 2 instructions: 1710000001 cycles: 1059420436 heartbeat IPC: 1.55581 cumulative IPC: 1.51469 (Simulation time: 3 hr 38 min 9 sec) 
Heartbeat CPU 0 instructions: 1690000000 cycles: 1062308230 heartbeat IPC: 1.68064 cumulative IPC: 1.49335 (Simulation time: 3 hr 38 min 38 sec) 
Heartbeat CPU 2 instructions: 1720000000 cycles: 1065898113 heartbeat IPC: 1.54376 cumulative IPC: 1.51489 (Simulation time: 3 hr 39 min 17 sec) 
Heartbeat CPU 0 instructions: 1700000000 cycles: 1068257382 heartbeat IPC: 1.68091 cumulative IPC: 1.49454 (Simulation time: 3 hr 39 min 42 sec) 
Heartbeat CPU 3 instructions: 970000001 cycles: 1068342983 heartbeat IPC: 0.5497 cumulative IPC: 0.7253 (Simulation time: 3 hr 39 min 43 sec) 
Heartbeat CPU 2 instructions: 1730000001 cycles: 1073013891 heartbeat IPC: 1.40533 cumulative IPC: 1.51407 (Simulation time: 3 hr 40 min 33 sec) 
Heartbeat CPU 0 instructions: 1710000000 cycles: 1074352478 heartbeat IPC: 1.64066 cumulative IPC: 1.49548 (Simulation time: 3 hr 40 min 48 sec) 
Heartbeat CPU 2 instructions: 1740000000 cycles: 1079519242 heartbeat IPC: 1.5372 cumulative IPC: 1.51422 (Simulation time: 3 hr 41 min 47 sec) 
Heartbeat CPU 0 instructions: 1720000000 cycles: 1080421811 heartbeat IPC: 1.64763 cumulative IPC: 1.49645 (Simulation time: 3 hr 41 min 57 sec) 
Heartbeat CPU 2 instructions: 1750000003 cycles: 1085792987 heartbeat IPC: 1.59394 cumulative IPC: 1.51475 (Simulation time: 3 hr 43 min 0 sec) 
Heartbeat CPU 0 instructions: 1730000001 cycles: 1086606031 heartbeat IPC: 1.61702 cumulative IPC: 1.49723 (Simulation time: 3 hr 43 min 9 sec) 
Heartbeat CPU 3 instructions: 980000000 cycles: 1086860417 heartbeat IPC: 0.540032 cumulative IPC: 0.72172 (Simulation time: 3 hr 43 min 12 sec) 
Heartbeat CPU 1 instructions: 410000003 cycles: 1087937494 heartbeat IPC: 0.180559 cumulative IPC: 0.218847 (Simulation time: 3 hr 43 min 25 sec) 
Heartbeat CPU 2 instructions: 1760000000 cycles: 1092187849 heartbeat IPC: 1.56375 cumulative IPC: 1.51507 (Simulation time: 3 hr 44 min 13 sec) 
Heartbeat CPU 0 instructions: 1740000000 cycles: 1092701846 heartbeat IPC: 1.64047 cumulative IPC: 1.49813 (Simulation time: 3 hr 44 min 20 sec) 
Heartbeat CPU 0 instructions: 1750000000 cycles: 1098881579 heartbeat IPC: 1.61819 cumulative IPC: 1.4989 (Simulation time: 3 hr 45 min 27 sec) 
Heartbeat CPU 2 instructions: 1770000001 cycles: 1099798169 heartbeat IPC: 1.31401 cumulative IPC: 1.5135 (Simulation time: 3 hr 45 min 38 sec) 
Heartbeat CPU 0 instructions: 1760000000 cycles: 1105028269 heartbeat IPC: 1.62689 cumulative IPC: 1.4997 (Simulation time: 3 hr 46 min 37 sec) 
Heartbeat CPU 3 instructions: 990000000 cycles: 1105447914 heartbeat IPC: 0.537996 cumulative IPC: 0.718225 (Simulation time: 3 hr 46 min 42 sec) 
Heartbeat CPU 2 instructions: 1780000000 cycles: 1106321519 heartbeat IPC: 1.53295 cumulative IPC: 1.51363 (Simulation time: 3 hr 46 min 52 sec) 
Heartbeat CPU 2 instructions: 1790000000 cycles: 1112737174 heartbeat IPC: 1.55869 cumulative IPC: 1.51392 (Simulation time: 3 hr 47 min 59 sec) 
Heartbeat CPU 0 instructions: 1770000000 cycles: 1113546609 heartbeat IPC: 1.17394 cumulative IPC: 1.49689 (Simulation time: 3 hr 48 min 8 sec) 
Heartbeat CPU 2 instructions: 1800000000 cycles: 1119231949 heartbeat IPC: 1.5397 cumulative IPC: 1.51409 (Simulation time: 3 hr 49 min 8 sec) 
Heartbeat CPU 0 instructions: 1780000000 cycles: 1121427173 heartbeat IPC: 1.26894 cumulative IPC: 1.49508 (Simulation time: 3 hr 49 min 33 sec) 
Heartbeat CPU 3 instructions: 1000000000 cycles: 1123865340 heartbeat IPC: 0.542964 cumulative IPC: 0.714983 (Simulation time: 3 hr 50 min 1 sec) 
Heartbeat CPU 2 instructions: 1810000002 cycles: 1125594588 heartbeat IPC: 1.57168 cumulative IPC: 1.51446 (Simulation time: 3 hr 50 min 20 sec) 
Heartbeat CPU 0 instructions: 1790000001 cycles: 1128049926 heartbeat IPC: 1.50995 cumulative IPC: 1.49518 (Simulation time: 3 hr 50 min 49 sec) 
Heartbeat CPU 2 instructions: 1820000000 cycles: 1132062431 heartbeat IPC: 1.54611 cumulative IPC: 1.51466 (Simulation time: 3 hr 51 min 36 sec) 
Heartbeat CPU 1 instructions: 420000000 cycles: 1133674925 heartbeat IPC: 0.218639 cumulative IPC: 0.218837 (Simulation time: 3 hr 51 min 54 sec) 
Heartbeat CPU 0 instructions: 1800000000 cycles: 1134005671 heartbeat IPC: 1.67905 cumulative IPC: 1.49626 (Simulation time: 3 hr 51 min 58 sec) 
Heartbeat CPU 2 instructions: 1830000002 cycles: 1138412629 heartbeat IPC: 1.57475 cumulative IPC: 1.51504 (Simulation time: 3 hr 52 min 50 sec) 
Heartbeat CPU 0 instructions: 1810000003 cycles: 1139982108 heartbeat IPC: 1.67324 cumulative IPC: 1.49731 (Simulation time: 3 hr 53 min 9 sec) 
Heartbeat CPU 3 instructions: 1010000001 cycles: 1142073331 heartbeat IPC: 0.549209 cumulative IPC: 0.712005 (Simulation time: 3 hr 53 min 33 sec) 
Heartbeat CPU 2 instructions: 1840000000 cycles: 1144878312 heartbeat IPC: 1.54663 cumulative IPC: 1.51524 (Simulation time: 3 hr 54 min 7 sec) 
Heartbeat CPU 0 instructions: 1820000000 cycles: 1145986091 heartbeat IPC: 1.66556 cumulative IPC: 1.4983 (Simulation time: 3 hr 54 min 20 sec) 
Heartbeat CPU 2 instructions: 1850000003 cycles: 1151996768 heartbeat IPC: 1.4048 cumulative IPC: 1.51447 (Simulation time: 3 hr 55 min 28 sec) 
Heartbeat CPU 0 instructions: 1830000003 cycles: 1151999241 heartbeat IPC: 1.66302 cumulative IPC: 1.49927 (Simulation time: 3 hr 55 min 28 sec) 
Heartbeat CPU 0 instructions: 1840000000 cycles: 1157965575 heartbeat IPC: 1.67607 cumulative IPC: 1.5003 (Simulation time: 3 hr 56 min 37 sec) 
Heartbeat CPU 2 instructions: 1860000000 cycles: 1158464878 heartbeat IPC: 1.54605 cumulative IPC: 1.51467 (Simulation time: 3 hr 56 min 43 sec) 
Heartbeat CPU 3 instructions: 1020000000 cycles: 1160033646 heartbeat IPC: 0.556783 cumulative IPC: 0.709303 (Simulation time: 3 hr 57 min 2 sec) 
Heartbeat CPU 0 instructions: 1850000000 cycles: 1163885204 heartbeat IPC: 1.6893 cumulative IPC: 1.50138 (Simulation time: 3 hr 57 min 47 sec) 
Heartbeat CPU 2 instructions: 1870000002 cycles: 1164914260 heartbeat IPC: 1.55054 cumulative IPC: 1.51489 (Simulation time: 3 hr 57 min 59 sec) 
Heartbeat CPU 0 instructions: 1860000000 cycles: 1169782156 heartbeat IPC: 1.69579 cumulative IPC: 1.50248 (Simulation time: 3 hr 58 min 57 sec) 
Heartbeat CPU 2 instructions: 1880000000 cycles: 1171300380 heartbeat IPC: 1.5659 cumulative IPC: 1.5152 (Simulation time: 3 hr 59 min 14 sec) 
Heartbeat CPU 0 instructions: 1870000002 cycles: 1175745197 heartbeat IPC: 1.677 cumulative IPC: 1.50347 (Simulation time: 4 hr 0 min 7 sec) 
Heartbeat CPU 2 instructions: 1890000001 cycles: 1177768344 heartbeat IPC: 1.54608 cumulative IPC: 1.51539 (Simulation time: 4 hr 0 min 30 sec) 
Heartbeat CPU 3 instructions: 1030000002 cycles: 1178327553 heartbeat IPC: 0.54663 cumulative IPC: 0.706469 (Simulation time: 4 hr 0 min 37 sec) 
Heartbeat CPU 1 instructions: 430000001 cycles: 1181051361 heartbeat IPC: 0.211075 cumulative IPC: 0.218488 (Simulation time: 4 hr 1 min 9 sec) 
Heartbeat CPU 0 instructions: 1880000000 cycles: 1181716502 heartbeat IPC: 1.67468 cumulative IPC: 1.50444 (Simulation time: 4 hr 1 min 16 sec) 
Heartbeat CPU 2 instructions: 1900000000 cycles: 1184195345 heartbeat IPC: 1.55594 cumulative IPC: 1.51564 (Simulation time: 4 hr 1 min 45 sec) 
Heartbeat CPU 0 instructions: 1890000001 cycles: 1187917190 heartbeat IPC: 1.61272 cumulative IPC: 1.50507 (Simulation time: 4 hr 2 min 28 sec) 
Heartbeat CPU 2 instructions: 1910000002 cycles: 1191163124 heartbeat IPC: 1.43518 cumulative IPC: 1.51511 (Simulation time: 4 hr 3 min 4 sec) 
Heartbeat CPU 0 instructions: 1900000000 cycles: 1194075445 heartbeat IPC: 1.62384 cumulative IPC: 1.50576 (Simulation time: 4 hr 3 min 47 sec) 
Heartbeat CPU 3 instructions: 1040000000 cycles: 1196358189 heartbeat IPC: 0.554612 cumulative IPC: 0.703905 (Simulation time: 4 hr 4 min 20 sec) 
Heartbeat CPU 2 instructions: 1920000000 cycles: 1197609071 heartbeat IPC: 1.55136 cumulative IPC: 1.51533 (Simulation time: 4 hr 4 min 35 sec) 
Heartbeat CPU 0 instructions: 1910000001 cycles: 1200182638 heartbeat IPC: 1.63741 cumulative IPC: 1.50651 (Simulation time: 4 hr 5 min 5 sec) 
Heartbeat CPU 2 instructions: 1930000000 cycles: 1204804035 heartbeat IPC: 1.38986 cumulative IPC: 1.51449 (Simulation time: 4 hr 5 min 56 sec) 
Heartbeat CPU 0 instructions: 1920000000 cycles: 1206124140 heartbeat IPC: 1.68308 cumulative IPC: 1.50748 (Simulation time: 4 hr 6 min 10 sec) 
Heartbeat CPU 0 instructions: 1930000001 cycles: 1212064509 heartbeat IPC: 1.6834 cumulative IPC: 1.50845 (Simulation time: 4 hr 7 min 19 sec) 
Heartbeat CPU 2 instructions: 1940000000 cycles: 1212137273 heartbeat IPC: 1.36365 cumulative IPC: 1.51347 (Simulation time: 4 hr 7 min 20 sec) 
Heartbeat CPU 3 instructions: 1050000003 cycles: 1214807811 heartbeat IPC: 0.542017 cumulative IPC: 0.701156 (Simulation time: 4 hr 7 min 49 sec) 
Heartbeat CPU 0 instructions: 1940000000 cycles: 1218195506 heartbeat IPC: 1.63106 cumulative IPC: 1.50914 (Simulation time: 4 hr 8 min 27 sec) 
Heartbeat CPU 2 instructions: 1950000000 cycles: 1218451659 heartbeat IPC: 1.58369 cumulative IPC: 1.51388 (Simulation time: 4 hr 8 min 30 sec) 
Heartbeat CPU 0 instructions: 1950000001 cycles: 1224417843 heartbeat IPC: 1.60711 cumulative IPC: 1.50969 (Simulation time: 4 hr 9 min 39 sec) 
Heartbeat CPU 2 instructions: 1960000000 cycles: 1224762204 heartbeat IPC: 1.58465 cumulative IPC: 1.51429 (Simulation time: 4 hr 9 min 43 sec) 
Heartbeat CPU 1 instructions: 440000000 cycles: 1228201241 heartbeat IPC: 0.21209 cumulative IPC: 0.218214 (Simulation time: 4 hr 10 min 23 sec) 
Heartbeat CPU 0 instructions: 1960000000 cycles: 1230567021 heartbeat IPC: 1.62623 cumulative IPC: 1.51034 (Simulation time: 4 hr 10 min 51 sec) 
Heartbeat CPU 2 instructions: 1970000003 cycles: 1231054618 heartbeat IPC: 1.58922 cumulative IPC: 1.51471 (Simulation time: 4 hr 10 min 56 sec) 
Heartbeat CPU 3 instructions: 1060000000 cycles: 1233093286 heartbeat IPC: 0.546882 cumulative IPC: 0.698602 (Simulation time: 4 hr 11 min 18 sec) 
Heartbeat CPU 0 instructions: 1970000003 cycles: 1237277417 heartbeat IPC: 1.49023 cumulative IPC: 1.51022 (Simulation time: 4 hr 12 min 6 sec) 
[...]
Heartbeat CPU 2 instructions: 6980000000 cycles: 4518844458 heartbeat IPC: 1.57899 cumulative IPC: 1.52153 (Simulation time: 13 hr 25 min 51 sec) 
Heartbeat CPU 0 instructions: 6810000001 cycles: 4524845674 heartbeat IPC: 1.6046 cumulative IPC: 1.4818 (Simulation time: 13 hr 26 min 50 sec) 
Heartbeat CPU 2 instructions: 6990000002 cycles: 4525710573 heartbeat IPC: 1.45643 cumulative IPC: 1.52143 (Simulation time: 13 hr 26 min 59 sec) 
Heartbeat CPU 0 instructions: 6820000000 cycles: 4531046991 heartbeat IPC: 1.61256 cumulative IPC: 1.48198 (Simulation time: 13 hr 27 min 52 sec) 
Heartbeat CPU 1 instructions: 1180000000 cycles: 4531980243 heartbeat IPC: 0.215735 cumulative IPC: 0.222544 (Simulation time: 13 hr 28 min 1 sec) 
Heartbeat CPU 2 instructions: 7000000000 cycles: 4532014635 heartbeat IPC: 1.58628 cumulative IPC: 1.52152 (Simulation time: 13 hr 28 min 1 sec) 
Heartbeat CPU 3 instructions: 3130000002 cycles: 4534982451 heartbeat IPC: 0.547235 cumulative IPC: 0.644886 (Simulation time: 13 hr 28 min 31 sec) 
Heartbeat CPU 0 instructions: 6830000002 cycles: 4537368246 heartbeat IPC: 1.58196 cumulative IPC: 1.48213 (Simulation time: 13 hr 28 min 54 sec) 
Heartbeat CPU 2 instructions: 7010000000 cycles: 4538394484 heartbeat IPC: 1.56744 cumulative IPC: 1.52159 (Simulation time: 13 hr 29 min 4 sec) 
Heartbeat CPU 0 instructions: 6840000000 cycles: 4543610420 heartbeat IPC: 1.60201 cumulative IPC: 1.4823 (Simulation time: 13 hr 29 min 55 sec) 
Heartbeat CPU 2 instructions: 7020000000 cycles: 4545275068 heartbeat IPC: 1.45336 cumulative IPC: 1.52148 (Simulation time: 13 hr 30 min 11 sec) 
Heartbeat CPU 0 instructions: 6850000001 cycles: 4549884616 heartbeat IPC: 1.59383 cumulative IPC: 1.48246 (Simulation time: 13 hr 30 min 58 sec) 
Heartbeat CPU 2 instructions: 7030000000 cycles: 4551490772 heartbeat IPC: 1.60883 cumulative IPC: 1.52161 (Simulation time: 13 hr 31 min 14 sec) 
Heartbeat CPU 3 instructions: 3140000000 cycles: 4553545681 heartbeat IPC: 0.538699 cumulative IPC: 0.644441 (Simulation time: 13 hr 31 min 34 sec) 
Heartbeat CPU 0 instructions: 6860000000 cycles: 4556203034 heartbeat IPC: 1.58267 cumulative IPC: 1.4826 (Simulation time: 13 hr 32 min 1 sec) 
Heartbeat CPU 2 instructions: 7040000000 cycles: 4557907041 heartbeat IPC: 1.55854 cumulative IPC: 1.52166 (Simulation time: 13 hr 32 min 17 sec) 
Heartbeat CPU 0 instructions: 6870000001 cycles: 4562504063 heartbeat IPC: 1.58704 cumulative IPC: 1.48275 (Simulation time: 13 hr 32 min 59 sec) 
Heartbeat CPU 2 instructions: 7050000001 cycles: 4565671072 heartbeat IPC: 1.28799 cumulative IPC: 1.52125 (Simulation time: 13 hr 33 min 30 sec) 
Heartbeat CPU 0 instructions: 6880000000 cycles: 4569519499 heartbeat IPC: 1.42543 cumulative IPC: 1.48266 (Simulation time: 13 hr 34 min 6 sec) 
Heartbeat CPU 2 instructions: 7060000000 cycles: 4572108480 heartbeat IPC: 1.55342 cumulative IPC: 1.5213 (Simulation time: 13 hr 34 min 29 sec) 
Heartbeat CPU 3 instructions: 3150000000 cycles: 4572177754 heartbeat IPC: 0.536709 cumulative IPC: 0.643989 (Simulation time: 13 hr 34 min 30 sec) 
Heartbeat CPU 0 instructions: 6890000001 cycles: 4577349449 heartbeat IPC: 1.27715 cumulative IPC: 1.48229 (Simulation time: 13 hr 35 min 20 sec) 
Heartbeat CPU 2 instructions: 7070000002 cycles: 4578535299 heartbeat IPC: 1.55598 cumulative IPC: 1.52135 (Simulation time: 13 hr 35 min 31 sec) 
Heartbeat CPU 1 instructions: 1190000003 cycles: 4578564646 heartbeat IPC: 0.214664 cumulative IPC: 0.222462 (Simulation time: 13 hr 35 min 32 sec) 
Heartbeat CPU 0 instructions: 6900000000 cycles: 4583549536 heartbeat IPC: 1.61288 cumulative IPC: 1.48248 (Simulation time: 13 hr 36 min 22 sec) 
Heartbeat CPU 2 instructions: 7080000000 cycles: 4584817134 heartbeat IPC: 1.59189 cumulative IPC: 1.52145 (Simulation time: 13 hr 36 min 35 sec) 
Heartbeat CPU 0 instructions: 6910000003 cycles: 4589865125 heartbeat IPC: 1.58338 cumulative IPC: 1.48262 (Simulation time: 13 hr 37 min 24 sec) 
Heartbeat CPU 3 instructions: 3160000000 cycles: 4590480407 heartbeat IPC: 0.546369 cumulative IPC: 0.643588 (Simulation time: 13 hr 37 min 30 sec) 
Heartbeat CPU 2 instructions: 7090000003 cycles: 4591879247 heartbeat IPC: 1.41601 cumulative IPC: 1.52128 (Simulation time: 13 hr 37 min 43 sec) 
Heartbeat CPU 0 instructions: 6920000000 cycles: 4596111247 heartbeat IPC: 1.60099 cumulative IPC: 1.48278 (Simulation time: 13 hr 38 min 25 sec) 
Heartbeat CPU 2 instructions: 7100000000 cycles: 4598346475 heartbeat IPC: 1.54626 cumulative IPC: 1.52132 (Simulation time: 13 hr 38 min 48 sec) 
Heartbeat CPU 0 instructions: 6930000001 cycles: 4602423795 heartbeat IPC: 1.58415 cumulative IPC: 1.48293 (Simulation time: 13 hr 39 min 26 sec) 
Heartbeat CPU 2 instructions: 7110000002 cycles: 4605450498 heartbeat IPC: 1.40765 cumulative IPC: 1.52114 (Simulation time: 13 hr 39 min 56 sec) 
Heartbeat CPU 3 instructions: 3170000000 cycles: 4608624411 heartbeat IPC: 0.551146 cumulative IPC: 0.643214 (Simulation time: 13 hr 40 min 27 sec) 
Heartbeat CPU 0 instructions: 6940000000 cycles: 4608794332 heartbeat IPC: 1.56973 cumulative IPC: 1.48305 (Simulation time: 13 hr 40 min 29 sec) 
Heartbeat CPU 2 instructions: 7120000000 cycles: 4611894673 heartbeat IPC: 1.55179 cumulative IPC: 1.52118 (Simulation time: 13 hr 41 min 0 sec) 
Heartbeat CPU 0 instructions: 6950000002 cycles: 4615112325 heartbeat IPC: 1.58278 cumulative IPC: 1.48319 (Simulation time: 13 hr 41 min 32 sec) 
Heartbeat CPU 2 instructions: 7130000001 cycles: 4618877125 heartbeat IPC: 1.43216 cumulative IPC: 1.52104 (Simulation time: 13 hr 42 min 8 sec) 
Heartbeat CPU 0 instructions: 6960000000 cycles: 4621517210 heartbeat IPC: 1.56131 cumulative IPC: 1.4833 (Simulation time: 13 hr 42 min 34 sec) 
Heartbeat CPU 1 instructions: 1200000000 cycles: 4624536866 heartbeat IPC: 0.217523 cumulative IPC: 0.222411 (Simulation time: 13 hr 43 min 4 sec) 
Finished CPU 1 instructions: 1000000001 cycles: 4496174803 cumulative IPC: 0.222411 (Simulation time: 13 hr 43 min 4 sec) 

CPU 0 Branch Prediction Accuracy: 97.0685% MPKI: 4.10585

CPU 1 Branch Prediction Accuracy: 92.789% MPKI: 15.8169

CPU 2 Branch Prediction Accuracy: 96.7764% MPKI: 4.40632

CPU 3 Branch Prediction Accuracy: 97.7892% MPKI: 0.338057

ChampSim completed all CPUs

Total Simulation Statistics (not including warmup)

CPU 0 cumulative IPC: 1.4834 instructions: 6669610865 cycles: 4496174803
L1D TOTAL     ACCESS: 1785813106  HIT: 1785812884  MISS:        222
L1D LOAD      ACCESS:  801608386  HIT:  801608260  MISS:        126
L1D RFO       ACCESS:  984204720  HIT:  984204624  MISS:         96
L1D PREFETCH  ACCESS:          0  HIT:          0  MISS:          0
L1D WRITEBACK ACCESS:          0  HIT:          0  MISS:          0
L1I TOTAL     ACCESS: 1477665508  HIT: 1477008874  MISS:     656634
L1I LOAD      ACCESS: 1477665508  HIT: 1477008874  MISS:     656634
L1I RFO       ACCESS:          0  HIT:          0  MISS:          0
L1I PREFETCH  ACCESS:          0  HIT:          0  MISS:          0
L1I WRITEBACK ACCESS:          0  HIT:          0  MISS:          0
L2C TOTAL     ACCESS:    1606215  HIT:    1605716  MISS:        499
L2C LOAD      ACCESS:     656760  HIT:     656338  MISS:        422
L2C RFO       ACCESS:         96  HIT:         38  MISS:         58
L2C PREFETCH  ACCESS:     949308  HIT:     949289  MISS:         19
L2C WRITEBACK ACCESS:         51  HIT:         51  MISS:          0
LLC TOTAL     ACCESS:      10748  HIT:       6468  MISS:       4280
LLC LOAD      ACCESS:        421  HIT:        122  MISS:        299
LLC RFO       ACCESS:         58  HIT:          0  MISS:         58
LLC PREFETCH  ACCESS:      10269  HIT:       6346  MISS:       3923
LLC WRITEBACK ACCESS:          0  HIT:          0  MISS:          0

CPU 1 cumulative IPC: 0.222411 instructions: 1000000001 cycles: 4496174803
L1D TOTAL     ACCESS:  342180651  HIT:  269888456  MISS:   72292195
L1D LOAD      ACCESS:  259460738  HIT:  190314223  MISS:   69146515
L1D RFO       ACCESS:   82719913  HIT:   79574233  MISS:    3145680
L1D PREFETCH  ACCESS:          0  HIT:          0  MISS:          0
L1D WRITEBACK ACCESS:          0  HIT:          0  MISS:          0
L1I TOTAL     ACCESS:  234552492  HIT:  234552490  MISS:          2
L1I LOAD      ACCESS:  234552492  HIT:  234552490  MISS:          2
L1I RFO       ACCESS:          0  HIT:          0  MISS:          0
L1I PREFETCH  ACCESS:          0  HIT:          0  MISS:          0
L1I WRITEBACK ACCESS:          0  HIT:          0  MISS:          0
L2C TOTAL     ACCESS:   82160016  HIT:   18155767  MISS:   64004249
L2C LOAD      ACCESS:   69146209  HIT:   11133734  MISS:   58012475
L2C RFO       ACCESS:    3145666  HIT:     560986  MISS:    2584680
L2C PREFETCH  ACCESS:    4750801  HIT:    1349826  MISS:    3400975
L2C WRITEBACK ACCESS:    5117340  HIT:    5111221  MISS:       6119
LLC TOTAL     ACCESS:   95547434  HIT:   65012751  MISS:   30534683
LLC LOAD      ACCESS:   56955546  HIT:   42002556  MISS:   14952990
LLC RFO       ACCESS:    2584650  HIT:    2558497  MISS:      26153
LLC PREFETCH  ACCESS:   31705817  HIT:   16151474  MISS:   15554343
LLC WRITEBACK ACCESS:    4301421  HIT:    4300224  MISS:       1197

CPU 2 cumulative IPC: 1.52109 instructions: 6839070207 cycles: 4496174804
L1D TOTAL     ACCESS: 1912896031  HIT: 1912895988  MISS:         43
L1D LOAD      ACCESS:  832109184  HIT:  832109159  MISS:         25
L1D RFO       ACCESS: 1080786847  HIT: 1080786829  MISS:         18
L1D PREFETCH  ACCESS:          0  HIT:          0  MISS:          0
L1D WRITEBACK ACCESS:          0  HIT:          0  MISS:          0
L1I TOTAL     ACCESS: 1497328917  HIT: 1497069890  MISS:     259027
L1I LOAD      ACCESS: 1497328917  HIT: 1497069890  MISS:     259027
L1I RFO       ACCESS:          0  HIT:          0  MISS:          0
L1I PREFETCH  ACCESS:          0  HIT:          0  MISS:          0
L1I WRITEBACK ACCESS:          0  HIT:          0  MISS:          0
L2C TOTAL     ACCESS:     627444  HIT:     627262  MISS:        182
L2C LOAD      ACCESS:     259052  HIT:     258913  MISS:        139
L2C RFO       ACCESS:         18  HIT:          0  MISS:         18
L2C PREFETCH  ACCESS:     368374  HIT:     368349  MISS:         25
L2C WRITEBACK ACCESS:          0  HIT:          0  MISS:          0
LLC TOTAL     ACCESS:       6048  HIT:       2621  MISS:       3427
LLC LOAD      ACCESS:        137  HIT:         47  MISS:         90
LLC RFO       ACCESS:         18  HIT:          0  MISS:         18
LLC PREFETCH  ACCESS:       5893  HIT:       2574  MISS:       3319
LLC WRITEBACK ACCESS:          0  HIT:          0  MISS:          0

CPU 3 cumulative IPC: 0.64288 instructions: 2890499698 cycles: 4496174804
L1D TOTAL     ACCESS:  782335913  HIT:  595727484  MISS:  186608429
L1D LOAD      ACCESS:  284261168  HIT:  255968573  MISS:   28292595
L1D RFO       ACCESS:  498074745  HIT:  339758911  MISS:  158315834
L1D PREFETCH  ACCESS:          0  HIT:          0  MISS:          0
L1D WRITEBACK ACCESS:          0  HIT:          0  MISS:          0
L1I TOTAL     ACCESS:  696355816  HIT:  696355813  MISS:          3
L1I LOAD      ACCESS:  696355816  HIT:  696355813  MISS:          3
L1I RFO       ACCESS:          0  HIT:          0  MISS:          0
L1I PREFETCH  ACCESS:          0  HIT:          0  MISS:          0
L1I WRITEBACK ACCESS:          0  HIT:          0  MISS:          0
L2C TOTAL     ACCESS:  350419448  HIT:  210792929  MISS:  139626519
L2C LOAD      ACCESS:   28292598  HIT:    5447231  MISS:   22845367
L2C RFO       ACCESS:  158315724  HIT:   46995891  MISS:  111319833
L2C PREFETCH  ACCESS:    5495290  HIT:      61432  MISS:    5433858
L2C WRITEBACK ACCESS:  158315836  HIT:  158288375  MISS:      27461
LLC TOTAL     ACCESS:  303614656  HIT:  190557084  MISS:  113057572
LLC LOAD      ACCESS:   20917832  HIT:   18063344  MISS:    2854488
LLC RFO       ACCESS:  111267171  HIT:   26476774  MISS:   84790397
LLC PREFETCH  ACCESS:   60083916  HIT:   34674955  MISS:   25408961
LLC WRITEBACK ACCESS:  111345737  HIT:  111342011  MISS:       3726

Region of Interest Statistics

CPU 0 cumulative IPC: 1.44423 instructions: 1000000000 cycles: 692408165
L1D TOTAL     ACCESS:  267935578  HIT:  267935440  MISS:        138
L1D LOAD      ACCESS:  121852452  HIT:  121852377  MISS:         75
L1D RFO       ACCESS:  146083126  HIT:  146083063  MISS:         63
L1D PREFETCH  ACCESS:          0  HIT:          0  MISS:          0
L1D WRITEBACK ACCESS:          0  HIT:          0  MISS:          0
L1D PREFETCH  REQUESTED:          0  ISSUED:          0  USEFUL:          0  USELESS:          0
L1I TOTAL     ACCESS:  222499699  HIT:  222374644  MISS:     125055
L1I LOAD      ACCESS:  222499699  HIT:  222374644  MISS:     125055
L1I RFO       ACCESS:          0  HIT:          0  MISS:          0
L1I PREFETCH  ACCESS:          0  HIT:          0  MISS:          0
L1I WRITEBACK ACCESS:          0  HIT:          0  MISS:          0
L1I PREFETCH  REQUESTED:          0  ISSUED:          0  USEFUL:          0  USELESS:          0
L2C TOTAL     ACCESS:     305885  HIT:     305396  MISS:        489
L2C LOAD      ACCESS:     125130  HIT:     124711  MISS:        419
L2C RFO       ACCESS:         63  HIT:          5  MISS:         58
L2C PREFETCH  ACCESS:     180681  HIT:     180669  MISS:         12
L2C WRITEBACK ACCESS:         11  HIT:         11  MISS:          0
L2C PREFETCH  REQUESTED:    1790218  ISSUED:    1790218  USEFUL:        109  USELESS:          0
LLC TOTAL     ACCESS:       3282  HIT:       1776  MISS:       1506
LLC LOAD      ACCESS:        418  HIT:        122  MISS:        296
LLC RFO       ACCESS:         58  HIT:          0  MISS:         58
LLC PREFETCH  ACCESS:       2806  HIT:       1654  MISS:       1152
LLC WRITEBACK ACCESS:          0  HIT:          0  MISS:          0
LLC PREFETCH  REQUESTED:          0  ISSUED:          0  USEFUL:   31062772  USELESS:   15766332
Major fault: 0 Minor fault: 86

CPU 1 cumulative IPC: 0.222411 instructions: 1000000001 cycles: 4496174803
L1D TOTAL     ACCESS:  342180651  HIT:  269888456  MISS:   72292195
L1D LOAD      ACCESS:  259460738  HIT:  190314223  MISS:   69146515
L1D RFO       ACCESS:   82719913  HIT:   79574233  MISS:    3145680
L1D PREFETCH  ACCESS:          0  HIT:          0  MISS:          0
L1D WRITEBACK ACCESS:          0  HIT:          0  MISS:          0
L1D PREFETCH  REQUESTED:          0  ISSUED:          0  USEFUL:          0  USELESS:          0
L1I TOTAL     ACCESS:  234552492  HIT:  234552490  MISS:          2
L1I LOAD      ACCESS:  234552492  HIT:  234552490  MISS:          2
L1I RFO       ACCESS:          0  HIT:          0  MISS:          0
L1I PREFETCH  ACCESS:          0  HIT:          0  MISS:          0
L1I WRITEBACK ACCESS:          0  HIT:          0  MISS:          0
L1I PREFETCH  REQUESTED:          0  ISSUED:          0  USEFUL:          0  USELESS:          0
L2C TOTAL     ACCESS:   82160016  HIT:   18155767  MISS:   64004249
L2C LOAD      ACCESS:   69146209  HIT:   11133734  MISS:   58012475
L2C RFO       ACCESS:    3145666  HIT:     560986  MISS:    2584680
L2C PREFETCH  ACCESS:    4750801  HIT:    1349826  MISS:    3400975
L2C WRITEBACK ACCESS:    5117340  HIT:    5111221  MISS:       6119
L2C PREFETCH  REQUESTED:  103802583  ISSUED:  103802583  USEFUL:    3470032  USELESS:    1189771
LLC TOTAL     ACCESS:   95547433  HIT:   65012750  MISS:   30534683
LLC LOAD      ACCESS:   56955545  HIT:   42002555  MISS:   14952990
LLC RFO       ACCESS:    2584650  HIT:    2558497  MISS:      26153
LLC PREFETCH  ACCESS:   31705817  HIT:   16151474  MISS:   15554343
LLC WRITEBACK ACCESS:    4301421  HIT:    4300224  MISS:       1197
LLC PREFETCH  REQUESTED:          0  ISSUED:          0  USEFUL:   31062772  USELESS:   15766332
Major fault: 0 Minor fault: 392625

CPU 2 cumulative IPC: 1.51093 instructions: 1000000000 cycles: 661845695
L1D TOTAL     ACCESS:  277495451  HIT:  277495414  MISS:         37
L1D LOAD      ACCESS:  121442026  HIT:  121442007  MISS:         19
L1D RFO       ACCESS:  156053425  HIT:  156053407  MISS:         18
L1D PREFETCH  ACCESS:          0  HIT:          0  MISS:          0
L1D WRITEBACK ACCESS:          0  HIT:          0  MISS:          0
L1D PREFETCH  REQUESTED:          0  ISSUED:          0  USEFUL:          0  USELESS:          0
L1I TOTAL     ACCESS:  219543144  HIT:  219490601  MISS:      52543
L1I LOAD      ACCESS:  219543144  HIT:  219490601  MISS:      52543
L1I RFO       ACCESS:          0  HIT:          0  MISS:          0
L1I PREFETCH  ACCESS:          0  HIT:          0  MISS:          0
L1I WRITEBACK ACCESS:          0  HIT:          0  MISS:          0
L1I PREFETCH  REQUESTED:          0  ISSUED:          0  USEFUL:          0  USELESS:          0
L2C TOTAL     ACCESS:     126258  HIT:     126085  MISS:        173
L2C LOAD      ACCESS:      52562  HIT:      52429  MISS:        133
L2C RFO       ACCESS:         18  HIT:          0  MISS:         18
L2C PREFETCH  ACCESS:      73678  HIT:      73656  MISS:         22
L2C WRITEBACK ACCESS:          0  HIT:          0  MISS:          0
L2C PREFETCH  REQUESTED:     666134  ISSUED:     666134  USEFUL:        123  USELESS:          0
LLC TOTAL     ACCESS:       1469  HIT:        577  MISS:        892
LLC LOAD      ACCESS:        131  HIT:         47  MISS:         84
LLC RFO       ACCESS:         18  HIT:          0  MISS:         18
LLC PREFETCH  ACCESS:       1320  HIT:        530  MISS:        790
LLC WRITEBACK ACCESS:          0  HIT:          0  MISS:          0
LLC PREFETCH  REQUESTED:          0  ISSUED:          0  USEFUL:   31062772  USELESS:   15766332
Major fault: 0 Minor fault: 49

CPU 3 cumulative IPC: 0.655737 instructions: 1000000000 cycles: 1525002247
L1D TOTAL     ACCESS:  269728930  HIT:  206638007  MISS:   63090923
L1D LOAD      ACCESS:   98536611  HIT:   88971056  MISS:    9565555
L1D RFO       ACCESS:  171192319  HIT:  117666951  MISS:   53525368
L1D PREFETCH  ACCESS:          0  HIT:          0  MISS:          0
L1D WRITEBACK ACCESS:          0  HIT:          0  MISS:          0
L1D PREFETCH  REQUESTED:          0  ISSUED:          0  USEFUL:          0  USELESS:          0
L1I TOTAL     ACCESS:  240686109  HIT:  240686106  MISS:          3
L1I LOAD      ACCESS:  240686109  HIT:  240686106  MISS:          3
L1I RFO       ACCESS:          0  HIT:          0  MISS:          0
L1I PREFETCH  ACCESS:          0  HIT:          0  MISS:          0
L1I WRITEBACK ACCESS:          0  HIT:          0  MISS:          0
L1I PREFETCH  REQUESTED:          0  ISSUED:          0  USEFUL:          0  USELESS:          0
L2C TOTAL     ACCESS:  118450480  HIT:   71371081  MISS:   47079399
L2C LOAD      ACCESS:    9565559  HIT:    1819805  MISS:    7745754
L2C RFO       ACCESS:   53525339  HIT:   16016001  MISS:   37509338
L2C PREFETCH  ACCESS:    1834216  HIT:      19059  MISS:    1815157
L2C WRITEBACK ACCESS:   53525366  HIT:   53516216  MISS:       9150
L2C PREFETCH  REQUESTED:  149481504  ISSUED:  149481504  USEFUL:    6202538  USELESS:        168
LLC TOTAL     ACCESS:  102121669  HIT:   63897940  MISS:   38223729
LLC LOAD      ACCESS:    7105144  HIT:    6126261  MISS:     978883
LLC RFO       ACCESS:   37491496  HIT:    8824591  MISS:   28666905
LLC PREFETCH  ACCESS:   20007171  HIT:   11430456  MISS:    8576715
LLC WRITEBACK ACCESS:   37517858  HIT:   37516632  MISS:       1226
LLC PREFETCH  REQUESTED:          0  ISSUED:          0  USEFUL:   31062772  USELESS:   15766332
Major fault: 0 Minor fault: 632189

DRAM Statistics
 CHANNEL 0
 RQ ROW_BUFFER_HIT:   20695989  ROW_BUFFER_MISS:   51082121
 DBUS_CONGESTED:  144991656
 WQ ROW_BUFFER_HIT:    3504557  ROW_BUFFER_MISS:   39027221  FULL:          0

 CHANNEL 1
 RQ ROW_BUFFER_HIT:   20667010  ROW_BUFFER_MISS:   51149766
 DBUS_CONGESTED:  144991656
 WQ ROW_BUFFER_HIT:    3494757  ROW_BUFFER_MISS:   39036326  FULL:          0

 AVG_CONGESTED_CYCLE: 13
