Initialize SIGNATURE TABLE
ST_SET: 1
ST_WAY: 256
ST_TAG_BIT: 16
ST_TAG_MASK: ffff

Initialize PATTERN TABLE
PT_SET: 512
PT_WAY: 4
SIG_DELTA_BIT: 7
C_SIG_BIT: 4
C_DELTA_BIT: 4

Initialize PREFETCH FILTER
FILTER_SET: 1024

*** ChampSim Multicore Out-of-Order Simulator ***

Warmup Instructions: 200000000
Simulation Instructions: 1000000000
Number of CPUs: 4
LLC sets: 8192
LLC ways: 16
Off-chip DRAM Size: 8192 MB Channels: 2 Width: 64-bit Data Rate: 1600 MT/s

CPU 0 runs /scratch/user/djimenez/champsim-traces/speccpu2017/xz/657.xz_s/657.xz_s-2302B.champsimtrace.xz
CPU 1 runs /scratch/user/djimenez/champsim-traces/speccpu2017/xz/648.exchange2_s/648.exchange2_s-387B.champsimtrace.xz
CPU 2 runs /scratch/user/djimenez/champsim-traces/speccpu2017/xz/648.exchange2_s/648.exchange2_s-1712B.champsimtrace.xz
CPU 3 runs /scratch/user/djimenez/champsim-traces/speccpu2017/xz/607.cactuBSSN_s/607.cactuBSSN_s-2421B.champsimtrace.xz
Heartbeat CPU 1 instructions: 10000000 cycles: 4364096 heartbeat IPC: 2.29143 cumulative IPC: 2.29143 (Simulation time: 0 hr 1 min 31 sec) 
Heartbeat CPU 2 instructions: 10000000 cycles: 4419274 heartbeat IPC: 2.26281 cumulative IPC: 2.26281 (Simulation time: 0 hr 1 min 32 sec) 
Heartbeat CPU 0 instructions: 10000002 cycles: 4454183 heartbeat IPC: 2.24508 cumulative IPC: 2.24508 (Simulation time: 0 hr 1 min 33 sec) 
Heartbeat CPU 3 instructions: 10000000 cycles: 5800723 heartbeat IPC: 1.72392 cumulative IPC: 1.72392 (Simulation time: 0 hr 2 min 1 sec) 
Heartbeat CPU 2 instructions: 20000000 cycles: 8771660 heartbeat IPC: 2.29759 cumulative IPC: 2.28007 (Simulation time: 0 hr 3 min 2 sec) 
Heartbeat CPU 1 instructions: 20000000 cycles: 8782853 heartbeat IPC: 2.26308 cumulative IPC: 2.27716 (Simulation time: 0 hr 3 min 2 sec) 
Heartbeat CPU 0 instructions: 20000000 cycles: 8874234 heartbeat IPC: 2.26242 cumulative IPC: 2.25372 (Simulation time: 0 hr 3 min 4 sec) 
Heartbeat CPU 3 instructions: 20000000 cycles: 11600460 heartbeat IPC: 1.72422 cumulative IPC: 1.72407 (Simulation time: 0 hr 4 min 1 sec) 
Heartbeat CPU 2 instructions: 30000003 cycles: 13154704 heartbeat IPC: 2.28152 cumulative IPC: 2.28055 (Simulation time: 0 hr 4 min 33 sec) 
Heartbeat CPU 1 instructions: 30000000 cycles: 13182878 heartbeat IPC: 2.27271 cumulative IPC: 2.27568 (Simulation time: 0 hr 4 min 34 sec) 
Heartbeat CPU 0 instructions: 30000003 cycles: 13386860 heartbeat IPC: 2.21601 cumulative IPC: 2.241 (Simulation time: 0 hr 4 min 38 sec) 
Heartbeat CPU 3 instructions: 30000001 cycles: 17402197 heartbeat IPC: 1.72362 cumulative IPC: 1.72392 (Simulation time: 0 hr 6 min 1 sec) 
Heartbeat CPU 2 instructions: 40000000 cycles: 17519566 heartbeat IPC: 2.29102 cumulative IPC: 2.28316 (Simulation time: 0 hr 6 min 3 sec) 
Heartbeat CPU 1 instructions: 40000000 cycles: 17589273 heartbeat IPC: 2.26943 cumulative IPC: 2.27411 (Simulation time: 0 hr 6 min 5 sec) 
Heartbeat CPU 0 instructions: 40000000 cycles: 17867811 heartbeat IPC: 2.23167 cumulative IPC: 2.23866 (Simulation time: 0 hr 6 min 10 sec) 
Heartbeat CPU 2 instructions: 50000000 cycles: 21918952 heartbeat IPC: 2.27304 cumulative IPC: 2.28113 (Simulation time: 0 hr 7 min 33 sec) 
Heartbeat CPU 1 instructions: 50000001 cycles: 21994353 heartbeat IPC: 2.27011 cumulative IPC: 2.27331 (Simulation time: 0 hr 7 min 35 sec) 
Heartbeat CPU 0 instructions: 50000003 cycles: 22386105 heartbeat IPC: 2.21323 cumulative IPC: 2.23353 (Simulation time: 0 hr 7 min 43 sec) 
Heartbeat CPU 3 instructions: 40000000 cycles: 23203847 heartbeat IPC: 1.72365 cumulative IPC: 1.72385 (Simulation time: 0 hr 8 min 0 sec) 
Heartbeat CPU 2 instructions: 60000000 cycles: 26309636 heartbeat IPC: 2.27755 cumulative IPC: 2.28053 (Simulation time: 0 hr 9 min 3 sec) 
Heartbeat CPU 1 instructions: 60000000 cycles: 26449522 heartbeat IPC: 2.24458 cumulative IPC: 2.26847 (Simulation time: 0 hr 9 min 6 sec) 
Heartbeat CPU 0 instructions: 60000000 cycles: 26834960 heartbeat IPC: 2.24777 cumulative IPC: 2.23589 (Simulation time: 0 hr 9 min 14 sec) 
Heartbeat CPU 3 instructions: 50000003 cycles: 29004935 heartbeat IPC: 1.72382 cumulative IPC: 1.72384 (Simulation time: 0 hr 9 min 59 sec) 
Heartbeat CPU 2 instructions: 70000002 cycles: 30720144 heartbeat IPC: 2.26731 cumulative IPC: 2.27864 (Simulation time: 0 hr 10 min 35 sec) 
Heartbeat CPU 1 instructions: 70000003 cycles: 30847546 heartbeat IPC: 2.27375 cumulative IPC: 2.26922 (Simulation time: 0 hr 10 min 37 sec) 
Heartbeat CPU 0 instructions: 70000002 cycles: 31241662 heartbeat IPC: 2.26927 cumulative IPC: 2.2406 (Simulation time: 0 hr 10 min 45 sec) 
Heartbeat CPU 3 instructions: 60000000 cycles: 33709639 heartbeat IPC: 2.12553 cumulative IPC: 1.77991 (Simulation time: 0 hr 11 min 39 sec) 
Heartbeat CPU 2 instructions: 80000000 cycles: 35123282 heartbeat IPC: 2.27111 cumulative IPC: 2.27769 (Simulation time: 0 hr 12 min 10 sec) 
Heartbeat CPU 1 instructions: 80000000 cycles: 35283957 heartbeat IPC: 2.25407 cumulative IPC: 2.26732 (Simulation time: 0 hr 12 min 13 sec) 
Heartbeat CPU 0 instructions: 80000000 cycles: 35657369 heartbeat IPC: 2.26464 cumulative IPC: 2.24358 (Simulation time: 0 hr 12 min 22 sec) 
Heartbeat CPU 3 instructions: 70000000 cycles: 38139714 heartbeat IPC: 2.2573 cumulative IPC: 1.83536 (Simulation time: 0 hr 13 min 25 sec) 
Heartbeat CPU 2 instructions: 90000000 cycles: 39518553 heartbeat IPC: 2.27517 cumulative IPC: 2.27741 (Simulation time: 0 hr 13 min 55 sec) 
Heartbeat CPU 1 instructions: 90000002 cycles: 39670622 heartbeat IPC: 2.27964 cumulative IPC: 2.26868 (Simulation time: 0 hr 13 min 58 sec) 
Heartbeat CPU 0 instructions: 90000000 cycles: 40100180 heartbeat IPC: 2.25083 cumulative IPC: 2.24438 (Simulation time: 0 hr 14 min 7 sec) 
Heartbeat CPU 3 instructions: 80000000 cycles: 42568731 heartbeat IPC: 2.25784 cumulative IPC: 1.87931 (Simulation time: 0 hr 15 min 0 sec) 
Heartbeat CPU 2 instructions: 100000000 cycles: 43920191 heartbeat IPC: 2.27188 cumulative IPC: 2.27686 (Simulation time: 0 hr 15 min 30 sec) 
Heartbeat CPU 1 instructions: 100000000 cycles: 44083194 heartbeat IPC: 2.26625 cumulative IPC: 2.26844 (Simulation time: 0 hr 15 min 33 sec) 
Heartbeat CPU 0 instructions: 100000000 cycles: 44498200 heartbeat IPC: 2.27375 cumulative IPC: 2.24728 (Simulation time: 0 hr 15 min 42 sec) 
Heartbeat CPU 3 instructions: 90000002 cycles: 46998638 heartbeat IPC: 2.25738 cumulative IPC: 1.91495 (Simulation time: 0 hr 16 min 37 sec) 
Heartbeat CPU 2 instructions: 110000000 cycles: 48329033 heartbeat IPC: 2.26817 cumulative IPC: 2.27606 (Simulation time: 0 hr 17 min 5 sec) 
Heartbeat CPU 1 instructions: 110000001 cycles: 48504724 heartbeat IPC: 2.26166 cumulative IPC: 2.26782 (Simulation time: 0 hr 17 min 9 sec) 
Heartbeat CPU 0 instructions: 110000003 cycles: 48846176 heartbeat IPC: 2.29992 cumulative IPC: 2.25197 (Simulation time: 0 hr 17 min 17 sec) 
Heartbeat CPU 3 instructions: 100000000 cycles: 51428062 heartbeat IPC: 2.25763 cumulative IPC: 1.94446 (Simulation time: 0 hr 18 min 13 sec) 
Heartbeat CPU 2 instructions: 120000000 cycles: 52743237 heartbeat IPC: 2.26541 cumulative IPC: 2.27517 (Simulation time: 0 hr 18 min 51 sec) 
Heartbeat CPU 1 instructions: 120000000 cycles: 52890698 heartbeat IPC: 2.27999 cumulative IPC: 2.26883 (Simulation time: 0 hr 18 min 54 sec) 
Heartbeat CPU 0 instructions: 120000000 cycles: 53303209 heartbeat IPC: 2.24364 cumulative IPC: 2.25127 (Simulation time: 0 hr 19 min 3 sec) 
Heartbeat CPU 3 instructions: 110000003 cycles: 55857931 heartbeat IPC: 2.2574 cumulative IPC: 1.96928 (Simulation time: 0 hr 19 min 57 sec) 
Heartbeat CPU 2 instructions: 130000003 cycles: 57183160 heartbeat IPC: 2.25229 cumulative IPC: 2.2734 (Simulation time: 0 hr 20 min 26 sec) 
Heartbeat CPU 1 instructions: 130000002 cycles: 57287513 heartbeat IPC: 2.27437 cumulative IPC: 2.26926 (Simulation time: 0 hr 20 min 28 sec) 
Heartbeat CPU 0 instructions: 130000000 cycles: 57515508 heartbeat IPC: 2.374 cumulative IPC: 2.26026 (Simulation time: 0 hr 20 min 33 sec) 
Heartbeat CPU 3 instructions: 120000000 cycles: 60287590 heartbeat IPC: 2.25751 cumulative IPC: 1.99046 (Simulation time: 0 hr 21 min 32 sec) 
Heartbeat CPU 2 instructions: 140000000 cycles: 61611594 heartbeat IPC: 2.25813 cumulative IPC: 2.2723 (Simulation time: 0 hr 22 min 0 sec) 
Heartbeat CPU 0 instructions: 140000000 cycles: 61683428 heartbeat IPC: 2.39928 cumulative IPC: 2.26965 (Simulation time: 0 hr 22 min 2 sec) 
Heartbeat CPU 1 instructions: 140000000 cycles: 61704581 heartbeat IPC: 2.26394 cumulative IPC: 2.26888 (Simulation time: 0 hr 22 min 2 sec) 
Heartbeat CPU 3 instructions: 130000000 cycles: 64717194 heartbeat IPC: 2.25754 cumulative IPC: 2.00874 (Simulation time: 0 hr 23 min 6 sec) 
Heartbeat CPU 0 instructions: 150000000 cycles: 65906763 heartbeat IPC: 2.3678 cumulative IPC: 2.27594 (Simulation time: 0 hr 23 min 32 sec) 
Heartbeat CPU 2 instructions: 150000002 cycles: 66026683 heartbeat IPC: 2.26496 cumulative IPC: 2.27181 (Simulation time: 0 hr 23 min 35 sec) 
Heartbeat CPU 1 instructions: 150000000 cycles: 66108203 heartbeat IPC: 2.27086 cumulative IPC: 2.26901 (Simulation time: 0 hr 23 min 36 sec) 
Heartbeat CPU 3 instructions: 140000000 cycles: 69146750 heartbeat IPC: 2.25756 cumulative IPC: 2.02468 (Simulation time: 0 hr 24 min 44 sec) 
Heartbeat CPU 0 instructions: 160000000 cycles: 70265718 heartbeat IPC: 2.29413 cumulative IPC: 2.27707 (Simulation time: 0 hr 25 min 7 sec) 
Heartbeat CPU 1 instructions: 160000000 cycles: 70466889 heartbeat IPC: 2.29427 cumulative IPC: 2.27057 (Simulation time: 0 hr 25 min 12 sec) 
Heartbeat CPU 2 instructions: 160000000 cycles: 70470323 heartbeat IPC: 2.25041 cumulative IPC: 2.27046 (Simulation time: 0 hr 25 min 12 sec) 
Heartbeat CPU 3 instructions: 150000000 cycles: 73577488 heartbeat IPC: 2.25696 cumulative IPC: 2.03867 (Simulation time: 0 hr 26 min 13 sec) 
Heartbeat CPU 0 instructions: 170000003 cycles: 74816516 heartbeat IPC: 2.19742 cumulative IPC: 2.27223 (Simulation time: 0 hr 26 min 38 sec) 
Heartbeat CPU 1 instructions: 170000000 cycles: 74862820 heartbeat IPC: 2.27483 cumulative IPC: 2.27082 (Simulation time: 0 hr 26 min 39 sec) 
Heartbeat CPU 2 instructions: 170000000 cycles: 74906145 heartbeat IPC: 2.25437 cumulative IPC: 2.26951 (Simulation time: 0 hr 26 min 40 sec) 
Heartbeat CPU 3 instructions: 160000000 cycles: 78007309 heartbeat IPC: 2.25743 cumulative IPC: 2.05109 (Simulation time: 0 hr 27 min 42 sec) 
Heartbeat CPU 1 instructions: 180000000 cycles: 79274163 heartbeat IPC: 2.26688 cumulative IPC: 2.2706 (Simulation time: 0 hr 28 min 8 sec) 
Heartbeat CPU 0 instructions: 180000000 cycles: 79350578 heartbeat IPC: 2.20553 cumulative IPC: 2.26841 (Simulation time: 0 hr 28 min 9 sec) 
Heartbeat CPU 2 instructions: 180000000 cycles: 79357501 heartbeat IPC: 2.24651 cumulative IPC: 2.26822 (Simulation time: 0 hr 28 min 9 sec) 
Heartbeat CPU 3 instructions: 170000000 cycles: 82436909 heartbeat IPC: 2.25754 cumulative IPC: 2.06218 (Simulation time: 0 hr 29 min 11 sec) 
Heartbeat CPU 1 instructions: 190000002 cycles: 83689605 heartbeat IPC: 2.26478 cumulative IPC: 2.27029 (Simulation time: 0 hr 29 min 36 sec) 
Heartbeat CPU 2 instructions: 190000002 cycles: 83803241 heartbeat IPC: 2.24934 cumulative IPC: 2.26722 (Simulation time: 0 hr 29 min 38 sec) 
Heartbeat CPU 0 instructions: 190000001 cycles: 83891978 heartbeat IPC: 2.20196 cumulative IPC: 2.26482 (Simulation time: 0 hr 29 min 40 sec) 
Heartbeat CPU 3 instructions: 180000000 cycles: 86866802 heartbeat IPC: 2.25739 cumulative IPC: 2.07214 (Simulation time: 0 hr 30 min 39 sec) 
Heartbeat CPU 1 instructions: 200000000 cycles: 88081041 heartbeat IPC: 2.27716 cumulative IPC: 2.27064 (Simulation time: 0 hr 31 min 3 sec) 
Heartbeat CPU 2 instructions: 200000000 cycles: 88174676 heartbeat IPC: 2.28758 cumulative IPC: 2.26822 (Simulation time: 0 hr 31 min 5 sec) 
Heartbeat CPU 0 instructions: 200000000 cycles: 88431938 heartbeat IPC: 2.20266 cumulative IPC: 2.26163 (Simulation time: 0 hr 31 min 10 sec) 
Heartbeat CPU 3 instructions: 190000002 cycles: 91296424 heartbeat IPC: 2.25753 cumulative IPC: 2.08113 (Simulation time: 0 hr 32 min 7 sec) 
Heartbeat CPU 1 instructions: 210000000 cycles: 92445949 heartbeat IPC: 2.291 cumulative IPC: 0.108171 (Simulation time: 0 hr 32 min 31 sec) 
Heartbeat CPU 2 instructions: 210000003 cycles: 92510484 heartbeat IPC: 2.30638 cumulative IPC: 0.108096 (Simulation time: 0 hr 32 min 32 sec) 
Heartbeat CPU 0 instructions: 210000000 cycles: 92962263 heartbeat IPC: 2.20735 cumulative IPC: 0.107571 (Simulation time: 0 hr 32 min 42 sec) 
Heartbeat CPU 3 instructions: 200000000 cycles: 95726185 heartbeat IPC: 2.25746 cumulative IPC: 2.08929 (Simulation time: 0 hr 33 min 42 sec) 

Warmup complete CPU 0 instructions: 216076593 cycles: 95726186 (Simulation time: 0 hr 33 min 42 sec) 
Warmup complete CPU 1 instructions: 217600390 cycles: 95726186 (Simulation time: 0 hr 33 min 42 sec) 
Warmup complete CPU 2 instructions: 217510811 cycles: 95726186 (Simulation time: 0 hr 33 min 42 sec) 
Warmup complete CPU 3 instructions: 200000003 cycles: 95726186 (Simulation time: 0 hr 33 min 42 sec) 

Heartbeat CPU 2 instructions: 220000000 cycles: 97240384 heartbeat IPC: 2.11421 cumulative IPC: 1.6439 (Simulation time: 0 hr 34 min 2 sec) 
Heartbeat CPU 1 instructions: 220000000 cycles: 98152301 heartbeat IPC: 1.75243 cumulative IPC: 0.989075 (Simulation time: 0 hr 34 min 14 sec) 
Heartbeat CPU 0 instructions: 220000000 cycles: 100379628 heartbeat IPC: 1.34819 cumulative IPC: 0.843119 (Simulation time: 0 hr 34 min 44 sec) 
Heartbeat CPU 2 instructions: 230000001 cycles: 103350111 heartbeat IPC: 1.63673 cumulative IPC: 1.63816 (Simulation time: 0 hr 35 min 26 sec) 
Heartbeat CPU 1 instructions: 230000000 cycles: 105591959 heartbeat IPC: 1.34415 cumulative IPC: 1.25683 (Simulation time: 0 hr 35 min 58 sec) 
Heartbeat CPU 3 instructions: 210000000 cycles: 105887668 heartbeat IPC: 0.984108 cumulative IPC: 0.984108 (Simulation time: 0 hr 36 min 2 sec) 
Heartbeat CPU 2 instructions: 240000000 cycles: 109361255 heartbeat IPC: 1.66358 cumulative IPC: 1.64936 (Simulation time: 0 hr 36 min 51 sec) 
Heartbeat CPU 1 instructions: 240000000 cycles: 111912115 heartbeat IPC: 1.58224 cumulative IPC: 1.38389 (Simulation time: 0 hr 37 min 26 sec) 
Heartbeat CPU 0 instructions: 230000002 cycles: 112512654 heartbeat IPC: 0.824197 cumulative IPC: 0.829442 (Simulation time: 0 hr 37 min 34 sec) 
Heartbeat CPU 2 instructions: 250000003 cycles: 115429102 heartbeat IPC: 1.64803 cumulative IPC: 1.64895 (Simulation time: 0 hr 38 min 14 sec) 
Heartbeat CPU 3 instructions: 220000000 cycles: 115637079 heartbeat IPC: 1.0257 cumulative IPC: 1.00448 (Simulation time: 0 hr 38 min 17 sec) 
Heartbeat CPU 1 instructions: 250000003 cycles: 120844732 heartbeat IPC: 1.11949 cumulative IPC: 1.28987 (Simulation time: 0 hr 39 min 25 sec) 
Heartbeat CPU 2 instructions: 260000000 cycles: 122967681 heartbeat IPC: 1.32651 cumulative IPC: 1.55972 (Simulation time: 0 hr 39 min 51 sec) 
Heartbeat CPU 0 instructions: 240000000 cycles: 124542906 heartbeat IPC: 0.831238 cumulative IPC: 0.830192 (Simulation time: 0 hr 40 min 10 sec) 
Heartbeat CPU 3 instructions: 230000001 cycles: 125478207 heartbeat IPC: 1.01614 cumulative IPC: 1.00833 (Simulation time: 0 hr 40 min 23 sec) 
Heartbeat CPU 2 instructions: 270000001 cycles: 129524249 heartbeat IPC: 1.52519 cumulative IPC: 1.55302 (Simulation time: 0 hr 41 min 21 sec) 
Heartbeat CPU 1 instructions: 260000000 cycles: 130677705 heartbeat IPC: 1.01699 cumulative IPC: 1.2131 (Simulation time: 0 hr 41 min 41 sec) 
Heartbeat CPU 2 instructions: 280000000 cycles: 135639124 heartbeat IPC: 1.63536 cumulative IPC: 1.56564 (Simulation time: 0 hr 42 min 58 sec) 
Heartbeat CPU 3 instructions: 240000000 cycles: 135760164 heartbeat IPC: 0.972577 cumulative IPC: 0.999151 (Simulation time: 0 hr 43 min 1 sec) 
Heartbeat CPU 0 instructions: 250000002 cycles: 136614895 heartbeat IPC: 0.828364 cumulative IPC: 0.829652 (Simulation time: 0 hr 43 min 15 sec) 
Heartbeat CPU 1 instructions: 270000000 cycles: 140586586 heartbeat IPC: 1.0092 cumulative IPC: 1.16806 (Simulation time: 0 hr 44 min 13 sec) 
Heartbeat CPU 2 instructions: 290000000 cycles: 141713216 heartbeat IPC: 1.64634 cumulative IPC: 1.5763 (Simulation time: 0 hr 44 min 28 sec) 
Heartbeat CPU 3 instructions: 250000003 cycles: 145528722 heartbeat IPC: 1.02369 cumulative IPC: 1.00396 (Simulation time: 0 hr 45 min 20 sec) 
Heartbeat CPU 2 instructions: 300000000 cycles: 147728176 heartbeat IPC: 1.66252 cumulative IPC: 1.58627 (Simulation time: 0 hr 45 min 49 sec) 
Heartbeat CPU 0 instructions: 260000000 cycles: 148553587 heartbeat IPC: 0.837613 cumulative IPC: 0.831451 (Simulation time: 0 hr 46 min 1 sec) 
Heartbeat CPU 1 instructions: 280000000 cycles: 149526060 heartbeat IPC: 1.11863 cumulative IPC: 1.15985 (Simulation time: 0 hr 46 min 14 sec) 
Heartbeat CPU 2 instructions: 310000003 cycles: 153751257 heartbeat IPC: 1.66028 cumulative IPC: 1.59395 (Simulation time: 0 hr 47 min 11 sec) 
Heartbeat CPU 3 instructions: 260000000 cycles: 155321466 heartbeat IPC: 1.02116 cumulative IPC: 1.00679 (Simulation time: 0 hr 47 min 32 sec) 
Heartbeat CPU 1 instructions: 290000001 cycles: 158524615 heartbeat IPC: 1.11129 cumulative IPC: 1.15289 (Simulation time: 0 hr 48 min 15 sec) 
Heartbeat CPU 2 instructions: 320000000 cycles: 159824798 heartbeat IPC: 1.64649 cumulative IPC: 1.59893 (Simulation time: 0 hr 48 min 32 sec) 
Heartbeat CPU 0 instructions: 270000003 cycles: 160877617 heartbeat IPC: 0.811423 cumulative IPC: 0.827663 (Simulation time: 0 hr 48 min 46 sec) 
Heartbeat CPU 3 instructions: 270000003 cycles: 165030560 heartbeat IPC: 1.02996 cumulative IPC: 1.01004 (Simulation time: 0 hr 49 min 41 sec) 
Heartbeat CPU 2 instructions: 330000000 cycles: 165923551 heartbeat IPC: 1.63968 cumulative IPC: 1.60247 (Simulation time: 0 hr 49 min 53 sec) 
Heartbeat CPU 1 instructions: 300000000 cycles: 167307608 heartbeat IPC: 1.13856 cumulative IPC: 1.15113 (Simulation time: 0 hr 50 min 11 sec) 
Heartbeat CPU 2 instructions: 340000000 cycles: 172109060 heartbeat IPC: 1.61668 cumulative IPC: 1.60362 (Simulation time: 0 hr 51 min 15 sec) 
Heartbeat CPU 0 instructions: 280000000 cycles: 173231104 heartbeat IPC: 0.809488 cumulative IPC: 0.824766 (Simulation time: 0 hr 51 min 31 sec) 
Heartbeat CPU 3 instructions: 280000000 cycles: 175298735 heartbeat IPC: 0.973883 cumulative IPC: 1.00537 (Simulation time: 0 hr 51 min 58 sec) 
Heartbeat CPU 1 instructions: 310000002 cycles: 175485056 heartbeat IPC: 1.22288 cumulative IPC: 1.15849 (Simulation time: 0 hr 52 min 1 sec) 
Heartbeat CPU 2 instructions: 350000000 cycles: 178260326 heartbeat IPC: 1.62568 cumulative IPC: 1.60527 (Simulation time: 0 hr 52 min 39 sec) 
Heartbeat CPU 1 instructions: 320000000 cycles: 182058928 heartbeat IPC: 1.52117 cumulative IPC: 1.1861 (Simulation time: 0 hr 53 min 33 sec) 
Heartbeat CPU 3 instructions: 290000000 cycles: 185263631 heartbeat IPC: 1.00352 cumulative IPC: 1.00517 (Simulation time: 0 hr 54 min 13 sec) 
Heartbeat CPU 0 instructions: 290000000 cycles: 185634425 heartbeat IPC: 0.806236 cumulative IPC: 0.822209 (Simulation time: 0 hr 54 min 18 sec) 
Heartbeat CPU 2 instructions: 360000000 cycles: 186190089 heartbeat IPC: 1.26107 cumulative IPC: 1.57509 (Simulation time: 0 hr 54 min 25 sec) 
Heartbeat CPU 1 instructions: 330000001 cycles: 189585629 heartbeat IPC: 1.3286 cumulative IPC: 1.19753 (Simulation time: 0 hr 55 min 8 sec) 
Heartbeat CPU 2 instructions: 370000003 cycles: 193576173 heartbeat IPC: 1.3539 cumulative IPC: 1.5584 (Simulation time: 0 hr 56 min 1 sec) 
Heartbeat CPU 3 instructions: 300000000 cycles: 195149322 heartbeat IPC: 1.01156 cumulative IPC: 1.0058 (Simulation time: 0 hr 56 min 23 sec) 
Heartbeat CPU 1 instructions: 340000000 cycles: 197920006 heartbeat IPC: 1.19985 cumulative IPC: 1.19772 (Simulation time: 0 hr 57 min 1 sec) 
Heartbeat CPU 0 instructions: 300000000 cycles: 199101893 heartbeat IPC: 0.74253 cumulative IPC: 0.811829 (Simulation time: 0 hr 57 min 17 sec) 
Heartbeat CPU 2 instructions: 380000000 cycles: 199672441 heartbeat IPC: 1.64035 cumulative IPC: 1.5632 (Simulation time: 0 hr 57 min 25 sec) 
Heartbeat CPU 3 instructions: 310000002 cycles: 204926746 heartbeat IPC: 1.02276 cumulative IPC: 1.00732 (Simulation time: 0 hr 58 min 38 sec) 
Heartbeat CPU 2 instructions: 390000000 cycles: 205778004 heartbeat IPC: 1.63785 cumulative IPC: 1.56735 (Simulation time: 0 hr 58 min 49 sec) 
Heartbeat CPU 1 instructions: 350000003 cycles: 206074279 heartbeat IPC: 1.22635 cumulative IPC: 1.19984 (Simulation time: 0 hr 58 min 53 sec) 
Heartbeat CPU 2 instructions: 400000000 cycles: 211878954 heartbeat IPC: 1.63909 cumulative IPC: 1.57111 (Simulation time: 1 hr 0 min 13 sec) 
Heartbeat CPU 0 instructions: 310000001 cycles: 212237922 heartbeat IPC: 0.761265 cumulative IPC: 0.806128 (Simulation time: 1 hr 0 min 18 sec) 
Heartbeat CPU 1 instructions: 360000000 cycles: 214221624 heartbeat IPC: 1.22739 cumulative IPC: 1.20173 (Simulation time: 1 hr 0 min 44 sec) 
Heartbeat CPU 3 instructions: 320000000 cycles: 214978765 heartbeat IPC: 0.994825 cumulative IPC: 1.00627 (Simulation time: 1 hr 0 min 54 sec) 
Heartbeat CPU 2 instructions: 410000003 cycles: 217968658 heartbeat IPC: 1.64212 cumulative IPC: 1.57465 (Simulation time: 1 hr 1 min 36 sec) 
Heartbeat CPU 1 instructions: 370000003 cycles: 222884729 heartbeat IPC: 1.15432 cumulative IPC: 1.1985 (Simulation time: 1 hr 2 min 42 sec) 
Heartbeat CPU 0 instructions: 320000000 cycles: 223861256 heartbeat IPC: 0.860338 cumulative IPC: 0.811046 (Simulation time: 1 hr 2 min 55 sec) 
Heartbeat CPU 2 instructions: 420000000 cycles: 224036740 heartbeat IPC: 1.64797 cumulative IPC: 1.57812 (Simulation time: 1 hr 2 min 58 sec) 
Heartbeat CPU 3 instructions: 330000001 cycles: 225124027 heartbeat IPC: 0.985682 cumulative IPC: 1.00465 (Simulation time: 1 hr 3 min 12 sec) 
Heartbeat CPU 2 instructions: 430000003 cycles: 230153106 heartbeat IPC: 1.63496 cumulative IPC: 1.5807 (Simulation time: 1 hr 4 min 20 sec) 
Heartbeat CPU 1 instructions: 380000000 cycles: 231852477 heartbeat IPC: 1.11511 cumulative IPC: 1.19301 (Simulation time: 1 hr 4 min 44 sec) 
Heartbeat CPU 0 instructions: 330000001 cycles: 234662494 heartbeat IPC: 0.92582 cumulative IPC: 0.819969 (Simulation time: 1 hr 5 min 22 sec) 
Heartbeat CPU 3 instructions: 340000000 cycles: 235198546 heartbeat IPC: 0.992603 cumulative IPC: 1.00378 (Simulation time: 1 hr 5 min 30 sec) 
Heartbeat CPU 2 instructions: 440000000 cycles: 236261157 heartbeat IPC: 1.63718 cumulative IPC: 1.58316 (Simulation time: 1 hr 5 min 44 sec) 
Heartbeat CPU 1 instructions: 390000002 cycles: 241688152 heartbeat IPC: 1.01671 cumulative IPC: 1.18113 (Simulation time: 1 hr 6 min 57 sec) 
Heartbeat CPU 2 instructions: 450000001 cycles: 242378728 heartbeat IPC: 1.63464 cumulative IPC: 1.58531 (Simulation time: 1 hr 7 min 7 sec) 
Heartbeat CPU 3 instructions: 350000002 cycles: 245088641 heartbeat IPC: 1.01111 cumulative IPC: 1.00427 (Simulation time: 1 hr 7 min 44 sec) 
Heartbeat CPU 0 instructions: 340000000 cycles: 247568384 heartbeat IPC: 0.77484 cumulative IPC: 0.816133 (Simulation time: 1 hr 8 min 17 sec) 
Heartbeat CPU 2 instructions: 460000000 cycles: 248471435 heartbeat IPC: 1.64131 cumulative IPC: 1.58754 (Simulation time: 1 hr 8 min 29 sec) 
Heartbeat CPU 1 instructions: 400000000 cycles: 250715181 heartbeat IPC: 1.10778 cumulative IPC: 1.17686 (Simulation time: 1 hr 9 min 0 sec) 
Heartbeat CPU 2 instructions: 470000000 cycles: 254560213 heartbeat IPC: 1.64237 cumulative IPC: 1.58964 (Simulation time: 1 hr 9 min 53 sec) 
Heartbeat CPU 3 instructions: 360000000 cycles: 254959004 heartbeat IPC: 1.01313 cumulative IPC: 1.00482 (Simulation time: 1 hr 9 min 58 sec) 
Heartbeat CPU 1 instructions: 410000000 cycles: 259030829 heartbeat IPC: 1.20255 cumulative IPC: 1.17816 (Simulation time: 1 hr 11 min 10 sec) 
Heartbeat CPU 0 instructions: 350000000 cycles: 259086169 heartbeat IPC: 0.868222 cumulative IPC: 0.819805 (Simulation time: 1 hr 11 min 11 sec) 
Heartbeat CPU 2 instructions: 480000000 cycles: 260678319 heartbeat IPC: 1.63449 cumulative IPC: 1.59131 (Simulation time: 1 hr 11 min 32 sec) 
Heartbeat CPU 3 instructions: 370000002 cycles: 264278435 heartbeat IPC: 1.07303 cumulative IPC: 1.00859 (Simulation time: 1 hr 12 min 26 sec) 
Heartbeat CPU 2 instructions: 490000003 cycles: 266802530 heartbeat IPC: 1.63286 cumulative IPC: 1.59279 (Simulation time: 1 hr 13 min 8 sec) 
Heartbeat CPU 1 instructions: 420000000 cycles: 267513704 heartbeat IPC: 1.17885 cumulative IPC: 1.1782 (Simulation time: 1 hr 13 min 19 sec) 
Heartbeat CPU 0 instructions: 360000000 cycles: 271825689 heartbeat IPC: 0.784959 cumulative IPC: 0.817285 (Simulation time: 1 hr 14 min 23 sec) 
Heartbeat CPU 2 instructions: 500000000 cycles: 273723606 heartbeat IPC: 1.44486 cumulative IPC: 1.58704 (Simulation time: 1 hr 14 min 57 sec) 
Heartbeat CPU 1 instructions: 430000002 cycles: 273848909 heartbeat IPC: 1.57848 cumulative IPC: 1.19243 (Simulation time: 1 hr 14 min 59 sec) 
Heartbeat CPU 3 instructions: 380000000 cycles: 274021744 heartbeat IPC: 1.02635 cumulative IPC: 1.00956 (Simulation time: 1 hr 15 min 2 sec) 
Heartbeat CPU 2 instructions: 510000002 cycles: 279806072 heartbeat IPC: 1.64407 cumulative IPC: 1.58893 (Simulation time: 1 hr 16 min 38 sec) 
Heartbeat CPU 1 instructions: 440000000 cycles: 280230703 heartbeat IPC: 1.56696 cumulative IPC: 1.20539 (Simulation time: 1 hr 16 min 44 sec) 
Heartbeat CPU 0 instructions: 370000000 cycles: 282642338 heartbeat IPC: 0.924501 cumulative IPC: 0.823489 (Simulation time: 1 hr 17 min 23 sec) 
Heartbeat CPU 3 instructions: 390000002 cycles: 284099378 heartbeat IPC: 0.992297 cumulative IPC: 1.00864 (Simulation time: 1 hr 17 min 45 sec) 
Heartbeat CPU 2 instructions: 520000000 cycles: 285849210 heartbeat IPC: 1.65477 cumulative IPC: 1.59102 (Simulation time: 1 hr 18 min 11 sec) 
Heartbeat CPU 1 instructions: 450000000 cycles: 286619447 heartbeat IPC: 1.56525 cumulative IPC: 1.21743 (Simulation time: 1 hr 18 min 22 sec) 
Heartbeat CPU 2 instructions: 530000001 cycles: 292419187 heartbeat IPC: 1.52208 cumulative IPC: 1.58872 (Simulation time: 1 hr 19 min 46 sec) 
Heartbeat CPU 1 instructions: 460000000 cycles: 293271798 heartbeat IPC: 1.50323 cumulative IPC: 1.22706 (Simulation time: 1 hr 19 min 58 sec) 
Heartbeat CPU 0 instructions: 380000000 cycles: 293432121 heartbeat IPC: 0.926803 cumulative IPC: 0.829127 (Simulation time: 1 hr 20 min 0 sec) 
Heartbeat CPU 3 instructions: 400000000 cycles: 294009483 heartbeat IPC: 1.00907 cumulative IPC: 1.00866 (Simulation time: 1 hr 20 min 8 sec) 
Heartbeat CPU 2 instructions: 540000000 cycles: 298323620 heartbeat IPC: 1.69364 cumulative IPC: 1.59177 (Simulation time: 1 hr 21 min 7 sec) 
Heartbeat CPU 1 instructions: 470000001 cycles: 302948559 heartbeat IPC: 1.0334 cumulative IPC: 1.21801 (Simulation time: 1 hr 22 min 11 sec) 
Heartbeat CPU 3 instructions: 410000002 cycles: 303782681 heartbeat IPC: 1.02321 cumulative IPC: 1.00934 (Simulation time: 1 hr 22 min 22 sec) 
Heartbeat CPU 0 instructions: 390000002 cycles: 304228867 heartbeat IPC: 0.926205 cumulative IPC: 0.834154 (Simulation time: 1 hr 22 min 29 sec) 
Heartbeat CPU 2 instructions: 550000001 cycles: 304237182 heartbeat IPC: 1.69103 cumulative IPC: 1.59459 (Simulation time: 1 hr 22 min 29 sec) 
Heartbeat CPU 1 instructions: 480000000 cycles: 310558861 heartbeat IPC: 1.31401 cumulative IPC: 1.22141 (Simulation time: 1 hr 23 min 56 sec) 
Heartbeat CPU 2 instructions: 560000000 cycles: 310877712 heartbeat IPC: 1.5059 cumulative IPC: 1.59185 (Simulation time: 1 hr 24 min 1 sec) 
Heartbeat CPU 3 instructions: 420000000 cycles: 313624407 heartbeat IPC: 1.01608 cumulative IPC: 1.00965 (Simulation time: 1 hr 24 min 37 sec) 
Heartbeat CPU 0 instructions: 400000000 cycles: 314806613 heartbeat IPC: 0.945381 cumulative IPC: 0.839525 (Simulation time: 1 hr 24 min 52 sec) 
Heartbeat CPU 2 instructions: 570000001 cycles: 317583689 heartbeat IPC: 1.49121 cumulative IPC: 1.58881 (Simulation time: 1 hr 25 min 33 sec) 
Heartbeat CPU 1 instructions: 490000001 cycles: 319612996 heartbeat IPC: 1.10447 cumulative IPC: 1.21668 (Simulation time: 1 hr 25 min 59 sec) 
Heartbeat CPU 3 instructions: 430000001 cycles: 323347720 heartbeat IPC: 1.02846 cumulative IPC: 1.01045 (Simulation time: 1 hr 26 min 47 sec) 
Heartbeat CPU 2 instructions: 580000000 cycles: 324269801 heartbeat IPC: 1.49564 cumulative IPC: 1.58608 (Simulation time: 1 hr 26 min 59 sec) 
Heartbeat CPU 0 instructions: 410000002 cycles: 327379542 heartbeat IPC: 0.79536 cumulative IPC: 0.837128 (Simulation time: 1 hr 27 min 41 sec) 
Heartbeat CPU 1 instructions: 500000000 cycles: 329075202 heartbeat IPC: 1.05684 cumulative IPC: 1.2102 (Simulation time: 1 hr 28 min 4 sec) 
Heartbeat CPU 2 instructions: 590000000 cycles: 330351369 heartbeat IPC: 1.64431 cumulative IPC: 1.58759 (Simulation time: 1 hr 28 min 20 sec) 
Heartbeat CPU 3 instructions: 440000000 cycles: 333419743 heartbeat IPC: 0.992849 cumulative IPC: 1.0097 (Simulation time: 1 hr 29 min 3 sec) 
Heartbeat CPU 1 instructions: 510000002 cycles: 336341023 heartbeat IPC: 1.37631 cumulative IPC: 1.21522 (Simulation time: 1 hr 29 min 43 sec) 
Heartbeat CPU 2 instructions: 600000000 cycles: 337334795 heartbeat IPC: 1.43196 cumulative IPC: 1.58309 (Simulation time: 1 hr 29 min 56 sec) 
Heartbeat CPU 0 instructions: 420000000 cycles: 338726881 heartbeat IPC: 0.881264 cumulative IPC: 0.839189 (Simulation time: 1 hr 30 min 14 sec) 
Heartbeat CPU 3 instructions: 450000000 cycles: 342722420 heartbeat IPC: 1.07496 cumulative IPC: 1.01216 (Simulation time: 1 hr 31 min 9 sec) 
Heartbeat CPU 2 instructions: 610000003 cycles: 344335028 heartbeat IPC: 1.42852 cumulative IPC: 1.57874 (Simulation time: 1 hr 31 min 32 sec) 
Heartbeat CPU 1 instructions: 520000000 cycles: 345409499 heartbeat IPC: 1.10272 cumulative IPC: 1.21113 (Simulation time: 1 hr 31 min 47 sec) 
Heartbeat CPU 0 instructions: 430000000 cycles: 348610481 heartbeat IPC: 1.01178 cumulative IPC: 0.845934 (Simulation time: 1 hr 32 min 30 sec) 
Heartbeat CPU 2 instructions: 620000000 cycles: 350352169 heartbeat IPC: 1.66192 cumulative IPC: 1.58071 (Simulation time: 1 hr 32 min 53 sec) 
Heartbeat CPU 3 instructions: 460000000 cycles: 352704316 heartbeat IPC: 1.00181 cumulative IPC: 1.01176 (Simulation time: 1 hr 33 min 25 sec) 
Heartbeat CPU 1 instructions: 530000000 cycles: 354811795 heartbeat IPC: 1.06357 cumulative IPC: 1.20578 (Simulation time: 1 hr 33 min 54 sec) 
Heartbeat CPU 2 instructions: 630000001 cycles: 356395434 heartbeat IPC: 1.65473 cumulative IPC: 1.58242 (Simulation time: 1 hr 34 min 15 sec) 
Heartbeat CPU 0 instructions: 440000000 cycles: 360454099 heartbeat IPC: 0.844337 cumulative IPC: 0.845862 (Simulation time: 1 hr 35 min 11 sec) 
Heartbeat CPU 2 instructions: 640000000 cycles: 362472073 heartbeat IPC: 1.64565 cumulative IPC: 1.58386 (Simulation time: 1 hr 35 min 38 sec) 
Heartbeat CPU 3 instructions: 470000001 cycles: 362755606 heartbeat IPC: 0.994897 cumulative IPC: 1.01112 (Simulation time: 1 hr 35 min 42 sec) 
Heartbeat CPU 1 instructions: 540000000 cycles: 364009474 heartbeat IPC: 1.08723 cumulative IPC: 1.20171 (Simulation time: 1 hr 35 min 58 sec) 
Heartbeat CPU 0 instructions: 450000001 cycles: 369073146 heartbeat IPC: 1.16022 cumulative IPC: 0.855775 (Simulation time: 1 hr 37 min 11 sec) 
Heartbeat CPU 2 instructions: 650000003 cycles: 369168252 heartbeat IPC: 1.49339 cumulative IPC: 1.58165 (Simulation time: 1 hr 37 min 12 sec) 
Heartbeat CPU 3 instructions: 480000000 cycles: 372538448 heartbeat IPC: 1.0222 cumulative IPC: 1.01152 (Simulation time: 1 hr 37 min 59 sec) 
Heartbeat CPU 1 instructions: 550000000 cycles: 373022408 heartbeat IPC: 1.10952 cumulative IPC: 1.19872 (Simulation time: 1 hr 38 min 5 sec) 
Heartbeat CPU 2 instructions: 660000000 cycles: 375291647 heartbeat IPC: 1.63308 cumulative IPC: 1.58277 (Simulation time: 1 hr 38 min 38 sec) 
Heartbeat CPU 0 instructions: 460000000 cycles: 377817753 heartbeat IPC: 1.14356 cumulative IPC: 0.864696 (Simulation time: 1 hr 39 min 14 sec) 
Heartbeat CPU 2 instructions: 670000001 cycles: 381367545 heartbeat IPC: 1.64585 cumulative IPC: 1.58412 (Simulation time: 1 hr 40 min 3 sec) 
Heartbeat CPU 1 instructions: 560000000 cycles: 381697226 heartbeat IPC: 1.15276 cumulative IPC: 1.19732 (Simulation time: 1 hr 40 min 8 sec) 
Heartbeat CPU 3 instructions: 490000002 cycles: 382330303 heartbeat IPC: 1.02126 cumulative IPC: 1.01185 (Simulation time: 1 hr 40 min 17 sec) 
Heartbeat CPU 0 instructions: 470000002 cycles: 386214017 heartbeat IPC: 1.19101 cumulative IPC: 0.874128 (Simulation time: 1 hr 41 min 13 sec) 
Heartbeat CPU 2 instructions: 680000000 cycles: 387434100 heartbeat IPC: 1.64838 cumulative IPC: 1.58545 (Simulation time: 1 hr 41 min 30 sec) 
Heartbeat CPU 1 instructions: 570000000 cycles: 389934228 heartbeat IPC: 1.21403 cumulative IPC: 1.19779 (Simulation time: 1 hr 42 min 6 sec) 
Heartbeat CPU 3 instructions: 500000000 cycles: 392129439 heartbeat IPC: 1.0205 cumulative IPC: 1.01213 (Simulation time: 1 hr 42 min 37 sec) 
Heartbeat CPU 2 instructions: 690000002 cycles: 393557340 heartbeat IPC: 1.63312 cumulative IPC: 1.58643 (Simulation time: 1 hr 42 min 57 sec) 
Heartbeat CPU 0 instructions: 480000000 cycles: 395371517 heartbeat IPC: 1.092 cumulative IPC: 0.880786 (Simulation time: 1 hr 43 min 23 sec) 
Heartbeat CPU 1 instructions: 580000000 cycles: 398367409 heartbeat IPC: 1.18579 cumulative IPC: 1.19746 (Simulation time: 1 hr 44 min 3 sec) 
Heartbeat CPU 2 instructions: 700000000 cycles: 399622879 heartbeat IPC: 1.64866 cumulative IPC: 1.58767 (Simulation time: 1 hr 44 min 20 sec) 
Heartbeat CPU 3 instructions: 510000001 cycles: 402103215 heartbeat IPC: 1.00263 cumulative IPC: 1.01183 (Simulation time: 1 hr 44 min 55 sec) 
Heartbeat CPU 0 instructions: 490000000 cycles: 404987960 heartbeat IPC: 1.03989 cumulative IPC: 0.885733 (Simulation time: 1 hr 45 min 36 sec) 
Heartbeat CPU 2 instructions: 710000002 cycles: 405765559 heartbeat IPC: 1.62795 cumulative IPC: 1.58847 (Simulation time: 1 hr 45 min 47 sec) 
Heartbeat CPU 1 instructions: 590000001 cycles: 406075442 heartbeat IPC: 1.29735 cumulative IPC: 1.19994 (Simulation time: 1 hr 45 min 52 sec) 
Heartbeat CPU 2 instructions: 720000000 cycles: 411901645 heartbeat IPC: 1.6297 cumulative IPC: 1.58927 (Simulation time: 1 hr 47 min 17 sec) 
Heartbeat CPU 3 instructions: 520000000 cycles: 412113760 heartbeat IPC: 0.998946 cumulative IPC: 1.01142 (Simulation time: 1 hr 47 min 20 sec) 
Heartbeat CPU 1 instructions: 600000000 cycles: 412748594 heartbeat IPC: 1.49854 cumulative IPC: 1.20622 (Simulation time: 1 hr 47 min 29 sec) 
Heartbeat CPU 0 instructions: 500000000 cycles: 413770129 heartbeat IPC: 1.13867 cumulative IPC: 0.892718 (Simulation time: 1 hr 47 min 44 sec) 
Heartbeat CPU 2 instructions: 730000001 cycles: 418086464 heartbeat IPC: 1.61686 cumulative IPC: 1.5898 (Simulation time: 1 hr 48 min 43 sec) 
Heartbeat CPU 3 instructions: 530000000 cycles: 421815942 heartbeat IPC: 1.0307 cumulative IPC: 1.01199 (Simulation time: 1 hr 49 min 36 sec) 
Heartbeat CPU 1 instructions: 610000000 cycles: 422082990 heartbeat IPC: 1.07131 cumulative IPC: 1.20236 (Simulation time: 1 hr 49 min 40 sec) 
Heartbeat CPU 0 instructions: 510000001 cycles: 422932719 heartbeat IPC: 1.09139 cumulative IPC: 0.898281 (Simulation time: 1 hr 49 min 50 sec) 
Heartbeat CPU 2 instructions: 740000000 cycles: 425290468 heartbeat IPC: 1.38812 cumulative IPC: 1.58539 (Simulation time: 1 hr 50 min 20 sec) 
Heartbeat CPU 1 instructions: 620000000 cycles: 429002821 heartbeat IPC: 1.44512 cumulative IPC: 1.2074 (Simulation time: 1 hr 51 min 15 sec) 
Heartbeat CPU 2 instructions: 750000003 cycles: 431430423 heartbeat IPC: 1.62868 cumulative IPC: 1.58619 (Simulation time: 1 hr 51 min 50 sec) 
Heartbeat CPU 3 instructions: 540000000 cycles: 431522972 heartbeat IPC: 1.03018 cumulative IPC: 1.01252 (Simulation time: 1 hr 51 min 52 sec) 
Heartbeat CPU 0 instructions: 520000000 cycles: 432867722 heartbeat IPC: 1.00654 cumulative IPC: 0.901471 (Simulation time: 1 hr 52 min 10 sec) 
Heartbeat CPU 1 instructions: 630000001 cycles: 436561561 heartbeat IPC: 1.32297 cumulative IPC: 1.20997 (Simulation time: 1 hr 53 min 0 sec) 
Heartbeat CPU 2 instructions: 760000000 cycles: 438295578 heartbeat IPC: 1.45663 cumulative IPC: 1.58359 (Simulation time: 1 hr 53 min 23 sec) 
Heartbeat CPU 3 instructions: 550000001 cycles: 441660068 heartbeat IPC: 0.986476 cumulative IPC: 1.01175 (Simulation time: 1 hr 54 min 8 sec) 
Heartbeat CPU 0 instructions: 530000002 cycles: 442364045 heartbeat IPC: 1.05304 cumulative IPC: 0.905624 (Simulation time: 1 hr 54 min 18 sec) 
Heartbeat CPU 1 instructions: 640000000 cycles: 444147719 heartbeat IPC: 1.31819 cumulative IPC: 1.21232 (Simulation time: 1 hr 54 min 44 sec) 
Heartbeat CPU 2 instructions: 770000001 cycles: 445124009 heartbeat IPC: 1.46447 cumulative IPC: 1.58126 (Simulation time: 1 hr 54 min 58 sec) 
Heartbeat CPU 1 instructions: 650000001 cycles: 450561098 heartbeat IPC: 1.55924 cumulative IPC: 1.21859 (Simulation time: 1 hr 56 min 17 sec) 
Heartbeat CPU 2 instructions: 780000000 cycles: 451334558 heartbeat IPC: 1.61016 cumulative IPC: 1.58177 (Simulation time: 1 hr 56 min 28 sec) 
Heartbeat CPU 3 instructions: 560000000 cycles: 451717861 heartbeat IPC: 0.994254 cumulative IPC: 1.01126 (Simulation time: 1 hr 56 min 32 sec) 
Heartbeat CPU 0 instructions: 540000000 cycles: 454200940 heartbeat IPC: 0.844816 cumulative IPC: 0.903616 (Simulation time: 1 hr 57 min 5 sec) 
Heartbeat CPU 2 instructions: 790000001 cycles: 457488741 heartbeat IPC: 1.62491 cumulative IPC: 1.5825 (Simulation time: 1 hr 57 min 48 sec) 
Heartbeat CPU 1 instructions: 660000000 cycles: 460181677 heartbeat IPC: 1.03944 cumulative IPC: 1.21386 (Simulation time: 1 hr 58 min 24 sec) 
Heartbeat CPU 3 instructions: 570000001 cycles: 461422992 heartbeat IPC: 1.03038 cumulative IPC: 1.01177 (Simulation time: 1 hr 58 min 41 sec) 
Heartbeat CPU 2 instructions: 800000000 cycles: 463622901 heartbeat IPC: 1.63021 cumulative IPC: 1.5833 (Simulation time: 1 hr 59 min 10 sec) 
Heartbeat CPU 0 instructions: 550000000 cycles: 466450192 heartbeat IPC: 0.816376 cumulative IPC: 0.900733 (Simulation time: 1 hr 59 min 49 sec) 
Heartbeat CPU 1 instructions: 670000002 cycles: 469241841 heartbeat IPC: 1.10373 cumulative IPC: 1.21119 (Simulation time: 2 hr 0 min 27 sec) 
Heartbeat CPU 2 instructions: 810000000 cycles: 469848845 heartbeat IPC: 1.60618 cumulative IPC: 1.58368 (Simulation time: 2 hr 0 min 35 sec) 
Heartbeat CPU 3 instructions: 580000000 cycles: 470819560 heartbeat IPC: 1.06422 cumulative IPC: 1.01308 (Simulation time: 2 hr 0 min 48 sec) 
Heartbeat CPU 2 instructions: 820000000 cycles: 475969814 heartbeat IPC: 1.63373 cumulative IPC: 1.58448 (Simulation time: 2 hr 1 min 58 sec) 
Heartbeat CPU 0 instructions: 560000000 cycles: 477454435 heartbeat IPC: 0.90874 cumulative IPC: 0.900964 (Simulation time: 2 hr 2 min 17 sec) 
Heartbeat CPU 1 instructions: 680000000 cycles: 479191468 heartbeat IPC: 1.00506 cumulative IPC: 1.20584 (Simulation time: 2 hr 2 min 40 sec) 
Heartbeat CPU 3 instructions: 590000001 cycles: 480629369 heartbeat IPC: 1.01939 cumulative IPC: 1.01324 (Simulation time: 2 hr 2 min 58 sec) 
Heartbeat CPU 2 instructions: 830000000 cycles: 482768283 heartbeat IPC: 1.47092 cumulative IPC: 1.58249 (Simulation time: 2 hr 3 min 27 sec) 
Heartbeat CPU 0 instructions: 570000000 cycles: 488723202 heartbeat IPC: 0.887409 cumulative IPC: 0.900575 (Simulation time: 2 hr 4 min 42 sec) 
Heartbeat CPU 1 instructions: 690000003 cycles: 489240178 heartbeat IPC: 0.995153 cumulative IPC: 1.20046 (Simulation time: 2 hr 4 min 48 sec) 
Heartbeat CPU 3 instructions: 600000000 cycles: 490433239 heartbeat IPC: 1.02001 cumulative IPC: 1.01341 (Simulation time: 2 hr 5 min 3 sec) 
Heartbeat CPU 2 instructions: 840000000 cycles: 490712196 heartbeat IPC: 1.25883 cumulative IPC: 1.57598 (Simulation time: 2 hr 5 min 7 sec) 
Heartbeat CPU 2 instructions: 850000001 cycles: 497393342 heartbeat IPC: 1.49675 cumulative IPC: 1.57466 (Simulation time: 2 hr 6 min 36 sec) 
Heartbeat CPU 1 instructions: 700000000 cycles: 499225333 heartbeat IPC: 1.00149 cumulative IPC: 1.19554 (Simulation time: 2 hr 7 min 1 sec) 
Heartbeat CPU 0 instructions: 580000000 cycles: 499668058 heartbeat IPC: 0.913671 cumulative IPC: 0.90093 (Simulation time: 2 hr 7 min 7 sec) 
Heartbeat CPU 3 instructions: 610000000 cycles: 499946882 heartbeat IPC: 1.05112 cumulative IPC: 1.0143 (Simulation time: 2 hr 7 min 11 sec) 
Heartbeat CPU 2 instructions: 860000000 cycles: 503491644 heartbeat IPC: 1.6398 cumulative IPC: 1.57563 (Simulation time: 2 hr 7 min 59 sec) 
Heartbeat CPU 1 instructions: 710000000 cycles: 509047559 heartbeat IPC: 1.0181 cumulative IPC: 1.19132 (Simulation time: 2 hr 9 min 15 sec) 
Heartbeat CPU 3 instructions: 620000000 cycles: 509559349 heartbeat IPC: 1.04032 cumulative IPC: 1.0149 (Simulation time: 2 hr 9 min 22 sec) 
Heartbeat CPU 2 instructions: 870000003 cycles: 509695695 heartbeat IPC: 1.61185 cumulative IPC: 1.57618 (Simulation time: 2 hr 9 min 23 sec) 
Heartbeat CPU 0 instructions: 590000000 cycles: 510640398 heartbeat IPC: 0.911383 cumulative IPC: 0.901207 (Simulation time: 2 hr 9 min 36 sec) 
Heartbeat CPU 2 instructions: 880000000 cycles: 516550576 heartbeat IPC: 1.45881 cumulative IPC: 1.57427 (Simulation time: 2 hr 10 min 58 sec) 
Heartbeat CPU 1 instructions: 720000000 cycles: 516605521 heartbeat IPC: 1.32311 cumulative IPC: 1.19369 (Simulation time: 2 hr 10 min 59 sec) 
Heartbeat CPU 3 instructions: 630000000 cycles: 519019236 heartbeat IPC: 1.0571 cumulative IPC: 1.01584 (Simulation time: 2 hr 11 min 33 sec) 
Heartbeat CPU 0 instructions: 600000000 cycles: 521618238 heartbeat IPC: 0.910926 cumulative IPC: 0.901457 (Simulation time: 2 hr 12 min 12 sec) 
Heartbeat CPU 2 instructions: 890000000 cycles: 522732358 heartbeat IPC: 1.61766 cumulative IPC: 1.57489 (Simulation time: 2 hr 12 min 28 sec) 
Heartbeat CPU 1 instructions: 730000002 cycles: 522945749 heartbeat IPC: 1.57723 cumulative IPC: 1.19938 (Simulation time: 2 hr 12 min 31 sec) 
Heartbeat CPU 3 instructions: 640000000 cycles: 528937809 heartbeat IPC: 1.00821 cumulative IPC: 1.01567 (Simulation time: 2 hr 13 min 54 sec) 
Heartbeat CPU 1 instructions: 740000000 cycles: 529143998 heartbeat IPC: 1.61336 cumulative IPC: 1.2053 (Simulation time: 2 hr 13 min 57 sec) 
Heartbeat CPU 2 instructions: 900000000 cycles: 529415332 heartbeat IPC: 1.49634 cumulative IPC: 1.57368 (Simulation time: 2 hr 14 min 1 sec) 
Heartbeat CPU 0 instructions: 610000001 cycles: 534230577 heartbeat IPC: 0.792874 cumulative IPC: 0.898334 (Simulation time: 2 hr 15 min 7 sec) 
Heartbeat CPU 2 instructions: 910000000 cycles: 535601703 heartbeat IPC: 1.61646 cumulative IPC: 1.57428 (Simulation time: 2 hr 15 min 25 sec) 
Heartbeat CPU 1 instructions: 750000000 cycles: 537601406 heartbeat IPC: 1.1824 cumulative IPC: 1.20486 (Simulation time: 2 hr 15 min 51 sec) 
Heartbeat CPU 3 instructions: 650000002 cycles: 538958847 heartbeat IPC: 0.997901 cumulative IPC: 1.01527 (Simulation time: 2 hr 16 min 9 sec) 
Heartbeat CPU 2 instructions: 920000000 cycles: 541849677 heartbeat IPC: 1.60052 cumulative IPC: 1.57465 (Simulation time: 2 hr 16 min 48 sec) 
Heartbeat CPU 0 instructions: 620000000 cycles: 545505235 heartbeat IPC: 0.886945 cumulative IPC: 0.898049 (Simulation time: 2 hr 17 min 37 sec) 
Heartbeat CPU 1 instructions: 760000000 cycles: 547053101 heartbeat IPC: 1.05801 cumulative IPC: 1.20179 (Simulation time: 2 hr 18 min 2 sec) 
Heartbeat CPU 2 instructions: 930000000 cycles: 548028767 heartbeat IPC: 1.61836 cumulative IPC: 1.57525 (Simulation time: 2 hr 18 min 21 sec) 
Heartbeat CPU 3 instructions: 660000000 cycles: 548620937 heartbeat IPC: 1.03497 cumulative IPC: 1.01569 (Simulation time: 2 hr 18 min 29 sec) 
Heartbeat CPU 2 instructions: 940000000 cycles: 554303314 heartbeat IPC: 1.59374 cumulative IPC: 1.5755 (Simulation time: 2 hr 19 min 51 sec) 
Heartbeat CPU 0 instructions: 630000001 cycles: 556380075 heartbeat IPC: 0.919554 cumulative IPC: 0.898556 (Simulation time: 2 hr 20 min 22 sec) 
Heartbeat CPU 1 instructions: 770000000 cycles: 556412665 heartbeat IPC: 1.06843 cumulative IPC: 1.19908 (Simulation time: 2 hr 20 min 23 sec) 
Heartbeat CPU 3 instructions: 670000000 cycles: 558373517 heartbeat IPC: 1.02537 cumulative IPC: 1.01589 (Simulation time: 2 hr 20 min 49 sec) 
Heartbeat CPU 2 instructions: 950000000 cycles: 561124781 heartbeat IPC: 1.46596 cumulative IPC: 1.5739 (Simulation time: 2 hr 21 min 28 sec) 
Heartbeat CPU 1 instructions: 780000000 cycles: 566343071 heartbeat IPC: 1.00701 cumulative IPC: 1.19503 (Simulation time: 2 hr 22 min 41 sec) 
Heartbeat CPU 0 instructions: 640000000 cycles: 567697185 heartbeat IPC: 0.883618 cumulative IPC: 0.898198 (Simulation time: 2 hr 23 min 0 sec) 
Heartbeat CPU 2 instructions: 960000000 cycles: 567877152 heartbeat IPC: 1.48096 cumulative IPC: 1.57257 (Simulation time: 2 hr 23 min 2 sec) 
Heartbeat CPU 3 instructions: 680000000 cycles: 568181822 heartbeat IPC: 1.01954 cumulative IPC: 1.01597 (Simulation time: 2 hr 23 min 6 sec) 
Heartbeat CPU 2 instructions: 970000001 cycles: 574714108 heartbeat IPC: 1.46264 cumulative IPC: 1.571 (Simulation time: 2 hr 24 min 34 sec) 
Heartbeat CPU 1 instructions: 790000000 cycles: 576346922 heartbeat IPC: 0.999615 cumulative IPC: 1.19096 (Simulation time: 2 hr 24 min 56 sec) 
Heartbeat CPU 3 instructions: 690000001 cycles: 577898129 heartbeat IPC: 1.0292 cumulative IPC: 1.01623 (Simulation time: 2 hr 25 min 17 sec) 
Heartbeat CPU 0 instructions: 650000001 cycles: 578468779 heartbeat IPC: 0.928368 cumulative IPC: 0.898871 (Simulation time: 2 hr 25 min 25 sec) 
Heartbeat CPU 2 instructions: 980000000 cycles: 581065655 heartbeat IPC: 1.57442 cumulative IPC: 1.57104 (Simulation time: 2 hr 25 min 59 sec) 
Heartbeat CPU 1 instructions: 800000000 cycles: 586099531 heartbeat IPC: 1.02537 cumulative IPC: 1.18767 (Simulation time: 2 hr 27 min 6 sec) 
Heartbeat CPU 3 instructions: 700000000 cycles: 587620913 heartbeat IPC: 1.02851 cumulative IPC: 1.01648 (Simulation time: 2 hr 27 min 27 sec) 
Heartbeat CPU 2 instructions: 990000003 cycles: 587742224 heartbeat IPC: 1.49778 cumulative IPC: 1.57005 (Simulation time: 2 hr 27 min 29 sec) 
Heartbeat CPU 0 instructions: 660000000 cycles: 589139760 heartbeat IPC: 0.937121 cumulative IPC: 0.899698 (Simulation time: 2 hr 27 min 48 sec) 
Heartbeat CPU 2 instructions: 1000000000 cycles: 593969456 heartbeat IPC: 1.60585 cumulative IPC: 1.5705 (Simulation time: 2 hr 28 min 50 sec) 
Heartbeat CPU 1 instructions: 810000000 cycles: 596101158 heartbeat IPC: 0.999837 cumulative IPC: 1.18391 (Simulation time: 2 hr 29 min 17 sec) 
Heartbeat CPU 3 instructions: 710000000 cycles: 597335534 heartbeat IPC: 1.02938 cumulative IPC: 1.01673 (Simulation time: 2 hr 29 min 32 sec) 
Heartbeat CPU 0 instructions: 670000001 cycles: 600022494 heartbeat IPC: 0.918887 cumulative IPC: 0.900113 (Simulation time: 2 hr 30 min 7 sec) 
Heartbeat CPU 2 instructions: 1010000000 cycles: 600190553 heartbeat IPC: 1.60743 cumulative IPC: 1.57095 (Simulation time: 2 hr 30 min 10 sec) 
Heartbeat CPU 1 instructions: 820000000 cycles: 606044248 heartbeat IPC: 1.00572 cumulative IPC: 1.18044 (Simulation time: 2 hr 31 min 29 sec) 
Heartbeat CPU 2 instructions: 1020000000 cycles: 606487691 heartbeat IPC: 1.58802 cumulative IPC: 1.57116 (Simulation time: 2 hr 31 min 35 sec) 
Heartbeat CPU 3 instructions: 720000000 cycles: 607092064 heartbeat IPC: 1.02495 cumulative IPC: 1.01688 (Simulation time: 2 hr 31 min 43 sec) 
Heartbeat CPU 0 instructions: 680000000 cycles: 611688171 heartbeat IPC: 0.857215 cumulative IPC: 0.899143 (Simulation time: 2 hr 32 min 43 sec) 
Heartbeat CPU 2 instructions: 1030000001 cycles: 612677815 heartbeat IPC: 1.61548 cumulative IPC: 1.57169 (Simulation time: 2 hr 32 min 57 sec) 
Heartbeat CPU 1 instructions: 830000003 cycles: 616103078 heartbeat IPC: 0.994152 cumulative IPC: 1.17684 (Simulation time: 2 hr 33 min 43 sec) 
Heartbeat CPU 3 instructions: 730000003 cycles: 616790372 heartbeat IPC: 1.03111 cumulative IPC: 1.01715 (Simulation time: 2 hr 33 min 52 sec) 
Heartbeat CPU 2 instructions: 1040000000 cycles: 618970632 heartbeat IPC: 1.58911 cumulative IPC: 1.5719 (Simulation time: 2 hr 34 min 21 sec) 
Heartbeat CPU 0 instructions: 690000003 cycles: 622716526 heartbeat IPC: 0.906754 cumulative IPC: 0.899302 (Simulation time: 2 hr 35 min 11 sec) 
Heartbeat CPU 2 instructions: 1050000002 cycles: 625095863 heartbeat IPC: 1.63259 cumulative IPC: 1.5726 (Simulation time: 2 hr 35 min 43 sec) 
Heartbeat CPU 1 instructions: 840000000 cycles: 625977412 heartbeat IPC: 1.01273 cumulative IPC: 1.17378 (Simulation time: 2 hr 35 min 55 sec) 
Heartbeat CPU 3 instructions: 740000000 cycles: 626611917 heartbeat IPC: 1.01817 cumulative IPC: 1.01717 (Simulation time: 2 hr 36 min 3 sec) 
Heartbeat CPU 2 instructions: 1060000000 cycles: 631320687 heartbeat IPC: 1.60647 cumulative IPC: 1.573 (Simulation time: 2 hr 37 min 6 sec) 
Heartbeat CPU 0 instructions: 700000000 cycles: 634278928 heartbeat IPC: 0.864872 cumulative IPC: 0.898563 (Simulation time: 2 hr 37 min 46 sec) 
Heartbeat CPU 1 instructions: 850000003 cycles: 635668775 heartbeat IPC: 1.03185 cumulative IPC: 1.17123 (Simulation time: 2 hr 38 min 5 sec) 
Heartbeat CPU 3 instructions: 750000001 cycles: 636410916 heartbeat IPC: 1.02051 cumulative IPC: 1.01723 (Simulation time: 2 hr 38 min 14 sec) 
Heartbeat CPU 2 instructions: 1070000000 cycles: 637616930 heartbeat IPC: 1.58825 cumulative IPC: 1.57318 (Simulation time: 2 hr 38 min 30 sec) 
Heartbeat CPU 2 instructions: 1080000000 cycles: 644367486 heartbeat IPC: 1.48136 cumulative IPC: 1.57205 (Simulation time: 2 hr 40 min 0 sec) 
Heartbeat CPU 0 instructions: 710000000 cycles: 645129321 heartbeat IPC: 0.921626 cumulative IPC: 0.899018 (Simulation time: 2 hr 40 min 11 sec) 
Heartbeat CPU 1 instructions: 860000000 cycles: 645423592 heartbeat IPC: 1.02513 cumulative IPC: 1.16864 (Simulation time: 2 hr 40 min 15 sec) 
Heartbeat CPU 3 instructions: 760000000 cycles: 646245494 heartbeat IPC: 1.01682 cumulative IPC: 1.01722 (Simulation time: 2 hr 40 min 26 sec) 
Heartbeat CPU 2 instructions: 1090000001 cycles: 650600650 heartbeat IPC: 1.60432 cumulative IPC: 1.57241 (Simulation time: 2 hr 41 min 24 sec) 
Heartbeat CPU 1 instructions: 870000001 cycles: 655460893 heartbeat IPC: 0.996284 cumulative IPC: 1.16555 (Simulation time: 2 hr 42 min 28 sec) 
Heartbeat CPU 3 instructions: 770000002 cycles: 656273706 heartbeat IPC: 0.997187 cumulative IPC: 1.01686 (Simulation time: 2 hr 42 min 39 sec) 
Heartbeat CPU 0 instructions: 720000000 cycles: 656559085 heartbeat IPC: 0.874909 cumulative IPC: 0.898527 (Simulation time: 2 hr 42 min 43 sec) 
Heartbeat CPU 2 instructions: 1100000000 cycles: 656861176 heartbeat IPC: 1.59731 cumulative IPC: 1.57269 (Simulation time: 2 hr 42 min 47 sec) 
Heartbeat CPU 2 instructions: 1110000000 cycles: 663074326 heartbeat IPC: 1.60949 cumulative IPC: 1.57309 (Simulation time: 2 hr 44 min 11 sec) 
Heartbeat CPU 1 instructions: 880000000 cycles: 665268678 heartbeat IPC: 1.0196 cumulative IPC: 1.16304 (Simulation time: 2 hr 44 min 41 sec) 
Heartbeat CPU 3 instructions: 780000000 cycles: 665987131 heartbeat IPC: 1.0295 cumulative IPC: 1.01708 (Simulation time: 2 hr 44 min 50 sec) 
Heartbeat CPU 0 instructions: 730000001 cycles: 667775427 heartbeat IPC: 0.891556 cumulative IPC: 0.89839 (Simulation time: 2 hr 45 min 13 sec) 
Heartbeat CPU 2 instructions: 1120000000 cycles: 669322083 heartbeat IPC: 1.60057 cumulative IPC: 1.57339 (Simulation time: 2 hr 45 min 34 sec) 
Heartbeat CPU 1 instructions: 890000003 cycles: 675182162 heartbeat IPC: 1.00873 cumulative IPC: 1.1604 (Simulation time: 2 hr 46 min 50 sec) 
Heartbeat CPU 2 instructions: 1130000000 cycles: 675600966 heartbeat IPC: 1.59264 cumulative IPC: 1.5736 (Simulation time: 2 hr 46 min 56 sec) 
Heartbeat CPU 3 instructions: 790000000 cycles: 675806580 heartbeat IPC: 1.01839 cumulative IPC: 1.0171 (Simulation time: 2 hr 46 min 58 sec) 
Heartbeat CPU 0 instructions: 740000000 cycles: 681427826 heartbeat IPC: 0.732472 cumulative IPC: 0.894523 (Simulation time: 2 hr 48 min 13 sec) 
Heartbeat CPU 2 instructions: 1140000000 cycles: 681952554 heartbeat IPC: 1.57441 cumulative IPC: 1.57361 (Simulation time: 2 hr 48 min 20 sec) 
Heartbeat CPU 1 instructions: 900000000 cycles: 683784699 heartbeat IPC: 1.16245 cumulative IPC: 1.16043 (Simulation time: 2 hr 48 min 44 sec) 
Heartbeat CPU 3 instructions: 800000000 cycles: 685673397 heartbeat IPC: 1.0135 cumulative IPC: 1.01704 (Simulation time: 2 hr 49 min 11 sec) 
Heartbeat CPU 2 instructions: 1150000003 cycles: 689281233 heartbeat IPC: 1.3645 cumulative IPC: 1.57102 (Simulation time: 2 hr 49 min 59 sec) 
Heartbeat CPU 1 instructions: 910000000 cycles: 690607180 heartbeat IPC: 1.46574 cumulative IPC: 1.16393 (Simulation time: 2 hr 50 min 16 sec) 
Heartbeat CPU 3 instructions: 810000000 cycles: 695562568 heartbeat IPC: 1.01121 cumulative IPC: 1.01694 (Simulation time: 2 hr 51 min 18 sec) 
Heartbeat CPU 2 instructions: 1160000000 cycles: 696114624 heartbeat IPC: 1.4634 cumulative IPC: 1.5698 (Simulation time: 2 hr 51 min 25 sec) 
Heartbeat CPU 0 instructions: 750000001 cycles: 696977877 heartbeat IPC: 0.643085 cumulative IPC: 0.88802 (Simulation time: 2 hr 51 min 36 sec) 
Heartbeat CPU 1 instructions: 920000000 cycles: 700305711 heartbeat IPC: 1.03108 cumulative IPC: 1.1618 (Simulation time: 2 hr 52 min 20 sec) 
Heartbeat CPU 2 instructions: 1170000000 cycles: 702344136 heartbeat IPC: 1.60526 cumulative IPC: 1.57016 (Simulation time: 2 hr 52 min 47 sec) 
Heartbeat CPU 3 instructions: 820000000 cycles: 704785104 heartbeat IPC: 1.0843 cumulative IPC: 1.01796 (Simulation time: 2 hr 53 min 18 sec) 
Heartbeat CPU 2 instructions: 1180000000 cycles: 709080399 heartbeat IPC: 1.4845 cumulative IPC: 1.56922 (Simulation time: 2 hr 54 min 10 sec) 
Heartbeat CPU 1 instructions: 930000002 cycles: 709633815 heartbeat IPC: 1.07203 cumulative IPC: 1.16043 (Simulation time: 2 hr 54 min 16 sec) 
Heartbeat CPU 0 instructions: 760000000 cycles: 713277136 heartbeat IPC: 0.613525 cumulative IPC: 0.880775 (Simulation time: 2 hr 54 min 59 sec) 
Heartbeat CPU 3 instructions: 830000002 cycles: 714948536 heartbeat IPC: 0.98392 cumulative IPC: 1.01741 (Simulation time: 2 hr 55 min 18 sec) 
Heartbeat CPU 2 instructions: 1190000003 cycles: 715812108 heartbeat IPC: 1.48551 cumulative IPC: 1.56831 (Simulation time: 2 hr 55 min 28 sec) 
Heartbeat CPU 1 instructions: 940000000 cycles: 719672111 heartbeat IPC: 0.996185 cumulative IPC: 1.15779 (Simulation time: 2 hr 56 min 14 sec) 
Heartbeat CPU 2 instructions: 1200000000 cycles: 721907769 heartbeat IPC: 1.64051 cumulative IPC: 1.56902 (Simulation time: 2 hr 56 min 42 sec) 
Heartbeat CPU 3 instructions: 840000000 cycles: 725087765 heartbeat IPC: 0.986268 cumulative IPC: 1.0169 (Simulation time: 2 hr 57 min 20 sec) 
Heartbeat CPU 2 instructions: 1210000003 cycles: 727914275 heartbeat IPC: 1.66486 cumulative IPC: 1.56993 (Simulation time: 2 hr 57 min 54 sec) 
Heartbeat CPU 0 instructions: 770000001 cycles: 729192207 heartbeat IPC: 0.628335 cumulative IPC: 0.874433 (Simulation time: 2 hr 58 min 9 sec) 
Heartbeat CPU 1 instructions: 950000001 cycles: 729783580 heartbeat IPC: 0.988976 cumulative IPC: 1.1551 (Simulation time: 2 hr 58 min 17 sec) 
Finished CPU 2 instructions: 1000000001 cycles: 636695413 cumulative IPC: 1.57061 (Simulation time: 2 hr 58 min 49 sec) 
Heartbeat CPU 2 instructions: 1220000000 cycles: 733931663 heartbeat IPC: 1.66185 cumulative IPC: 1.57079 (Simulation time: 2 hr 59 min 8 sec) 
Heartbeat CPU 3 instructions: 850000000 cycles: 735281286 heartbeat IPC: 0.981015 cumulative IPC: 1.01633 (Simulation time: 2 hr 59 min 25 sec) 
Heartbeat CPU 1 instructions: 960000000 cycles: 739286390 heartbeat IPC: 1.05232 cumulative IPC: 1.15358 (Simulation time: 3 hr 0 min 12 sec) 
Heartbeat CPU 2 instructions: 1230000001 cycles: 740069532 heartbeat IPC: 1.62923 cumulative IPC: 1.57135 (Simulation time: 3 hr 0 min 22 sec) 
Heartbeat CPU 0 instructions: 780000000 cycles: 744758437 heartbeat IPC: 0.642416 cumulative IPC: 0.868868 (Simulation time: 3 hr 1 min 20 sec) 
Heartbeat CPU 3 instructions: 860000000 cycles: 745446242 heartbeat IPC: 0.983772 cumulative IPC: 1.01582 (Simulation time: 3 hr 1 min 29 sec) 
Heartbeat CPU 2 instructions: 1240000000 cycles: 746195234 heartbeat IPC: 1.63247 cumulative IPC: 1.57193 (Simulation time: 3 hr 1 min 38 sec) 
Heartbeat CPU 1 instructions: 970000003 cycles: 749369697 heartbeat IPC: 0.991738 cumulative IPC: 1.15109 (Simulation time: 3 hr 2 min 19 sec) 
Heartbeat CPU 2 instructions: 1250000000 cycles: 752329028 heartbeat IPC: 1.63031 cumulative IPC: 1.57247 (Simulation time: 3 hr 2 min 57 sec) 
Heartbeat CPU 3 instructions: 870000000 cycles: 755222147 heartbeat IPC: 1.02292 cumulative IPC: 1.01593 (Simulation time: 3 hr 3 min 35 sec) 
Heartbeat CPU 2 instructions: 1260000000 cycles: 758546786 heartbeat IPC: 1.6083 cumulative IPC: 1.57281 (Simulation time: 3 hr 4 min 17 sec) 
Heartbeat CPU 1 instructions: 980000000 cycles: 758813942 heartbeat IPC: 1.05885 cumulative IPC: 1.14977 (Simulation time: 3 hr 4 min 20 sec) 
Heartbeat CPU 0 instructions: 790000000 cycles: 761435992 heartbeat IPC: 0.599608 cumulative IPC: 0.862123 (Simulation time: 3 hr 4 min 54 sec) 
Heartbeat CPU 2 instructions: 1270000000 cycles: 764731276 heartbeat IPC: 1.61695 cumulative IPC: 1.57322 (Simulation time: 3 hr 5 min 38 sec) 
Heartbeat CPU 3 instructions: 880000000 cycles: 765086610 heartbeat IPC: 1.01374 cumulative IPC: 1.0159 (Simulation time: 3 hr 5 min 43 sec) 
Heartbeat CPU 1 instructions: 990000000 cycles: 768007142 heartbeat IPC: 1.08776 cumulative IPC: 1.14892 (Simulation time: 3 hr 6 min 20 sec) 
Heartbeat CPU 2 instructions: 1280000000 cycles: 770871113 heartbeat IPC: 1.62871 cumulative IPC: 1.57372 (Simulation time: 3 hr 6 min 57 sec) 
Heartbeat CPU 3 instructions: 890000002 cycles: 775077733 heartbeat IPC: 1.00089 cumulative IPC: 1.01567 (Simulation time: 3 hr 7 min 52 sec) 
Heartbeat CPU 2 instructions: 1290000001 cycles: 777006079 heartbeat IPC: 1.63 cumulative IPC: 1.57423 (Simulation time: 3 hr 8 min 17 sec) 
Heartbeat CPU 0 instructions: 800000000 cycles: 777071312 heartbeat IPC: 0.639578 cumulative IPC: 0.857016 (Simulation time: 3 hr 8 min 18 sec) 
Heartbeat CPU 1 instructions: 1000000000 cycles: 777446298 heartbeat IPC: 1.05942 cumulative IPC: 1.14768 (Simulation time: 3 hr 8 min 23 sec) 
Heartbeat CPU 2 instructions: 1300000000 cycles: 783125210 heartbeat IPC: 1.63422 cumulative IPC: 1.57476 (Simulation time: 3 hr 9 min 37 sec) 
Heartbeat CPU 3 instructions: 900000000 cycles: 785232892 heartbeat IPC: 0.984721 cumulative IPC: 1.01522 (Simulation time: 3 hr 10 min 5 sec) 
Heartbeat CPU 1 instructions: 1010000002 cycles: 785533535 heartbeat IPC: 1.23652 cumulative IPC: 1.14873 (Simulation time: 3 hr 10 min 9 sec) 
Heartbeat CPU 2 instructions: 1310000003 cycles: 789193790 heartbeat IPC: 1.64783 cumulative IPC: 1.5754 (Simulation time: 3 hr 10 min 57 sec) 
Heartbeat CPU 0 instructions: 810000000 cycles: 793112016 heartbeat IPC: 0.623414 cumulative IPC: 0.851642 (Simulation time: 3 hr 11 min 49 sec) 
Heartbeat CPU 1 instructions: 1020000000 cycles: 793932247 heartbeat IPC: 1.19066 cumulative IPC: 1.14923 (Simulation time: 3 hr 12 min 1 sec) 
Heartbeat CPU 3 instructions: 910000000 cycles: 795053945 heartbeat IPC: 1.01822 cumulative IPC: 1.01526 (Simulation time: 3 hr 12 min 16 sec) 
Heartbeat CPU 2 instructions: 1320000000 cycles: 795321954 heartbeat IPC: 1.63181 cumulative IPC: 1.57589 (Simulation time: 3 hr 12 min 19 sec) 
Heartbeat CPU 2 instructions: 1330000002 cycles: 801371459 heartbeat IPC: 1.65303 cumulative IPC: 1.57656 (Simulation time: 3 hr 13 min 40 sec) 
Heartbeat CPU 1 instructions: 1030000000 cycles: 801644469 heartbeat IPC: 1.29664 cumulative IPC: 1.15084 (Simulation time: 3 hr 13 min 43 sec) 
Heartbeat CPU 3 instructions: 920000000 cycles: 805038200 heartbeat IPC: 1.00158 cumulative IPC: 1.01507 (Simulation time: 3 hr 14 min 29 sec) 
Heartbeat CPU 2 instructions: 1340000000 cycles: 807302741 heartbeat IPC: 1.68598 cumulative IPC: 1.57747 (Simulation time: 3 hr 15 min 0 sec) 
Heartbeat CPU 1 instructions: 1040000000 cycles: 809367446 heartbeat IPC: 1.29484 cumulative IPC: 1.1524 (Simulation time: 3 hr 15 min 27 sec) 
Heartbeat CPU 0 instructions: 820000000 cycles: 809571823 heartbeat IPC: 0.607541 cumulative IPC: 0.846014 (Simulation time: 3 hr 15 min 29 sec) 
Heartbeat CPU 2 instructions: 1350000000 cycles: 813413567 heartbeat IPC: 1.63644 cumulative IPC: 1.57797 (Simulation time: 3 hr 16 min 20 sec) 
Heartbeat CPU 3 instructions: 930000002 cycles: 814999162 heartbeat IPC: 1.00392 cumulative IPC: 1.01491 (Simulation time: 3 hr 16 min 41 sec) 
Heartbeat CPU 1 instructions: 1050000000 cycles: 817314335 heartbeat IPC: 1.25835 cumulative IPC: 1.15357 (Simulation time: 3 hr 17 min 13 sec) 
Heartbeat CPU 2 instructions: 1360000000 cycles: 819582602 heartbeat IPC: 1.621 cumulative IPC: 1.57834 (Simulation time: 3 hr 17 min 42 sec) 
Heartbeat CPU 3 instructions: 940000000 cycles: 824906296 heartbeat IPC: 1.00937 cumulative IPC: 1.01484 (Simulation time: 3 hr 18 min 53 sec) 
Heartbeat CPU 0 instructions: 830000000 cycles: 825388600 heartbeat IPC: 0.63224 cumulative IPC: 0.84138 (Simulation time: 3 hr 19 min 0 sec) 
Heartbeat CPU 2 instructions: 1370000001 cycles: 825632418 heartbeat IPC: 1.65294 cumulative IPC: 1.57896 (Simulation time: 3 hr 19 min 3 sec) 
Heartbeat CPU 1 instructions: 1060000000 cycles: 825783647 heartbeat IPC: 1.18073 cumulative IPC: 1.15388 (Simulation time: 3 hr 19 min 5 sec) 
Heartbeat CPU 2 instructions: 1380000000 cycles: 831662189 heartbeat IPC: 1.65844 cumulative IPC: 1.57961 (Simulation time: 3 hr 20 min 22 sec) 
Heartbeat CPU 3 instructions: 950000001 cycles: 835032335 heartbeat IPC: 0.987553 cumulative IPC: 1.01446 (Simulation time: 3 hr 21 min 6 sec) 
Heartbeat CPU 1 instructions: 1070000001 cycles: 835287584 heartbeat IPC: 1.0522 cumulative IPC: 1.15257 (Simulation time: 3 hr 21 min 9 sec) 
Heartbeat CPU 2 instructions: 1390000002 cycles: 837691702 heartbeat IPC: 1.65851 cumulative IPC: 1.58025 (Simulation time: 3 hr 21 min 40 sec) 
Heartbeat CPU 0 instructions: 840000000 cycles: 840670179 heartbeat IPC: 0.654383 cumulative IPC: 0.837544 (Simulation time: 3 hr 22 min 19 sec) 
Heartbeat CPU 2 instructions: 1400000000 cycles: 843741469 heartbeat IPC: 1.65296 cumulative IPC: 1.58084 (Simulation time: 3 hr 22 min 59 sec) 
Heartbeat CPU 1 instructions: 1080000000 cycles: 844561715 heartbeat IPC: 1.07827 cumulative IPC: 1.15165 (Simulation time: 3 hr 23 min 10 sec) 
Heartbeat CPU 3 instructions: 960000000 cycles: 845356628 heartbeat IPC: 0.968589 cumulative IPC: 1.01383 (Simulation time: 3 hr 23 min 20 sec) 
Heartbeat CPU 2 instructions: 1410000000 cycles: 849760353 heartbeat IPC: 1.66144 cumulative IPC: 1.58148 (Simulation time: 3 hr 24 min 18 sec) 
Heartbeat CPU 1 instructions: 1090000003 cycles: 853918942 heartbeat IPC: 1.06869 cumulative IPC: 1.15063 (Simulation time: 3 hr 25 min 13 sec) 
Heartbeat CPU 3 instructions: 970000001 cycles: 854987506 heartbeat IPC: 1.03833 cumulative IPC: 1.01414 (Simulation time: 3 hr 25 min 28 sec) 
Heartbeat CPU 2 instructions: 1420000000 cycles: 855833879 heartbeat IPC: 1.64649 cumulative IPC: 1.582 (Simulation time: 3 hr 25 min 39 sec) 
Heartbeat CPU 0 instructions: 850000000 cycles: 856618266 heartbeat IPC: 0.627034 cumulative IPC: 0.833132 (Simulation time: 3 hr 25 min 49 sec) 
Heartbeat CPU 2 instructions: 1430000000 cycles: 861913801 heartbeat IPC: 1.64476 cumulative IPC: 1.5825 (Simulation time: 3 hr 26 min 59 sec) 
Heartbeat CPU 1 instructions: 1100000000 cycles: 862689942 heartbeat IPC: 1.14012 cumulative IPC: 1.15051 (Simulation time: 3 hr 27 min 10 sec) 
Heartbeat CPU 3 instructions: 980000000 cycles: 864975340 heartbeat IPC: 1.00122 cumulative IPC: 1.01398 (Simulation time: 3 hr 27 min 40 sec) 
Heartbeat CPU 2 instructions: 1440000000 cycles: 867836764 heartbeat IPC: 1.68834 cumulative IPC: 1.58331 (Simulation time: 3 hr 28 min 17 sec) 
Heartbeat CPU 0 instructions: 860000000 cycles: 871623563 heartbeat IPC: 0.666431 cumulative IPC: 0.829908 (Simulation time: 3 hr 29 min 6 sec) 
Heartbeat CPU 1 instructions: 1110000000 cycles: 872514287 heartbeat IPC: 1.01788 cumulative IPC: 1.14883 (Simulation time: 3 hr 29 min 17 sec) 
Heartbeat CPU 2 instructions: 1450000000 cycles: 873831501 heartbeat IPC: 1.66813 cumulative IPC: 1.58396 (Simulation time: 3 hr 29 min 34 sec) 
Heartbeat CPU 3 instructions: 990000000 cycles: 875222266 heartbeat IPC: 0.975902 cumulative IPC: 1.01348 (Simulation time: 3 hr 29 min 52 sec) 
Heartbeat CPU 2 instructions: 1460000000 cycles: 879743484 heartbeat IPC: 1.69148 cumulative IPC: 1.58477 (Simulation time: 3 hr 30 min 50 sec) 
Heartbeat CPU 1 instructions: 1120000000 cycles: 882334670 heartbeat IPC: 1.01829 cumulative IPC: 1.1472 (Simulation time: 3 hr 31 min 24 sec) 
Heartbeat CPU 3 instructions: 1000000000 cycles: 885325018 heartbeat IPC: 0.989829 cumulative IPC: 1.01317 (Simulation time: 3 hr 32 min 3 sec) 
Heartbeat CPU 2 instructions: 1470000001 cycles: 885767553 heartbeat IPC: 1.66001 cumulative IPC: 1.58535 (Simulation time: 3 hr 32 min 9 sec) 
Heartbeat CPU 0 instructions: 870000001 cycles: 887255474 heartbeat IPC: 0.639717 cumulative IPC: 0.826152 (Simulation time: 3 hr 32 min 29 sec) 
Heartbeat CPU 1 instructions: 1130000003 cycles: 891537778 heartbeat IPC: 1.08659 cumulative IPC: 1.1465 (Simulation time: 3 hr 33 min 25 sec) 
Heartbeat CPU 2 instructions: 1480000000 cycles: 891793315 heartbeat IPC: 1.65954 cumulative IPC: 1.58591 (Simulation time: 3 hr 33 min 28 sec) 
Heartbeat CPU 3 instructions: 1010000000 cycles: 895303334 heartbeat IPC: 1.00217 cumulative IPC: 1.01304 (Simulation time: 3 hr 34 min 15 sec) 
Heartbeat CPU 2 instructions: 1490000003 cycles: 897858790 heartbeat IPC: 1.64868 cumulative IPC: 1.58638 (Simulation time: 3 hr 34 min 47 sec) 
Heartbeat CPU 0 instructions: 880000000 cycles: 900574844 heartbeat IPC: 0.750786 cumulative IPC: 0.824905 (Simulation time: 3 hr 35 min 22 sec) 
Heartbeat CPU 1 instructions: 1140000000 cycles: 901060823 heartbeat IPC: 1.05008 cumulative IPC: 1.14536 (Simulation time: 3 hr 35 min 28 sec) 
Heartbeat CPU 2 instructions: 1500000000 cycles: 903963457 heartbeat IPC: 1.63809 cumulative IPC: 1.58677 (Simulation time: 3 hr 36 min 6 sec) 
Heartbeat CPU 3 instructions: 1020000000 cycles: 905410546 heartbeat IPC: 0.989393 cumulative IPC: 1.01274 (Simulation time: 3 hr 36 min 24 sec) 
Heartbeat CPU 2 instructions: 1510000000 cycles: 910009970 heartbeat IPC: 1.65385 cumulative IPC: 1.58727 (Simulation time: 3 hr 37 min 20 sec) 
Heartbeat CPU 1 instructions: 1150000002 cycles: 910102109 heartbeat IPC: 1.10604 cumulative IPC: 1.14493 (Simulation time: 3 hr 37 min 21 sec) 
Heartbeat CPU 0 instructions: 890000000 cycles: 914563507 heartbeat IPC: 0.714865 cumulative IPC: 0.823025 (Simulation time: 3 hr 38 min 17 sec) 
Heartbeat CPU 3 instructions: 1030000002 cycles: 915383544 heartbeat IPC: 1.00271 cumulative IPC: 1.01262 (Simulation time: 3 hr 38 min 27 sec) 
Heartbeat CPU 2 instructions: 1520000000 cycles: 916024119 heartbeat IPC: 1.66275 cumulative IPC: 1.58782 (Simulation time: 3 hr 38 min 35 sec) 
Heartbeat CPU 1 instructions: 1160000000 cycles: 919023771 heartbeat IPC: 1.12087 cumulative IPC: 1.14466 (Simulation time: 3 hr 39 min 12 sec) 
Heartbeat CPU 2 instructions: 1530000001 cycles: 922032639 heartbeat IPC: 1.6643 cumulative IPC: 1.58838 (Simulation time: 3 hr 39 min 51 sec) 
Heartbeat CPU 1 instructions: 1170000001 cycles: 925671330 heartbeat IPC: 1.50431 cumulative IPC: 1.14755 (Simulation time: 3 hr 40 min 38 sec) 
Heartbeat CPU 3 instructions: 1040000000 cycles: 925770835 heartbeat IPC: 0.962715 cumulative IPC: 1.01199 (Simulation time: 3 hr 40 min 39 sec) 
Heartbeat CPU 2 instructions: 1540000000 cycles: 927971595 heartbeat IPC: 1.6838 cumulative IPC: 1.58906 (Simulation time: 3 hr 41 min 8 sec) 
Heartbeat CPU 0 instructions: 900000000 cycles: 930170376 heartbeat IPC: 0.640743 cumulative IPC: 0.819616 (Simulation time: 3 hr 41 min 36 sec) 
Heartbeat CPU 2 instructions: 1550000001 cycles: 933869978 heartbeat IPC: 1.69538 cumulative IPC: 1.58981 (Simulation time: 3 hr 42 min 24 sec) 
Heartbeat CPU 1 instructions: 1180000000 cycles: 935406608 heartbeat IPC: 1.02719 cumulative IPC: 1.14615 (Simulation time: 3 hr 42 min 44 sec) 
Heartbeat CPU 3 instructions: 1050000000 cycles: 935971925 heartbeat IPC: 0.980287 cumulative IPC: 1.01161 (Simulation time: 3 hr 42 min 51 sec) 
Heartbeat CPU 2 instructions: 1560000000 cycles: 939787225 heartbeat IPC: 1.68997 cumulative IPC: 1.59051 (Simulation time: 3 hr 43 min 42 sec) 
Heartbeat CPU 1 instructions: 1190000001 cycles: 944026981 heartbeat IPC: 1.16004 cumulative IPC: 1.14629 (Simulation time: 3 hr 44 min 38 sec) 
Heartbeat CPU 3 instructions: 1060000000 cycles: 945697150 heartbeat IPC: 1.02825 cumulative IPC: 1.0118 (Simulation time: 3 hr 45 min 0 sec) 
Heartbeat CPU 2 instructions: 1570000001 cycles: 946003023 heartbeat IPC: 1.6088 cumulative IPC: 1.59065 (Simulation time: 3 hr 45 min 4 sec) 
Heartbeat CPU 0 instructions: 910000000 cycles: 946407985 heartbeat IPC: 0.615854 cumulative IPC: 0.815726 (Simulation time: 3 hr 45 min 9 sec) 
Heartbeat CPU 2 instructions: 1580000000 cycles: 952334991 heartbeat IPC: 1.57929 cumulative IPC: 1.59056 (Simulation time: 3 hr 46 min 25 sec) 
Heartbeat CPU 1 instructions: 1200000000 cycles: 953097286 heartbeat IPC: 1.1025 cumulative IPC: 1.14583 (Simulation time: 3 hr 46 min 35 sec) 
Heartbeat CPU 3 instructions: 1070000000 cycles: 955386467 heartbeat IPC: 1.03206 cumulative IPC: 1.01203 (Simulation time: 3 hr 47 min 5 sec) 
Heartbeat CPU 2 instructions: 1590000001 cycles: 958462388 heartbeat IPC: 1.63201 cumulative IPC: 1.59086 (Simulation time: 3 hr 47 min 45 sec) 
Heartbeat CPU 1 instructions: 1210000002 cycles: 961267364 heartbeat IPC: 1.22398 cumulative IPC: 1.14657 (Simulation time: 3 hr 48 min 23 sec) 
Heartbeat CPU 0 instructions: 920000000 cycles: 962641569 heartbeat IPC: 0.616007 cumulative IPC: 0.811986 (Simulation time: 3 hr 48 min 42 sec) 
Heartbeat CPU 2 instructions: 1600000000 cycles: 964666560 heartbeat IPC: 1.61182 cumulative IPC: 1.59101 (Simulation time: 3 hr 49 min 9 sec) 
Heartbeat CPU 3 instructions: 1080000000 cycles: 965560924 heartbeat IPC: 0.982853 cumulative IPC: 1.01169 (Simulation time: 3 hr 49 min 21 sec) 
Finished CPU 1 instructions: 1000000001 cycles: 871063388 cumulative IPC: 1.14802 (Simulation time: 3 hr 49 min 37 sec) 
Heartbeat CPU 1 instructions: 1220000000 cycles: 968729805 heartbeat IPC: 1.34004 cumulative IPC: 1.14822 (Simulation time: 3 hr 50 min 2 sec) 
Heartbeat CPU 2 instructions: 1610000002 cycles: 970713128 heartbeat IPC: 1.65383 cumulative IPC: 1.59144 (Simulation time: 3 hr 50 min 28 sec) 
Heartbeat CPU 3 instructions: 1090000000 cycles: 975822832 heartbeat IPC: 0.974478 cumulative IPC: 1.01125 (Simulation time: 3 hr 51 min 35 sec) 
Heartbeat CPU 2 instructions: 1620000000 cycles: 976707506 heartbeat IPC: 1.66823 cumulative IPC: 1.59196 (Simulation time: 3 hr 51 min 47 sec) 
Heartbeat CPU 1 instructions: 1230000000 cycles: 977475695 heartbeat IPC: 1.14339 cumulative IPC: 1.14817 (Simulation time: 3 hr 51 min 58 sec) 
Heartbeat CPU 0 instructions: 930000002 cycles: 977694553 heartbeat IPC: 0.66432 cumulative IPC: 0.809466 (Simulation time: 3 hr 52 min 1 sec) 
Heartbeat CPU 2 instructions: 1630000003 cycles: 982711983 heartbeat IPC: 1.66542 cumulative IPC: 1.59246 (Simulation time: 3 hr 53 min 14 sec) 
Heartbeat CPU 1 instructions: 1240000000 cycles: 983755654 heartbeat IPC: 1.59237 cumulative IPC: 1.15131 (Simulation time: 3 hr 53 min 29 sec) 
Heartbeat CPU 3 instructions: 1100000000 cycles: 985589558 heartbeat IPC: 1.02388 cumulative IPC: 1.01139 (Simulation time: 3 hr 53 min 53 sec) 
Heartbeat CPU 2 instructions: 1640000000 cycles: 988757867 heartbeat IPC: 1.65402 cumulative IPC: 1.59288 (Simulation time: 3 hr 54 min 35 sec) 
Heartbeat CPU 0 instructions: 940000000 cycles: 991315987 heartbeat IPC: 0.734137 cumulative IPC: 0.80832 (Simulation time: 3 hr 55 min 9 sec) 
Heartbeat CPU 1 instructions: 1250000003 cycles: 993124352 heartbeat IPC: 1.06738 cumulative IPC: 1.15044 (Simulation time: 3 hr 55 min 33 sec) 
Heartbeat CPU 2 instructions: 1650000003 cycles: 994786212 heartbeat IPC: 1.65883 cumulative IPC: 1.59332 (Simulation time: 3 hr 55 min 54 sec) 
Heartbeat CPU 3 instructions: 1110000000 cycles: 995716639 heartbeat IPC: 0.987451 cumulative IPC: 1.01112 (Simulation time: 3 hr 56 min 7 sec) 
Heartbeat CPU 1 instructions: 1260000000 cycles: 1000521643 heartbeat IPC: 1.35185 cumulative IPC: 1.15208 (Simulation time: 3 hr 57 min 14 sec) 
Heartbeat CPU 2 instructions: 1660000000 cycles: 1000702255 heartbeat IPC: 1.69032 cumulative IPC: 1.59395 (Simulation time: 3 hr 57 min 17 sec) 
Heartbeat CPU 3 instructions: 1120000000 cycles: 1005985436 heartbeat IPC: 0.973824 cumulative IPC: 1.0107 (Simulation time: 3 hr 58 min 31 sec) 
Heartbeat CPU 0 instructions: 950000003 cycles: 1006490147 heartbeat IPC: 0.659015 cumulative IPC: 0.805833 (Simulation time: 3 hr 58 min 38 sec) 
Heartbeat CPU 2 instructions: 1670000000 cycles: 1006630937 heartbeat IPC: 1.68672 cumulative IPC: 1.59456 (Simulation time: 3 hr 58 min 40 sec) 
Heartbeat CPU 1 instructions: 1270000003 cycles: 1006784794 heartbeat IPC: 1.59664 cumulative IPC: 1.15514 (Simulation time: 3 hr 58 min 42 sec) 
Heartbeat CPU 2 instructions: 1680000000 cycles: 1012551375 heartbeat IPC: 1.68906 cumulative IPC: 1.59517 (Simulation time: 4 hr 0 min 1 sec) 
Heartbeat CPU 1 instructions: 1280000000 cycles: 1014204278 heartbeat IPC: 1.3478 cumulative IPC: 1.1567 (Simulation time: 4 hr 0 min 23 sec) 
Heartbeat CPU 3 instructions: 1130000001 cycles: 1015698548 heartbeat IPC: 1.02954 cumulative IPC: 1.0109 (Simulation time: 4 hr 0 min 43 sec) 
Heartbeat CPU 2 instructions: 1690000000 cycles: 1018460821 heartbeat IPC: 1.69221 cumulative IPC: 1.59579 (Simulation time: 4 hr 1 min 19 sec) 
Heartbeat CPU 0 instructions: 960000000 cycles: 1023002045 heartbeat IPC: 0.605624 cumulative IPC: 0.802268 (Simulation time: 4 hr 2 min 17 sec) 
Heartbeat CPU 1 instructions: 1290000000 cycles: 1024178417 heartbeat IPC: 1.00259 cumulative IPC: 1.15504 (Simulation time: 4 hr 2 min 32 sec) 
Heartbeat CPU 2 instructions: 1700000000 cycles: 1024461533 heartbeat IPC: 1.66647 cumulative IPC: 1.59625 (Simulation time: 4 hr 2 min 36 sec) 
Heartbeat CPU 3 instructions: 1140000000 cycles: 1025649031 heartbeat IPC: 1.00498 cumulative IPC: 1.01084 (Simulation time: 4 hr 2 min 51 sec) 
Heartbeat CPU 2 instructions: 1710000001 cycles: 1030513782 heartbeat IPC: 1.65228 cumulative IPC: 1.59661 (Simulation time: 4 hr 3 min 58 sec) 
Heartbeat CPU 1 instructions: 1300000000 cycles: 1034160620 heartbeat IPC: 1.00178 cumulative IPC: 1.15341 (Simulation time: 4 hr 4 min 56 sec) 
Heartbeat CPU 3 instructions: 1150000001 cycles: 1035552613 heartbeat IPC: 1.00974 cumulative IPC: 1.01082 (Simulation time: 4 hr 5 min 14 sec) 
Heartbeat CPU 2 instructions: 1720000000 cycles: 1036571910 heartbeat IPC: 1.65067 cumulative IPC: 1.59696 (Simulation time: 4 hr 5 min 28 sec) 
Heartbeat CPU 0 instructions: 970000003 cycles: 1038871870 heartbeat IPC: 0.630127 cumulative IPC: 0.799371 (Simulation time: 4 hr 5 min 57 sec) 
Heartbeat CPU 2 instructions: 1730000000 cycles: 1042638460 heartbeat IPC: 1.64838 cumulative IPC: 1.59729 (Simulation time: 4 hr 6 min 46 sec) 
Heartbeat CPU 1 instructions: 1310000000 cycles: 1043727693 heartbeat IPC: 1.04525 cumulative IPC: 1.15232 (Simulation time: 4 hr 7 min 0 sec) 
Heartbeat CPU 3 instructions: 1160000000 cycles: 1045386138 heartbeat IPC: 1.01693 cumulative IPC: 1.01089 (Simulation time: 4 hr 7 min 22 sec) 
Heartbeat CPU 2 instructions: 1740000000 cycles: 1048610800 heartbeat IPC: 1.67439 cumulative IPC: 1.59777 (Simulation time: 4 hr 8 min 18 sec) 
Heartbeat CPU 1 instructions: 1320000000 cycles: 1052582329 heartbeat IPC: 1.12935 cumulative IPC: 1.15211 (Simulation time: 4 hr 9 min 10 sec) 
Heartbeat CPU 0 instructions: 980000000 cycles: 1054509622 heartbeat IPC: 0.639478 cumulative IPC: 0.796763 (Simulation time: 4 hr 9 min 34 sec) 
Heartbeat CPU 2 instructions: 1750000002 cycles: 1054728945 heartbeat IPC: 1.63448 cumulative IPC: 1.598 (Simulation time: 4 hr 9 min 37 sec) 
Heartbeat CPU 3 instructions: 1170000001 cycles: 1055680732 heartbeat IPC: 0.971384 cumulative IPC: 1.01046 (Simulation time: 4 hr 9 min 50 sec) 
Heartbeat CPU 1 instructions: 1330000003 cycles: 1059835381 heartbeat IPC: 1.37873 cumulative IPC: 1.15381 (Simulation time: 4 hr 10 min 48 sec) 
Heartbeat CPU 2 instructions: 1760000000 cycles: 1060786040 heartbeat IPC: 1.65096 cumulative IPC: 1.59834 (Simulation time: 4 hr 11 min 1 sec) 
Heartbeat CPU 3 instructions: 1180000000 cycles: 1065392401 heartbeat IPC: 1.02969 cumulative IPC: 1.01066 (Simulation time: 4 hr 12 min 5 sec) 
Heartbeat CPU 2 instructions: 1770000000 cycles: 1066789130 heartbeat IPC: 1.66581 cumulative IPC: 1.59875 (Simulation time: 4 hr 12 min 25 sec) 
Heartbeat CPU 1 instructions: 1340000000 cycles: 1066810437 heartbeat IPC: 1.43368 cumulative IPC: 1.15582 (Simulation time: 4 hr 12 min 26 sec) 
Heartbeat CPU 0 instructions: 990000002 cycles: 1070030010 heartbeat IPC: 0.644314 cumulative IPC: 0.794335 (Simulation time: 4 hr 13 min 8 sec) 
Heartbeat CPU 2 instructions: 1780000000 cycles: 1072814077 heartbeat IPC: 1.65977 cumulative IPC: 1.59913 (Simulation time: 4 hr 13 min 44 sec) 
Heartbeat CPU 1 instructions: 1350000000 cycles: 1073355246 heartbeat IPC: 1.52793 cumulative IPC: 1.15831 (Simulation time: 4 hr 13 min 51 sec) 
Heartbeat CPU 3 instructions: 1190000003 cycles: 1075041031 heartbeat IPC: 1.03642 cumulative IPC: 1.01091 (Simulation time: 4 hr 14 min 13 sec) 
Heartbeat CPU 2 instructions: 1790000003 cycles: 1078793283 heartbeat IPC: 1.67246 cumulative IPC: 1.59957 (Simulation time: 4 hr 15 min 1 sec) 
Heartbeat CPU 1 instructions: 1360000000 cycles: 1080832996 heartbeat IPC: 1.3373 cumulative IPC: 1.15967 (Simulation time: 4 hr 15 min 27 sec) 
Heartbeat CPU 2 instructions: 1800000000 cycles: 1084735008 heartbeat IPC: 1.68301 cumulative IPC: 1.60008 (Simulation time: 4 hr 16 min 16 sec) 
Heartbeat CPU 3 instructions: 1200000000 cycles: 1084946292 heartbeat IPC: 1.00956 cumulative IPC: 1.0109 (Simulation time: 4 hr 16 min 18 sec) 
Finished CPU 3 instructions: 1000000001 cycles: 989220135 cumulative IPC: 1.0109 (Simulation time: 4 hr 16 min 18 sec) 
Heartbeat CPU 0 instructions: 1000000000 cycles: 1086205062 heartbeat IPC: 0.618236 cumulative IPC: 0.791459 (Simulation time: 4 hr 16 min 34 sec) 
Heartbeat CPU 1 instructions: 1370000002 cycles: 1089753155 heartbeat IPC: 1.12106 cumulative IPC: 1.15932 (Simulation time: 4 hr 17 min 17 sec) 
Heartbeat CPU 2 instructions: 1810000000 cycles: 1090644575 heartbeat IPC: 1.69217 cumulative IPC: 1.60062 (Simulation time: 4 hr 17 min 29 sec) 
Heartbeat CPU 3 instructions: 1210000002 cycles: 1094949172 heartbeat IPC: 0.999712 cumulative IPC: 1.01079 (Simulation time: 4 hr 18 min 23 sec) 
Heartbeat CPU 2 instructions: 1820000000 cycles: 1096459287 heartbeat IPC: 1.71978 cumulative IPC: 1.60132 (Simulation time: 4 hr 18 min 42 sec) 
Heartbeat CPU 1 instructions: 1380000000 cycles: 1097317576 heartbeat IPC: 1.32198 cumulative IPC: 1.16055 (Simulation time: 4 hr 18 min 52 sec) 
Heartbeat CPU 0 instructions: 1010000000 cycles: 1102255565 heartbeat IPC: 0.623033 cumulative IPC: 0.788773 (Simulation time: 4 hr 19 min 57 sec) 
Heartbeat CPU 2 instructions: 1830000003 cycles: 1102314058 heartbeat IPC: 1.70801 cumulative IPC: 1.60194 (Simulation time: 4 hr 19 min 57 sec) 
Heartbeat CPU 1 instructions: 1390000001 cycles: 1103617774 heartbeat IPC: 1.58725 cumulative IPC: 1.16322 (Simulation time: 4 hr 20 min 14 sec) 
[...]
Heartbeat CPU 2 instructions: 2210000003 cycles: 1343934003 heartbeat IPC: 1.63683 cumulative IPC: 1.59628 (Simulation time: 5 hr 12 min 0 sec) 
Heartbeat CPU 3 instructions: 1460000000 cycles: 1344880848 heartbeat IPC: 0.987162 cumulative IPC: 1.00868 (Simulation time: 5 hr 12 min 13 sec) 
Heartbeat CPU 1 instructions: 1700000000 cycles: 1345659437 heartbeat IPC: 1.32675 cumulative IPC: 1.18598 (Simulation time: 5 hr 12 min 24 sec) 
Heartbeat CPU 2 instructions: 2220000000 cycles: 1350022296 heartbeat IPC: 1.6425 cumulative IPC: 1.5965 (Simulation time: 5 hr 13 min 24 sec) 
Heartbeat CPU 1 instructions: 1710000000 cycles: 1351999056 heartbeat IPC: 1.57738 cumulative IPC: 1.18796 (Simulation time: 5 hr 13 min 52 sec) 
Heartbeat CPU 3 instructions: 1470000001 cycles: 1354598919 heartbeat IPC: 1.02901 cumulative IPC: 1.00884 (Simulation time: 5 hr 14 min 27 sec) 
Heartbeat CPU 2 instructions: 2230000001 cycles: 1356131620 heartbeat IPC: 1.63684 cumulative IPC: 1.5967 (Simulation time: 5 hr 14 min 48 sec) 
Heartbeat CPU 0 instructions: 1170000001 cycles: 1357067799 heartbeat IPC: 0.624305 cumulative IPC: 0.756277 (Simulation time: 5 hr 15 min 0 sec) 
Heartbeat CPU 1 instructions: 1720000000 cycles: 1359338830 heartbeat IPC: 1.36244 cumulative IPC: 1.18897 (Simulation time: 5 hr 15 min 30 sec) 
Heartbeat CPU 2 instructions: 2240000000 cycles: 1362141187 heartbeat IPC: 1.66401 cumulative IPC: 1.59702 (Simulation time: 5 hr 16 min 8 sec) 
Heartbeat CPU 3 instructions: 1480000000 cycles: 1364471071 heartbeat IPC: 1.01295 cumulative IPC: 1.00887 (Simulation time: 5 hr 16 min 41 sec) 
Heartbeat CPU 1 instructions: 1730000000 cycles: 1365452108 heartbeat IPC: 1.63578 cumulative IPC: 1.19112 (Simulation time: 5 hr 16 min 54 sec) 
Heartbeat CPU 2 instructions: 2250000003 cycles: 1368211401 heartbeat IPC: 1.64739 cumulative IPC: 1.59726 (Simulation time: 5 hr 17 min 33 sec) 
Heartbeat CPU 1 instructions: 1740000000 cycles: 1371519086 heartbeat IPC: 1.64827 cumulative IPC: 1.1933 (Simulation time: 5 hr 18 min 20 sec) 
Heartbeat CPU 0 instructions: 1180000000 cycles: 1373497626 heartbeat IPC: 0.608649 cumulative IPC: 0.754379 (Simulation time: 5 hr 18 min 45 sec) 
Heartbeat CPU 3 instructions: 1490000000 cycles: 1374187231 heartbeat IPC: 1.02921 cumulative IPC: 1.00903 (Simulation time: 5 hr 18 min 53 sec) 
Heartbeat CPU 2 instructions: 2260000000 cycles: 1375689608 heartbeat IPC: 1.33722 cumulative IPC: 1.59574 (Simulation time: 5 hr 19 min 10 sec) 
Heartbeat CPU 1 instructions: 1750000001 cycles: 1379944757 heartbeat IPC: 1.18685 cumulative IPC: 1.19325 (Simulation time: 5 hr 20 min 1 sec) 
Heartbeat CPU 2 instructions: 2270000001 cycles: 1382241277 heartbeat IPC: 1.52633 cumulative IPC: 1.59539 (Simulation time: 5 hr 20 min 32 sec) 
Heartbeat CPU 3 instructions: 1500000000 cycles: 1384367934 heartbeat IPC: 0.98225 cumulative IPC: 1.00881 (Simulation time: 5 hr 21 min 1 sec) 
Heartbeat CPU 1 instructions: 1760000000 cycles: 1387533698 heartbeat IPC: 1.31771 cumulative IPC: 1.19399 (Simulation time: 5 hr 21 min 42 sec) 
Heartbeat CPU 2 instructions: 2280000000 cycles: 1388355748 heartbeat IPC: 1.63546 cumulative IPC: 1.59558 (Simulation time: 5 hr 21 min 53 sec) 
Heartbeat CPU 0 instructions: 1190000003 cycles: 1389233039 heartbeat IPC: 0.635509 cumulative IPC: 0.752933 (Simulation time: 5 hr 22 min 4 sec) 
Heartbeat CPU 3 instructions: 1510000000 cycles: 1393953728 heartbeat IPC: 1.04321 cumulative IPC: 1.00907 (Simulation time: 5 hr 23 min 7 sec) 
Heartbeat CPU 2 instructions: 2290000000 cycles: 1394430280 heartbeat IPC: 1.64622 cumulative IPC: 1.59581 (Simulation time: 5 hr 23 min 14 sec) 
Heartbeat CPU 1 instructions: 1770000001 cycles: 1395020061 heartbeat IPC: 1.33576 cumulative IPC: 1.1948 (Simulation time: 5 hr 23 min 22 sec) 
Heartbeat CPU 2 instructions: 2300000000 cycles: 1400442516 heartbeat IPC: 1.66327 cumulative IPC: 1.59612 (Simulation time: 5 hr 24 min 31 sec) 
Heartbeat CPU 1 instructions: 1780000000 cycles: 1403548383 heartbeat IPC: 1.17256 cumulative IPC: 1.19466 (Simulation time: 5 hr 25 min 11 sec) 
Heartbeat CPU 3 instructions: 1520000000 cycles: 1404133703 heartbeat IPC: 0.982321 cumulative IPC: 1.00886 (Simulation time: 5 hr 25 min 19 sec) 
Heartbeat CPU 0 instructions: 1200000000 cycles: 1405436711 heartbeat IPC: 0.617144 cumulative IPC: 0.751253 (Simulation time: 5 hr 25 min 36 sec) 
Heartbeat CPU 2 instructions: 2310000003 cycles: 1406466157 heartbeat IPC: 1.66013 cumulative IPC: 1.59642 (Simulation time: 5 hr 25 min 49 sec) 
Heartbeat CPU 1 instructions: 1790000001 cycles: 1412422409 heartbeat IPC: 1.12688 cumulative IPC: 1.1942 (Simulation time: 5 hr 27 min 6 sec) 
Heartbeat CPU 2 instructions: 2320000000 cycles: 1412538945 heartbeat IPC: 1.64669 cumulative IPC: 1.59665 (Simulation time: 5 hr 27 min 7 sec) 
Heartbeat CPU 3 instructions: 1530000001 cycles: 1413875443 heartbeat IPC: 1.02651 cumulative IPC: 1.00899 (Simulation time: 5 hr 27 min 24 sec) 
Heartbeat CPU 2 instructions: 2330000000 cycles: 1418637763 heartbeat IPC: 1.63966 cumulative IPC: 1.59685 (Simulation time: 5 hr 28 min 29 sec) 
Heartbeat CPU 1 instructions: 1800000000 cycles: 1419756440 heartbeat IPC: 1.36351 cumulative IPC: 1.19514 (Simulation time: 5 hr 28 min 43 sec) 
Heartbeat CPU 0 instructions: 1210000000 cycles: 1421170263 heartbeat IPC: 0.635584 cumulative IPC: 0.74988 (Simulation time: 5 hr 29 min 0 sec) 
Heartbeat CPU 3 instructions: 1540000000 cycles: 1423580532 heartbeat IPC: 1.03039 cumulative IPC: 1.00915 (Simulation time: 5 hr 29 min 29 sec) 
Heartbeat CPU 2 instructions: 2340000000 cycles: 1424823424 heartbeat IPC: 1.61664 cumulative IPC: 1.59694 (Simulation time: 5 hr 29 min 44 sec) 
Heartbeat CPU 1 instructions: 1810000001 cycles: 1428402082 heartbeat IPC: 1.15665 cumulative IPC: 1.19489 (Simulation time: 5 hr 30 min 26 sec) 
Finished CPU 0 instructions: 1000000000 cycles: 1335105744 cumulative IPC: 0.749004 (Simulation time: 5 hr 30 min 56 sec) 

CPU 0 Branch Prediction Accuracy: 90.6082% MPKI: 12.177

CPU 1 Branch Prediction Accuracy: 96.6273% MPKI: 5.08444

CPU 2 Branch Prediction Accuracy: 97.3788% MPKI: 3.55707

CPU 3 Branch Prediction Accuracy: 99.8491% MPKI: 0.00178963

ChampSim completed all CPUs

Total Simulation Statistics (not including warmup)

CPU 0 cumulative IPC: 0.749004 instructions: 1000000000 cycles: 1335105744
L1D TOTAL     ACCESS:  218306295  HIT:  212267315  MISS:    6038980
L1D LOAD      ACCESS:  143681933  HIT:  138545471  MISS:    5136462
L1D RFO       ACCESS:   74624362  HIT:   73721844  MISS:     902518
L1D PREFETCH  ACCESS:          0  HIT:          0  MISS:          0
L1D WRITEBACK ACCESS:          0  HIT:          0  MISS:          0
L1I TOTAL     ACCESS:  193149472  HIT:  193147287  MISS:       2185
L1I LOAD      ACCESS:  193149472  HIT:  193147287  MISS:       2185
L1I RFO       ACCESS:          0  HIT:          0  MISS:          0
L1I PREFETCH  ACCESS:          0  HIT:          0  MISS:          0
L1I WRITEBACK ACCESS:          0  HIT:          0  MISS:          0
L2C TOTAL     ACCESS:   11409519  HIT:    8289597  MISS:    3119922
L2C LOAD      ACCESS:    5138458  HIT:    2493570  MISS:    2644888
L2C RFO       ACCESS:     902175  HIT:     521076  MISS:     381099
L2C PREFETCH  ACCESS:    1368250  HIT:    1285322  MISS:      82928
L2C WRITEBACK ACCESS:    4000636  HIT:    3989629  MISS:      11007
LLC TOTAL     ACCESS:    8305507  HIT:    5745886  MISS:    2559621
LLC LOAD      ACCESS:    2630154  HIT:    1505234  MISS:    1124920
LLC RFO       ACCESS:     381077  HIT:     154076  MISS:     227001
LLC PREFETCH  ACCESS:    3157917  HIT:    1968556  MISS:    1189361
LLC WRITEBACK ACCESS:    2136359  HIT:    2118020  MISS:      18339

CPU 1 cumulative IPC: 1.19459 instructions: 1594904360 cycles: 1335105744
L1D TOTAL     ACCESS:  417111028  HIT:  417111028  MISS:          0
L1D LOAD      ACCESS:  204522930  HIT:  204522930  MISS:          0
L1D RFO       ACCESS:  212588098  HIT:  212588098  MISS:          0
L1D PREFETCH  ACCESS:          0  HIT:          0  MISS:          0
L1D WRITEBACK ACCESS:          0  HIT:          0  MISS:          0
L1I TOTAL     ACCESS:  376788541  HIT:  376318630  MISS:     469911
L1I LOAD      ACCESS:  376788541  HIT:  376318630  MISS:     469911
L1I RFO       ACCESS:          0  HIT:          0  MISS:          0
L1I PREFETCH  ACCESS:          0  HIT:          0  MISS:          0
L1I WRITEBACK ACCESS:          0  HIT:          0  MISS:          0
L2C TOTAL     ACCESS:     971361  HIT:     971222  MISS:        139
L2C LOAD      ACCESS:     469911  HIT:     469841  MISS:         70
L2C RFO       ACCESS:          0  HIT:          0  MISS:          0
L2C PREFETCH  ACCESS:     501450  HIT:     501381  MISS:         69
L2C WRITEBACK ACCESS:          0  HIT:          0  MISS:          0
LLC TOTAL     ACCESS:       8312  HIT:       5451  MISS:       2861
LLC LOAD      ACCESS:         68  HIT:         30  MISS:         38
LLC RFO       ACCESS:          0  HIT:          0  MISS:          0
LLC PREFETCH  ACCESS:       8244  HIT:       5421  MISS:       2823
LLC WRITEBACK ACCESS:          0  HIT:          0  MISS:          0

CPU 2 cumulative IPC: 1.59707 instructions: 2132256357 cycles: 1335105744
L1D TOTAL     ACCESS:  614167619  HIT:  614167450  MISS:        169
L1D LOAD      ACCESS:  267932456  HIT:  267932378  MISS:         78
L1D RFO       ACCESS:  346235163  HIT:  346235072  MISS:         91
L1D PREFETCH  ACCESS:          0  HIT:          0  MISS:          0
L1D WRITEBACK ACCESS:          0  HIT:          0  MISS:          0
L1I TOTAL     ACCESS:  466483859  HIT:  466439232  MISS:      44627
L1I LOAD      ACCESS:  466483859  HIT:  466439232  MISS:      44627
L1I RFO       ACCESS:          0  HIT:          0  MISS:          0
L1I PREFETCH  ACCESS:          0  HIT:          0  MISS:          0
L1I WRITEBACK ACCESS:          0  HIT:          0  MISS:          0
L2C TOTAL     ACCESS:      91559  HIT:      90131  MISS:       1428
L2C LOAD      ACCESS:      44705  HIT:      43460  MISS:       1245
L2C RFO       ACCESS:         91  HIT:          0  MISS:         91
L2C PREFETCH  ACCESS:      46763  HIT:      46671  MISS:         92
L2C WRITEBACK ACCESS:          0  HIT:          0  MISS:          0
LLC TOTAL     ACCESS:       4043  HIT:       1244  MISS:       2799
LLC LOAD      ACCESS:       1238  HIT:        392  MISS:        846
LLC RFO       ACCESS:         91  HIT:          3  MISS:         88
LLC PREFETCH  ACCESS:       2714  HIT:        849  MISS:       1865
LLC WRITEBACK ACCESS:          0  HIT:          0  MISS:          0

CPU 3 cumulative IPC: 1.00906 instructions: 1347203753 cycles: 1335105744
L1D TOTAL     ACCESS:  391801962  HIT:  235952288  MISS:  155849674
L1D LOAD      ACCESS:  239490651  HIT:   94660218  MISS:  144830433
L1D RFO       ACCESS:  152311311  HIT:  141292070  MISS:   11019241
L1D PREFETCH  ACCESS:          0  HIT:          0  MISS:          0
L1D WRITEBACK ACCESS:          0  HIT:          0  MISS:          0
L1I TOTAL     ACCESS:  340648759  HIT:  340648759  MISS:          0
L1I LOAD      ACCESS:  340648759  HIT:  340648759  MISS:          0
L1I RFO       ACCESS:          0  HIT:          0  MISS:          0
L1I PREFETCH  ACCESS:          0  HIT:          0  MISS:          0
L1I WRITEBACK ACCESS:          0  HIT:          0  MISS:          0
L2C TOTAL     ACCESS:  205606219  HIT:  160087536  MISS:   45518683
L2C LOAD      ACCESS:  144139964  HIT:  107683509  MISS:   36456455
L2C RFO       ACCESS:   11011039  HIT:    3122836  MISS:    7888203
L2C PREFETCH  ACCESS:   38002446  HIT:   36828497  MISS:    1173949
L2C WRITEBACK ACCESS:   12452770  HIT:   12452694  MISS:         76
LLC TOTAL     ACCESS:  121716301  HIT:  111312123  MISS:   10404178
LLC LOAD      ACCESS:   36277777  HIT:   30682134  MISS:    5595643
LLC RFO       ACCESS:    6548314  HIT:    6548313  MISS:          1
LLC PREFETCH  ACCESS:   70762849  HIT:   65954944  MISS:    4807905
LLC WRITEBACK ACCESS:    8127361  HIT:    8126732  MISS:        629

Region of Interest Statistics

CPU 0 cumulative IPC: 0.749004 instructions: 1000000000 cycles: 1335105744
L1D TOTAL     ACCESS:  218306295  HIT:  212267315  MISS:    6038980
L1D LOAD      ACCESS:  143681933  HIT:  138545471  MISS:    5136462
L1D RFO       ACCESS:   74624362  HIT:   73721844  MISS:     902518
L1D PREFETCH  ACCESS:          0  HIT:          0  MISS:          0
L1D WRITEBACK ACCESS:          0  HIT:          0  MISS:          0
L1D PREFETCH  REQUESTED:          0  ISSUED:          0  USEFUL:          0  USELESS:          0
L1I TOTAL     ACCESS:  193149472  HIT:  193147287  MISS:       2185
L1I LOAD      ACCESS:  193149472  HIT:  193147287  MISS:       2185
L1I RFO       ACCESS:          0  HIT:          0  MISS:          0
L1I PREFETCH  ACCESS:          0  HIT:          0  MISS:          0
L1I WRITEBACK ACCESS:          0  HIT:          0  MISS:          0
L1I PREFETCH  REQUESTED:          0  ISSUED:          0  USEFUL:          0  USELESS:          0
L2C TOTAL     ACCESS:   11409519  HIT:    8289597  MISS:    3119922
L2C LOAD      ACCESS:    5138458  HIT:    2493570  MISS:    2644888
L2C RFO       ACCESS:     902175  HIT:     521076  MISS:     381099
L2C PREFETCH  ACCESS:    1368250  HIT:    1285322  MISS:      82928
L2C WRITEBACK ACCESS:    4000636  HIT:    3989629  MISS:      11007
L2C PREFETCH  REQUESTED:    5532200  ISSUED:    5532200  USEFUL:      30665  USELESS:      74974
LLC TOTAL     ACCESS:    8305507  HIT:    5745886  MISS:    2559621
LLC LOAD      ACCESS:    2630154  HIT:    1505234  MISS:    1124920
LLC RFO       ACCESS:     381077  HIT:     154076  MISS:     227001
LLC PREFETCH  ACCESS:    3157917  HIT:    1968556  MISS:    1189361
LLC WRITEBACK ACCESS:    2136359  HIT:    2118020  MISS:      18339
LLC PREFETCH  REQUESTED:          0  ISSUED:          0  USEFUL:    5454437  USELESS:    1332893
Major fault: 0 Minor fault: 11203

CPU 1 cumulative IPC: 1.14802 instructions: 1000000001 cycles: 871063388
L1D TOTAL     ACCESS:  258240365  HIT:  258240365  MISS:          0
L1D LOAD      ACCESS:  129371233  HIT:  129371233  MISS:          0
L1D RFO       ACCESS:  128869132  HIT:  128869132  MISS:          0
L1D PREFETCH  ACCESS:          0  HIT:          0  MISS:          0
L1D WRITEBACK ACCESS:          0  HIT:          0  MISS:          0
L1D PREFETCH  REQUESTED:          0  ISSUED:          0  USEFUL:          0  USELESS:          0
L1I TOTAL     ACCESS:  239581424  HIT:  239235501  MISS:     345923
L1I LOAD      ACCESS:  239581424  HIT:  239235501  MISS:     345923
L1I RFO       ACCESS:          0  HIT:          0  MISS:          0
L1I PREFETCH  ACCESS:          0  HIT:          0  MISS:          0
L1I WRITEBACK ACCESS:          0  HIT:          0  MISS:          0
L1I PREFETCH  REQUESTED:          0  ISSUED:          0  USEFUL:          0  USELESS:          0
L2C TOTAL     ACCESS:     715693  HIT:     715562  MISS:        131
L2C LOAD      ACCESS:     345923  HIT:     345854  MISS:         69
L2C RFO       ACCESS:          0  HIT:          0  MISS:          0
L2C PREFETCH  ACCESS:     369770  HIT:     369708  MISS:         62
L2C WRITEBACK ACCESS:          0  HIT:          0  MISS:          0
L2C PREFETCH  REQUESTED:     765243  ISSUED:     765243  USEFUL:        105  USELESS:          0
LLC TOTAL     ACCESS:       6755  HIT:       4571  MISS:       2184
LLC LOAD      ACCESS:         67  HIT:         29  MISS:         38
LLC RFO       ACCESS:          0  HIT:          0  MISS:          0
LLC PREFETCH  ACCESS:       6688  HIT:       4542  MISS:       2146
LLC WRITEBACK ACCESS:          0  HIT:          0  MISS:          0
LLC PREFETCH  REQUESTED:          0  ISSUED:          0  USEFUL:    5454437  USELESS:    1332893
Major fault: 0 Minor fault: 48

CPU 2 cumulative IPC: 1.57061 instructions: 1000000001 cycles: 636695413
L1D TOTAL     ACCESS:  287285051  HIT:  287284936  MISS:        115
L1D LOAD      ACCESS:  126144956  HIT:  126144903  MISS:         53
L1D RFO       ACCESS:  161140095  HIT:  161140033  MISS:         62
L1D PREFETCH  ACCESS:          0  HIT:          0  MISS:          0
L1D WRITEBACK ACCESS:          0  HIT:          0  MISS:          0
L1D PREFETCH  REQUESTED:          0  ISSUED:          0  USEFUL:          0  USELESS:          0
L1I TOTAL     ACCESS:  219586299  HIT:  219547841  MISS:      38458
L1I LOAD      ACCESS:  219586299  HIT:  219547841  MISS:      38458
L1I RFO       ACCESS:          0  HIT:          0  MISS:          0
L1I PREFETCH  ACCESS:          0  HIT:          0  MISS:          0
L1I WRITEBACK ACCESS:          0  HIT:          0  MISS:          0
L1I PREFETCH  REQUESTED:          0  ISSUED:          0  USEFUL:          0  USELESS:          0
L2C TOTAL     ACCESS:      78901  HIT:      77711  MISS:       1190
L2C LOAD      ACCESS:      38511  HIT:      37458  MISS:       1053
L2C RFO       ACCESS:         62  HIT:          0  MISS:         62
L2C PREFETCH  ACCESS:      40328  HIT:      40253  MISS:         75
L2C WRITEBACK ACCESS:          0  HIT:          0  MISS:          0
L2C PREFETCH  REQUESTED:      61979  ISSUED:      61979  USEFUL:         51  USELESS:          0
LLC TOTAL     ACCESS:       3444  HIT:       1138  MISS:       2306
LLC LOAD      ACCESS:       1046  HIT:        373  MISS:        673
LLC RFO       ACCESS:         62  HIT:          3  MISS:         59
LLC PREFETCH  ACCESS:       2336  HIT:        762  MISS:       1574
LLC WRITEBACK ACCESS:          0  HIT:          0  MISS:          0
LLC PREFETCH  REQUESTED:          0  ISSUED:          0  USEFUL:    5454437  USELESS:    1332893
Major fault: 0 Minor fault: 75

CPU 3 cumulative IPC: 1.0109 instructions: 1000000001 cycles: 989220135
L1D TOTAL     ACCESS:  290836572  HIT:  175152267  MISS:  115684305
L1D LOAD      ACCESS:  177778075  HIT:   70273254  MISS:  107504821
L1D RFO       ACCESS:  113058497  HIT:  104879013  MISS:    8179484
L1D PREFETCH  ACCESS:          0  HIT:          0  MISS:          0
L1D WRITEBACK ACCESS:          0  HIT:          0  MISS:          0
L1D PREFETCH  REQUESTED:          0  ISSUED:          0  USEFUL:          0  USELESS:          0
L1I TOTAL     ACCESS:  252836905  HIT:  252836905  MISS:          0
L1I LOAD      ACCESS:  252836905  HIT:  252836905  MISS:          0
L1I RFO       ACCESS:          0  HIT:          0  MISS:          0
L1I PREFETCH  ACCESS:          0  HIT:          0  MISS:          0
L1I WRITEBACK ACCESS:          0  HIT:          0  MISS:          0
L1I PREFETCH  REQUESTED:          0  ISSUED:          0  USEFUL:          0  USELESS:          0
L2C TOTAL     ACCESS:  152502716  HIT:  118785997  MISS:   33716719
L2C LOAD      ACCESS:  106994102  HIT:   80005426  MISS:   26988676
L2C RFO       ACCESS:    8173435  HIT:    2328813  MISS:    5844622
L2C PREFETCH  ACCESS:   28091402  HIT:   27208054  MISS:     883348
L2C WRITEBACK ACCESS:    9243777  HIT:    9243704  MISS:         73
L2C PREFETCH  REQUESTED:  164920941  ISSUED:  164599875  USEFUL:     648537  USELESS:     891441
LLC TOTAL     ACCESS:   90306922  HIT:   82583796  MISS:    7723126
LLC LOAD      ACCESS:   26852527  HIT:   22712743  MISS:    4139784
LLC RFO       ACCESS:    4859060  HIT:    4859059  MISS:          1
LLC PREFETCH  ACCESS:   52571604  HIT:   48988717  MISS:    3582887
LLC WRITEBACK ACCESS:    6023731  HIT:    6023277  MISS:        454
LLC PREFETCH  REQUESTED:          0  ISSUED:          0  USEFUL:    5454437  USELESS:    1332893
Major fault: 0 Minor fault: 56926

DRAM Statistics
 CHANNEL 0
 RQ ROW_BUFFER_HIT:    4209005  ROW_BUFFER_MISS:    2270230
 DBUS_CONGESTED:    7338864
 WQ ROW_BUFFER_HIT:     209379  ROW_BUFFER_MISS:    1026876  FULL:          0

 CHANNEL 1
 RQ ROW_BUFFER_HIT:    4206257  ROW_BUFFER_MISS:    2263795
 DBUS_CONGESTED:    7338864
 WQ ROW_BUFFER_HIT:     207714  ROW_BUFFER_MISS:    1019407  FULL:          0

 AVG_CONGESTED_CYCLE: 13
