Initialize SIGNATURE TABLE
ST_SET: 1
ST_WAY: 256
ST_TAG_BIT: 16
ST_TAG_MASK: ffff

Initialize PATTERN TABLE
PT_SET: 512
PT_WAY: 4
SIG_DELTA_BIT: 7
C_SIG_BIT: 4
C_DELTA_BIT: 4

Initialize PREFETCH FILTER
FILTER_SET: 1024

*** ChampSim Multicore Out-of-Order Simulator ***

Warmup Instructions: 200000000
Simulation Instructions: 1000000000
Number of CPUs: 4
LLC sets: 8192
LLC ways: 16
Off-chip DRAM Size: 8192 MB Channels: 2 Width: 64-bit Data Rate: 1600 MT/s

CPU 0 runs /scratch/user/djimenez/champsim-traces/speccpu2017/xz/644.nab_s/644.nab_s-12521B.champsimtrace.xz
CPU 1 runs /scratch/user/djimenez/champsim-traces/speccpu2017/xz/621.wrf_s/621.wrf_s-6673B.champsimtrace.xz
CPU 2 runs /scratch/user/djimenez/champsim-traces/speccpu2017/xz/657.xz_s/657.xz_s-3167B.champsimtrace.xz
CPU 3 runs /scratch/user/djimenez/champsim-traces/speccpu2017/xz/603.bwaves_s/603.bwaves_s-3699B.champsimtrace.xz
Heartbeat CPU 3 instructions: 10000002 cycles: 3993583 heartbeat IPC: 2.50402 cumulative IPC: 2.50402 (Simulation time: 0 hr 1 min 23 sec) 
Heartbeat CPU 2 instructions: 10000003 cycles: 3993975 heartbeat IPC: 2.50377 cumulative IPC: 2.50377 (Simulation time: 0 hr 1 min 23 sec) 
Heartbeat CPU 0 instructions: 10000000 cycles: 4387440 heartbeat IPC: 2.27923 cumulative IPC: 2.27923 (Simulation time: 0 hr 1 min 31 sec) 
Heartbeat CPU 1 instructions: 10000001 cycles: 5374913 heartbeat IPC: 1.8605 cumulative IPC: 1.8605 (Simulation time: 0 hr 1 min 52 sec) 
Heartbeat CPU 2 instructions: 20000000 cycles: 7999543 heartbeat IPC: 2.49652 cumulative IPC: 2.50014 (Simulation time: 0 hr 2 min 52 sec) 
Heartbeat CPU 3 instructions: 20000000 cycles: 8237749 heartbeat IPC: 2.35617 cumulative IPC: 2.42785 (Simulation time: 0 hr 2 min 58 sec) 
Heartbeat CPU 0 instructions: 20000000 cycles: 8775526 heartbeat IPC: 2.2789 cumulative IPC: 2.27907 (Simulation time: 0 hr 3 min 12 sec) 
Heartbeat CPU 1 instructions: 20000000 cycles: 9442444 heartbeat IPC: 2.45849 cumulative IPC: 2.1181 (Simulation time: 0 hr 3 min 28 sec) 
Heartbeat CPU 2 instructions: 30000000 cycles: 12079743 heartbeat IPC: 2.45086 cumulative IPC: 2.4835 (Simulation time: 0 hr 4 min 21 sec) 
Heartbeat CPU 3 instructions: 30000002 cycles: 12542347 heartbeat IPC: 2.3231 cumulative IPC: 2.3919 (Simulation time: 0 hr 4 min 30 sec) 
Heartbeat CPU 0 instructions: 30000002 cycles: 13164227 heartbeat IPC: 2.27858 cumulative IPC: 2.2789 (Simulation time: 0 hr 4 min 43 sec) 
Heartbeat CPU 1 instructions: 30000000 cycles: 13180834 heartbeat IPC: 2.67495 cumulative IPC: 2.27603 (Simulation time: 0 hr 4 min 43 sec) 
Heartbeat CPU 2 instructions: 40000000 cycles: 16176590 heartbeat IPC: 2.4409 cumulative IPC: 2.47271 (Simulation time: 0 hr 5 min 43 sec) 
Heartbeat CPU 3 instructions: 40000000 cycles: 16534869 heartbeat IPC: 2.50468 cumulative IPC: 2.41913 (Simulation time: 0 hr 5 min 50 sec) 
Heartbeat CPU 1 instructions: 40000000 cycles: 17332300 heartbeat IPC: 2.40879 cumulative IPC: 2.30783 (Simulation time: 0 hr 6 min 7 sec) 
Heartbeat CPU 0 instructions: 40000000 cycles: 17552940 heartbeat IPC: 2.27857 cumulative IPC: 2.27882 (Simulation time: 0 hr 6 min 11 sec) 
Heartbeat CPU 2 instructions: 50000000 cycles: 20261938 heartbeat IPC: 2.44777 cumulative IPC: 2.46768 (Simulation time: 0 hr 7 min 5 sec) 
Heartbeat CPU 3 instructions: 50000002 cycles: 20524764 heartbeat IPC: 2.50633 cumulative IPC: 2.43608 (Simulation time: 0 hr 7 min 11 sec) 
Heartbeat CPU 1 instructions: 50000000 cycles: 21498467 heartbeat IPC: 2.40029 cumulative IPC: 2.32575 (Simulation time: 0 hr 7 min 30 sec) 
Heartbeat CPU 0 instructions: 50000001 cycles: 21940687 heartbeat IPC: 2.27907 cumulative IPC: 2.27887 (Simulation time: 0 hr 7 min 39 sec) 
Heartbeat CPU 2 instructions: 60000000 cycles: 24246443 heartbeat IPC: 2.50972 cumulative IPC: 2.47459 (Simulation time: 0 hr 8 min 25 sec) 
Heartbeat CPU 3 instructions: 60000000 cycles: 24495356 heartbeat IPC: 2.51852 cumulative IPC: 2.44944 (Simulation time: 0 hr 8 min 30 sec) 
Heartbeat CPU 0 instructions: 60000000 cycles: 26329081 heartbeat IPC: 2.27874 cumulative IPC: 2.27885 (Simulation time: 0 hr 9 min 7 sec) 
Heartbeat CPU 1 instructions: 60000000 cycles: 26364803 heartbeat IPC: 2.05493 cumulative IPC: 2.27576 (Simulation time: 0 hr 9 min 8 sec) 
Heartbeat CPU 2 instructions: 70000001 cycles: 28153880 heartbeat IPC: 2.55922 cumulative IPC: 2.48634 (Simulation time: 0 hr 9 min 43 sec) 
Heartbeat CPU 3 instructions: 70000000 cycles: 28465041 heartbeat IPC: 2.51909 cumulative IPC: 2.45916 (Simulation time: 0 hr 9 min 49 sec) 
Heartbeat CPU 0 instructions: 70000001 cycles: 30716764 heartbeat IPC: 2.27911 cumulative IPC: 2.27889 (Simulation time: 0 hr 10 min 35 sec) 
Heartbeat CPU 1 instructions: 70000003 cycles: 31123805 heartbeat IPC: 2.10128 cumulative IPC: 2.24908 (Simulation time: 0 hr 10 min 43 sec) 
Heartbeat CPU 2 instructions: 80000000 cycles: 32108444 heartbeat IPC: 2.52872 cumulative IPC: 2.49156 (Simulation time: 0 hr 11 min 3 sec) 
Heartbeat CPU 3 instructions: 80000000 cycles: 32426088 heartbeat IPC: 2.52459 cumulative IPC: 2.46715 (Simulation time: 0 hr 11 min 10 sec) 
Heartbeat CPU 0 instructions: 80000000 cycles: 35106210 heartbeat IPC: 2.27819 cumulative IPC: 2.2788 (Simulation time: 0 hr 12 min 4 sec) 
Heartbeat CPU 1 instructions: 80000000 cycles: 35558272 heartbeat IPC: 2.25506 cumulative IPC: 2.24983 (Simulation time: 0 hr 12 min 13 sec) 
Heartbeat CPU 2 instructions: 90000000 cycles: 36075170 heartbeat IPC: 2.52097 cumulative IPC: 2.49479 (Simulation time: 0 hr 12 min 24 sec) 
Heartbeat CPU 3 instructions: 90000001 cycles: 36399918 heartbeat IPC: 2.51646 cumulative IPC: 2.47253 (Simulation time: 0 hr 12 min 30 sec) 
Heartbeat CPU 0 instructions: 90000003 cycles: 39493250 heartbeat IPC: 2.27944 cumulative IPC: 2.27887 (Simulation time: 0 hr 13 min 33 sec) 
Heartbeat CPU 2 instructions: 100000000 cycles: 40070827 heartbeat IPC: 2.50272 cumulative IPC: 2.49558 (Simulation time: 0 hr 13 min 45 sec) 
Heartbeat CPU 1 instructions: 90000002 cycles: 40368963 heartbeat IPC: 2.0787 cumulative IPC: 2.22944 (Simulation time: 0 hr 13 min 52 sec) 
Heartbeat CPU 3 instructions: 100000000 cycles: 40372254 heartbeat IPC: 2.51741 cumulative IPC: 2.47695 (Simulation time: 0 hr 13 min 52 sec) 
Heartbeat CPU 0 instructions: 100000000 cycles: 43883288 heartbeat IPC: 2.27788 cumulative IPC: 2.27877 (Simulation time: 0 hr 15 min 10 sec) 
Heartbeat CPU 2 instructions: 110000001 cycles: 43953584 heartbeat IPC: 2.57549 cumulative IPC: 2.50264 (Simulation time: 0 hr 15 min 11 sec) 
Heartbeat CPU 3 instructions: 110000003 cycles: 44359498 heartbeat IPC: 2.508 cumulative IPC: 2.47974 (Simulation time: 0 hr 15 min 20 sec) 
Heartbeat CPU 1 instructions: 100000000 cycles: 45031833 heartbeat IPC: 2.1446 cumulative IPC: 2.22065 (Simulation time: 0 hr 15 min 35 sec) 
Heartbeat CPU 2 instructions: 120000000 cycles: 47786953 heartbeat IPC: 2.60867 cumulative IPC: 2.51115 (Simulation time: 0 hr 16 min 34 sec) 
Heartbeat CPU 0 instructions: 110000001 cycles: 48270392 heartbeat IPC: 2.27941 cumulative IPC: 2.27883 (Simulation time: 0 hr 16 min 44 sec) 
Heartbeat CPU 3 instructions: 120000000 cycles: 48338375 heartbeat IPC: 2.51327 cumulative IPC: 2.4825 (Simulation time: 0 hr 16 min 46 sec) 
Heartbeat CPU 1 instructions: 110000001 cycles: 49623346 heartbeat IPC: 2.17793 cumulative IPC: 2.2167 (Simulation time: 0 hr 17 min 13 sec) 
Heartbeat CPU 2 instructions: 130000002 cycles: 51503835 heartbeat IPC: 2.69043 cumulative IPC: 2.52408 (Simulation time: 0 hr 17 min 54 sec) 
Heartbeat CPU 3 instructions: 130000001 cycles: 52349495 heartbeat IPC: 2.49307 cumulative IPC: 2.48331 (Simulation time: 0 hr 18 min 12 sec) 
Heartbeat CPU 0 instructions: 120000000 cycles: 52659507 heartbeat IPC: 2.27836 cumulative IPC: 2.27879 (Simulation time: 0 hr 18 min 19 sec) 
Heartbeat CPU 1 instructions: 120000000 cycles: 54282065 heartbeat IPC: 2.14651 cumulative IPC: 2.21068 (Simulation time: 0 hr 18 min 54 sec) 
Heartbeat CPU 2 instructions: 140000000 cycles: 55321246 heartbeat IPC: 2.61958 cumulative IPC: 2.53067 (Simulation time: 0 hr 19 min 17 sec) 
Heartbeat CPU 3 instructions: 140000000 cycles: 56362813 heartbeat IPC: 2.4917 cumulative IPC: 2.48391 (Simulation time: 0 hr 19 min 39 sec) 
Heartbeat CPU 0 instructions: 130000000 cycles: 57046846 heartbeat IPC: 2.27929 cumulative IPC: 2.27883 (Simulation time: 0 hr 19 min 54 sec) 
Heartbeat CPU 1 instructions: 130000001 cycles: 58787852 heartbeat IPC: 2.21937 cumulative IPC: 2.21134 (Simulation time: 0 hr 20 min 31 sec) 
Heartbeat CPU 2 instructions: 150000003 cycles: 59084384 heartbeat IPC: 2.65736 cumulative IPC: 2.53874 (Simulation time: 0 hr 20 min 38 sec) 
Heartbeat CPU 3 instructions: 150000000 cycles: 60357907 heartbeat IPC: 2.50307 cumulative IPC: 2.48518 (Simulation time: 0 hr 21 min 5 sec) 
Heartbeat CPU 0 instructions: 140000000 cycles: 61435155 heartbeat IPC: 2.27878 cumulative IPC: 2.27883 (Simulation time: 0 hr 21 min 28 sec) 
Heartbeat CPU 2 instructions: 160000000 cycles: 62818411 heartbeat IPC: 2.67807 cumulative IPC: 2.54702 (Simulation time: 0 hr 21 min 58 sec) 
Heartbeat CPU 1 instructions: 140000000 cycles: 63476443 heartbeat IPC: 2.13284 cumulative IPC: 2.20554 (Simulation time: 0 hr 22 min 12 sec) 
Heartbeat CPU 3 instructions: 160000000 cycles: 64347742 heartbeat IPC: 2.50637 cumulative IPC: 2.48649 (Simulation time: 0 hr 22 min 31 sec) 
Heartbeat CPU 0 instructions: 150000002 cycles: 65821992 heartbeat IPC: 2.27955 cumulative IPC: 2.27887 (Simulation time: 0 hr 23 min 3 sec) 
Heartbeat CPU 2 instructions: 170000000 cycles: 66707704 heartbeat IPC: 2.57116 cumulative IPC: 2.54843 (Simulation time: 0 hr 23 min 21 sec) 
Heartbeat CPU 1 instructions: 150000000 cycles: 67973466 heartbeat IPC: 2.22369 cumulative IPC: 2.20674 (Simulation time: 0 hr 23 min 48 sec) 
Heartbeat CPU 3 instructions: 170000001 cycles: 68335217 heartbeat IPC: 2.50785 cumulative IPC: 2.48774 (Simulation time: 0 hr 23 min 55 sec) 
Heartbeat CPU 0 instructions: 160000000 cycles: 70209023 heartbeat IPC: 2.27945 cumulative IPC: 2.27891 (Simulation time: 0 hr 24 min 35 sec) 
Heartbeat CPU 2 instructions: 180000000 cycles: 70819780 heartbeat IPC: 2.43186 cumulative IPC: 2.54166 (Simulation time: 0 hr 24 min 48 sec) 
Heartbeat CPU 3 instructions: 180000000 cycles: 72332537 heartbeat IPC: 2.50168 cumulative IPC: 2.48851 (Simulation time: 0 hr 25 min 19 sec) 
Heartbeat CPU 1 instructions: 160000000 cycles: 72612086 heartbeat IPC: 2.15581 cumulative IPC: 2.20349 (Simulation time: 0 hr 25 min 25 sec) 
Heartbeat CPU 0 instructions: 170000002 cycles: 74598902 heartbeat IPC: 2.27797 cumulative IPC: 2.27885 (Simulation time: 0 hr 26 min 4 sec) 
Heartbeat CPU 2 instructions: 190000000 cycles: 75155049 heartbeat IPC: 2.30666 cumulative IPC: 2.52811 (Simulation time: 0 hr 26 min 15 sec) 
Heartbeat CPU 3 instructions: 190000000 cycles: 76325965 heartbeat IPC: 2.50411 cumulative IPC: 2.48932 (Simulation time: 0 hr 26 min 38 sec) 
Heartbeat CPU 1 instructions: 170000000 cycles: 77247748 heartbeat IPC: 2.15719 cumulative IPC: 2.20071 (Simulation time: 0 hr 26 min 56 sec) 
Heartbeat CPU 0 instructions: 180000000 cycles: 78986886 heartbeat IPC: 2.27895 cumulative IPC: 2.27886 (Simulation time: 0 hr 27 min 29 sec) 
Heartbeat CPU 2 instructions: 200000000 cycles: 79558993 heartbeat IPC: 2.27069 cumulative IPC: 2.51386 (Simulation time: 0 hr 27 min 41 sec) 
Heartbeat CPU 3 instructions: 200000000 cycles: 80306339 heartbeat IPC: 2.51233 cumulative IPC: 2.49046 (Simulation time: 0 hr 27 min 55 sec) 
Heartbeat CPU 1 instructions: 180000000 cycles: 81761346 heartbeat IPC: 2.21553 cumulative IPC: 2.20153 (Simulation time: 0 hr 28 min 23 sec) 
Heartbeat CPU 0 instructions: 190000000 cycles: 83374639 heartbeat IPC: 2.27907 cumulative IPC: 2.27887 (Simulation time: 0 hr 28 min 55 sec) 
Heartbeat CPU 2 instructions: 210000000 cycles: 83921287 heartbeat IPC: 2.29237 cumulative IPC: 0.119159 (Simulation time: 0 hr 29 min 6 sec) 
Heartbeat CPU 3 instructions: 210000003 cycles: 84307422 heartbeat IPC: 2.49932 cumulative IPC: 0.118614 (Simulation time: 0 hr 29 min 13 sec) 
Heartbeat CPU 1 instructions: 190000002 cycles: 86465919 heartbeat IPC: 2.12559 cumulative IPC: 2.1974 (Simulation time: 0 hr 29 min 54 sec) 
Heartbeat CPU 0 instructions: 200000000 cycles: 87762792 heartbeat IPC: 2.27886 cumulative IPC: 2.27887 (Simulation time: 0 hr 30 min 19 sec) 
Heartbeat CPU 2 instructions: 220000000 cycles: 88102962 heartbeat IPC: 2.39139 cumulative IPC: 0.227007 (Simulation time: 0 hr 30 min 25 sec) 
Heartbeat CPU 3 instructions: 220000000 cycles: 88320657 heartbeat IPC: 2.49175 cumulative IPC: 0.226448 (Simulation time: 0 hr 30 min 30 sec) 
Heartbeat CPU 1 instructions: 200000000 cycles: 91419887 heartbeat IPC: 2.01858 cumulative IPC: 2.18771 (Simulation time: 0 hr 31 min 29 sec) 

Warmup complete CPU 0 instructions: 208334713 cycles: 91419890 (Simulation time: 0 hr 31 min 29 sec) 
Warmup complete CPU 1 instructions: 200000004 cycles: 91419890 (Simulation time: 0 hr 31 min 29 sec) 
Warmup complete CPU 2 instructions: 228716172 cycles: 91419889 (Simulation time: 0 hr 31 min 29 sec) 
Warmup complete CPU 3 instructions: 227784953 cycles: 91419889 (Simulation time: 0 hr 31 min 29 sec) 

Heartbeat CPU 2 instructions: 230000002 cycles: 92524324 heartbeat IPC: 2.26175 cumulative IPC: 1.16243 (Simulation time: 0 hr 31 min 41 sec) 
Heartbeat CPU 0 instructions: 210000001 cycles: 93212433 heartbeat IPC: 1.83498 cumulative IPC: 0.929009 (Simulation time: 0 hr 31 min 48 sec) 
Heartbeat CPU 3 instructions: 230000000 cycles: 93481559 heartbeat IPC: 1.93765 cumulative IPC: 1.07439 (Simulation time: 0 hr 31 min 51 sec) 
Heartbeat CPU 3 instructions: 240000000 cycles: 102582840 heartbeat IPC: 1.09875 cumulative IPC: 1.09425 (Simulation time: 0 hr 33 min 29 sec) 
Heartbeat CPU 2 instructions: 240000000 cycles: 103175624 heartbeat IPC: 0.938852 cumulative IPC: 0.959857 (Simulation time: 0 hr 33 min 36 sec) 
Heartbeat CPU 0 instructions: 220000000 cycles: 103979532 heartbeat IPC: 0.928755 cumulative IPC: 0.928791 (Simulation time: 0 hr 33 min 45 sec) 
Heartbeat CPU 1 instructions: 210000003 cycles: 106309426 heartbeat IPC: 0.671613 cumulative IPC: 0.671613 (Simulation time: 0 hr 34 min 11 sec) 
Heartbeat CPU 3 instructions: 250000003 cycles: 111575967 heartbeat IPC: 1.11196 cumulative IPC: 1.10215 (Simulation time: 0 hr 35 min 9 sec) 
Heartbeat CPU 2 instructions: 250000000 cycles: 113363811 heartbeat IPC: 0.981529 cumulative IPC: 0.969919 (Simulation time: 0 hr 35 min 30 sec) 
Heartbeat CPU 0 instructions: 230000001 cycles: 114762740 heartbeat IPC: 0.927368 cumulative IPC: 0.928134 (Simulation time: 0 hr 35 min 46 sec) 
Heartbeat CPU 3 instructions: 260000000 cycles: 120613483 heartbeat IPC: 1.1065 cumulative IPC: 1.1035 (Simulation time: 0 hr 36 min 52 sec) 
Heartbeat CPU 1 instructions: 220000000 cycles: 121241515 heartbeat IPC: 0.669698 cumulative IPC: 0.670654 (Simulation time: 0 hr 36 min 58 sec) 
Heartbeat CPU 2 instructions: 260000000 cycles: 122322103 heartbeat IPC: 1.11628 cumulative IPC: 1.01235 (Simulation time: 0 hr 37 min 10 sec) 
Heartbeat CPU 0 instructions: 240000000 cycles: 125591953 heartbeat IPC: 0.923428 cumulative IPC: 0.926643 (Simulation time: 0 hr 37 min 50 sec) 
Heartbeat CPU 3 instructions: 270000001 cycles: 129691632 heartbeat IPC: 1.10155 cumulative IPC: 1.10303 (Simulation time: 0 hr 38 min 43 sec) 
Heartbeat CPU 1 instructions: 230000003 cycles: 130428090 heartbeat IPC: 1.08855 cumulative IPC: 0.769069 (Simulation time: 0 hr 38 min 53 sec) 
Heartbeat CPU 2 instructions: 270000001 cycles: 131243260 heartbeat IPC: 1.12093 cumulative IPC: 1.03667 (Simulation time: 0 hr 39 min 3 sec) 
Heartbeat CPU 0 instructions: 250000000 cycles: 136389332 heartbeat IPC: 0.926151 cumulative IPC: 0.926524 (Simulation time: 0 hr 40 min 3 sec) 
Heartbeat CPU 3 instructions: 280000000 cycles: 138627868 heartbeat IPC: 1.11904 cumulative IPC: 1.10606 (Simulation time: 0 hr 40 min 26 sec) 
Heartbeat CPU 1 instructions: 240000000 cycles: 141616679 heartbeat IPC: 0.893767 cumulative IPC: 0.796864 (Simulation time: 0 hr 41 min 2 sec) 
Heartbeat CPU 2 instructions: 280000000 cycles: 144581508 heartbeat IPC: 0.749724 cumulative IPC: 0.964678 (Simulation time: 0 hr 41 min 37 sec) 
Heartbeat CPU 0 instructions: 260000000 cycles: 147130478 heartbeat IPC: 0.930999 cumulative IPC: 0.927387 (Simulation time: 0 hr 42 min 8 sec) 
Heartbeat CPU 3 instructions: 290000001 cycles: 147673366 heartbeat IPC: 1.10552 cumulative IPC: 1.10598 (Simulation time: 0 hr 42 min 15 sec) 
Heartbeat CPU 1 instructions: 250000003 cycles: 149414472 heartbeat IPC: 1.28241 cumulative IPC: 0.862149 (Simulation time: 0 hr 42 min 36 sec) 
Heartbeat CPU 2 instructions: 290000000 cycles: 155144025 heartbeat IPC: 0.946744 cumulative IPC: 0.961705 (Simulation time: 0 hr 43 min 52 sec) 
Heartbeat CPU 3 instructions: 300000000 cycles: 156752342 heartbeat IPC: 1.10145 cumulative IPC: 1.10535 (Simulation time: 0 hr 44 min 17 sec) 
Heartbeat CPU 1 instructions: 260000000 cycles: 157397431 heartbeat IPC: 1.25267 cumulative IPC: 0.9094 (Simulation time: 0 hr 44 min 29 sec) 
Heartbeat CPU 0 instructions: 270000003 cycles: 157905402 heartbeat IPC: 0.928081 cumulative IPC: 0.9275 (Simulation time: 0 hr 44 min 36 sec) 
Heartbeat CPU 2 instructions: 300000000 cycles: 164694335 heartbeat IPC: 1.04709 cumulative IPC: 0.972833 (Simulation time: 0 hr 46 min 5 sec) 
Heartbeat CPU 1 instructions: 270000000 cycles: 165466510 heartbeat IPC: 1.2393 cumulative IPC: 0.94535 (Simulation time: 0 hr 46 min 15 sec) 
Heartbeat CPU 3 instructions: 310000000 cycles: 165695458 heartbeat IPC: 1.11818 cumulative IPC: 1.10689 (Simulation time: 0 hr 46 min 18 sec) 
Heartbeat CPU 0 instructions: 280000000 cycles: 168707687 heartbeat IPC: 0.92573 cumulative IPC: 0.927252 (Simulation time: 0 hr 46 min 58 sec) 
Heartbeat CPU 1 instructions: 280000000 cycles: 172770087 heartbeat IPC: 1.36919 cumulative IPC: 0.983403 (Simulation time: 0 hr 47 min 52 sec) 
Heartbeat CPU 2 instructions: 310000002 cycles: 174644674 heartbeat IPC: 1.00499 cumulative IPC: 0.976678 (Simulation time: 0 hr 48 min 17 sec) 
Heartbeat CPU 3 instructions: 320000000 cycles: 174775615 heartbeat IPC: 1.1013 cumulative IPC: 1.10628 (Simulation time: 0 hr 48 min 18 sec) 
Heartbeat CPU 0 instructions: 290000001 cycles: 179449172 heartbeat IPC: 0.93097 cumulative IPC: 0.927706 (Simulation time: 0 hr 49 min 17 sec) 
Heartbeat CPU 1 instructions: 290000003 cycles: 180912512 heartbeat IPC: 1.22814 cumulative IPC: 1.00567 (Simulation time: 0 hr 49 min 36 sec) 
Heartbeat CPU 3 instructions: 330000003 cycles: 183910059 heartbeat IPC: 1.09476 cumulative IPC: 1.10514 (Simulation time: 0 hr 50 min 16 sec) 
Heartbeat CPU 2 instructions: 320000000 cycles: 186331016 heartbeat IPC: 0.8557 cumulative IPC: 0.961782 (Simulation time: 0 hr 50 min 47 sec) 
Heartbeat CPU 1 instructions: 300000000 cycles: 188578123 heartbeat IPC: 1.30453 cumulative IPC: 1.02925 (Simulation time: 0 hr 51 min 15 sec) 
Heartbeat CPU 0 instructions: 300000000 cycles: 190255191 heartbeat IPC: 0.92541 cumulative IPC: 0.927455 (Simulation time: 0 hr 51 min 38 sec) 
Heartbeat CPU 3 instructions: 340000000 cycles: 193053175 heartbeat IPC: 1.09372 cumulative IPC: 1.10412 (Simulation time: 0 hr 52 min 15 sec) 
Heartbeat CPU 2 instructions: 330000001 cycles: 195765801 heartbeat IPC: 1.05991 cumulative IPC: 0.970654 (Simulation time: 0 hr 52 min 49 sec) 
Heartbeat CPU 1 instructions: 310000000 cycles: 197735321 heartbeat IPC: 1.09204 cumulative IPC: 1.03466 (Simulation time: 0 hr 53 min 14 sec) 
Heartbeat CPU 0 instructions: 310000000 cycles: 201016648 heartbeat IPC: 0.929242 cumulative IPC: 0.92763 (Simulation time: 0 hr 53 min 54 sec) 
Heartbeat CPU 3 instructions: 350000001 cycles: 202134746 heartbeat IPC: 1.10113 cumulative IPC: 1.10387 (Simulation time: 0 hr 54 min 8 sec) 
Heartbeat CPU 2 instructions: 340000000 cycles: 207185936 heartbeat IPC: 0.875646 cumulative IPC: 0.961282 (Simulation time: 0 hr 55 min 5 sec) 
Heartbeat CPU 1 instructions: 320000000 cycles: 210858945 heartbeat IPC: 0.761985 cumulative IPC: 1.0047 (Simulation time: 0 hr 55 min 48 sec) 
Heartbeat CPU 3 instructions: 360000000 cycles: 211328408 heartbeat IPC: 1.08771 cumulative IPC: 1.10263 (Simulation time: 0 hr 55 min 54 sec) 
Heartbeat CPU 0 instructions: 320000000 cycles: 211764053 heartbeat IPC: 0.930457 cumulative IPC: 0.927883 (Simulation time: 0 hr 55 min 59 sec) 
Heartbeat CPU 1 instructions: 330000000 cycles: 218393022 heartbeat IPC: 1.3273 cumulative IPC: 1.02384 (Simulation time: 0 hr 57 min 25 sec) 
Heartbeat CPU 2 instructions: 350000001 cycles: 219254860 heartbeat IPC: 0.828574 cumulative IPC: 0.948753 (Simulation time: 0 hr 57 min 36 sec) 
Heartbeat CPU 3 instructions: 370000002 cycles: 220300817 heartbeat IPC: 1.11453 cumulative IPC: 1.10346 (Simulation time: 0 hr 57 min 49 sec) 
Heartbeat CPU 0 instructions: 330000001 cycles: 222489158 heartbeat IPC: 0.932392 cumulative IPC: 0.928252 (Simulation time: 0 hr 58 min 15 sec) 
Heartbeat CPU 1 instructions: 340000000 cycles: 226413447 heartbeat IPC: 1.24682 cumulative IPC: 1.03709 (Simulation time: 0 hr 59 min 2 sec) 
Heartbeat CPU 3 instructions: 380000000 cycles: 229479965 heartbeat IPC: 1.08943 cumulative IPC: 1.10253 (Simulation time: 0 hr 59 min 40 sec) 
Heartbeat CPU 2 instructions: 360000000 cycles: 231862177 heartbeat IPC: 0.79319 cumulative IPC: 0.934788 (Simulation time: 1 hr 0 min 8 sec) 
Heartbeat CPU 0 instructions: 340000000 cycles: 233310837 heartbeat IPC: 0.924071 cumulative IPC: 0.927933 (Simulation time: 1 hr 0 min 26 sec) 
Heartbeat CPU 1 instructions: 350000000 cycles: 236909790 heartbeat IPC: 0.952713 cumulative IPC: 1.031 (Simulation time: 1 hr 1 min 10 sec) 
Heartbeat CPU 3 instructions: 390000002 cycles: 238532341 heartbeat IPC: 1.10468 cumulative IPC: 1.10266 (Simulation time: 1 hr 1 min 31 sec) 
Heartbeat CPU 2 instructions: 370000000 cycles: 244041556 heartbeat IPC: 0.82106 cumulative IPC: 0.925713 (Simulation time: 1 hr 2 min 39 sec) 
Heartbeat CPU 0 instructions: 350000001 cycles: 244137058 heartbeat IPC: 0.923683 cumulative IPC: 0.927632 (Simulation time: 1 hr 2 min 40 sec) 
Heartbeat CPU 1 instructions: 360000000 cycles: 245783435 heartbeat IPC: 1.12693 cumulative IPC: 1.03651 (Simulation time: 1 hr 3 min 0 sec) 
Heartbeat CPU 3 instructions: 400000000 cycles: 247739226 heartbeat IPC: 1.08614 cumulative IPC: 1.10169 (Simulation time: 1 hr 3 min 25 sec) 
Heartbeat CPU 2 instructions: 380000000 cycles: 254786390 heartbeat IPC: 0.93068 cumulative IPC: 0.926039 (Simulation time: 1 hr 4 min 56 sec) 
Heartbeat CPU 0 instructions: 360000000 cycles: 254911312 heartbeat IPC: 0.928138 cumulative IPC: 0.927665 (Simulation time: 1 hr 4 min 57 sec) 
Heartbeat CPU 1 instructions: 370000001 cycles: 255151390 heartbeat IPC: 1.06747 cumulative IPC: 1.03829 (Simulation time: 1 hr 5 min 1 sec) 
Heartbeat CPU 3 instructions: 410000002 cycles: 256883218 heartbeat IPC: 1.09361 cumulative IPC: 1.10124 (Simulation time: 1 hr 5 min 22 sec) 
Heartbeat CPU 1 instructions: 380000000 cycles: 265529718 heartbeat IPC: 0.963546 cumulative IPC: 1.03383 (Simulation time: 1 hr 7 min 5 sec) 
Heartbeat CPU 0 instructions: 370000000 cycles: 265660407 heartbeat IPC: 0.930311 cumulative IPC: 0.927828 (Simulation time: 1 hr 7 min 7 sec) 
Heartbeat CPU 3 instructions: 420000000 cycles: 265977179 heartbeat IPC: 1.09963 cumulative IPC: 1.10116 (Simulation time: 1 hr 7 min 11 sec) 
Heartbeat CPU 2 instructions: 390000001 cycles: 268120820 heartbeat IPC: 0.749938 cumulative IPC: 0.91275 (Simulation time: 1 hr 7 min 37 sec) 
Heartbeat CPU 1 instructions: 390000000 cycles: 274104515 heartbeat IPC: 1.16621 cumulative IPC: 1.04004 (Simulation time: 1 hr 8 min 51 sec) 
Heartbeat CPU 3 instructions: 430000001 cycles: 275105493 heartbeat IPC: 1.09549 cumulative IPC: 1.10088 (Simulation time: 1 hr 9 min 4 sec) 
Heartbeat CPU 0 instructions: 380000000 cycles: 276484487 heartbeat IPC: 0.923866 cumulative IPC: 0.927597 (Simulation time: 1 hr 9 min 21 sec) 
Heartbeat CPU 2 instructions: 400000000 cycles: 280511017 heartbeat IPC: 0.80709 cumulative IPC: 0.905827 (Simulation time: 1 hr 10 min 11 sec) 
Heartbeat CPU 1 instructions: 400000000 cycles: 283477827 heartbeat IPC: 1.06686 cumulative IPC: 1.04135 (Simulation time: 1 hr 10 min 47 sec) 
Heartbeat CPU 3 instructions: 440000000 cycles: 284337963 heartbeat IPC: 1.08313 cumulative IPC: 1.10003 (Simulation time: 1 hr 10 min 58 sec) 
Heartbeat CPU 0 instructions: 390000002 cycles: 287303875 heartbeat IPC: 0.924267 cumulative IPC: 0.927413 (Simulation time: 1 hr 11 min 43 sec) 
Heartbeat CPU 1 instructions: 410000003 cycles: 293139379 heartbeat IPC: 1.03503 cumulative IPC: 1.04105 (Simulation time: 1 hr 12 min 56 sec) 
Heartbeat CPU 3 instructions: 450000003 cycles: 293321587 heartbeat IPC: 1.11314 cumulative IPC: 1.10061 (Simulation time: 1 hr 12 min 58 sec) 
Heartbeat CPU 2 instructions: 410000000 cycles: 293708502 heartbeat IPC: 0.75772 cumulative IPC: 0.896164 (Simulation time: 1 hr 13 min 3 sec) 
Heartbeat CPU 0 instructions: 400000000 cycles: 298094993 heartbeat IPC: 0.926688 cumulative IPC: 0.927375 (Simulation time: 1 hr 14 min 4 sec) 
Heartbeat CPU 3 instructions: 460000000 cycles: 302314651 heartbeat IPC: 1.11197 cumulative IPC: 1.10109 (Simulation time: 1 hr 15 min 0 sec) 
Heartbeat CPU 1 instructions: 420000000 cycles: 302407166 heartbeat IPC: 1.07901 cumulative IPC: 1.04272 (Simulation time: 1 hr 15 min 1 sec) 
Heartbeat CPU 2 instructions: 420000000 cycles: 306893117 heartbeat IPC: 0.75846 cumulative IPC: 0.887738 (Simulation time: 1 hr 15 min 56 sec) 
Heartbeat CPU 0 instructions: 410000001 cycles: 308881061 heartbeat IPC: 0.927122 cumulative IPC: 0.927362 (Simulation time: 1 hr 16 min 22 sec) 
Heartbeat CPU 3 instructions: 470000001 cycles: 311118413 heartbeat IPC: 1.13588 cumulative IPC: 1.10249 (Simulation time: 1 hr 16 min 51 sec) 
Heartbeat CPU 1 instructions: 430000001 cycles: 312324986 heartbeat IPC: 1.00829 cumulative IPC: 1.04117 (Simulation time: 1 hr 17 min 5 sec) 
Heartbeat CPU 2 instructions: 430000003 cycles: 319218347 heartbeat IPC: 0.811344 cumulative IPC: 0.883605 (Simulation time: 1 hr 18 min 36 sec) 
Heartbeat CPU 0 instructions: 420000000 cycles: 319669988 heartbeat IPC: 0.926876 cumulative IPC: 0.927339 (Simulation time: 1 hr 18 min 42 sec) 
Heartbeat CPU 3 instructions: 480000000 cycles: 320023857 heartbeat IPC: 1.12291 cumulative IPC: 1.10328 (Simulation time: 1 hr 18 min 46 sec) 
Heartbeat CPU 1 instructions: 440000000 cycles: 320973322 heartbeat IPC: 1.15629 cumulative IPC: 1.04551 (Simulation time: 1 hr 18 min 59 sec) 
Heartbeat CPU 3 instructions: 490000001 cycles: 328830670 heartbeat IPC: 1.13548 cumulative IPC: 1.10448 (Simulation time: 1 hr 20 min 36 sec) 
Heartbeat CPU 1 instructions: 450000000 cycles: 330377663 heartbeat IPC: 1.06334 cumulative IPC: 1.04621 (Simulation time: 1 hr 20 min 56 sec) 
Heartbeat CPU 0 instructions: 430000003 cycles: 330453674 heartbeat IPC: 0.927327 cumulative IPC: 0.927339 (Simulation time: 1 hr 20 min 57 sec) 
Heartbeat CPU 2 instructions: 440000000 cycles: 331699990 heartbeat IPC: 0.801176 cumulative IPC: 0.879323 (Simulation time: 1 hr 21 min 12 sec) 
Heartbeat CPU 3 instructions: 500000000 cycles: 337672576 heartbeat IPC: 1.13098 cumulative IPC: 1.10543 (Simulation time: 1 hr 22 min 25 sec) 
Heartbeat CPU 1 instructions: 460000000 cycles: 340823627 heartbeat IPC: 0.957308 cumulative IPC: 1.04249 (Simulation time: 1 hr 23 min 3 sec) 
Heartbeat CPU 0 instructions: 440000000 cycles: 341240849 heartbeat IPC: 0.927027 cumulative IPC: 0.927325 (Simulation time: 1 hr 23 min 8 sec) 
Heartbeat CPU 2 instructions: 450000002 cycles: 344560952 heartbeat IPC: 0.777547 cumulative IPC: 0.874152 (Simulation time: 1 hr 23 min 47 sec) 
Heartbeat CPU 3 instructions: 510000001 cycles: 346498399 heartbeat IPC: 1.13304 cumulative IPC: 1.10638 (Simulation time: 1 hr 24 min 10 sec) 
Heartbeat CPU 0 instructions: 450000001 cycles: 352035599 heartbeat IPC: 0.926376 cumulative IPC: 0.927286 (Simulation time: 1 hr 25 min 30 sec) 
Heartbeat CPU 1 instructions: 470000001 cycles: 352432552 heartbeat IPC: 0.861406 cumulative IPC: 1.03443 (Simulation time: 1 hr 25 min 40 sec) 
Heartbeat CPU 3 instructions: 520000000 cycles: 355384115 heartbeat IPC: 1.1254 cumulative IPC: 1.10703 (Simulation time: 1 hr 26 min 19 sec) 
Heartbeat CPU 2 instructions: 460000000 cycles: 357039436 heartbeat IPC: 0.801379 cumulative IPC: 0.870733 (Simulation time: 1 hr 26 min 40 sec) 
Heartbeat CPU 1 instructions: 480000000 cycles: 360923590 heartbeat IPC: 1.17771 cumulative IPC: 1.03895 (Simulation time: 1 hr 27 min 29 sec) 
Heartbeat CPU 0 instructions: 460000000 cycles: 362919730 heartbeat IPC: 0.918769 cumulative IPC: 0.926944 (Simulation time: 1 hr 27 min 56 sec) 
Heartbeat CPU 3 instructions: 530000003 cycles: 365033303 heartbeat IPC: 1.03636 cumulative IPC: 1.10453 (Simulation time: 1 hr 28 min 24 sec) 
Heartbeat CPU 2 instructions: 470000000 cycles: 368786835 heartbeat IPC: 0.851252 cumulative IPC: 0.869908 (Simulation time: 1 hr 29 min 13 sec) 
Heartbeat CPU 1 instructions: 490000003 cycles: 370072668 heartbeat IPC: 1.09301 cumulative IPC: 1.04072 (Simulation time: 1 hr 29 min 29 sec) 
Heartbeat CPU 0 instructions: 470000001 cycles: 373720846 heartbeat IPC: 0.92583 cumulative IPC: 0.926902 (Simulation time: 1 hr 30 min 15 sec) 
Heartbeat CPU 3 instructions: 540000000 cycles: 374330226 heartbeat IPC: 1.07562 cumulative IPC: 1.10358 (Simulation time: 1 hr 30 min 23 sec) 
Heartbeat CPU 1 instructions: 500000000 cycles: 378768995 heartbeat IPC: 1.14991 cumulative IPC: 1.04403 (Simulation time: 1 hr 31 min 20 sec) 
Heartbeat CPU 2 instructions: 480000000 cycles: 379148110 heartbeat IPC: 0.965132 cumulative IPC: 0.873337 (Simulation time: 1 hr 31 min 25 sec) 
Heartbeat CPU 3 instructions: 550000002 cycles: 383176731 heartbeat IPC: 1.13039 cumulative IPC: 1.1044 (Simulation time: 1 hr 32 min 16 sec) 
Heartbeat CPU 0 instructions: 480000000 cycles: 385678742 heartbeat IPC: 0.836267 cumulative IPC: 0.923219 (Simulation time: 1 hr 32 min 45 sec) 
Heartbeat CPU 1 instructions: 510000001 cycles: 388016191 heartbeat IPC: 1.08141 cumulative IPC: 1.04519 (Simulation time: 1 hr 33 min 14 sec) 
Heartbeat CPU 2 instructions: 490000001 cycles: 390103895 heartbeat IPC: 0.91276 cumulative IPC: 0.874783 (Simulation time: 1 hr 33 min 38 sec) 
Heartbeat CPU 3 instructions: 560000000 cycles: 392050312 heartbeat IPC: 1.12694 cumulative IPC: 1.10506 (Simulation time: 1 hr 34 min 2 sec) 
Heartbeat CPU 1 instructions: 520000000 cycles: 396622127 heartbeat IPC: 1.16199 cumulative IPC: 1.04849 (Simulation time: 1 hr 35 min 1 sec) 
Heartbeat CPU 0 instructions: 490000000 cycles: 398201034 heartbeat IPC: 0.798576 cumulative IPC: 0.918131 (Simulation time: 1 hr 35 min 19 sec) 
Heartbeat CPU 3 instructions: 570000002 cycles: 400902309 heartbeat IPC: 1.12969 cumulative IPC: 1.10577 (Simulation time: 1 hr 35 min 50 sec) 
Heartbeat CPU 2 instructions: 500000000 cycles: 401450583 heartbeat IPC: 0.881314 cumulative IPC: 0.875022 (Simulation time: 1 hr 35 min 57 sec) 
Heartbeat CPU 1 instructions: 530000001 cycles: 405777113 heartbeat IPC: 1.0923 cumulative IPC: 1.04976 (Simulation time: 1 hr 36 min 47 sec) 
Heartbeat CPU 3 instructions: 580000000 cycles: 409720269 heartbeat IPC: 1.13405 cumulative IPC: 1.10655 (Simulation time: 1 hr 37 min 34 sec) 
Heartbeat CPU 0 instructions: 500000000 cycles: 411966820 heartbeat IPC: 0.726439 cumulative IPC: 0.909899 (Simulation time: 1 hr 37 min 59 sec) 
Heartbeat CPU 2 instructions: 510000003 cycles: 414509765 heartbeat IPC: 0.765745 cumulative IPC: 0.870606 (Simulation time: 1 hr 38 min 25 sec) 
Heartbeat CPU 1 instructions: 540000000 cycles: 415666616 heartbeat IPC: 1.01117 cumulative IPC: 1.04858 (Simulation time: 1 hr 38 min 36 sec) 
Heartbeat CPU 3 instructions: 590000000 cycles: 418535807 heartbeat IPC: 1.13436 cumulative IPC: 1.1073 (Simulation time: 1 hr 39 min 7 sec) 
Heartbeat CPU 1 instructions: 550000001 cycles: 425366080 heartbeat IPC: 1.03098 cumulative IPC: 1.04807 (Simulation time: 1 hr 40 min 27 sec) 
Heartbeat CPU 2 instructions: 520000000 cycles: 425632177 heartbeat IPC: 0.899085 cumulative IPC: 0.871553 (Simulation time: 1 hr 40 min 30 sec) 
Heartbeat CPU 0 instructions: 510000001 cycles: 426043513 heartbeat IPC: 0.710394 cumulative IPC: 0.901506 (Simulation time: 1 hr 40 min 35 sec) 
Heartbeat CPU 3 instructions: 600000000 cycles: 427352256 heartbeat IPC: 1.13424 cumulative IPC: 1.10801 (Simulation time: 1 hr 40 min 51 sec) 
Heartbeat CPU 1 instructions: 560000000 cycles: 433946577 heartbeat IPC: 1.16543 cumulative IPC: 1.05101 (Simulation time: 1 hr 42 min 9 sec) 
Heartbeat CPU 3 instructions: 610000000 cycles: 436162067 heartbeat IPC: 1.1351 cumulative IPC: 1.1087 (Simulation time: 1 hr 42 min 35 sec) 
Heartbeat CPU 2 instructions: 530000001 cycles: 436296121 heartbeat IPC: 0.937739 cumulative IPC: 0.8736 (Simulation time: 1 hr 42 min 37 sec) 
Heartbeat CPU 0 instructions: 520000000 cycles: 440141464 heartbeat IPC: 0.709323 cumulative IPC: 0.893737 (Simulation time: 1 hr 43 min 22 sec) 
Heartbeat CPU 1 instructions: 570000001 cycles: 443069938 heartbeat IPC: 1.09609 cumulative IPC: 1.05218 (Simulation time: 1 hr 43 min 56 sec) 
Heartbeat CPU 3 instructions: 620000000 cycles: 445006805 heartbeat IPC: 1.13062 cumulative IPC: 1.10925 (Simulation time: 1 hr 44 min 18 sec) 
Heartbeat CPU 2 instructions: 540000000 cycles: 446664566 heartbeat IPC: 0.964465 cumulative IPC: 0.876252 (Simulation time: 1 hr 44 min 37 sec) 
Heartbeat CPU 1 instructions: 580000000 cycles: 452597726 heartbeat IPC: 1.04956 cumulative IPC: 1.05211 (Simulation time: 1 hr 45 min 39 sec) 
Heartbeat CPU 3 instructions: 630000002 cycles: 453819829 heartbeat IPC: 1.13468 cumulative IPC: 1.10987 (Simulation time: 1 hr 45 min 52 sec) 
Heartbeat CPU 0 instructions: 530000001 cycles: 455291745 heartbeat IPC: 0.660054 cumulative IPC: 0.884007 (Simulation time: 1 hr 46 min 7 sec) 
Heartbeat CPU 2 instructions: 550000000 cycles: 460400108 heartbeat IPC: 0.728038 cumulative IPC: 0.870735 (Simulation time: 1 hr 47 min 3 sec) 
Heartbeat CPU 1 instructions: 590000000 cycles: 462108944 heartbeat IPC: 1.05139 cumulative IPC: 1.05209 (Simulation time: 1 hr 47 min 23 sec) 
Heartbeat CPU 3 instructions: 640000000 cycles: 462618967 heartbeat IPC: 1.13647 cumulative IPC: 1.1105 (Simulation time: 1 hr 47 min 29 sec) 
Heartbeat CPU 0 instructions: 540000000 cycles: 468679106 heartbeat IPC: 0.746973 cumulative IPC: 0.879144 (Simulation time: 1 hr 48 min 44 sec) 
Heartbeat CPU 1 instructions: 600000000 cycles: 470704701 heartbeat IPC: 1.16336 cumulative IPC: 1.05462 (Simulation time: 1 hr 49 min 11 sec) 
Heartbeat CPU 2 instructions: 560000000 cycles: 471212294 heartbeat IPC: 0.924882 cumulative IPC: 0.872276 (Simulation time: 1 hr 49 min 17 sec) 
Heartbeat CPU 3 instructions: 650000002 cycles: 471439377 heartbeat IPC: 1.13373 cumulative IPC: 1.11104 (Simulation time: 1 hr 49 min 21 sec) 
Heartbeat CPU 0 instructions: 550000002 cycles: 475554899 heartbeat IPC: 1.45438 cumulative IPC: 0.889441 (Simulation time: 1 hr 50 min 23 sec) 
Heartbeat CPU 1 instructions: 610000000 cycles: 479813182 heartbeat IPC: 1.09788 cumulative IPC: 1.05563 (Simulation time: 1 hr 51 min 21 sec) 
Heartbeat CPU 3 instructions: 660000000 cycles: 480416776 heartbeat IPC: 1.11391 cumulative IPC: 1.1111 (Simulation time: 1 hr 51 min 29 sec) 
Heartbeat CPU 2 instructions: 570000002 cycles: 481868731 heartbeat IPC: 0.9384 cumulative IPC: 0.874081 (Simulation time: 1 hr 51 min 50 sec) 
Heartbeat CPU 0 instructions: 560000000 cycles: 482434307 heartbeat IPC: 1.45361 cumulative IPC: 0.899367 (Simulation time: 1 hr 51 min 57 sec) 
Heartbeat CPU 0 instructions: 570000003 cycles: 489267496 heartbeat IPC: 1.46345 cumulative IPC: 0.909055 (Simulation time: 1 hr 53 min 24 sec) 
Heartbeat CPU 3 instructions: 670000001 cycles: 489551951 heartbeat IPC: 1.09467 cumulative IPC: 1.11072 (Simulation time: 1 hr 53 min 28 sec) 
Heartbeat CPU 1 instructions: 620000000 cycles: 489740995 heartbeat IPC: 1.00727 cumulative IPC: 1.05443 (Simulation time: 1 hr 53 min 30 sec) 
Heartbeat CPU 2 instructions: 580000000 cycles: 492386738 heartbeat IPC: 0.95075 cumulative IPC: 0.876092 (Simulation time: 1 hr 54 min 1 sec) 
Heartbeat CPU 0 instructions: 580000000 cycles: 496069815 heartbeat IPC: 1.47009 cumulative IPC: 0.918486 (Simulation time: 1 hr 54 min 59 sec) 
Heartbeat CPU 3 instructions: 680000000 cycles: 498768163 heartbeat IPC: 1.08504 cumulative IPC: 1.11014 (Simulation time: 1 hr 55 min 35 sec) 
Heartbeat CPU 1 instructions: 630000000 cycles: 499700385 heartbeat IPC: 1.00408 cumulative IPC: 1.0532 (Simulation time: 1 hr 55 min 47 sec) 
Heartbeat CPU 0 instructions: 590000000 cycles: 502939085 heartbeat IPC: 1.45576 cumulative IPC: 0.927454 (Simulation time: 1 hr 56 min 31 sec) 
Heartbeat CPU 2 instructions: 590000000 cycles: 503605804 heartbeat IPC: 0.89134 cumulative IPC: 0.876507 (Simulation time: 1 hr 56 min 40 sec) 
Heartbeat CPU 3 instructions: 690000001 cycles: 507863393 heartbeat IPC: 1.09948 cumulative IPC: 1.10991 (Simulation time: 1 hr 57 min 38 sec) 
Heartbeat CPU 1 instructions: 640000000 cycles: 508323934 heartbeat IPC: 1.15962 cumulative IPC: 1.0554 (Simulation time: 1 hr 57 min 43 sec) 
Heartbeat CPU 0 instructions: 600000000 cycles: 511559084 heartbeat IPC: 1.16009 cumulative IPC: 0.932227 (Simulation time: 1 hr 58 min 20 sec) 
Heartbeat CPU 2 instructions: 600000000 cycles: 514725085 heartbeat IPC: 0.899339 cumulative IPC: 0.877107 (Simulation time: 1 hr 59 min 3 sec) 
Heartbeat CPU 3 instructions: 700000000 cycles: 516908724 heartbeat IPC: 1.10554 cumulative IPC: 1.10982 (Simulation time: 1 hr 59 min 33 sec) 
Heartbeat CPU 1 instructions: 650000003 cycles: 517463131 heartbeat IPC: 1.09419 cumulative IPC: 1.05623 (Simulation time: 1 hr 59 min 41 sec) 
Heartbeat CPU 0 instructions: 610000002 cycles: 518209639 heartbeat IPC: 1.50363 cumulative IPC: 0.941132 (Simulation time: 1 hr 59 min 51 sec) 
Heartbeat CPU 0 instructions: 620000000 cycles: 525053028 heartbeat IPC: 1.46126 cumulative IPC: 0.94934 (Simulation time: 2 hr 1 min 18 sec) 
Heartbeat CPU 2 instructions: 610000000 cycles: 525774554 heartbeat IPC: 0.905021 cumulative IPC: 0.877817 (Simulation time: 2 hr 1 min 27 sec) 
Heartbeat CPU 3 instructions: 710000002 cycles: 526042229 heartbeat IPC: 1.09487 cumulative IPC: 1.1095 (Simulation time: 2 hr 1 min 31 sec) 
Heartbeat CPU 1 instructions: 660000000 cycles: 527445683 heartbeat IPC: 1.00175 cumulative IPC: 1.05498 (Simulation time: 2 hr 1 min 47 sec) 
Heartbeat CPU 0 instructions: 630000003 cycles: 531898661 heartbeat IPC: 1.46079 cumulative IPC: 0.957289 (Simulation time: 2 hr 2 min 45 sec) 
Heartbeat CPU 3 instructions: 720000000 cycles: 535330632 heartbeat IPC: 1.07661 cumulative IPC: 1.10882 (Simulation time: 2 hr 3 min 29 sec) 
Heartbeat CPU 2 instructions: 620000000 cycles: 536089760 heartbeat IPC: 0.969443 cumulative IPC: 0.879942 (Simulation time: 2 hr 3 min 39 sec) 
Heartbeat CPU 0 instructions: 640000000 cycles: 538965665 heartbeat IPC: 1.41503 cumulative IPC: 0.964517 (Simulation time: 2 hr 4 min 13 sec) 
Heartbeat CPU 1 instructions: 670000000 cycles: 539394692 heartbeat IPC: 0.83689 cumulative IPC: 1.04917 (Simulation time: 2 hr 4 min 18 sec) 
Heartbeat CPU 3 instructions: 730000001 cycles: 544473287 heartbeat IPC: 1.09377 cumulative IPC: 1.10851 (Simulation time: 2 hr 5 min 17 sec) 
Heartbeat CPU 2 instructions: 630000000 cycles: 547067067 heartbeat IPC: 0.91097 cumulative IPC: 0.88069 (Simulation time: 2 hr 5 min 44 sec) 
Heartbeat CPU 0 instructions: 650000001 cycles: 547952736 heartbeat IPC: 1.11271 cumulative IPC: 0.967434 (Simulation time: 2 hr 5 min 54 sec) 
Heartbeat CPU 3 instructions: 740000000 cycles: 553527480 heartbeat IPC: 1.10446 cumulative IPC: 1.10843 (Simulation time: 2 hr 6 min 50 sec) 
Heartbeat CPU 1 instructions: 680000000 cycles: 554303612 heartbeat IPC: 0.670739 cumulative IPC: 1.03698 (Simulation time: 2 hr 6 min 58 sec) 
Heartbeat CPU 2 instructions: 640000000 cycles: 557475047 heartbeat IPC: 0.960801 cumulative IPC: 0.882479 (Simulation time: 2 hr 7 min 32 sec) 
Heartbeat CPU 0 instructions: 660000000 cycles: 560844964 heartbeat IPC: 0.775661 cumulative IPC: 0.962167 (Simulation time: 2 hr 8 min 7 sec) 
Heartbeat CPU 3 instructions: 750000002 cycles: 562720910 heartbeat IPC: 1.08773 cumulative IPC: 1.10803 (Simulation time: 2 hr 8 min 26 sec) 
Heartbeat CPU 2 instructions: 650000000 cycles: 566956318 heartbeat IPC: 1.05471 cumulative IPC: 0.885913 (Simulation time: 2 hr 9 min 10 sec) 
Heartbeat CPU 1 instructions: 690000000 cycles: 569197825 heartbeat IPC: 0.671402 cumulative IPC: 1.02558 (Simulation time: 2 hr 9 min 34 sec) 
Heartbeat CPU 3 instructions: 760000000 cycles: 571822860 heartbeat IPC: 1.09867 cumulative IPC: 1.10785 (Simulation time: 2 hr 10 min 1 sec) 
Heartbeat CPU 0 instructions: 670000002 cycles: 574083076 heartbeat IPC: 0.755395 cumulative IPC: 0.956496 (Simulation time: 2 hr 10 min 23 sec) 
Heartbeat CPU 2 instructions: 660000000 cycles: 577925264 heartbeat IPC: 0.911665 cumulative IPC: 0.886493 (Simulation time: 2 hr 11 min 4 sec) 
Heartbeat CPU 3 instructions: 770000002 cycles: 580785302 heartbeat IPC: 1.11577 cumulative IPC: 1.108 (Simulation time: 2 hr 11 min 35 sec) 
Heartbeat CPU 1 instructions: 700000000 cycles: 584069444 heartbeat IPC: 0.672422 cumulative IPC: 1.01492 (Simulation time: 2 hr 12 min 12 sec) 
Heartbeat CPU 0 instructions: 680000000 cycles: 585124305 heartbeat IPC: 0.905696 cumulative IPC: 0.95536 (Simulation time: 2 hr 12 min 23 sec) 
Heartbeat CPU 2 instructions: 670000003 cycles: 588820279 heartbeat IPC: 0.917851 cumulative IPC: 0.88718 (Simulation time: 2 hr 13 min 5 sec) 
Heartbeat CPU 3 instructions: 780000000 cycles: 589849962 heartbeat IPC: 1.10319 cumulative IPC: 1.10791 (Simulation time: 2 hr 13 min 17 sec) 
Heartbeat CPU 0 instructions: 690000001 cycles: 595925819 heartbeat IPC: 0.925796 cumulative IPC: 0.954727 (Simulation time: 2 hr 14 min 25 sec) 
Heartbeat CPU 3 instructions: 790000002 cycles: 598804715 heartbeat IPC: 1.11673 cumulative IPC: 1.10806 (Simulation time: 2 hr 14 min 58 sec) 
Heartbeat CPU 2 instructions: 680000000 cycles: 598878301 heartbeat IPC: 0.994231 cumulative IPC: 0.889302 (Simulation time: 2 hr 14 min 59 sec) 
Heartbeat CPU 1 instructions: 710000003 cycles: 599114402 heartbeat IPC: 0.664675 cumulative IPC: 1.00454 (Simulation time: 2 hr 15 min 1 sec) 
Heartbeat CPU 0 instructions: 700000000 cycles: 606745309 heartbeat IPC: 0.924258 cumulative IPC: 0.954087 (Simulation time: 2 hr 16 min 40 sec) 
Heartbeat CPU 3 instructions: 800000000 cycles: 607863077 heartbeat IPC: 1.10395 cumulative IPC: 1.10799 (Simulation time: 2 hr 16 min 55 sec) 
Heartbeat CPU 2 instructions: 690000001 cycles: 610560478 heartbeat IPC: 0.856005 cumulative IPC: 0.888553 (Simulation time: 2 hr 17 min 28 sec) 
Heartbeat CPU 1 instructions: 720000000 cycles: 614463928 heartbeat IPC: 0.651486 cumulative IPC: 0.99418 (Simulation time: 2 hr 18 min 23 sec) 
Heartbeat CPU 3 instructions: 810000003 cycles: 616895153 heartbeat IPC: 1.10717 cumulative IPC: 1.10798 (Simulation time: 2 hr 18 min 52 sec) 
Heartbeat CPU 0 instructions: 710000000 cycles: 617619936 heartbeat IPC: 0.919572 cumulative IPC: 0.953374 (Simulation time: 2 hr 19 min 0 sec) 
Heartbeat CPU 2 instructions: 700000000 cycles: 621431221 heartbeat IPC: 0.9199 cumulative IPC: 0.889196 (Simulation time: 2 hr 19 min 50 sec) 
Heartbeat CPU 3 instructions: 820000000 cycles: 625926979 heartbeat IPC: 1.1072 cumulative IPC: 1.10796 (Simulation time: 2 hr 20 min 48 sec) 
Heartbeat CPU 0 instructions: 720000000 cycles: 628487693 heartbeat IPC: 0.920153 cumulative IPC: 0.952701 (Simulation time: 2 hr 21 min 20 sec) 
Heartbeat CPU 1 instructions: 730000000 cycles: 629863843 heartbeat IPC: 0.649354 cumulative IPC: 0.984318 (Simulation time: 2 hr 21 min 36 sec) 
Heartbeat CPU 2 instructions: 710000003 cycles: 632631078 heartbeat IPC: 0.892869 cumulative IPC: 0.889272 (Simulation time: 2 hr 22 min 11 sec) 
Heartbeat CPU 3 instructions: 830000001 cycles: 634865742 heartbeat IPC: 1.11872 cumulative IPC: 1.10814 (Simulation time: 2 hr 22 min 35 sec) 
Heartbeat CPU 0 instructions: 730000003 cycles: 639378641 heartbeat IPC: 0.918194 cumulative IPC: 0.952016 (Simulation time: 2 hr 23 min 26 sec) 
Heartbeat CPU 2 instructions: 720000000 cycles: 643892598 heartbeat IPC: 0.887979 cumulative IPC: 0.889245 (Simulation time: 2 hr 24 min 16 sec) 
Heartbeat CPU 3 instructions: 840000000 cycles: 643927543 heartbeat IPC: 1.10353 cumulative IPC: 1.10807 (Simulation time: 2 hr 24 min 17 sec) 
Heartbeat CPU 1 instructions: 740000000 cycles: 645086176 heartbeat IPC: 0.65693 cumulative IPC: 0.975317 (Simulation time: 2 hr 24 min 30 sec) 
Heartbeat CPU 0 instructions: 740000000 cycles: 650274790 heartbeat IPC: 0.917755 cumulative IPC: 0.951348 (Simulation time: 2 hr 25 min 28 sec) 
Heartbeat CPU 3 instructions: 850000002 cycles: 652853755 heartbeat IPC: 1.1203 cumulative IPC: 1.10826 (Simulation time: 2 hr 25 min 58 sec) 
Heartbeat CPU 2 instructions: 730000002 cycles: 654645062 heartbeat IPC: 0.93002 cumulative IPC: 0.890024 (Simulation time: 2 hr 26 min 18 sec) 
Heartbeat CPU 1 instructions: 750000003 cycles: 658700726 heartbeat IPC: 0.734509 cumulative IPC: 0.969537 (Simulation time: 2 hr 27 min 3 sec) 
Heartbeat CPU 0 instructions: 750000003 cycles: 661163790 heartbeat IPC: 0.918358 cumulative IPC: 0.950717 (Simulation time: 2 hr 27 min 31 sec) 
Heartbeat CPU 3 instructions: 860000000 cycles: 661919006 heartbeat IPC: 1.10311 cumulative IPC: 1.10818 (Simulation time: 2 hr 27 min 40 sec) 
Heartbeat CPU 2 instructions: 740000000 cycles: 665808064 heartbeat IPC: 0.895816 cumulative IPC: 0.890136 (Simulation time: 2 hr 28 min 21 sec) 
Heartbeat CPU 3 instructions: 870000003 cycles: 670859129 heartbeat IPC: 1.11855 cumulative IPC: 1.10834 (Simulation time: 2 hr 29 min 16 sec) 
Heartbeat CPU 0 instructions: 760000000 cycles: 672047491 heartbeat IPC: 0.918805 cumulative IPC: 0.950119 (Simulation time: 2 hr 29 min 29 sec) 
Heartbeat CPU 1 instructions: 760000000 cycles: 672600140 heartbeat IPC: 0.719455 cumulative IPC: 0.963556 (Simulation time: 2 hr 29 min 35 sec) 
Heartbeat CPU 2 instructions: 750000002 cycles: 674711877 heartbeat IPC: 1.12311 cumulative IPC: 0.893693 (Simulation time: 2 hr 30 min 0 sec) 
Heartbeat CPU 3 instructions: 880000000 cycles: 679950528 heartbeat IPC: 1.09994 cumulative IPC: 1.10821 (Simulation time: 2 hr 31 min 2 sec) 
Heartbeat CPU 0 instructions: 770000000 cycles: 682899886 heartbeat IPC: 0.921456 cumulative IPC: 0.949593 (Simulation time: 2 hr 31 min 37 sec) 
Heartbeat CPU 2 instructions: 760000000 cycles: 683178282 heartbeat IPC: 1.18114 cumulative IPC: 0.897805 (Simulation time: 2 hr 31 min 40 sec) 
Heartbeat CPU 1 instructions: 770000001 cycles: 686424176 heartbeat IPC: 0.723378 cumulative IPC: 0.957976 (Simulation time: 2 hr 32 min 18 sec) 
Heartbeat CPU 3 instructions: 890000002 cycles: 688899497 heartbeat IPC: 1.11745 cumulative IPC: 1.10835 (Simulation time: 2 hr 32 min 47 sec) 
Heartbeat CPU 2 instructions: 770000000 cycles: 691633338 heartbeat IPC: 1.18272 cumulative IPC: 0.901819 (Simulation time: 2 hr 33 min 20 sec) 
Heartbeat CPU 0 instructions: 780000000 cycles: 693706371 heartbeat IPC: 0.92537 cumulative IPC: 0.949158 (Simulation time: 2 hr 33 min 44 sec) 
Heartbeat CPU 3 instructions: 900000000 cycles: 697969496 heartbeat IPC: 1.10254 cumulative IPC: 1.10826 (Simulation time: 2 hr 34 min 34 sec) 
Heartbeat CPU 2 instructions: 780000000 cycles: 699948321 heartbeat IPC: 1.20265 cumulative IPC: 0.905929 (Simulation time: 2 hr 34 min 58 sec) 
Heartbeat CPU 1 instructions: 780000000 cycles: 700318543 heartbeat IPC: 0.719716 cumulative IPC: 0.952539 (Simulation time: 2 hr 35 min 3 sec) 
Heartbeat CPU 0 instructions: 790000002 cycles: 704487777 heartbeat IPC: 0.927523 cumulative IPC: 0.948778 (Simulation time: 2 hr 35 min 51 sec) 
Heartbeat CPU 3 instructions: 910000001 cycles: 707094399 heartbeat IPC: 1.0959 cumulative IPC: 1.10808 (Simulation time: 2 hr 36 min 22 sec) 
Heartbeat CPU 2 instructions: 790000003 cycles: 708475333 heartbeat IPC: 1.17274 cumulative IPC: 0.909617 (Simulation time: 2 hr 36 min 39 sec) 
Heartbeat CPU 1 instructions: 790000003 cycles: 714355221 heartbeat IPC: 0.71242 cumulative IPC: 0.947129 (Simulation time: 2 hr 37 min 48 sec) 
Heartbeat CPU 0 instructions: 800000000 cycles: 715248462 heartbeat IPC: 0.929309 cumulative IPC: 0.948442 (Simulation time: 2 hr 37 min 58 sec) 
Heartbeat CPU 3 instructions: 920000000 cycles: 716041371 heartbeat IPC: 1.1177 cumulative IPC: 1.10822 (Simulation time: 2 hr 38 min 8 sec) 
Heartbeat CPU 2 instructions: 800000000 cycles: 716968024 heartbeat IPC: 1.17748 cumulative IPC: 0.913253 (Simulation time: 2 hr 38 min 19 sec) 
Heartbeat CPU 3 instructions: 930000000 cycles: 724997273 heartbeat IPC: 1.11658 cumulative IPC: 1.10833 (Simulation time: 2 hr 39 min 53 sec) 
Heartbeat CPU 2 instructions: 810000000 cycles: 725492357 heartbeat IPC: 1.17311 cumulative IPC: 0.916747 (Simulation time: 2 hr 39 min 59 sec) 
Heartbeat CPU 0 instructions: 810000002 cycles: 726018053 heartbeat IPC: 0.928541 cumulative IPC: 0.948104 (Simulation time: 2 hr 40 min 5 sec) 
Heartbeat CPU 1 instructions: 800000000 cycles: 728191597 heartbeat IPC: 0.722732 cumulative IPC: 0.942253 (Simulation time: 2 hr 40 min 31 sec) 
Heartbeat CPU 2 instructions: 820000000 cycles: 733924743 heartbeat IPC: 1.1859 cumulative IPC: 0.920279 (Simulation time: 2 hr 41 min 38 sec) 
Heartbeat CPU 3 instructions: 940000000 cycles: 734123867 heartbeat IPC: 1.0957 cumulative IPC: 1.10815 (Simulation time: 2 hr 41 min 41 sec) 
Heartbeat CPU 0 instructions: 820000000 cycles: 736791471 heartbeat IPC: 0.92821 cumulative IPC: 0.947772 (Simulation time: 2 hr 42 min 12 sec) 
Heartbeat CPU 1 instructions: 810000003 cycles: 742097282 heartbeat IPC: 0.719131 cumulative IPC: 0.937485 (Simulation time: 2 hr 43 min 14 sec) 
Heartbeat CPU 2 instructions: 830000002 cycles: 742587115 heartbeat IPC: 1.15442 cumulative IPC: 0.923394 (Simulation time: 2 hr 43 min 20 sec) 
Heartbeat CPU 3 instructions: 950000000 cycles: 743341655 heartbeat IPC: 1.08486 cumulative IPC: 1.10782 (Simulation time: 2 hr 43 min 29 sec) 
Heartbeat CPU 0 instructions: 830000002 cycles: 747567774 heartbeat IPC: 0.927962 cumulative IPC: 0.947447 (Simulation time: 2 hr 44 min 20 sec) 
Heartbeat CPU 2 instructions: 840000000 cycles: 750811297 heartbeat IPC: 1.21593 cumulative IPC: 0.927042 (Simulation time: 2 hr 44 min 58 sec) 
Heartbeat CPU 3 instructions: 960000000 cycles: 752418257 heartbeat IPC: 1.10173 cumulative IPC: 1.10774 (Simulation time: 2 hr 45 min 16 sec) 
Heartbeat CPU 1 instructions: 820000000 cycles: 756237373 heartbeat IPC: 0.707209 cumulative IPC: 0.932587 (Simulation time: 2 hr 46 min 2 sec) 
Heartbeat CPU 0 instructions: 840000000 cycles: 758345270 heartbeat IPC: 0.927859 cumulative IPC: 0.94713 (Simulation time: 2 hr 46 min 27 sec) 
Heartbeat CPU 2 instructions: 850000001 cycles: 759441379 heartbeat IPC: 1.15874 cumulative IPC: 0.930036 (Simulation time: 2 hr 46 min 39 sec) 
Heartbeat CPU 3 instructions: 970000001 cycles: 761487089 heartbeat IPC: 1.10268 cumulative IPC: 1.10767 (Simulation time: 2 hr 47 min 3 sec) 
Heartbeat CPU 2 instructions: 860000000 cycles: 767894581 heartbeat IPC: 1.18298 cumulative IPC: 0.933197 (Simulation time: 2 hr 48 min 19 sec) 
Heartbeat CPU 0 instructions: 850000003 cycles: 769120015 heartbeat IPC: 0.928096 cumulative IPC: 0.946828 (Simulation time: 2 hr 48 min 33 sec) 
Heartbeat CPU 1 instructions: 830000000 cycles: 769841266 heartbeat IPC: 0.735084 cumulative IPC: 0.928626 (Simulation time: 2 hr 48 min 42 sec) 
Heartbeat CPU 3 instructions: 980000000 cycles: 770873845 heartbeat IPC: 1.06533 cumulative IPC: 1.10709 (Simulation time: 2 hr 48 min 54 sec) 
Heartbeat CPU 2 instructions: 870000003 cycles: 776442499 heartbeat IPC: 1.16988 cumulative IPC: 0.93615 (Simulation time: 2 hr 49 min 59 sec) 
Heartbeat CPU 0 instructions: 860000000 cycles: 779901060 heartbeat IPC: 0.927554 cumulative IPC: 0.946526 (Simulation time: 2 hr 50 min 40 sec) 
Heartbeat CPU 3 instructions: 990000002 cycles: 779931901 heartbeat IPC: 1.10399 cumulative IPC: 1.10705 (Simulation time: 2 hr 50 min 40 sec) 
Heartbeat CPU 1 instructions: 840000000 cycles: 784206582 heartbeat IPC: 0.696121 cumulative IPC: 0.923805 (Simulation time: 2 hr 51 min 30 sec) 
Heartbeat CPU 2 instructions: 880000000 cycles: 784861826 heartbeat IPC: 1.18774 cumulative IPC: 0.939205 (Simulation time: 2 hr 51 min 39 sec) 
Heartbeat CPU 3 instructions: 1000000000 cycles: 789128930 heartbeat IPC: 1.08731 cumulative IPC: 1.10679 (Simulation time: 2 hr 52 min 32 sec) 
Heartbeat CPU 0 instructions: 870000002 cycles: 790687722 heartbeat IPC: 0.927071 cumulative IPC: 0.946226 (Simulation time: 2 hr 52 min 50 sec) 
Heartbeat CPU 2 instructions: 890000001 cycles: 793228885 heartbeat IPC: 1.19516 cumulative IPC: 0.942256 (Simulation time: 2 hr 53 min 20 sec) 
Heartbeat CPU 1 instructions: 850000000 cycles: 798043481 heartbeat IPC: 0.722705 cumulative IPC: 0.919867 (Simulation time: 2 hr 54 min 16 sec) 
Heartbeat CPU 3 instructions: 1010000002 cycles: 798263877 heartbeat IPC: 1.0947 cumulative IPC: 1.10663 (Simulation time: 2 hr 54 min 19 sec) 
Heartbeat CPU 0 instructions: 880000000 cycles: 801490570 heartbeat IPC: 0.925682 cumulative IPC: 0.945913 (Simulation time: 2 hr 54 min 55 sec) 
Heartbeat CPU 2 instructions: 900000000 cycles: 801749525 heartbeat IPC: 1.17362 cumulative IPC: 0.945031 (Simulation time: 2 hr 54 min 58 sec) 
Heartbeat CPU 3 instructions: 1020000000 cycles: 807209652 heartbeat IPC: 1.11785 cumulative IPC: 1.10677 (Simulation time: 2 hr 56 min 8 sec) 
Heartbeat CPU 2 instructions: 910000001 cycles: 810180846 heartbeat IPC: 1.18605 cumulative IPC: 0.947859 (Simulation time: 2 hr 56 min 45 sec) 
Heartbeat CPU 0 instructions: 890000002 cycles: 812295849 heartbeat IPC: 0.925474 cumulative IPC: 0.945607 (Simulation time: 2 hr 57 min 10 sec) 
Heartbeat CPU 1 instructions: 860000000 cycles: 812528381 heartbeat IPC: 0.690374 cumulative IPC: 0.915258 (Simulation time: 2 hr 57 min 13 sec) 
Heartbeat CPU 3 instructions: 1030000003 cycles: 816216218 heartbeat IPC: 1.1103 cumulative IPC: 1.10681 (Simulation time: 2 hr 57 min 59 sec) 
Heartbeat CPU 2 instructions: 920000000 cycles: 818656679 heartbeat IPC: 1.17982 cumulative IPC: 0.950562 (Simulation time: 2 hr 58 min 30 sec) 
Heartbeat CPU 0 instructions: 900000000 cycles: 823102895 heartbeat IPC: 0.925322 cumulative IPC: 0.945307 (Simulation time: 2 hr 59 min 27 sec) 
Heartbeat CPU 3 instructions: 1040000000 cycles: 825113524 heartbeat IPC: 1.12394 cumulative IPC: 1.10702 (Simulation time: 2 hr 59 min 51 sec) 
Heartbeat CPU 1 instructions: 870000000 cycles: 826421297 heartbeat IPC: 0.719791 cumulative IPC: 0.911563 (Simulation time: 3 hr 0 min 8 sec) 
Heartbeat CPU 2 instructions: 930000001 cycles: 828623487 heartbeat IPC: 1.00333 cumulative IPC: 0.951276 (Simulation time: 3 hr 0 min 31 sec) 
Heartbeat CPU 3 instructions: 1050000000 cycles: 833876105 heartbeat IPC: 1.14122 cumulative IPC: 1.10743 (Simulation time: 3 hr 1 min 32 sec) 
Heartbeat CPU 0 instructions: 910000001 cycles: 833904408 heartbeat IPC: 0.925796 cumulative IPC: 0.945023 (Simulation time: 3 hr 1 min 32 sec) 
Heartbeat CPU 2 instructions: 940000000 cycles: 839097663 heartbeat IPC: 0.954729 cumulative IPC: 0.951324 (Simulation time: 3 hr 2 min 29 sec) 
Heartbeat CPU 1 instructions: 880000000 cycles: 840705493 heartbeat IPC: 0.700074 cumulative IPC: 0.907531 (Simulation time: 3 hr 2 min 46 sec) 
Heartbeat CPU 3 instructions: 1060000000 cycles: 842703207 heartbeat IPC: 1.13287 cumulative IPC: 1.10772 (Simulation time: 3 hr 3 min 6 sec) 
Heartbeat CPU 0 instructions: 920000000 cycles: 844738227 heartbeat IPC: 0.923035 cumulative IPC: 0.944707 (Simulation time: 3 hr 3 min 29 sec) 
Heartbeat CPU 2 instructions: 950000001 cycles: 850816562 heartbeat IPC: 0.853323 cumulative IPC: 0.949812 (Simulation time: 3 hr 4 min 36 sec) 
Heartbeat CPU 3 instructions: 1070000001 cycles: 851542018 heartbeat IPC: 1.13137 cumulative IPC: 1.108 (Simulation time: 3 hr 4 min 44 sec) 
Heartbeat CPU 1 instructions: 890000001 cycles: 855138103 heartbeat IPC: 0.692875 cumulative IPC: 0.903475 (Simulation time: 3 hr 5 min 25 sec) 
Heartbeat CPU 0 instructions: 930000000 cycles: 855554153 heartbeat IPC: 0.924563 cumulative IPC: 0.944422 (Simulation time: 3 hr 5 min 29 sec) 
Heartbeat CPU 2 instructions: 960000000 cycles: 859709738 heartbeat IPC: 1.12446 cumulative IPC: 0.951833 (Simulation time: 3 hr 6 min 16 sec) 
Heartbeat CPU 3 instructions: 1080000000 cycles: 860350146 heartbeat IPC: 1.13531 cumulative IPC: 1.10831 (Simulation time: 3 hr 6 min 23 sec) 
Heartbeat CPU 0 instructions: 940000000 cycles: 866374206 heartbeat IPC: 0.92421 cumulative IPC: 0.94414 (Simulation time: 3 hr 7 min 31 sec) 
Heartbeat CPU 1 instructions: 900000000 cycles: 869074807 heartbeat IPC: 0.71753 cumulative IPC: 0.900142 (Simulation time: 3 hr 8 min 0 sec) 
Heartbeat CPU 3 instructions: 1090000000 cycles: 869165286 heartbeat IPC: 1.13441 cumulative IPC: 1.10861 (Simulation time: 3 hr 8 min 1 sec) 
Heartbeat CPU 2 instructions: 970000000 cycles: 869339217 heartbeat IPC: 1.03848 cumulative IPC: 0.952906 (Simulation time: 3 hr 8 min 3 sec) 
Heartbeat CPU 0 instructions: 950000003 cycles: 877187053 heartbeat IPC: 0.924826 cumulative IPC: 0.943874 (Simulation time: 3 hr 9 min 27 sec) 
Heartbeat CPU 3 instructions: 1100000000 cycles: 878002874 heartbeat IPC: 1.13153 cumulative IPC: 1.10887 (Simulation time: 3 hr 9 min 37 sec) 
Heartbeat CPU 2 instructions: 980000000 cycles: 881743746 heartbeat IPC: 0.806157 cumulative IPC: 0.950602 (Simulation time: 3 hr 10 min 15 sec) 
Heartbeat CPU 1 instructions: 910000002 cycles: 884044306 heartbeat IPC: 0.668025 cumulative IPC: 0.895758 (Simulation time: 3 hr 10 min 39 sec) 
Heartbeat CPU 3 instructions: 1110000000 cycles: 886844886 heartbeat IPC: 1.13096 cumulative IPC: 1.10911 (Simulation time: 3 hr 11 min 9 sec) 
Heartbeat CPU 0 instructions: 960000000 cycles: 887966086 heartbeat IPC: 0.927727 cumulative IPC: 0.943656 (Simulation time: 3 hr 11 min 20 sec) 
Heartbeat CPU 2 instructions: 990000003 cycles: 895161152 heartbeat IPC: 0.745301 cumulative IPC: 0.947175 (Simulation time: 3 hr 12 min 36 sec) 
Heartbeat CPU 3 instructions: 1120000000 cycles: 895694474 heartbeat IPC: 1.13 cumulative IPC: 1.10934 (Simulation time: 3 hr 12 min 41 sec) 
Heartbeat CPU 1 instructions: 920000000 cycles: 898279161 heartbeat IPC: 0.702501 cumulative IPC: 0.892349 (Simulation time: 3 hr 13 min 10 sec) 
Heartbeat CPU 0 instructions: 970000002 cycles: 898739523 heartbeat IPC: 0.928209 cumulative IPC: 0.943449 (Simulation time: 3 hr 13 min 15 sec) 
Heartbeat CPU 3 instructions: 1130000003 cycles: 904568527 heartbeat IPC: 1.12688 cumulative IPC: 1.10953 (Simulation time: 3 hr 14 min 18 sec) 
Heartbeat CPU 2 instructions: 1000000000 cycles: 905556982 heartbeat IPC: 0.961924 cumulative IPC: 0.947364 (Simulation time: 3 hr 14 min 30 sec) 
Heartbeat CPU 0 instructions: 980000000 cycles: 909533556 heartbeat IPC: 0.926438 cumulative IPC: 0.943225 (Simulation time: 3 hr 15 min 15 sec) 
Heartbeat CPU 1 instructions: 930000003 cycles: 912589334 heartbeat IPC: 0.698804 cumulative IPC: 0.888976 (Simulation time: 3 hr 15 min 47 sec) 
Heartbeat CPU 3 instructions: 1140000000 cycles: 913268976 heartbeat IPC: 1.14937 cumulative IPC: 1.10995 (Simulation time: 3 hr 15 min 55 sec) 
Heartbeat CPU 2 instructions: 1010000002 cycles: 915433119 heartbeat IPC: 1.01254 cumulative IPC: 0.948145 (Simulation time: 3 hr 16 min 19 sec) 
Heartbeat CPU 0 instructions: 990000003 cycles: 920321090 heartbeat IPC: 0.926996 cumulative IPC: 0.943014 (Simulation time: 3 hr 17 min 10 sec) 
Heartbeat CPU 3 instructions: 1150000003 cycles: 921862821 heartbeat IPC: 1.16362 cumulative IPC: 1.11051 (Simulation time: 3 hr 17 min 28 sec) 
Heartbeat CPU 1 instructions: 940000000 cycles: 927070337 heartbeat IPC: 0.69056 cumulative IPC: 0.885538 (Simulation time: 3 hr 18 min 26 sec) 
Heartbeat CPU 2 instructions: 1020000000 cycles: 929385372 heartbeat IPC: 0.71673 cumulative IPC: 0.944292 (Simulation time: 3 hr 18 min 51 sec) 
Heartbeat CPU 0 instructions: 1000000000 cycles: 931102051 heartbeat IPC: 0.927561 cumulative IPC: 0.942815 (Simulation time: 3 hr 19 min 9 sec) 
Heartbeat CPU 3 instructions: 1160000000 cycles: 931847168 heartbeat IPC: 1.00157 cumulative IPC: 1.10922 (Simulation time: 3 hr 19 min 16 sec) 
Heartbeat CPU 3 instructions: 1170000003 cycles: 940637765 heartbeat IPC: 1.13758 cumulative IPC: 1.10951 (Simulation time: 3 hr 20 min 46 sec) 
Heartbeat CPU 1 instructions: 950000000 cycles: 941203130 heartbeat IPC: 0.707574 cumulative IPC: 0.882578 (Simulation time: 3 hr 20 min 52 sec) 
Heartbeat CPU 0 instructions: 1010000002 cycles: 941918051 heartbeat IPC: 0.924556 cumulative IPC: 0.942583 (Simulation time: 3 hr 20 min 59 sec) 
Heartbeat CPU 2 instructions: 1030000003 cycles: 945118109 heartbeat IPC: 0.635617 cumulative IPC: 0.938603 (Simulation time: 3 hr 21 min 31 sec) 
Heartbeat CPU 3 instructions: 1180000000 cycles: 949490755 heartbeat IPC: 1.12956 cumulative IPC: 1.10972 (Simulation time: 3 hr 22 min 16 sec) 
Heartbeat CPU 0 instructions: 1020000000 cycles: 952730858 heartbeat IPC: 0.924829 cumulative IPC: 0.94236 (Simulation time: 3 hr 22 min 49 sec) 
Heartbeat CPU 1 instructions: 960000000 cycles: 955885802 heartbeat IPC: 0.681075 cumulative IPC: 0.879156 (Simulation time: 3 hr 23 min 22 sec) 
Heartbeat CPU 3 instructions: 1190000001 cycles: 958320775 heartbeat IPC: 1.1325 cumulative IPC: 1.10995 (Simulation time: 3 hr 23 min 47 sec) 
Heartbeat CPU 2 instructions: 1040000000 cycles: 960503297 heartbeat IPC: 0.649976 cumulative IPC: 0.933494 (Simulation time: 3 hr 24 min 9 sec) 
Heartbeat CPU 0 instructions: 1030000001 cycles: 963549988 heartbeat IPC: 0.924289 cumulative IPC: 0.942136 (Simulation time: 3 hr 24 min 39 sec) 
Heartbeat CPU 3 instructions: 1200000000 cycles: 967145318 heartbeat IPC: 1.1332 cumulative IPC: 1.11018 (Simulation time: 3 hr 25 min 16 sec) 
Heartbeat CPU 1 instructions: 970000000 cycles: 969831356 heartbeat IPC: 0.717074 cumulative IPC: 0.876582 (Simulation time: 3 hr 25 min 44 sec) 
Heartbeat CPU 0 instructions: 1040000000 cycles: 974356024 heartbeat IPC: 0.925409 cumulative IPC: 0.941931 (Simulation time: 3 hr 26 min 31 sec) 
Heartbeat CPU 2 instructions: 1050000002 cycles: 974620400 heartbeat IPC: 0.708361 cumulative IPC: 0.929895 (Simulation time: 3 hr 26 min 34 sec) 
Heartbeat CPU 3 instructions: 1210000000 cycles: 975986125 heartbeat IPC: 1.13112 cumulative IPC: 1.11039 (Simulation time: 3 hr 26 min 48 sec) 
Heartbeat CPU 1 instructions: 980000000 cycles: 984595011 heartbeat IPC: 0.677339 cumulative IPC: 0.873289 (Simulation time: 3 hr 28 min 19 sec) 
Heartbeat CPU 3 instructions: 1220000000 cycles: 984818208 heartbeat IPC: 1.13224 cumulative IPC: 1.11061 (Simulation time: 3 hr 28 min 21 sec) 
Heartbeat CPU 0 instructions: 1050000001 cycles: 985149385 heartbeat IPC: 0.926496 cumulative IPC: 0.941745 (Simulation time: 3 hr 28 min 25 sec) 
Heartbeat CPU 2 instructions: 1060000000 cycles: 986706745 heartbeat IPC: 0.82738 cumulative IPC: 0.928511 (Simulation time: 3 hr 28 min 42 sec) 
Finished CPU 3 instructions: 1000000002 cycles: 900253723 cumulative IPC: 1.1108 (Simulation time: 3 hr 29 min 37 sec) 
Heartbeat CPU 3 instructions: 1230000002 cycles: 993632041 heartbeat IPC: 1.13458 cumulative IPC: 1.11084 (Simulation time: 3 hr 29 min 58 sec) 
Heartbeat CPU 0 instructions: 1060000000 cycles: 995943156 heartbeat IPC: 0.92646 cumulative IPC: 0.941563 (Simulation time: 3 hr 30 min 22 sec) 
Heartbeat CPU 2 instructions: 1070000000 cycles: 996430346 heartbeat IPC: 1.02843 cumulative IPC: 0.929585 (Simulation time: 3 hr 30 min 28 sec) 
Heartbeat CPU 1 instructions: 990000001 cycles: 998401022 heartbeat IPC: 0.724322 cumulative IPC: 0.871021 (Simulation time: 3 hr 30 min 48 sec) 
Heartbeat CPU 3 instructions: 1240000000 cycles: 1002468790 heartbeat IPC: 1.13164 cumulative IPC: 1.11104 (Simulation time: 3 hr 31 min 32 sec) 
Heartbeat CPU 2 instructions: 1080000000 cycles: 1005388223 heartbeat IPC: 1.11634 cumulative IPC: 0.931415 (Simulation time: 3 hr 32 min 3 sec) 
Heartbeat CPU 0 instructions: 1070000000 cycles: 1006728101 heartbeat IPC: 0.927218 cumulative IPC: 0.941394 (Simulation time: 3 hr 32 min 15 sec) 
Heartbeat CPU 3 instructions: 1250000002 cycles: 1011305268 heartbeat IPC: 1.13167 cumulative IPC: 1.11124 (Simulation time: 3 hr 33 min 3 sec) 
Heartbeat CPU 1 instructions: 1000000000 cycles: 1013143425 heartbeat IPC: 0.678315 cumulative IPC: 0.867939 (Simulation time: 3 hr 33 min 23 sec) 
Heartbeat CPU 2 instructions: 1090000000 cycles: 1017482089 heartbeat IPC: 0.826865 cumulative IPC: 0.93005 (Simulation time: 3 hr 34 min 10 sec) 
Heartbeat CPU 0 instructions: 1080000000 cycles: 1017542344 heartbeat IPC: 0.924706 cumulative IPC: 0.941199 (Simulation time: 3 hr 34 min 11 sec) 
Heartbeat CPU 3 instructions: 1260000000 cycles: 1020072224 heartbeat IPC: 1.14065 cumulative IPC: 1.11152 (Simulation time: 3 hr 34 min 37 sec) 
Heartbeat CPU 1 instructions: 1010000002 cycles: 1026840925 heartbeat IPC: 0.73006 cumulative IPC: 0.86592 (Simulation time: 3 hr 35 min 51 sec) 
Heartbeat CPU 0 instructions: 1090000000 cycles: 1028346696 heartbeat IPC: 0.925553 cumulative IPC: 0.941018 (Simulation time: 3 hr 36 min 6 sec) 
Heartbeat CPU 3 instructions: 1270000003 cycles: 1028859192 heartbeat IPC: 1.13805 cumulative IPC: 1.11177 (Simulation time: 3 hr 36 min 12 sec) 
Heartbeat CPU 2 instructions: 1100000000 cycles: 1029267667 heartbeat IPC: 0.848495 cumulative IPC: 0.929025 (Simulation time: 3 hr 36 min 16 sec) 
Heartbeat CPU 3 instructions: 1280000000 cycles: 1037643766 heartbeat IPC: 1.13836 cumulative IPC: 1.11201 (Simulation time: 3 hr 37 min 50 sec) 
Heartbeat CPU 0 instructions: 1100000000 cycles: 1039111745 heartbeat IPC: 0.928932 cumulative IPC: 0.940881 (Simulation time: 3 hr 38 min 7 sec) 
Heartbeat CPU 1 instructions: 1020000000 cycles: 1041371130 heartbeat IPC: 0.688221 cumulative IPC: 0.863202 (Simulation time: 3 hr 38 min 30 sec) 
Heartbeat CPU 2 instructions: 1110000002 cycles: 1043732195 heartbeat IPC: 0.691347 cumulative IPC: 0.925415 (Simulation time: 3 hr 38 min 58 sec) 
Heartbeat CPU 3 instructions: 1290000001 cycles: 1046468318 heartbeat IPC: 1.1332 cumulative IPC: 1.11221 (Simulation time: 3 hr 39 min 32 sec) 
Heartbeat CPU 0 instructions: 1110000003 cycles: 1049906957 heartbeat IPC: 0.926337 cumulative IPC: 0.940717 (Simulation time: 3 hr 40 min 11 sec) 
Heartbeat CPU 1 instructions: 1030000000 cycles: 1055344896 heartbeat IPC: 0.715627 cumulative IPC: 0.861063 (Simulation time: 3 hr 41 min 10 sec) 
Heartbeat CPU 3 instructions: 1300000000 cycles: 1055366845 heartbeat IPC: 1.12378 cumulative IPC: 1.11232 (Simulation time: 3 hr 41 min 11 sec) 
Heartbeat CPU 2 instructions: 1120000000 cycles: 1056881675 heartbeat IPC: 0.760486 cumulative IPC: 0.923168 (Simulation time: 3 hr 41 min 26 sec) 
Heartbeat CPU 0 instructions: 1120000000 cycles: 1060708270 heartbeat IPC: 0.925813 cumulative IPC: 0.940551 (Simulation time: 3 hr 42 min 9 sec) 
Heartbeat CPU 3 instructions: 1310000001 cycles: 1064398029 heartbeat IPC: 1.10727 cumulative IPC: 1.11227 (Simulation time: 3 hr 42 min 51 sec) 
Heartbeat CPU 2 instructions: 1130000000 cycles: 1066460200 heartbeat IPC: 1.044 cumulative IPC: 0.924355 (Simulation time: 3 hr 43 min 13 sec) 
Heartbeat CPU 1 instructions: 1040000000 cycles: 1069987639 heartbeat IPC: 0.682932 cumulative IPC: 0.858397 (Simulation time: 3 hr 43 min 52 sec) 
Heartbeat CPU 0 instructions: 1130000002 cycles: 1071536005 heartbeat IPC: 0.923554 cumulative IPC: 0.940363 (Simulation time: 3 hr 44 min 9 sec) 
Heartbeat CPU 3 instructions: 1320000000 cycles: 1073395520 heartbeat IPC: 1.11142 cumulative IPC: 1.11226 (Simulation time: 3 hr 44 min 29 sec) 
Heartbeat CPU 2 instructions: 1140000000 cycles: 1076887493 heartbeat IPC: 0.959022 cumulative IPC: 0.924722 (Simulation time: 3 hr 45 min 9 sec) 
Heartbeat CPU 0 instructions: 1140000000 cycles: 1082363986 heartbeat IPC: 0.923533 cumulative IPC: 0.940179 (Simulation time: 3 hr 46 min 11 sec) 
Heartbeat CPU 3 instructions: 1330000002 cycles: 1082388609 heartbeat IPC: 1.11197 cumulative IPC: 1.11226 (Simulation time: 3 hr 46 min 11 sec) 
Heartbeat CPU 1 instructions: 1050000002 cycles: 1084215704 heartbeat IPC: 0.702836 cumulative IPC: 0.856168 (Simulation time: 3 hr 46 min 32 sec) 
Heartbeat CPU 2 instructions: 1150000000 cycles: 1086039835 heartbeat IPC: 1.09262 cumulative IPC: 0.926267 (Simulation time: 3 hr 46 min 54 sec) 
Heartbeat CPU 3 instructions: 1340000000 cycles: 1091473453 heartbeat IPC: 1.10073 cumulative IPC: 1.11216 (Simulation time: 3 hr 47 min 56 sec) 
Heartbeat CPU 0 instructions: 1150000003 cycles: 1093164050 heartbeat IPC: 0.925921 cumulative IPC: 0.940026 (Simulation time: 3 hr 48 min 15 sec) 
Heartbeat CPU 2 instructions: 1160000000 cycles: 1095220354 heartbeat IPC: 1.08926 cumulative IPC: 0.927758 (Simulation time: 3 hr 48 min 39 sec) 
Heartbeat CPU 1 instructions: 1060000000 cycles: 1098026162 heartbeat IPC: 0.724089 cumulative IPC: 0.854356 (Simulation time: 3 hr 49 min 12 sec) 
Heartbeat CPU 3 instructions: 1350000003 cycles: 1100567533 heartbeat IPC: 1.09962 cumulative IPC: 1.11204 (Simulation time: 3 hr 49 min 40 sec) 
Heartbeat CPU 0 instructions: 1160000000 cycles: 1103989693 heartbeat IPC: 0.923732 cumulative IPC: 0.939852 (Simulation time: 3 hr 50 min 20 sec) 
Heartbeat CPU 2 instructions: 1170000002 cycles: 1104150837 heartbeat IPC: 1.11976 cumulative IPC: 0.929451 (Simulation time: 3 hr 50 min 22 sec) 
Heartbeat CPU 3 instructions: 1360000000 cycles: 1109607452 heartbeat IPC: 1.1062 cumulative IPC: 1.11199 (Simulation time: 3 hr 51 min 25 sec) 
Heartbeat CPU 1 instructions: 1070000000 cycles: 1112572033 heartbeat IPC: 0.68748 cumulative IPC: 0.851979 (Simulation time: 3 hr 51 min 59 sec) 
Heartbeat CPU 2 instructions: 1180000000 cycles: 1113114111 heartbeat IPC: 1.11566 cumulative IPC: 0.931085 (Simulation time: 3 hr 52 min 6 sec) 
Heartbeat CPU 0 instructions: 1170000000 cycles: 1114776221 heartbeat IPC: 0.927082 cumulative IPC: 0.939717 (Simulation time: 3 hr 52 min 24 sec) 
Heartbeat CPU 3 instructions: 1370000001 cycles: 1118933870 heartbeat IPC: 1.07222 cumulative IPC: 1.11163 (Simulation time: 3 hr 53 min 12 sec) 
Heartbeat CPU 2 instructions: 1190000000 cycles: 1122084258 heartbeat IPC: 1.11481 cumulative IPC: 0.932684 (Simulation time: 3 hr 53 min 49 sec) 
Heartbeat CPU 0 instructions: 1180000000 cycles: 1125572931 heartbeat IPC: 0.926208 cumulative IPC: 0.939576 (Simulation time: 3 hr 54 min 29 sec) 
Heartbeat CPU 1 instructions: 1080000000 cycles: 1126590486 heartbeat IPC: 0.713345 cumulative IPC: 0.850101 (Simulation time: 3 hr 54 min 39 sec) 
Heartbeat CPU 3 instructions: 1380000000 cycles: 1127986728 heartbeat IPC: 1.10462 cumulative IPC: 1.11157 (Simulation time: 3 hr 54 min 54 sec) 
Heartbeat CPU 2 instructions: 1200000000 cycles: 1133025256 heartbeat IPC: 0.913993 cumulative IPC: 0.932487 (Simulation time: 3 hr 55 min 49 sec) 
Heartbeat CPU 0 instructions: 1190000001 cycles: 1136407796 heartbeat IPC: 0.922947 cumulative IPC: 0.939403 (Simulation time: 3 hr 56 min 28 sec) 
Heartbeat CPU 3 instructions: 1390000001 cycles: 1137366144 heartbeat IPC: 1.06616 cumulative IPC: 1.11116 (Simulation time: 3 hr 56 min 38 sec) 
Heartbeat CPU 1 instructions: 1090000001 cycles: 1140684793 heartbeat IPC: 0.709506 cumulative IPC: 0.848213 (Simulation time: 3 hr 57 min 16 sec) 
Heartbeat CPU 2 instructions: 1210000003 cycles: 1142835809 heartbeat IPC: 1.01931 cumulative IPC: 0.933297 (Simulation time: 3 hr 57 min 39 sec) 
Heartbeat CPU 3 instructions: 1400000000 cycles: 1146473930 heartbeat IPC: 1.09796 cumulative IPC: 1.11105 (Simulation time: 3 hr 58 min 20 sec) 
Heartbeat CPU 0 instructions: 1200000000 cycles: 1147198621 heartbeat IPC: 0.926713 cumulative IPC: 0.939274 (Simulation time: 3 hr 58 min 28 sec) 
Heartbeat CPU 2 instructions: 1220000000 cycles: 1153422720 heartbeat IPC: 0.944562 cumulative IPC: 0.93341 (Simulation time: 3 hr 59 min 35 sec) 
Heartbeat CPU 1 instructions: 1100000000 cycles: 1154509628 heartbeat IPC: 0.723336 cumulative IPC: 0.846589 (Simulation time: 3 hr 59 min 47 sec) 
Heartbeat CPU 3 instructions: 1410000002 cycles: 1155491359 heartbeat IPC: 1.10896 cumulative IPC: 1.11103 (Simulation time: 3 hr 59 min 59 sec) 
Finished CPU 0 instructions: 1000000003 cycles: 1064797208 cumulative IPC: 0.939146 (Simulation time: 4 hr 0 min 7 sec) 
Heartbeat CPU 0 instructions: 1210000000 cycles: 1158017470 heartbeat IPC: 0.924313 cumulative IPC: 0.939122 (Simulation time: 4 hr 0 min 27 sec) 
Finished CPU 2 instructions: 1000000000 cycles: 1069862992 cumulative IPC: 0.934699 (Simulation time: 4 hr 1 min 5 sec) 
Heartbeat CPU 2 instructions: 1230000003 cycles: 1162345725 heartbeat IPC: 1.1207 cumulative IPC: 0.93497 (Simulation time: 4 hr 1 min 17 sec) 
Heartbeat CPU 3 instructions: 1420000000 cycles: 1164579480 heartbeat IPC: 1.10034 cumulative IPC: 1.11094 (Simulation time: 4 hr 1 min 41 sec) 
Heartbeat CPU 1 instructions: 1110000001 cycles: 1168582354 heartbeat IPC: 0.710594 cumulative IPC: 0.844812 (Simulation time: 4 hr 2 min 26 sec) 
Heartbeat CPU 0 instructions: 1220000000 cycles: 1168795569 heartbeat IPC: 0.927807 cumulative IPC: 0.939009 (Simulation time: 4 hr 2 min 28 sec) 
Heartbeat CPU 2 instructions: 1240000000 cycles: 1173118908 heartbeat IPC: 0.928231 cumulative IPC: 0.934903 (Simulation time: 4 hr 3 min 16 sec) 
Heartbeat CPU 3 instructions: 1430000001 cycles: 1173622160 heartbeat IPC: 1.10587 cumulative IPC: 1.1109 (Simulation time: 4 hr 3 min 21 sec) 
Heartbeat CPU 0 instructions: 1230000003 cycles: 1179577851 heartbeat IPC: 0.927448 cumulative IPC: 0.938894 (Simulation time: 4 hr 4 min 26 sec) 
Heartbeat CPU 2 instructions: 1250000001 cycles: 1181843852 heartbeat IPC: 1.14614 cumulative IPC: 0.936593 (Simulation time: 4 hr 4 min 52 sec) 
Heartbeat CPU 1 instructions: 1120000000 cycles: 1182049923 heartbeat IPC: 0.742524 cumulative IPC: 0.843549 (Simulation time: 4 hr 4 min 55 sec) 
Heartbeat CPU 3 instructions: 1440000000 cycles: 1182833810 heartbeat IPC: 1.08558 cumulative IPC: 1.11068 (Simulation time: 4 hr 5 min 4 sec) 
Heartbeat CPU 0 instructions: 1240000000 cycles: 1190362165 heartbeat IPC: 0.927272 cumulative IPC: 0.93878 (Simulation time: 4 hr 6 min 25 sec) 
Heartbeat CPU 3 instructions: 1450000001 cycles: 1191885090 heartbeat IPC: 1.10482 cumulative IPC: 1.11063 (Simulation time: 4 hr 6 min 41 sec) 
Heartbeat CPU 2 instructions: 1260000000 cycles: 1193937594 heartbeat IPC: 0.826874 cumulative IPC: 0.93539 (Simulation time: 4 hr 7 min 3 sec) 
Heartbeat CPU 1 instructions: 1130000001 cycles: 1195207666 heartbeat IPC: 0.760009 cumulative IPC: 0.842553 (Simulation time: 4 hr 7 min 19 sec) 
Heartbeat CPU 3 instructions: 1460000000 cycles: 1200933097 heartbeat IPC: 1.10522 cumulative IPC: 1.11059 (Simulation time: 4 hr 8 min 24 sec) 
Heartbeat CPU 0 instructions: 1250000003 cycles: 1201141235 heartbeat IPC: 0.927724 cumulative IPC: 0.938673 (Simulation time: 4 hr 8 min 26 sec) 
Heartbeat CPU 2 instructions: 1270000000 cycles: 1206031409 heartbeat IPC: 0.826869 cumulative IPC: 0.934212 (Simulation time: 4 hr 9 min 18 sec) 
Heartbeat CPU 1 instructions: 1140000000 cycles: 1209050985 heartbeat IPC: 0.72237 cumulative IPC: 0.841065 (Simulation time: 4 hr 9 min 50 sec) 
Heartbeat CPU 3 instructions: 1470000003 cycles: 1209956302 heartbeat IPC: 1.10825 cumulative IPC: 1.11057 (Simulation time: 4 hr 10 min 0 sec) 
Heartbeat CPU 0 instructions: 1260000000 cycles: 1211972385 heartbeat IPC: 0.923263 cumulative IPC: 0.938524 (Simulation time: 4 hr 10 min 21 sec) 
Heartbeat CPU 2 instructions: 1280000000 cycles: 1218093791 heartbeat IPC: 0.829024 cumulative IPC: 0.933086 (Simulation time: 4 hr 11 min 28 sec) 
Heartbeat CPU 3 instructions: 1480000000 cycles: 1219137797 heartbeat IPC: 1.08915 cumulative IPC: 1.1104 (Simulation time: 4 hr 11 min 39 sec) 
Heartbeat CPU 0 instructions: 1270000000 cycles: 1222764757 heartbeat IPC: 0.92658 cumulative IPC: 0.93841 (Simulation time: 4 hr 12 min 20 sec) 
Heartbeat CPU 1 instructions: 1150000003 cycles: 1223894208 heartbeat IPC: 0.673708 cumulative IPC: 0.838871 (Simulation time: 4 hr 12 min 32 sec) 
Heartbeat CPU 3 instructions: 1490000000 cycles: 1228129357 heartbeat IPC: 1.11215 cumulative IPC: 1.11041 (Simulation time: 4 hr 13 min 18 sec) 
Heartbeat CPU 2 instructions: 1290000001 cycles: 1229203700 heartbeat IPC: 0.900097 cumulative IPC: 0.932764 (Simulation time: 4 hr 13 min 29 sec) 
Heartbeat CPU 0 instructions: 1280000000 cycles: 1233561687 heartbeat IPC: 0.926189 cumulative IPC: 0.938294 (Simulation time: 4 hr 14 min 19 sec) 
Heartbeat CPU 3 instructions: 1500000000 cycles: 1237166061 heartbeat IPC: 1.1066 cumulative IPC: 1.11038 (Simulation time: 4 hr 15 min 6 sec) 
Heartbeat CPU 1 instructions: 1160000000 cycles: 1238759119 heartbeat IPC: 0.672725 cumulative IPC: 0.836719 (Simulation time: 4 hr 15 min 28 sec) 
Heartbeat CPU 2 instructions: 1300000000 cycles: 1240032256 heartbeat IPC: 0.923484 cumulative IPC: 0.932677 (Simulation time: 4 hr 15 min 44 sec) 
Heartbeat CPU 0 instructions: 1290000000 cycles: 1244366215 heartbeat IPC: 0.925538 cumulative IPC: 0.938175 (Simulation time: 4 hr 16 min 46 sec) 
Heartbeat CPU 3 instructions: 1510000001 cycles: 1246148275 heartbeat IPC: 1.11331 cumulative IPC: 1.1104 (Simulation time: 4 hr 17 min 8 sec) 
Heartbeat CPU 2 instructions: 1310000003 cycles: 1249792931 heartbeat IPC: 1.02452 cumulative IPC: 0.93345 (Simulation time: 4 hr 17 min 51 sec) 
Heartbeat CPU 1 instructions: 1170000002 cycles: 1253329171 heartbeat IPC: 0.686339 cumulative IPC: 0.834833 (Simulation time: 4 hr 18 min 34 sec) 
Heartbeat CPU 3 instructions: 1520000000 cycles: 1255201134 heartbeat IPC: 1.10462 cumulative IPC: 1.11036 (Simulation time: 4 hr 18 min 57 sec) 
Heartbeat CPU 0 instructions: 1300000000 cycles: 1255225867 heartbeat IPC: 0.92084 cumulative IPC: 0.938013 (Simulation time: 4 hr 18 min 57 sec) 
Heartbeat CPU 1 instructions: 1180000000 cycles: 1262081447 heartbeat IPC: 1.14256 cumulative IPC: 0.837133 (Simulation time: 4 hr 20 min 18 sec) 
Heartbeat CPU 2 instructions: 1320000000 cycles: 1263572840 heartbeat IPC: 0.725694 cumulative IPC: 0.931008 (Simulation time: 4 hr 20 min 34 sec) 
Heartbeat CPU 3 instructions: 1530000003 cycles: 1264201486 heartbeat IPC: 1.11107 cumulative IPC: 1.11036 (Simulation time: 4 hr 20 min 41 sec) 
Heartbeat CPU 0 instructions: 1310000000 cycles: 1266095890 heartbeat IPC: 0.919961 cumulative IPC: 0.937846 (Simulation time: 4 hr 21 min 1 sec) 
Heartbeat CPU 3 instructions: 1540000000 cycles: 1273219277 heartbeat IPC: 1.10892 cumulative IPC: 1.11035 (Simulation time: 4 hr 22 min 30 sec) 
Heartbeat CPU 2 instructions: 1330000001 cycles: 1275542045 heartbeat IPC: 0.835477 cumulative IPC: 0.930042 (Simulation time: 4 hr 22 min 59 sec) 
Heartbeat CPU 0 instructions: 1320000000 cycles: 1276964795 heartbeat IPC: 0.920056 cumulative IPC: 0.937683 (Simulation time: 4 hr 23 min 18 sec) 
Heartbeat CPU 1 instructions: 1190000001 cycles: 1278968580 heartbeat IPC: 0.592167 cumulative IPC: 0.83365 (Simulation time: 4 hr 23 min 41 sec) 
Heartbeat CPU 3 instructions: 1550000002 cycles: 1282346926 heartbeat IPC: 1.09557 cumulative IPC: 1.11024 (Simulation time: 4 hr 24 min 19 sec) 
Heartbeat CPU 2 instructions: 1340000000 cycles: 1285862286 heartbeat IPC: 0.96897 cumulative IPC: 0.930379 (Simulation time: 4 hr 24 min 58 sec) 
Heartbeat CPU 0 instructions: 1330000002 cycles: 1287851019 heartbeat IPC: 0.918592 cumulative IPC: 0.937509 (Simulation time: 4 hr 25 min 21 sec) 
Heartbeat CPU 3 instructions: 1560000000 cycles: 1291432916 heartbeat IPC: 1.1006 cumulative IPC: 1.11017 (Simulation time: 4 hr 26 min 4 sec) 
Heartbeat CPU 1 instructions: 1200000000 cycles: 1294044603 heartbeat IPC: 0.663305 cumulative IPC: 0.831515 (Simulation time: 4 hr 26 min 35 sec) 
Finished CPU 1 instructions: 1000000002 cycles: 1202624723 cumulative IPC: 0.831515 (Simulation time: 4 hr 26 min 35 sec) 

CPU 0 Branch Prediction Accuracy: 99.7967% MPKI: 0.185782

CPU 1 Branch Prediction Accuracy: 98.4152% MPKI: 1.24911

CPU 2 Branch Prediction Accuracy: 93.8019% MPKI: 9.07422

CPU 3 Branch Prediction Accuracy: 91.9639% MPKI: 11.2143

ChampSim completed all CPUs

Total Simulation Statistics (not including warmup)

CPU 0 cumulative IPC: 0.937417 instructions: 1127361101 cycles: 1202624723
L1D TOTAL     ACCESS:  295963015  HIT:  285606424  MISS:   10356591
L1D LOAD      ACCESS:  251734263  HIT:  241493688  MISS:   10240575
L1D RFO       ACCESS:   44228752  HIT:   44112736  MISS:     116016
L1D PREFETCH  ACCESS:          0  HIT:          0  MISS:          0
L1D WRITEBACK ACCESS:          0  HIT:          0  MISS:          0
L1I TOTAL     ACCESS:  365724761  HIT:  365724275  MISS:        486
L1I LOAD      ACCESS:  365724761  HIT:  365724275  MISS:        486
L1I RFO       ACCESS:          0  HIT:          0  MISS:          0
L1I PREFETCH  ACCESS:          0  HIT:          0  MISS:          0
L1I WRITEBACK ACCESS:          0  HIT:          0  MISS:          0
L2C TOTAL     ACCESS:   46834465  HIT:   44770283  MISS:    2064182
L2C LOAD      ACCESS:   10241050  HIT:    8941199  MISS:    1299851
L2C RFO       ACCESS:     116016  HIT:      10741  MISS:     105275
L2C PREFETCH  ACCESS:   32997827  HIT:   32339058  MISS:     658769
L2C WRITEBACK ACCESS:    3479572  HIT:    3479285  MISS:        287
LLC TOTAL     ACCESS:   10610721  HIT:    9190682  MISS:    1420039
LLC LOAD      ACCESS:    1244693  HIT:    1023743  MISS:     220950
LLC RFO       ACCESS:     105275  HIT:       4648  MISS:     100627
LLC PREFETCH  ACCESS:    8736483  HIT:    7647163  MISS:    1089320
LLC WRITEBACK ACCESS:     524270  HIT:     515128  MISS:       9142

CPU 1 cumulative IPC: 0.831515 instructions: 1000000002 cycles: 1202624723
L1D TOTAL     ACCESS:  247146909  HIT:  234867332  MISS:   12279577
L1D LOAD      ACCESS:  194032689  HIT:  184482774  MISS:    9549915
L1D RFO       ACCESS:   53114220  HIT:   50384558  MISS:    2729662
L1D PREFETCH  ACCESS:          0  HIT:          0  MISS:          0
L1D WRITEBACK ACCESS:          0  HIT:          0  MISS:          0
L1I TOTAL     ACCESS:  305893405  HIT:  305833932  MISS:      59473
L1I LOAD      ACCESS:  305893405  HIT:  305833932  MISS:      59473
L1I RFO       ACCESS:          0  HIT:          0  MISS:          0
L1I PREFETCH  ACCESS:          0  HIT:          0  MISS:          0
L1I WRITEBACK ACCESS:          0  HIT:          0  MISS:          0
L2C TOTAL     ACCESS:   31159009  HIT:   22967683  MISS:    8191326
L2C LOAD      ACCESS:    9609148  HIT:    5992115  MISS:    3617033
L2C RFO       ACCESS:    2707308  HIT:     831630  MISS:    1875678
L2C PREFETCH  ACCESS:   14220567  HIT:   11525106  MISS:    2695461
L2C WRITEBACK ACCESS:    4621986  HIT:    4618832  MISS:       3154
LLC TOTAL     ACCESS:   37692655  HIT:   32930246  MISS:    4762409
LLC LOAD      ACCESS:    3264074  HIT:    2966513  MISS:     297561
LLC RFO       ACCESS:    1875656  HIT:     624333  MISS:    1251323
LLC PREFETCH  ACCESS:   29153159  HIT:   25941901  MISS:    3211258
LLC WRITEBACK ACCESS:    3399766  HIT:    3397499  MISS:       2267

CPU 2 cumulative IPC: 0.932115 instructions: 1120984116 cycles: 1202624724
L1D TOTAL     ACCESS:  212022033  HIT:  204824732  MISS:    7197301
L1D LOAD      ACCESS:  141217306  HIT:  135936475  MISS:    5280831
L1D RFO       ACCESS:   70804727  HIT:   68888257  MISS:    1916470
L1D PREFETCH  ACCESS:          0  HIT:          0  MISS:          0
L1D WRITEBACK ACCESS:          0  HIT:          0  MISS:          0
L1I TOTAL     ACCESS:  198930567  HIT:  198926917  MISS:       3650
L1I LOAD      ACCESS:  198930567  HIT:  198926917  MISS:       3650
L1I RFO       ACCESS:          0  HIT:          0  MISS:          0
L1I PREFETCH  ACCESS:          0  HIT:          0  MISS:          0
L1I WRITEBACK ACCESS:          0  HIT:          0  MISS:          0
L2C TOTAL     ACCESS:   14393116  HIT:   11686050  MISS:    2707066
L2C LOAD      ACCESS:    5284219  HIT:    3296719  MISS:    1987500
L2C RFO       ACCESS:    1916079  HIT:    1323727  MISS:     592352
L2C PREFETCH  ACCESS:    1853239  HIT:    1734158  MISS:     119081
L2C WRITEBACK ACCESS:    5339579  HIT:    5331446  MISS:       8133
LLC TOTAL     ACCESS:    8357606  HIT:    6248360  MISS:    2109246
LLC LOAD      ACCESS:    1974436  HIT:    1273113  MISS:     701323
LLC RFO       ACCESS:     592342  HIT:     189711  MISS:     402631
LLC PREFETCH  ACCESS:    3932647  HIT:    2953752  MISS:     978895
LLC WRITEBACK ACCESS:    1858181  HIT:    1831784  MISS:      26397

CPU 3 cumulative IPC: 1.11022 instructions: 1335181649 cycles: 1202624724
L1D TOTAL     ACCESS:  231914095  HIT:  231674230  MISS:     239865
L1D LOAD      ACCESS:  181656287  HIT:  181612267  MISS:      44020
L1D RFO       ACCESS:   50257808  HIT:   50061963  MISS:     195845
L1D PREFETCH  ACCESS:          0  HIT:          0  MISS:          0
L1D WRITEBACK ACCESS:          0  HIT:          0  MISS:          0
L1I TOTAL     ACCESS:  324386875  HIT:  324386875  MISS:          0
L1I LOAD      ACCESS:  324386875  HIT:  324386875  MISS:          0
L1I RFO       ACCESS:          0  HIT:          0  MISS:          0
L1I PREFETCH  ACCESS:          0  HIT:          0  MISS:          0
L1I WRITEBACK ACCESS:          0  HIT:          0  MISS:          0
L2C TOTAL     ACCESS:     458030  HIT:     233374  MISS:     224656
L2C LOAD      ACCESS:      44020  HIT:      23894  MISS:      20126
L2C RFO       ACCESS:     195845  HIT:       9026  MISS:     186819
L2C PREFETCH  ACCESS:      21885  HIT:       4505  MISS:      17380
L2C WRITEBACK ACCESS:     196280  HIT:     195949  MISS:        331
LLC TOTAL     ACCESS:     570449  HIT:     276061  MISS:     294388
LLC LOAD      ACCESS:      20126  HIT:      18822  MISS:       1304
LLC RFO       ACCESS:     186819  HIT:        173  MISS:     186646
LLC PREFETCH  ACCESS:     176352  HIT:     138637  MISS:      37715
LLC WRITEBACK ACCESS:     187152  HIT:     118429  MISS:      68723

Region of Interest Statistics

CPU 0 cumulative IPC: 0.939146 instructions: 1000000003 cycles: 1064797208
L1D TOTAL     ACCESS:  262237766  HIT:  253212042  MISS:    9025724
L1D LOAD      ACCESS:  221529296  HIT:  212617897  MISS:    8911399
L1D RFO       ACCESS:   40708470  HIT:   40594145  MISS:     114325
L1D PREFETCH  ACCESS:          0  HIT:          0  MISS:          0
L1D WRITEBACK ACCESS:          0  HIT:          0  MISS:          0
L1D PREFETCH  REQUESTED:          0  ISSUED:          0  USEFUL:          0  USELESS:          0
L1I TOTAL     ACCESS:  322890718  HIT:  322890232  MISS:        486
L1I LOAD      ACCESS:  322890718  HIT:  322890232  MISS:        486
L1I RFO       ACCESS:          0  HIT:          0  MISS:          0
L1I PREFETCH  ACCESS:          0  HIT:          0  MISS:          0
L1I WRITEBACK ACCESS:          0  HIT:          0  MISS:          0
L1I PREFETCH  REQUESTED:          0  ISSUED:          0  USEFUL:          0  USELESS:          0
L2C TOTAL     ACCESS:   40606806  HIT:   38671606  MISS:    1935200
L2C LOAD      ACCESS:    8911877  HIT:    7684647  MISS:    1227230
L2C RFO       ACCESS:     114325  HIT:       9078  MISS:     105247
L2C PREFETCH  ACCESS:   28547550  HIT:   27945102  MISS:     602448
L2C WRITEBACK ACCESS:    3033054  HIT:    3032779  MISS:        275
L2C PREFETCH  REQUESTED:   51736248  ISSUED:   51672915  USEFUL:     702752  USELESS:      23822
LLC TOTAL     ACCESS:    9740177  HIT:    8415869  MISS:    1324308
LLC LOAD      ACCESS:    1172083  HIT:     958977  MISS:     213106
LLC RFO       ACCESS:     105247  HIT:       4620  MISS:     100627
LLC PREFETCH  ACCESS:    7955042  HIT:    6952096  MISS:    1002946
LLC WRITEBACK ACCESS:     507805  HIT:     500176  MISS:       7629
LLC PREFETCH  REQUESTED:          0  ISSUED:          0  USEFUL:    3443137  USELESS:    3775738
Major fault: 0 Minor fault: 28319

CPU 1 cumulative IPC: 0.831515 instructions: 1000000002 cycles: 1202624723
L1D TOTAL     ACCESS:  247146909  HIT:  234867332  MISS:   12279577
L1D LOAD      ACCESS:  194032689  HIT:  184482774  MISS:    9549915
L1D RFO       ACCESS:   53114220  HIT:   50384558  MISS:    2729662
L1D PREFETCH  ACCESS:          0  HIT:          0  MISS:          0
L1D WRITEBACK ACCESS:          0  HIT:          0  MISS:          0
L1D PREFETCH  REQUESTED:          0  ISSUED:          0  USEFUL:          0  USELESS:          0
L1I TOTAL     ACCESS:  305893405  HIT:  305833932  MISS:      59473
L1I LOAD      ACCESS:  305893405  HIT:  305833932  MISS:      59473
L1I RFO       ACCESS:          0  HIT:          0  MISS:          0
L1I PREFETCH  ACCESS:          0  HIT:          0  MISS:          0
L1I WRITEBACK ACCESS:          0  HIT:          0  MISS:          0
L1I PREFETCH  REQUESTED:          0  ISSUED:          0  USEFUL:          0  USELESS:          0
L2C TOTAL     ACCESS:   31159009  HIT:   22967683  MISS:    8191326
L2C LOAD      ACCESS:    9609148  HIT:    5992115  MISS:    3617033
L2C RFO       ACCESS:    2707308  HIT:     831630  MISS:    1875678
L2C PREFETCH  ACCESS:   14220567  HIT:   11525106  MISS:    2695461
L2C WRITEBACK ACCESS:    4621986  HIT:    4618832  MISS:       3154
L2C PREFETCH  REQUESTED:   77952611  ISSUED:   70587050  USEFUL:    4096820  USELESS:      45110
LLC TOTAL     ACCESS:   37692655  HIT:   32930246  MISS:    4762409
LLC LOAD      ACCESS:    3264074  HIT:    2966513  MISS:     297561
LLC RFO       ACCESS:    1875656  HIT:     624333  MISS:    1251323
LLC PREFETCH  ACCESS:   29153159  HIT:   25941901  MISS:    3211258
LLC WRITEBACK ACCESS:    3399766  HIT:    3397499  MISS:       2267
LLC PREFETCH  REQUESTED:          0  ISSUED:          0  USEFUL:    3443137  USELESS:    3775738
Major fault: 0 Minor fault: 14401

CPU 2 cumulative IPC: 0.934699 instructions: 1000000000 cycles: 1069862992
L1D TOTAL     ACCESS:  190126378  HIT:  183822543  MISS:    6303835
L1D LOAD      ACCESS:  126574082  HIT:  121960958  MISS:    4613124
L1D RFO       ACCESS:   63552296  HIT:   61861585  MISS:    1690711
L1D PREFETCH  ACCESS:          0  HIT:          0  MISS:          0
L1D WRITEBACK ACCESS:          0  HIT:          0  MISS:          0
L1D PREFETCH  REQUESTED:          0  ISSUED:          0  USEFUL:          0  USELESS:          0
L1I TOTAL     ACCESS:  177873610  HIT:  177870339  MISS:       3271
L1I LOAD      ACCESS:  177873610  HIT:  177870339  MISS:       3271
L1I RFO       ACCESS:          0  HIT:          0  MISS:          0
L1I PREFETCH  ACCESS:          0  HIT:          0  MISS:          0
L1I WRITEBACK ACCESS:          0  HIT:          0  MISS:          0
L1I PREFETCH  REQUESTED:          0  ISSUED:          0  USEFUL:          0  USELESS:          0
L2C TOTAL     ACCESS:   12643856  HIT:   10288195  MISS:    2355661
L2C LOAD      ACCESS:    4616176  HIT:    2897555  MISS:    1718621
L2C RFO       ACCESS:    1690373  HIT:    1165239  MISS:     525134
L2C PREFETCH  ACCESS:    1655509  HIT:    1550754  MISS:     104755
L2C WRITEBACK ACCESS:    4681798  HIT:    4674647  MISS:       7151
L2C PREFETCH  REQUESTED:    7431629  ISSUED:    7431629  USEFUL:      76685  USELESS:      69390
LLC TOTAL     ACCESS:    7381114  HIT:    5494849  MISS:    1886265
LLC LOAD      ACCESS:    1705579  HIT:    1087081  MISS:     618498
LLC RFO       ACCESS:     525127  HIT:     163481  MISS:     361646
LLC PREFETCH  ACCESS:    3534061  HIT:    2652858  MISS:     881203
LLC WRITEBACK ACCESS:    1616347  HIT:    1591429  MISS:      24918
LLC PREFETCH  REQUESTED:          0  ISSUED:          0  USEFUL:    3443137  USELESS:    3775738
Major fault: 0 Minor fault: 11995

CPU 3 cumulative IPC: 1.1108 instructions: 1000000002 cycles: 900253723
L1D TOTAL     ACCESS:  173755588  HIT:  173546243  MISS:     209345
L1D LOAD      ACCESS:  136185359  HIT:  136147131  MISS:      38228
L1D RFO       ACCESS:   37570229  HIT:   37399112  MISS:     171117
L1D PREFETCH  ACCESS:          0  HIT:          0  MISS:          0
L1D WRITEBACK ACCESS:          0  HIT:          0  MISS:          0
L1D PREFETCH  REQUESTED:          0  ISSUED:          0  USEFUL:          0  USELESS:          0
L1I TOTAL     ACCESS:  243270521  HIT:  243270521  MISS:          0
L1I LOAD      ACCESS:  243270521  HIT:  243270521  MISS:          0
L1I RFO       ACCESS:          0  HIT:          0  MISS:          0
L1I PREFETCH  ACCESS:          0  HIT:          0  MISS:          0
L1I WRITEBACK ACCESS:          0  HIT:          0  MISS:          0
L1I PREFETCH  REQUESTED:          0  ISSUED:          0  USEFUL:          0  USELESS:          0
L2C TOTAL     ACCESS:     400317  HIT:     203140  MISS:     197177
L2C LOAD      ACCESS:      38228  HIT:      21132  MISS:      17096
L2C RFO       ACCESS:     171117  HIT:       7112  MISS:     164005
L2C PREFETCH  ACCESS:      19501  HIT:       3679  MISS:      15822
L2C WRITEBACK ACCESS:     171471  HIT:     171217  MISS:        254
L2C PREFETCH  REQUESTED:     257990  ISSUED:     257990  USEFUL:      24127  USELESS:         47
LLC TOTAL     ACCESS:     503056  HIT:     251217  MISS:     251839
LLC LOAD      ACCESS:      17096  HIT:      15974  MISS:       1122
LLC RFO       ACCESS:     164005  HIT:        173  MISS:     163832
LLC PREFETCH  ACCESS:     157809  HIT:     124742  MISS:      33067
LLC WRITEBACK ACCESS:     164146  HIT:     110328  MISS:      53818
LLC PREFETCH  REQUESTED:          0  ISSUED:          0  USEFUL:    3443137  USELESS:    3775738
Major fault: 0 Minor fault: 4402

DRAM Statistics
 CHANNEL 0
 RQ ROW_BUFFER_HIT:    1691711  ROW_BUFFER_MISS:    2546460
 DBUS_CONGESTED:    6279742
 WQ ROW_BUFFER_HIT:     215027  ROW_BUFFER_MISS:    1638833  FULL:          0

 CHANNEL 1
 RQ ROW_BUFFER_HIT:    1690207  ROW_BUFFER_MISS:    2549842
 DBUS_CONGESTED:    6279742
 WQ ROW_BUFFER_HIT:     213873  ROW_BUFFER_MISS:    1633564  FULL:          0

 AVG_CONGESTED_CYCLE: 13
