Initialize SIGNATURE TABLE
ST_SET: 1
ST_WAY: 256
ST_TAG_BIT: 16
ST_TAG_MASK: ffff

Initialize PATTERN TABLE
PT_SET: 512
PT_WAY: 4
SIG_DELTA_BIT: 7
C_SIG_BIT: 4
C_DELTA_BIT: 4

Initialize PREFETCH FILTER
FILTER_SET: 1024

Initialize PERCEPTRON
PERC_ENTRIES: 4096
PERC_FEATURES: 9

*** ChampSim Multicore Out-of-Order Simulator ***

Warmup Instructions: 200000000
Simulation Instructions: 1000000000
Number of CPUs: 4
LLC sets: 8192
LLC ways: 16
Off-chip DRAM Size: 8192 MB Channels: 2 Width: 64-bit Data Rate: 1600 MT/s

CPU 0 runs /scratch/user/djimenez/champsim-traces/speccpu2017/xz/603.bwaves_s/603.bwaves_s-1740B.champsimtrace.xz
CPU 1 runs /scratch/user/djimenez/champsim-traces/speccpu2017/xz/654.roms_s/654.roms_s-1007B.champsimtrace.xz
CPU 2 runs /scratch/user/djimenez/champsim-traces/speccpu2017/xz/644.nab_s/644.nab_s-7928B.champsimtrace.xz
CPU 3 runs /scratch/user/djimenez/champsim-traces/speccpu2017/xz/625.x264_s/625.x264_s-20B.champsimtrace.xz
Heartbeat CPU 3 instructions: 10000001 cycles: 4074157 heartbeat IPC: 2.4545 cumulative IPC: 2.4545 (Simulation time: 0 hr 1 min 32 sec) 
Heartbeat CPU 2 instructions: 10000003 cycles: 4845044 heartbeat IPC: 2.06397 cumulative IPC: 2.06397 (Simulation time: 0 hr 1 min 50 sec) 
Heartbeat CPU 1 instructions: 10000002 cycles: 5109184 heartbeat IPC: 1.95726 cumulative IPC: 1.95726 (Simulation time: 0 hr 1 min 56 sec) 
Heartbeat CPU 0 instructions: 10000001 cycles: 5273608 heartbeat IPC: 1.89624 cumulative IPC: 1.89624 (Simulation time: 0 hr 2 min 0 sec) 
Heartbeat CPU 3 instructions: 20000000 cycles: 8046774 heartbeat IPC: 2.51723 cumulative IPC: 2.48547 (Simulation time: 0 hr 3 min 4 sec) 
Heartbeat CPU 2 instructions: 20000000 cycles: 9700928 heartbeat IPC: 2.05936 cumulative IPC: 2.06166 (Simulation time: 0 hr 3 min 42 sec) 
Heartbeat CPU 1 instructions: 20000000 cycles: 10218027 heartbeat IPC: 1.95739 cumulative IPC: 1.95732 (Simulation time: 0 hr 3 min 54 sec) 
Heartbeat CPU 0 instructions: 20000000 cycles: 10549618 heartbeat IPC: 1.89537 cumulative IPC: 1.8958 (Simulation time: 0 hr 4 min 2 sec) 
Heartbeat CPU 3 instructions: 30000002 cycles: 12018520 heartbeat IPC: 2.51778 cumulative IPC: 2.49615 (Simulation time: 0 hr 4 min 36 sec) 
Heartbeat CPU 2 instructions: 30000002 cycles: 14558455 heartbeat IPC: 2.05866 cumulative IPC: 2.06066 (Simulation time: 0 hr 5 min 34 sec) 
Heartbeat CPU 1 instructions: 30000000 cycles: 15327003 heartbeat IPC: 1.95734 cumulative IPC: 1.95733 (Simulation time: 0 hr 5 min 52 sec) 
Heartbeat CPU 0 instructions: 30000002 cycles: 15824141 heartbeat IPC: 1.89591 cumulative IPC: 1.89584 (Simulation time: 0 hr 6 min 3 sec) 
Heartbeat CPU 3 instructions: 40000000 cycles: 15992041 heartbeat IPC: 2.51666 cumulative IPC: 2.50124 (Simulation time: 0 hr 6 min 7 sec) 
Heartbeat CPU 2 instructions: 40000000 cycles: 19411022 heartbeat IPC: 2.06076 cumulative IPC: 2.06068 (Simulation time: 0 hr 7 min 26 sec) 
Heartbeat CPU 3 instructions: 50000000 cycles: 19958980 heartbeat IPC: 2.52084 cumulative IPC: 2.50514 (Simulation time: 0 hr 7 min 39 sec) 
Heartbeat CPU 1 instructions: 40000000 cycles: 20436015 heartbeat IPC: 1.95733 cumulative IPC: 1.95733 (Simulation time: 0 hr 7 min 50 sec) 
Heartbeat CPU 0 instructions: 40000000 cycles: 21097369 heartbeat IPC: 1.89637 cumulative IPC: 1.89597 (Simulation time: 0 hr 8 min 5 sec) 
Heartbeat CPU 3 instructions: 60000000 cycles: 23934229 heartbeat IPC: 2.51557 cumulative IPC: 2.50687 (Simulation time: 0 hr 9 min 11 sec) 
Heartbeat CPU 2 instructions: 50000002 cycles: 24264323 heartbeat IPC: 2.06045 cumulative IPC: 2.06064 (Simulation time: 0 hr 9 min 19 sec) 
Heartbeat CPU 1 instructions: 50000003 cycles: 25392822 heartbeat IPC: 2.01743 cumulative IPC: 1.96906 (Simulation time: 0 hr 9 min 46 sec) 
Heartbeat CPU 0 instructions: 50000003 cycles: 26372265 heartbeat IPC: 1.89577 cumulative IPC: 1.89593 (Simulation time: 0 hr 10 min 9 sec) 
Heartbeat CPU 3 instructions: 70000002 cycles: 27914180 heartbeat IPC: 2.51259 cumulative IPC: 2.50769 (Simulation time: 0 hr 10 min 45 sec) 
Heartbeat CPU 2 instructions: 60000000 cycles: 29119325 heartbeat IPC: 2.05973 cumulative IPC: 2.06049 (Simulation time: 0 hr 11 min 13 sec) 
Heartbeat CPU 1 instructions: 60000000 cycles: 30210351 heartbeat IPC: 2.07575 cumulative IPC: 1.98607 (Simulation time: 0 hr 11 min 38 sec) 
Heartbeat CPU 0 instructions: 60000000 cycles: 31644722 heartbeat IPC: 1.89665 cumulative IPC: 1.89605 (Simulation time: 0 hr 12 min 11 sec) 
Heartbeat CPU 3 instructions: 80000000 cycles: 31897750 heartbeat IPC: 2.51031 cumulative IPC: 2.50801 (Simulation time: 0 hr 12 min 17 sec) 
Heartbeat CPU 2 instructions: 70000000 cycles: 33966788 heartbeat IPC: 2.06293 cumulative IPC: 2.06084 (Simulation time: 0 hr 13 min 5 sec) 
Heartbeat CPU 1 instructions: 70000003 cycles: 35318728 heartbeat IPC: 1.95757 cumulative IPC: 1.98195 (Simulation time: 0 hr 13 min 35 sec) 
Heartbeat CPU 3 instructions: 90000000 cycles: 36847721 heartbeat IPC: 2.02021 cumulative IPC: 2.44248 (Simulation time: 0 hr 14 min 6 sec) 
Heartbeat CPU 0 instructions: 70000000 cycles: 36918986 heartbeat IPC: 1.896 cumulative IPC: 1.89604 (Simulation time: 0 hr 14 min 8 sec) 
Heartbeat CPU 2 instructions: 80000000 cycles: 38823734 heartbeat IPC: 2.05891 cumulative IPC: 2.0606 (Simulation time: 0 hr 14 min 51 sec) 
Heartbeat CPU 1 instructions: 80000000 cycles: 40427701 heartbeat IPC: 1.95734 cumulative IPC: 1.97884 (Simulation time: 0 hr 15 min 29 sec) 
Heartbeat CPU 3 instructions: 100000000 cycles: 41150696 heartbeat IPC: 2.32397 cumulative IPC: 2.43009 (Simulation time: 0 hr 15 min 46 sec) 
Heartbeat CPU 0 instructions: 80000000 cycles: 42194032 heartbeat IPC: 1.89572 cumulative IPC: 1.896 (Simulation time: 0 hr 16 min 10 sec) 
Heartbeat CPU 2 instructions: 90000001 cycles: 43686658 heartbeat IPC: 2.05638 cumulative IPC: 2.06013 (Simulation time: 0 hr 16 min 45 sec) 
Heartbeat CPU 3 instructions: 110000003 cycles: 44971662 heartbeat IPC: 2.61714 cumulative IPC: 2.44598 (Simulation time: 0 hr 17 min 13 sec) 
Heartbeat CPU 1 instructions: 90000003 cycles: 45536692 heartbeat IPC: 1.95733 cumulative IPC: 1.97643 (Simulation time: 0 hr 17 min 26 sec) 
Heartbeat CPU 0 instructions: 90000000 cycles: 47468937 heartbeat IPC: 1.89577 cumulative IPC: 1.89598 (Simulation time: 0 hr 18 min 10 sec) 
Heartbeat CPU 2 instructions: 100000000 cycles: 48546264 heartbeat IPC: 2.05778 cumulative IPC: 2.05989 (Simulation time: 0 hr 18 min 35 sec) 
Heartbeat CPU 3 instructions: 120000000 cycles: 48916362 heartbeat IPC: 2.53505 cumulative IPC: 2.45317 (Simulation time: 0 hr 18 min 43 sec) 
Heartbeat CPU 1 instructions: 100000000 cycles: 50645535 heartbeat IPC: 1.95739 cumulative IPC: 1.97451 (Simulation time: 0 hr 19 min 22 sec) 
Heartbeat CPU 0 instructions: 100000000 cycles: 52743495 heartbeat IPC: 1.89589 cumulative IPC: 1.89597 (Simulation time: 0 hr 20 min 10 sec) 
Heartbeat CPU 3 instructions: 130000003 cycles: 52857830 heartbeat IPC: 2.53713 cumulative IPC: 2.45943 (Simulation time: 0 hr 20 min 13 sec) 
Heartbeat CPU 2 instructions: 110000000 cycles: 53410522 heartbeat IPC: 2.05581 cumulative IPC: 2.05952 (Simulation time: 0 hr 20 min 25 sec) 
Heartbeat CPU 1 instructions: 110000002 cycles: 55754512 heartbeat IPC: 1.95734 cumulative IPC: 1.97293 (Simulation time: 0 hr 21 min 19 sec) 
Heartbeat CPU 3 instructions: 140000000 cycles: 56796217 heartbeat IPC: 2.53911 cumulative IPC: 2.46495 (Simulation time: 0 hr 21 min 42 sec) 
Heartbeat CPU 0 instructions: 110000001 cycles: 58017296 heartbeat IPC: 1.89617 cumulative IPC: 1.89599 (Simulation time: 0 hr 22 min 10 sec) 
Heartbeat CPU 2 instructions: 120000000 cycles: 58273432 heartbeat IPC: 2.05638 cumulative IPC: 2.05926 (Simulation time: 0 hr 22 min 16 sec) 
Heartbeat CPU 3 instructions: 150000002 cycles: 60733983 heartbeat IPC: 2.53951 cumulative IPC: 2.46979 (Simulation time: 0 hr 23 min 12 sec) 
Heartbeat CPU 1 instructions: 120000000 cycles: 60797850 heartbeat IPC: 1.98281 cumulative IPC: 1.97375 (Simulation time: 0 hr 23 min 14 sec) 
Heartbeat CPU 2 instructions: 130000000 cycles: 63135953 heartbeat IPC: 2.05655 cumulative IPC: 2.05905 (Simulation time: 0 hr 24 min 8 sec) 
Heartbeat CPU 0 instructions: 120000000 cycles: 63291241 heartbeat IPC: 1.89611 cumulative IPC: 1.896 (Simulation time: 0 hr 24 min 11 sec) 
Heartbeat CPU 3 instructions: 160000000 cycles: 64673171 heartbeat IPC: 2.53859 cumulative IPC: 2.47398 (Simulation time: 0 hr 24 min 43 sec) 
Heartbeat CPU 1 instructions: 130000003 cycles: 65514298 heartbeat IPC: 2.12024 cumulative IPC: 1.9843 (Simulation time: 0 hr 25 min 3 sec) 
Heartbeat CPU 2 instructions: 140000000 cycles: 68002053 heartbeat IPC: 2.05503 cumulative IPC: 2.05876 (Simulation time: 0 hr 25 min 59 sec) 
Heartbeat CPU 0 instructions: 130000003 cycles: 68564558 heartbeat IPC: 1.89634 cumulative IPC: 1.89602 (Simulation time: 0 hr 26 min 12 sec) 
Heartbeat CPU 3 instructions: 170000000 cycles: 68616291 heartbeat IPC: 2.53606 cumulative IPC: 2.47755 (Simulation time: 0 hr 26 min 13 sec) 
Heartbeat CPU 1 instructions: 140000000 cycles: 70622953 heartbeat IPC: 1.95746 cumulative IPC: 1.98236 (Simulation time: 0 hr 26 min 59 sec) 
Heartbeat CPU 3 instructions: 180000000 cycles: 72562068 heartbeat IPC: 2.53436 cumulative IPC: 2.48063 (Simulation time: 0 hr 27 min 43 sec) 
Heartbeat CPU 2 instructions: 150000000 cycles: 72873483 heartbeat IPC: 2.05279 cumulative IPC: 2.05836 (Simulation time: 0 hr 27 min 50 sec) 
Heartbeat CPU 0 instructions: 140000000 cycles: 73839057 heartbeat IPC: 1.89591 cumulative IPC: 1.89602 (Simulation time: 0 hr 28 min 12 sec) 
Heartbeat CPU 1 instructions: 150000000 cycles: 75731906 heartbeat IPC: 1.95735 cumulative IPC: 1.98067 (Simulation time: 0 hr 28 min 56 sec) 
Heartbeat CPU 3 instructions: 190000003 cycles: 76509558 heartbeat IPC: 2.53326 cumulative IPC: 2.48335 (Simulation time: 0 hr 29 min 13 sec) 
Heartbeat CPU 2 instructions: 160000000 cycles: 77730820 heartbeat IPC: 2.05874 cumulative IPC: 2.05839 (Simulation time: 0 hr 29 min 41 sec) 
Heartbeat CPU 0 instructions: 150000002 cycles: 79114065 heartbeat IPC: 1.89573 cumulative IPC: 1.896 (Simulation time: 0 hr 30 min 13 sec) 
Heartbeat CPU 3 instructions: 200000000 cycles: 80446745 heartbeat IPC: 2.53988 cumulative IPC: 2.48612 (Simulation time: 0 hr 30 min 44 sec) 
Heartbeat CPU 1 instructions: 160000000 cycles: 80840903 heartbeat IPC: 1.95733 cumulative IPC: 1.9792 (Simulation time: 0 hr 30 min 53 sec) 
Heartbeat CPU 2 instructions: 170000000 cycles: 82589232 heartbeat IPC: 2.05829 cumulative IPC: 2.05838 (Simulation time: 0 hr 31 min 32 sec) 
Heartbeat CPU 3 instructions: 210000003 cycles: 84342008 heartbeat IPC: 2.56722 cumulative IPC: 0.118565 (Simulation time: 0 hr 32 min 12 sec) 
Heartbeat CPU 0 instructions: 160000000 cycles: 84388609 heartbeat IPC: 1.8959 cumulative IPC: 1.89599 (Simulation time: 0 hr 32 min 13 sec) 
Heartbeat CPU 1 instructions: 170000000 cycles: 85949755 heartbeat IPC: 1.95739 cumulative IPC: 1.9779 (Simulation time: 0 hr 32 min 49 sec) 
Heartbeat CPU 2 instructions: 180000000 cycles: 87453702 heartbeat IPC: 2.05572 cumulative IPC: 2.05823 (Simulation time: 0 hr 33 min 23 sec) 
Heartbeat CPU 3 instructions: 220000000 cycles: 88241600 heartbeat IPC: 2.56437 cumulative IPC: 0.22665 (Simulation time: 0 hr 33 min 41 sec) 
Heartbeat CPU 0 instructions: 170000000 cycles: 89662905 heartbeat IPC: 1.89599 cumulative IPC: 1.89599 (Simulation time: 0 hr 34 min 13 sec) 
Heartbeat CPU 1 instructions: 180000000 cycles: 91058686 heartbeat IPC: 1.95736 cumulative IPC: 1.97675 (Simulation time: 0 hr 34 min 45 sec) 
Heartbeat CPU 3 instructions: 230000000 cycles: 92142917 heartbeat IPC: 2.56324 cumulative IPC: 0.325581 (Simulation time: 0 hr 35 min 10 sec) 
Heartbeat CPU 2 instructions: 190000000 cycles: 92321788 heartbeat IPC: 2.0542 cumulative IPC: 2.05802 (Simulation time: 0 hr 35 min 14 sec) 
Heartbeat CPU 0 instructions: 180000000 cycles: 94935998 heartbeat IPC: 1.89642 cumulative IPC: 1.89601 (Simulation time: 0 hr 36 min 13 sec) 
Heartbeat CPU 3 instructions: 240000000 cycles: 96042289 heartbeat IPC: 2.56452 cumulative IPC: 0.416483 (Simulation time: 0 hr 36 min 38 sec) 
Heartbeat CPU 1 instructions: 190000000 cycles: 96167677 heartbeat IPC: 1.95733 cumulative IPC: 1.97572 (Simulation time: 0 hr 36 min 41 sec) 
Heartbeat CPU 2 instructions: 200000000 cycles: 97207838 heartbeat IPC: 2.04664 cumulative IPC: 2.05745 (Simulation time: 0 hr 37 min 4 sec) 
Heartbeat CPU 3 instructions: 250000003 cycles: 99942242 heartbeat IPC: 2.56413 cumulative IPC: 0.500289 (Simulation time: 0 hr 38 min 7 sec) 
Heartbeat CPU 0 instructions: 190000002 cycles: 100209270 heartbeat IPC: 1.89636 cumulative IPC: 1.89603 (Simulation time: 0 hr 38 min 13 sec) 
Heartbeat CPU 1 instructions: 200000000 cycles: 101035778 heartbeat IPC: 2.05419 cumulative IPC: 1.9795 (Simulation time: 0 hr 38 min 32 sec) 
Heartbeat CPU 2 instructions: 210000000 cycles: 102073566 heartbeat IPC: 2.05519 cumulative IPC: 0.0979686 (Simulation time: 0 hr 38 min 56 sec) 
Heartbeat CPU 3 instructions: 260000000 cycles: 103841807 heartbeat IPC: 2.56439 cumulative IPC: 0.577802 (Simulation time: 0 hr 39 min 36 sec) 
Heartbeat CPU 0 instructions: 200000000 cycles: 105484834 heartbeat IPC: 1.89553 cumulative IPC: 1.89601 (Simulation time: 0 hr 40 min 13 sec) 

Warmup complete CPU 0 instructions: 200000001 cycles: 105484849 (Simulation time: 0 hr 40 min 13 sec) 
Warmup complete CPU 1 instructions: 209152838 cycles: 105484848 (Simulation time: 0 hr 40 min 13 sec) 
Warmup complete CPU 2 instructions: 217018105 cycles: 105484848 (Simulation time: 0 hr 40 min 13 sec) 
Warmup complete CPU 3 instructions: 264216852 cycles: 105484848 (Simulation time: 0 hr 40 min 13 sec) 

Heartbeat CPU 1 instructions: 210000000 cycles: 106928621 heartbeat IPC: 1.69697 cumulative IPC: 0.58677 (Simulation time: 0 hr 40 min 33 sec) 
Heartbeat CPU 2 instructions: 220000000 cycles: 109595088 heartbeat IPC: 1.32952 cumulative IPC: 0.72548 (Simulation time: 0 hr 41 min 9 sec) 
Heartbeat CPU 3 instructions: 270000002 cycles: 109792371 heartbeat IPC: 1.68051 cumulative IPC: 1.34257 (Simulation time: 0 hr 41 min 12 sec) 
Heartbeat CPU 0 instructions: 210000002 cycles: 113273166 heartbeat IPC: 1.28397 cumulative IPC: 1.28397 (Simulation time: 0 hr 41 min 59 sec) 
Heartbeat CPU 3 instructions: 280000000 cycles: 117248061 heartbeat IPC: 1.34126 cumulative IPC: 1.34174 (Simulation time: 0 hr 42 min 53 sec) 
Heartbeat CPU 0 instructions: 220000000 cycles: 121062208 heartbeat IPC: 1.28385 cumulative IPC: 1.28391 (Simulation time: 0 hr 43 min 44 sec) 
Heartbeat CPU 2 instructions: 230000000 cycles: 123369338 heartbeat IPC: 0.725992 cumulative IPC: 0.725874 (Simulation time: 0 hr 44 min 15 sec) 
Heartbeat CPU 1 instructions: 220000000 cycles: 123946835 heartbeat IPC: 0.587606 cumulative IPC: 0.58754 (Simulation time: 0 hr 44 min 23 sec) 
Heartbeat CPU 3 instructions: 290000000 cycles: 124715623 heartbeat IPC: 1.33913 cumulative IPC: 1.34072 (Simulation time: 0 hr 44 min 34 sec) 
Heartbeat CPU 0 instructions: 230000002 cycles: 128849361 heartbeat IPC: 1.28417 cumulative IPC: 1.284 (Simulation time: 0 hr 45 min 29 sec) 
Heartbeat CPU 3 instructions: 300000000 cycles: 132218910 heartbeat IPC: 1.33275 cumulative IPC: 1.33849 (Simulation time: 0 hr 46 min 15 sec) 
Heartbeat CPU 0 instructions: 240000000 cycles: 136644815 heartbeat IPC: 1.2828 cumulative IPC: 1.2837 (Simulation time: 0 hr 47 min 15 sec) 
Heartbeat CPU 2 instructions: 240000000 cycles: 137161830 heartbeat IPC: 0.725032 cumulative IPC: 0.725508 (Simulation time: 0 hr 47 min 22 sec) 
Heartbeat CPU 3 instructions: 310000002 cycles: 139720757 heartbeat IPC: 1.33301 cumulative IPC: 1.33728 (Simulation time: 0 hr 47 min 57 sec) 
Heartbeat CPU 1 instructions: 230000003 cycles: 140978968 heartbeat IPC: 0.587126 cumulative IPC: 0.587341 (Simulation time: 0 hr 48 min 14 sec) 
Heartbeat CPU 0 instructions: 250000003 cycles: 144425581 heartbeat IPC: 1.28522 cumulative IPC: 1.284 (Simulation time: 0 hr 49 min 1 sec) 
Heartbeat CPU 3 instructions: 320000000 cycles: 147218698 heartbeat IPC: 1.3337 cumulative IPC: 1.33664 (Simulation time: 0 hr 49 min 38 sec) 
Heartbeat CPU 2 instructions: 250000000 cycles: 150936727 heartbeat IPC: 0.725958 cumulative IPC: 0.725644 (Simulation time: 0 hr 50 min 29 sec) 
Heartbeat CPU 0 instructions: 260000000 cycles: 152228141 heartbeat IPC: 1.28163 cumulative IPC: 1.28361 (Simulation time: 0 hr 50 min 46 sec) 
Heartbeat CPU 3 instructions: 330000000 cycles: 154722897 heartbeat IPC: 1.33259 cumulative IPC: 1.33602 (Simulation time: 0 hr 51 min 20 sec) 
Heartbeat CPU 1 instructions: 240000000 cycles: 158008073 heartbeat IPC: 0.58723 cumulative IPC: 0.587305 (Simulation time: 0 hr 52 min 5 sec) 
Heartbeat CPU 0 instructions: 270000001 cycles: 160024349 heartbeat IPC: 1.28268 cumulative IPC: 1.28347 (Simulation time: 0 hr 52 min 32 sec) 
Heartbeat CPU 3 instructions: 340000000 cycles: 162228880 heartbeat IPC: 1.33227 cumulative IPC: 1.33553 (Simulation time: 0 hr 53 min 2 sec) 
Heartbeat CPU 2 instructions: 260000000 cycles: 164719459 heartbeat IPC: 0.725546 cumulative IPC: 0.725621 (Simulation time: 0 hr 53 min 36 sec) 
Heartbeat CPU 0 instructions: 280000000 cycles: 167817287 heartbeat IPC: 1.28321 cumulative IPC: 1.28344 (Simulation time: 0 hr 54 min 18 sec) 
Heartbeat CPU 3 instructions: 350000002 cycles: 169710067 heartbeat IPC: 1.33669 cumulative IPC: 1.33566 (Simulation time: 0 hr 54 min 43 sec) 
Heartbeat CPU 1 instructions: 250000001 cycles: 175029622 heartbeat IPC: 0.587491 cumulative IPC: 0.587351 (Simulation time: 0 hr 55 min 56 sec) 
Heartbeat CPU 0 instructions: 290000002 cycles: 175591376 heartbeat IPC: 1.28632 cumulative IPC: 1.28376 (Simulation time: 0 hr 56 min 3 sec) 
Heartbeat CPU 3 instructions: 360000000 cycles: 177196180 heartbeat IPC: 1.33581 cumulative IPC: 1.33568 (Simulation time: 0 hr 56 min 25 sec) 
Heartbeat CPU 2 instructions: 270000000 cycles: 178571868 heartbeat IPC: 0.721896 cumulative IPC: 0.724915 (Simulation time: 0 hr 56 min 44 sec) 
Heartbeat CPU 0 instructions: 300000000 cycles: 183369350 heartbeat IPC: 1.28568 cumulative IPC: 1.28395 (Simulation time: 0 hr 57 min 49 sec) 
Heartbeat CPU 3 instructions: 370000000 cycles: 184676639 heartbeat IPC: 1.33682 cumulative IPC: 1.33578 (Simulation time: 0 hr 58 min 7 sec) 
Heartbeat CPU 0 instructions: 310000001 cycles: 191150257 heartbeat IPC: 1.2852 cumulative IPC: 1.28407 (Simulation time: 0 hr 59 min 35 sec) 
Heartbeat CPU 1 instructions: 260000000 cycles: 192054394 heartbeat IPC: 0.587379 cumulative IPC: 0.587356 (Simulation time: 0 hr 59 min 47 sec) 
Heartbeat CPU 3 instructions: 380000000 cycles: 192157408 heartbeat IPC: 1.33676 cumulative IPC: 1.33587 (Simulation time: 0 hr 59 min 49 sec) 
Heartbeat CPU 2 instructions: 280000000 cycles: 192414676 heartbeat IPC: 0.722397 cumulative IPC: 0.724514 (Simulation time: 0 hr 59 min 52 sec) 
Heartbeat CPU 0 instructions: 320000000 cycles: 198935508 heartbeat IPC: 1.28448 cumulative IPC: 1.2841 (Simulation time: 1 hr 1 min 20 sec) 
Heartbeat CPU 3 instructions: 390000003 cycles: 199694701 heartbeat IPC: 1.32674 cumulative IPC: 1.33514 (Simulation time: 1 hr 1 min 31 sec) 
Heartbeat CPU 1 instructions: 270000002 cycles: 205471950 heartbeat IPC: 0.745292 cumulative IPC: 0.60855 (Simulation time: 1 hr 2 min 54 sec) 
Heartbeat CPU 2 instructions: 290000002 cycles: 206282549 heartbeat IPC: 0.721091 cumulative IPC: 0.724043 (Simulation time: 1 hr 3 min 6 sec) 
Heartbeat CPU 0 instructions: 330000003 cycles: 206894673 heartbeat IPC: 1.25641 cumulative IPC: 1.28193 (Simulation time: 1 hr 3 min 14 sec) 
Heartbeat CPU 3 instructions: 400000000 cycles: 207319495 heartbeat IPC: 1.31151 cumulative IPC: 1.33337 (Simulation time: 1 hr 3 min 21 sec) 
Heartbeat CPU 3 instructions: 410000002 cycles: 214943278 heartbeat IPC: 1.31168 cumulative IPC: 1.33186 (Simulation time: 1 hr 5 min 4 sec) 
Heartbeat CPU 0 instructions: 340000000 cycles: 214978761 heartbeat IPC: 1.237 cumulative IPC: 1.27861 (Simulation time: 1 hr 5 min 4 sec) 
Heartbeat CPU 1 instructions: 280000000 cycles: 219449502 heartbeat IPC: 0.715433 cumulative IPC: 0.621659 (Simulation time: 1 hr 6 min 5 sec) 
Heartbeat CPU 2 instructions: 300000000 cycles: 220137803 heartbeat IPC: 0.721748 cumulative IPC: 0.723766 (Simulation time: 1 hr 6 min 15 sec) 
Heartbeat CPU 3 instructions: 420000000 cycles: 222514200 heartbeat IPC: 1.32084 cumulative IPC: 1.33115 (Simulation time: 1 hr 6 min 47 sec) 
Heartbeat CPU 0 instructions: 350000002 cycles: 222787428 heartbeat IPC: 1.28063 cumulative IPC: 1.27874 (Simulation time: 1 hr 6 min 51 sec) 
Heartbeat CPU 3 instructions: 430000003 cycles: 230065882 heartbeat IPC: 1.32421 cumulative IPC: 1.33073 (Simulation time: 1 hr 8 min 30 sec) 
Heartbeat CPU 0 instructions: 360000000 cycles: 230596769 heartbeat IPC: 1.28052 cumulative IPC: 1.27885 (Simulation time: 1 hr 8 min 37 sec) 
Heartbeat CPU 2 instructions: 310000000 cycles: 233917933 heartbeat IPC: 0.725683 cumulative IPC: 0.723971 (Simulation time: 1 hr 9 min 22 sec) 
Heartbeat CPU 1 instructions: 290000000 cycles: 236489116 heartbeat IPC: 0.586868 cumulative IPC: 0.617134 (Simulation time: 1 hr 9 min 57 sec) 
Heartbeat CPU 3 instructions: 440000000 cycles: 237567284 heartbeat IPC: 1.33308 cumulative IPC: 1.33086 (Simulation time: 1 hr 10 min 11 sec) 
Heartbeat CPU 0 instructions: 370000000 cycles: 238380255 heartbeat IPC: 1.28477 cumulative IPC: 1.2792 (Simulation time: 1 hr 10 min 22 sec) 
Heartbeat CPU 3 instructions: 450000000 cycles: 245021836 heartbeat IPC: 1.34146 cumulative IPC: 1.33143 (Simulation time: 1 hr 11 min 52 sec) 
Heartbeat CPU 0 instructions: 380000000 cycles: 246157961 heartbeat IPC: 1.28573 cumulative IPC: 1.27956 (Simulation time: 1 hr 12 min 8 sec) 
Heartbeat CPU 2 instructions: 320000000 cycles: 247690418 heartbeat IPC: 0.726085 cumulative IPC: 0.724176 (Simulation time: 1 hr 12 min 28 sec) 
Heartbeat CPU 3 instructions: 460000000 cycles: 252455722 heartbeat IPC: 1.34519 cumulative IPC: 1.33212 (Simulation time: 1 hr 13 min 33 sec) 
Heartbeat CPU 1 instructions: 300000000 cycles: 253511085 heartbeat IPC: 0.587476 cumulative IPC: 0.613723 (Simulation time: 1 hr 13 min 47 sec) 
Heartbeat CPU 0 instructions: 390000001 cycles: 253945889 heartbeat IPC: 1.28404 cumulative IPC: 1.2798 (Simulation time: 1 hr 13 min 53 sec) 
Heartbeat CPU 3 instructions: 470000002 cycles: 259864094 heartbeat IPC: 1.34982 cumulative IPC: 1.33297 (Simulation time: 1 hr 15 min 13 sec) 
Heartbeat CPU 2 instructions: 330000000 cycles: 261407602 heartbeat IPC: 0.729013 cumulative IPC: 0.724602 (Simulation time: 1 hr 15 min 34 sec) 
Heartbeat CPU 0 instructions: 400000000 cycles: 261740228 heartbeat IPC: 1.28298 cumulative IPC: 1.27996 (Simulation time: 1 hr 15 min 39 sec) 
Heartbeat CPU 3 instructions: 480000000 cycles: 267280092 heartbeat IPC: 1.34844 cumulative IPC: 1.33368 (Simulation time: 1 hr 16 min 54 sec) 
Heartbeat CPU 0 instructions: 410000000 cycles: 269541264 heartbeat IPC: 1.28188 cumulative IPC: 1.28005 (Simulation time: 1 hr 17 min 25 sec) 
Heartbeat CPU 1 instructions: 310000000 cycles: 270550641 heartbeat IPC: 0.58687 cumulative IPC: 0.610951 (Simulation time: 1 hr 17 min 38 sec) 
Heartbeat CPU 3 instructions: 490000000 cycles: 274712877 heartbeat IPC: 1.34539 cumulative IPC: 1.33419 (Simulation time: 1 hr 18 min 35 sec) 
Heartbeat CPU 2 instructions: 340000000 cycles: 275139220 heartbeat IPC: 0.728246 cumulative IPC: 0.724897 (Simulation time: 1 hr 18 min 40 sec) 
Heartbeat CPU 0 instructions: 420000000 cycles: 277325625 heartbeat IPC: 1.28463 cumulative IPC: 1.28025 (Simulation time: 1 hr 19 min 10 sec) 
Heartbeat CPU 3 instructions: 500000000 cycles: 282192306 heartbeat IPC: 1.337 cumulative IPC: 1.33431 (Simulation time: 1 hr 20 min 16 sec) 
Heartbeat CPU 0 instructions: 430000000 cycles: 285122602 heartbeat IPC: 1.28255 cumulative IPC: 1.28035 (Simulation time: 1 hr 20 min 56 sec) 
Heartbeat CPU 1 instructions: 320000000 cycles: 287572265 heartbeat IPC: 0.587488 cumulative IPC: 0.608758 (Simulation time: 1 hr 21 min 29 sec) 
Heartbeat CPU 2 instructions: 350000003 cycles: 288834145 heartbeat IPC: 0.730198 cumulative IPC: 0.725293 (Simulation time: 1 hr 21 min 47 sec) 
Heartbeat CPU 3 instructions: 510000003 cycles: 289672318 heartbeat IPC: 1.3369 cumulative IPC: 1.33442 (Simulation time: 1 hr 21 min 58 sec) 
Heartbeat CPU 0 instructions: 440000000 cycles: 292918978 heartbeat IPC: 1.28265 cumulative IPC: 1.28045 (Simulation time: 1 hr 22 min 42 sec) 
Heartbeat CPU 3 instructions: 520000000 cycles: 297150925 heartbeat IPC: 1.33715 cumulative IPC: 1.33452 (Simulation time: 1 hr 23 min 40 sec) 
Heartbeat CPU 0 instructions: 450000000 cycles: 300702737 heartbeat IPC: 1.28473 cumulative IPC: 1.28062 (Simulation time: 1 hr 24 min 28 sec) 
Heartbeat CPU 2 instructions: 360000000 cycles: 302566040 heartbeat IPC: 0.728231 cumulative IPC: 0.725497 (Simulation time: 1 hr 24 min 53 sec) 
Heartbeat CPU 1 instructions: 330000001 cycles: 304604284 heartbeat IPC: 0.58713 cumulative IPC: 0.606908 (Simulation time: 1 hr 25 min 21 sec) 
Heartbeat CPU 3 instructions: 530000001 cycles: 304622861 heartbeat IPC: 1.33834 cumulative IPC: 1.33467 (Simulation time: 1 hr 25 min 21 sec) 
Heartbeat CPU 0 instructions: 460000000 cycles: 308493409 heartbeat IPC: 1.28359 cumulative IPC: 1.28073 (Simulation time: 1 hr 26 min 14 sec) 
Heartbeat CPU 3 instructions: 540000000 cycles: 312031273 heartbeat IPC: 1.34982 cumulative IPC: 1.33521 (Simulation time: 1 hr 27 min 2 sec) 
Heartbeat CPU 2 instructions: 370000001 cycles: 316263768 heartbeat IPC: 0.730048 cumulative IPC: 0.725793 (Simulation time: 1 hr 27 min 59 sec) 
Heartbeat CPU 0 instructions: 470000000 cycles: 316285907 heartbeat IPC: 1.28329 cumulative IPC: 1.28083 (Simulation time: 1 hr 27 min 59 sec) 
Heartbeat CPU 3 instructions: 550000001 cycles: 319455070 heartbeat IPC: 1.34702 cumulative IPC: 1.33562 (Simulation time: 1 hr 28 min 42 sec) 
Heartbeat CPU 1 instructions: 340000000 cycles: 320554647 heartbeat IPC: 0.626945 cumulative IPC: 0.608394 (Simulation time: 1 hr 28 min 58 sec) 
Heartbeat CPU 0 instructions: 480000000 cycles: 324221900 heartbeat IPC: 1.26008 cumulative IPC: 1.28008 (Simulation time: 1 hr 29 min 52 sec) 
Heartbeat CPU 3 instructions: 560000000 cycles: 326901494 heartbeat IPC: 1.34293 cumulative IPC: 1.33587 (Simulation time: 1 hr 30 min 31 sec) 
Heartbeat CPU 2 instructions: 380000000 cycles: 330022352 heartbeat IPC: 0.726819 cumulative IPC: 0.725856 (Simulation time: 1 hr 31 min 14 sec) 
Heartbeat CPU 1 instructions: 350000003 cycles: 331504623 heartbeat IPC: 0.913244 cumulative IPC: 0.623163 (Simulation time: 1 hr 31 min 33 sec) 
Heartbeat CPU 0 instructions: 490000003 cycles: 332334703 heartbeat IPC: 1.23262 cumulative IPC: 1.27838 (Simulation time: 1 hr 31 min 44 sec) 
Heartbeat CPU 3 instructions: 570000003 cycles: 334351979 heartbeat IPC: 1.34219 cumulative IPC: 1.33607 (Simulation time: 1 hr 32 min 10 sec) 
Heartbeat CPU 0 instructions: 500000000 cycles: 340184875 heartbeat IPC: 1.27386 cumulative IPC: 1.27823 (Simulation time: 1 hr 33 min 27 sec) 
Heartbeat CPU 3 instructions: 580000000 cycles: 341738296 heartbeat IPC: 1.35385 cumulative IPC: 1.33663 (Simulation time: 1 hr 33 min 47 sec) 
Heartbeat CPU 2 instructions: 390000000 cycles: 343745291 heartbeat IPC: 0.728707 cumulative IPC: 0.72602 (Simulation time: 1 hr 34 min 13 sec) 
Heartbeat CPU 0 instructions: 510000002 cycles: 347979301 heartbeat IPC: 1.28297 cumulative IPC: 1.27838 (Simulation time: 1 hr 35 min 9 sec) 
Heartbeat CPU 3 instructions: 590000003 cycles: 349153777 heartbeat IPC: 1.34853 cumulative IPC: 1.33699 (Simulation time: 1 hr 35 min 24 sec) 
Heartbeat CPU 1 instructions: 360000000 cycles: 352312370 heartbeat IPC: 0.48059 cumulative IPC: 0.611144 (Simulation time: 1 hr 36 min 6 sec) 
Heartbeat CPU 0 instructions: 520000000 cycles: 355756094 heartbeat IPC: 1.28588 cumulative IPC: 1.27861 (Simulation time: 1 hr 36 min 51 sec) 
Heartbeat CPU 3 instructions: 600000000 cycles: 356615068 heartbeat IPC: 1.34025 cumulative IPC: 1.33709 (Simulation time: 1 hr 37 min 2 sec) 
Heartbeat CPU 2 instructions: 400000000 cycles: 357470328 heartbeat IPC: 0.728595 cumulative IPC: 0.72616 (Simulation time: 1 hr 37 min 13 sec) 
Heartbeat CPU 0 instructions: 530000003 cycles: 363549495 heartbeat IPC: 1.28314 cumulative IPC: 1.27875 (Simulation time: 1 hr 38 min 33 sec) 
Heartbeat CPU 3 instructions: 610000001 cycles: 364100836 heartbeat IPC: 1.33587 cumulative IPC: 1.33705 (Simulation time: 1 hr 38 min 41 sec) 
Heartbeat CPU 2 instructions: 410000000 cycles: 371204624 heartbeat IPC: 0.728104 cumulative IPC: 0.726261 (Simulation time: 1 hr 40 min 14 sec) 
Heartbeat CPU 0 instructions: 540000000 cycles: 371332889 heartbeat IPC: 1.28479 cumulative IPC: 1.27893 (Simulation time: 1 hr 40 min 15 sec) 
Heartbeat CPU 3 instructions: 620000000 cycles: 372179890 heartbeat IPC: 1.23777 cumulative IPC: 1.33404 (Simulation time: 1 hr 40 min 26 sec) 
Heartbeat CPU 1 instructions: 370000002 cycles: 373120196 heartbeat IPC: 0.480588 cumulative IPC: 0.600994 (Simulation time: 1 hr 40 min 39 sec) 
Heartbeat CPU 0 instructions: 550000001 cycles: 379127338 heartbeat IPC: 1.28296 cumulative IPC: 1.27904 (Simulation time: 1 hr 41 min 58 sec) 
Heartbeat CPU 3 instructions: 630000000 cycles: 379748038 heartbeat IPC: 1.32133 cumulative IPC: 1.33369 (Simulation time: 1 hr 42 min 6 sec) 
Heartbeat CPU 2 instructions: 420000000 cycles: 384975414 heartbeat IPC: 0.726175 cumulative IPC: 0.726257 (Simulation time: 1 hr 43 min 15 sec) 
Heartbeat CPU 0 instructions: 560000000 cycles: 386908367 heartbeat IPC: 1.28518 cumulative IPC: 1.27921 (Simulation time: 1 hr 43 min 41 sec) 
Heartbeat CPU 3 instructions: 640000000 cycles: 387319067 heartbeat IPC: 1.32082 cumulative IPC: 1.33335 (Simulation time: 1 hr 43 min 46 sec) 
Heartbeat CPU 1 instructions: 380000000 cycles: 393935473 heartbeat IPC: 0.480416 cumulative IPC: 0.592293 (Simulation time: 1 hr 45 min 13 sec) 
Heartbeat CPU 0 instructions: 570000003 cycles: 394707914 heartbeat IPC: 1.28213 cumulative IPC: 1.27929 (Simulation time: 1 hr 45 min 23 sec) 
Heartbeat CPU 3 instructions: 650000001 cycles: 394877637 heartbeat IPC: 1.323 cumulative IPC: 1.33308 (Simulation time: 1 hr 45 min 25 sec) 
Heartbeat CPU 2 instructions: 430000000 cycles: 398764419 heartbeat IPC: 0.725215 cumulative IPC: 0.726208 (Simulation time: 1 hr 46 min 16 sec) 
Heartbeat CPU 3 instructions: 660000000 cycles: 402439143 heartbeat IPC: 1.32249 cumulative IPC: 1.33281 (Simulation time: 1 hr 47 min 5 sec) 
Heartbeat CPU 0 instructions: 580000000 cycles: 402499418 heartbeat IPC: 1.28345 cumulative IPC: 1.2794 (Simulation time: 1 hr 47 min 6 sec) 
Heartbeat CPU 3 instructions: 670000000 cycles: 410083089 heartbeat IPC: 1.30822 cumulative IPC: 1.33219 (Simulation time: 1 hr 48 min 47 sec) 
Heartbeat CPU 0 instructions: 590000001 cycles: 410311703 heartbeat IPC: 1.28004 cumulative IPC: 1.27941 (Simulation time: 1 hr 48 min 51 sec) 
Heartbeat CPU 1 instructions: 390000002 cycles: 411536252 heartbeat IPC: 0.568157 cumulative IPC: 0.590905 (Simulation time: 1 hr 49 min 9 sec) 
Heartbeat CPU 2 instructions: 440000000 cycles: 412521665 heartbeat IPC: 0.72689 cumulative IPC: 0.726238 (Simulation time: 1 hr 49 min 23 sec) 
Heartbeat CPU 3 instructions: 680000000 cycles: 417875994 heartbeat IPC: 1.28322 cumulative IPC: 1.33097 (Simulation time: 1 hr 50 min 41 sec) 
Heartbeat CPU 0 instructions: 600000000 cycles: 418349813 heartbeat IPC: 1.24407 cumulative IPC: 1.27851 (Simulation time: 1 hr 50 min 48 sec) 
Heartbeat CPU 1 instructions: 400000000 cycles: 422834195 heartbeat IPC: 0.885117 cumulative IPC: 0.601379 (Simulation time: 1 hr 51 min 51 sec) 
Heartbeat CPU 3 instructions: 690000001 cycles: 425529452 heartbeat IPC: 1.3066 cumulative IPC: 1.33039 (Simulation time: 1 hr 52 min 28 sec) 
Heartbeat CPU 0 instructions: 610000000 cycles: 426178401 heartbeat IPC: 1.27737 cumulative IPC: 1.27848 (Simulation time: 1 hr 52 min 37 sec) 
Heartbeat CPU 2 instructions: 450000001 cycles: 426279124 heartbeat IPC: 0.726878 cumulative IPC: 0.726266 (Simulation time: 1 hr 52 min 38 sec) 
Heartbeat CPU 3 instructions: 700000000 cycles: 433181440 heartbeat IPC: 1.30685 cumulative IPC: 1.32984 (Simulation time: 1 hr 54 min 14 sec) 
Heartbeat CPU 0 instructions: 620000000 cycles: 433947287 heartbeat IPC: 1.28719 cumulative IPC: 1.27868 (Simulation time: 1 hr 54 min 25 sec) 
Heartbeat CPU 1 instructions: 410000000 cycles: 436586659 heartbeat IPC: 0.727142 cumulative IPC: 0.606602 (Simulation time: 1 hr 55 min 2 sec) 
Heartbeat CPU 2 instructions: 460000000 cycles: 439987231 heartbeat IPC: 0.729495 cumulative IPC: 0.726398 (Simulation time: 1 hr 55 min 49 sec) 
Heartbeat CPU 3 instructions: 710000000 cycles: 440883789 heartbeat IPC: 1.29831 cumulative IPC: 1.32911 (Simulation time: 1 hr 56 min 1 sec) 
Heartbeat CPU 0 instructions: 630000002 cycles: 441741313 heartbeat IPC: 1.28303 cumulative IPC: 1.27879 (Simulation time: 1 hr 56 min 13 sec) 
Heartbeat CPU 3 instructions: 720000000 cycles: 448607876 heartbeat IPC: 1.29465 cumulative IPC: 1.32834 (Simulation time: 1 hr 57 min 50 sec) 
Heartbeat CPU 0 instructions: 640000000 cycles: 449492747 heartbeat IPC: 1.29008 cumulative IPC: 1.27904 (Simulation time: 1 hr 58 min 3 sec) 
Heartbeat CPU 1 instructions: 420000000 cycles: 449933069 heartbeat IPC: 0.749265 cumulative IPC: 0.61213 (Simulation time: 1 hr 58 min 10 sec) 
Heartbeat CPU 2 instructions: 470000002 cycles: 453702907 heartbeat IPC: 0.729093 cumulative IPC: 0.726504 (Simulation time: 1 hr 59 min 5 sec) 
Heartbeat CPU 3 instructions: 730000002 cycles: 456277998 heartbeat IPC: 1.30376 cumulative IPC: 1.3278 (Simulation time: 1 hr 59 min 43 sec) 
Heartbeat CPU 0 instructions: 650000000 cycles: 457175046 heartbeat IPC: 1.30169 cumulative IPC: 1.27954 (Simulation time: 1 hr 59 min 56 sec) 
Heartbeat CPU 1 instructions: 430000000 cycles: 461333488 heartbeat IPC: 0.877161 cumulative IPC: 0.620621 (Simulation time: 2 hr 0 min 57 sec) 
Heartbeat CPU 3 instructions: 740000000 cycles: 463855912 heartbeat IPC: 1.31962 cumulative IPC: 1.32763 (Simulation time: 2 hr 1 min 34 sec) 
Heartbeat CPU 0 instructions: 660000000 cycles: 464851787 heartbeat IPC: 1.30264 cumulative IPC: 1.28003 (Simulation time: 2 hr 1 min 49 sec) 
Heartbeat CPU 2 instructions: 480000000 cycles: 467431709 heartbeat IPC: 0.728396 cumulative IPC: 0.726576 (Simulation time: 2 hr 2 min 26 sec) 
Heartbeat CPU 3 instructions: 750000001 cycles: 471451164 heartbeat IPC: 1.31661 cumulative IPC: 1.3274 (Simulation time: 2 hr 3 min 25 sec) 
Heartbeat CPU 0 instructions: 670000001 cycles: 472521233 heartbeat IPC: 1.30388 cumulative IPC: 1.28053 (Simulation time: 2 hr 3 min 41 sec) 
Heartbeat CPU 1 instructions: 440000000 cycles: 472611445 heartbeat IPC: 0.886685 cumulative IPC: 0.628794 (Simulation time: 2 hr 3 min 42 sec) 
Heartbeat CPU 3 instructions: 760000000 cycles: 479028234 heartbeat IPC: 1.31977 cumulative IPC: 1.32724 (Simulation time: 2 hr 5 min 16 sec) 
Heartbeat CPU 0 instructions: 680000000 cycles: 480195518 heartbeat IPC: 1.30305 cumulative IPC: 1.28099 (Simulation time: 2 hr 5 min 34 sec) 
Heartbeat CPU 2 instructions: 490000000 cycles: 481205887 heartbeat IPC: 0.725996 cumulative IPC: 0.726555 (Simulation time: 2 hr 5 min 48 sec) 
Heartbeat CPU 1 instructions: 450000001 cycles: 483700405 heartbeat IPC: 0.901798 cumulative IPC: 0.636799 (Simulation time: 2 hr 6 min 25 sec) 
Heartbeat CPU 3 instructions: 770000002 cycles: 486623525 heartbeat IPC: 1.31661 cumulative IPC: 1.32703 (Simulation time: 2 hr 7 min 7 sec) 
Heartbeat CPU 0 instructions: 690000003 cycles: 487879032 heartbeat IPC: 1.30149 cumulative IPC: 1.2814 (Simulation time: 2 hr 7 min 26 sec) 
Heartbeat CPU 3 instructions: 780000000 cycles: 494197488 heartbeat IPC: 1.32031 cumulative IPC: 1.3269 (Simulation time: 2 hr 8 min 59 sec) 
Heartbeat CPU 2 instructions: 500000000 cycles: 494942317 heartbeat IPC: 0.727991 cumulative IPC: 0.726605 (Simulation time: 2 hr 9 min 10 sec) 
Heartbeat CPU 1 instructions: 460000000 cycles: 494964961 heartbeat IPC: 0.88774 cumulative IPC: 0.644056 (Simulation time: 2 hr 9 min 10 sec) 
Heartbeat CPU 0 instructions: 700000000 cycles: 495542197 heartbeat IPC: 1.30494 cumulative IPC: 1.28186 (Simulation time: 2 hr 9 min 18 sec) 
Heartbeat CPU 3 instructions: 790000002 cycles: 501793751 heartbeat IPC: 1.31644 cumulative IPC: 1.3267 (Simulation time: 2 hr 10 min 50 sec) 
Heartbeat CPU 0 instructions: 710000002 cycles: 503238692 heartbeat IPC: 1.29929 cumulative IPC: 1.2822 (Simulation time: 2 hr 11 min 11 sec) 
Heartbeat CPU 1 instructions: 470000000 cycles: 506262846 heartbeat IPC: 0.885121 cumulative IPC: 0.650852 (Simulation time: 2 hr 11 min 56 sec) 
Heartbeat CPU 2 instructions: 510000001 cycles: 508679788 heartbeat IPC: 0.727936 cumulative IPC: 0.726651 (Simulation time: 2 hr 12 min 31 sec) 
Heartbeat CPU 3 instructions: 800000000 cycles: 509378342 heartbeat IPC: 1.31846 cumulative IPC: 1.32655 (Simulation time: 2 hr 12 min 41 sec) 
Heartbeat CPU 0 instructions: 720000000 cycles: 510902915 heartbeat IPC: 1.30476 cumulative IPC: 1.28263 (Simulation time: 2 hr 13 min 4 sec) 
Heartbeat CPU 3 instructions: 810000001 cycles: 516957969 heartbeat IPC: 1.31933 cumulative IPC: 1.32641 (Simulation time: 2 hr 14 min 33 sec) 
Heartbeat CPU 1 instructions: 480000000 cycles: 517544280 heartbeat IPC: 0.886412 cumulative IPC: 0.657301 (Simulation time: 2 hr 14 min 41 sec) 
Heartbeat CPU 0 instructions: 730000000 cycles: 518584620 heartbeat IPC: 1.30179 cumulative IPC: 1.28298 (Simulation time: 2 hr 14 min 57 sec) 
Heartbeat CPU 2 instructions: 520000000 cycles: 522406170 heartbeat IPC: 0.728524 cumulative IPC: 0.726712 (Simulation time: 2 hr 15 min 52 sec) 
Heartbeat CPU 3 instructions: 820000000 cycles: 524536934 heartbeat IPC: 1.31944 cumulative IPC: 1.32629 (Simulation time: 2 hr 16 min 24 sec) 
Heartbeat CPU 0 instructions: 740000000 cycles: 526256013 heartbeat IPC: 1.30354 cumulative IPC: 1.28336 (Simulation time: 2 hr 16 min 49 sec) 
Heartbeat CPU 1 instructions: 490000000 cycles: 528748993 heartbeat IPC: 0.892482 cumulative IPC: 0.663527 (Simulation time: 2 hr 17 min 26 sec) 
Heartbeat CPU 3 instructions: 830000000 cycles: 532323145 heartbeat IPC: 1.28432 cumulative IPC: 1.32552 (Simulation time: 2 hr 18 min 18 sec) 
Heartbeat CPU 0 instructions: 750000001 cycles: 533934978 heartbeat IPC: 1.30226 cumulative IPC: 1.2837 (Simulation time: 2 hr 18 min 42 sec) 
Heartbeat CPU 2 instructions: 530000002 cycles: 536134257 heartbeat IPC: 0.728434 cumulative IPC: 0.726767 (Simulation time: 2 hr 19 min 13 sec) 
Heartbeat CPU 1 instructions: 500000000 cycles: 540025255 heartbeat IPC: 0.886819 cumulative IPC: 0.669321 (Simulation time: 2 hr 20 min 9 sec) 
Heartbeat CPU 3 instructions: 840000000 cycles: 540442311 heartbeat IPC: 1.23165 cumulative IPC: 1.32377 (Simulation time: 2 hr 20 min 15 sec) 
Heartbeat CPU 0 instructions: 760000000 cycles: 541594312 heartbeat IPC: 1.3056 cumulative IPC: 1.28408 (Simulation time: 2 hr 20 min 33 sec) 
Heartbeat CPU 3 instructions: 850000000 cycles: 547368824 heartbeat IPC: 1.44373 cumulative IPC: 1.32565 (Simulation time: 2 hr 21 min 58 sec) 
Heartbeat CPU 0 instructions: 770000003 cycles: 549285423 heartbeat IPC: 1.3002 cumulative IPC: 1.28436 (Simulation time: 2 hr 22 min 27 sec) 
Heartbeat CPU 2 instructions: 540000000 cycles: 549860273 heartbeat IPC: 0.728543 cumulative IPC: 0.726822 (Simulation time: 2 hr 22 min 35 sec) 
Heartbeat CPU 1 instructions: 510000000 cycles: 551420142 heartbeat IPC: 0.877587 cumulative IPC: 0.674643 (Simulation time: 2 hr 22 min 59 sec) 
Heartbeat CPU 3 instructions: 860000000 cycles: 554034586 heartbeat IPC: 1.5002 cumulative IPC: 1.32824 (Simulation time: 2 hr 23 min 38 sec) 
Heartbeat CPU 0 instructions: 780000000 cycles: 556961874 heartbeat IPC: 1.30268 cumulative IPC: 1.28467 (Simulation time: 2 hr 24 min 22 sec) 
Heartbeat CPU 3 instructions: 870000002 cycles: 560721937 heartbeat IPC: 1.49536 cumulative IPC: 1.3307 (Simulation time: 2 hr 25 min 18 sec) 
Heartbeat CPU 1 instructions: 520000000 cycles: 562913963 heartbeat IPC: 0.870033 cumulative IPC: 0.679553 (Simulation time: 2 hr 25 min 50 sec) 
Heartbeat CPU 2 instructions: 550000002 cycles: 563554161 heartbeat IPC: 0.730253 cumulative IPC: 0.726925 (Simulation time: 2 hr 26 min 0 sec) 
Heartbeat CPU 0 instructions: 790000002 cycles: 564670447 heartbeat IPC: 1.29726 cumulative IPC: 1.28488 (Simulation time: 2 hr 26 min 17 sec) 
Heartbeat CPU 3 instructions: 880000000 cycles: 567429187 heartbeat IPC: 1.49092 cumulative IPC: 1.33302 (Simulation time: 2 hr 26 min 58 sec) 
Heartbeat CPU 0 instructions: 800000000 cycles: 572378432 heartbeat IPC: 1.29736 cumulative IPC: 1.28509 (Simulation time: 2 hr 28 min 10 sec) 
Heartbeat CPU 3 instructions: 890000003 cycles: 574096918 heartbeat IPC: 1.49976 cumulative IPC: 1.3354 (Simulation time: 2 hr 28 min 34 sec) 
Heartbeat CPU 1 instructions: 530000000 cycles: 575155689 heartbeat IPC: 0.816878 cumulative IPC: 0.683132 (Simulation time: 2 hr 28 min 50 sec) 
Heartbeat CPU 2 instructions: 560000000 cycles: 577283360 heartbeat IPC: 0.728374 cumulative IPC: 0.726967 (Simulation time: 2 hr 29 min 22 sec) 
Heartbeat CPU 0 instructions: 810000000 cycles: 580097948 heartbeat IPC: 1.29542 cumulative IPC: 1.28526 (Simulation time: 2 hr 30 min 4 sec) 
Heartbeat CPU 3 instructions: 900000000 cycles: 580751896 heartbeat IPC: 1.50263 cumulative IPC: 1.33774 (Simulation time: 2 hr 30 min 14 sec) 
Heartbeat CPU 1 instructions: 540000000 cycles: 586368575 heartbeat IPC: 0.891831 cumulative IPC: 0.687998 (Simulation time: 2 hr 31 min 37 sec) 
Heartbeat CPU 3 instructions: 910000000 cycles: 587709372 heartbeat IPC: 1.4373 cumulative IPC: 1.33918 (Simulation time: 2 hr 31 min 57 sec) 
Heartbeat CPU 0 instructions: 820000000 cycles: 587772834 heartbeat IPC: 1.30295 cumulative IPC: 1.28554 (Simulation time: 2 hr 31 min 58 sec) 
Heartbeat CPU 2 instructions: 570000001 cycles: 591020856 heartbeat IPC: 0.727935 cumulative IPC: 0.726994 (Simulation time: 2 hr 32 min 46 sec) 
Heartbeat CPU 3 instructions: 920000000 cycles: 594408424 heartbeat IPC: 1.49275 cumulative IPC: 1.34128 (Simulation time: 2 hr 33 min 37 sec) 
Heartbeat CPU 0 instructions: 830000002 cycles: 595456590 heartbeat IPC: 1.30145 cumulative IPC: 1.28579 (Simulation time: 2 hr 33 min 52 sec) 
Heartbeat CPU 1 instructions: 550000002 cycles: 597705822 heartbeat IPC: 0.882049 cumulative IPC: 0.692468 (Simulation time: 2 hr 34 min 27 sec) 
Heartbeat CPU 3 instructions: 930000000 cycles: 600835066 heartbeat IPC: 1.55602 cumulative IPC: 1.34407 (Simulation time: 2 hr 35 min 14 sec) 
Heartbeat CPU 0 instructions: 840000000 cycles: 603143562 heartbeat IPC: 1.3009 cumulative IPC: 1.28602 (Simulation time: 2 hr 35 min 49 sec) 
Heartbeat CPU 2 instructions: 580000000 cycles: 604739312 heartbeat IPC: 0.728945 cumulative IPC: 0.727048 (Simulation time: 2 hr 36 min 12 sec) 
Heartbeat CPU 3 instructions: 940000000 cycles: 607346779 heartbeat IPC: 1.53569 cumulative IPC: 1.34655 (Simulation time: 2 hr 36 min 52 sec) 
Heartbeat CPU 1 instructions: 560000000 cycles: 609069455 heartbeat IPC: 0.88 cumulative IPC: 0.6967 (Simulation time: 2 hr 37 min 18 sec) 
Heartbeat CPU 0 instructions: 850000001 cycles: 610860655 heartbeat IPC: 1.29582 cumulative IPC: 1.28617 (Simulation time: 2 hr 37 min 45 sec) 
Heartbeat CPU 3 instructions: 950000003 cycles: 613845470 heartbeat IPC: 1.53877 cumulative IPC: 1.34901 (Simulation time: 2 hr 38 min 30 sec) 
Heartbeat CPU 2 instructions: 590000002 cycles: 618442219 heartbeat IPC: 0.729772 cumulative IPC: 0.727121 (Simulation time: 2 hr 39 min 39 sec) 
Heartbeat CPU 0 instructions: 860000000 cycles: 618558067 heartbeat IPC: 1.29914 cumulative IPC: 1.28637 (Simulation time: 2 hr 39 min 41 sec) 
Heartbeat CPU 3 instructions: 960000000 cycles: 620267303 heartbeat IPC: 1.55719 cumulative IPC: 1.35161 (Simulation time: 2 hr 40 min 6 sec) 
Heartbeat CPU 1 instructions: 570000000 cycles: 620626130 heartbeat IPC: 0.865301 cumulative IPC: 0.700482 (Simulation time: 2 hr 40 min 12 sec) 
Heartbeat CPU 0 instructions: 870000001 cycles: 626273050 heartbeat IPC: 1.29618 cumulative IPC: 1.28651 (Simulation time: 2 hr 41 min 37 sec) 
Heartbeat CPU 3 instructions: 970000003 cycles: 626789696 heartbeat IPC: 1.53318 cumulative IPC: 1.35388 (Simulation time: 2 hr 41 min 45 sec) 
Heartbeat CPU 2 instructions: 600000000 cycles: 632161808 heartbeat IPC: 0.728885 cumulative IPC: 0.727167 (Simulation time: 2 hr 43 min 3 sec) 
Heartbeat CPU 1 instructions: 580000000 cycles: 632400834 heartbeat IPC: 0.849278 cumulative IPC: 0.703807 (Simulation time: 2 hr 43 min 6 sec) 
Heartbeat CPU 0 instructions: 880000000 cycles: 634024679 heartbeat IPC: 1.29005 cumulative IPC: 1.28656 (Simulation time: 2 hr 43 min 26 sec) 
Heartbeat CPU 3 instructions: 980000000 cycles: 635807121 heartbeat IPC: 1.10896 cumulative IPC: 1.34971 (Simulation time: 2 hr 43 min 51 sec) 
Heartbeat CPU 3 instructions: 990000003 cycles: 640403282 heartbeat IPC: 2.17573 cumulative IPC: 1.35681 (Simulation time: 2 hr 45 min 6 sec) 
Heartbeat CPU 0 instructions: 890000003 cycles: 641905280 heartbeat IPC: 1.26894 cumulative IPC: 1.2863 (Simulation time: 2 hr 45 min 29 sec) 
Heartbeat CPU 1 instructions: 590000003 cycles: 644263071 heartbeat IPC: 0.843012 cumulative IPC: 0.706872 (Simulation time: 2 hr 46 min 5 sec) 
Heartbeat CPU 2 instructions: 610000000 cycles: 645972281 heartbeat IPC: 0.724088 cumulative IPC: 0.727088 (Simulation time: 2 hr 46 min 31 sec) 
Heartbeat CPU 3 instructions: 1000000000 cycles: 646561069 heartbeat IPC: 1.62396 cumulative IPC: 1.35985 (Simulation time: 2 hr 46 min 39 sec) 
Heartbeat CPU 0 instructions: 900000000 cycles: 649645653 heartbeat IPC: 1.29193 cumulative IPC: 1.28638 (Simulation time: 2 hr 47 min 24 sec) 
Heartbeat CPU 3 instructions: 1010000000 cycles: 653482048 heartbeat IPC: 1.44488 cumulative IPC: 1.36093 (Simulation time: 2 hr 48 min 22 sec) 
Heartbeat CPU 1 instructions: 600000000 cycles: 655875202 heartbeat IPC: 0.861168 cumulative IPC: 0.710127 (Simulation time: 2 hr 48 min 57 sec) 
Heartbeat CPU 0 instructions: 910000002 cycles: 657337077 heartbeat IPC: 1.30015 cumulative IPC: 1.28658 (Simulation time: 2 hr 49 min 19 sec) 
Heartbeat CPU 2 instructions: 620000000 cycles: 659717843 heartbeat IPC: 0.727508 cumulative IPC: 0.727098 (Simulation time: 2 hr 49 min 55 sec) 
Heartbeat CPU 3 instructions: 1020000000 cycles: 660342778 heartbeat IPC: 1.45757 cumulative IPC: 1.36212 (Simulation time: 2 hr 50 min 4 sec) 
Heartbeat CPU 0 instructions: 920000000 cycles: 665101838 heartbeat IPC: 1.28787 cumulative IPC: 1.28659 (Simulation time: 2 hr 51 min 11 sec) 
Heartbeat CPU 3 instructions: 1030000001 cycles: 666977369 heartbeat IPC: 1.50725 cumulative IPC: 1.36383 (Simulation time: 2 hr 51 min 38 sec) 
Heartbeat CPU 1 instructions: 610000002 cycles: 669520121 heartbeat IPC: 0.732874 cumulative IPC: 0.710678 (Simulation time: 2 hr 52 min 14 sec) 
Heartbeat CPU 0 instructions: 930000000 cycles: 672846577 heartbeat IPC: 1.2912 cumulative IPC: 1.28666 (Simulation time: 2 hr 53 min 2 sec) 
Heartbeat CPU 2 instructions: 630000002 cycles: 673422057 heartbeat IPC: 0.729703 cumulative IPC: 0.727161 (Simulation time: 2 hr 53 min 11 sec) 
Heartbeat CPU 3 instructions: 1040000000 cycles: 673616146 heartbeat IPC: 1.5063 cumulative IPC: 1.3655 (Simulation time: 2 hr 53 min 14 sec) 
Heartbeat CPU 3 instructions: 1050000002 cycles: 680293345 heartbeat IPC: 1.49763 cumulative IPC: 1.36703 (Simulation time: 2 hr 54 min 50 sec) 
Heartbeat CPU 0 instructions: 940000000 cycles: 680622677 heartbeat IPC: 1.28599 cumulative IPC: 1.28665 (Simulation time: 2 hr 54 min 54 sec) 
Heartbeat CPU 1 instructions: 620000000 cycles: 683400143 heartbeat IPC: 0.72046 cumulative IPC: 0.710912 (Simulation time: 2 hr 55 min 34 sec) 
Heartbeat CPU 2 instructions: 640000000 cycles: 687079570 heartbeat IPC: 0.732198 cumulative IPC: 0.727279 (Simulation time: 2 hr 56 min 27 sec) 
Heartbeat CPU 3 instructions: 1060000000 cycles: 687126996 heartbeat IPC: 1.46335 cumulative IPC: 1.36817 (Simulation time: 2 hr 56 min 27 sec) 
Heartbeat CPU 0 instructions: 950000002 cycles: 688376014 heartbeat IPC: 1.28977 cumulative IPC: 1.28669 (Simulation time: 2 hr 56 min 46 sec) 
Heartbeat CPU 3 instructions: 1070000003 cycles: 693767155 heartbeat IPC: 1.50599 cumulative IPC: 1.36972 (Simulation time: 2 hr 58 min 3 sec) 
Heartbeat CPU 0 instructions: 960000000 cycles: 696183731 heartbeat IPC: 1.28078 cumulative IPC: 1.28661 (Simulation time: 2 hr 58 min 37 sec) 
Heartbeat CPU 1 instructions: 630000000 cycles: 697283847 heartbeat IPC: 0.720269 cumulative IPC: 0.711132 (Simulation time: 2 hr 58 min 53 sec) 
Heartbeat CPU 3 instructions: 1080000000 cycles: 700513337 heartbeat IPC: 1.48232 cumulative IPC: 1.371 (Simulation time: 2 hr 59 min 38 sec) 
Heartbeat CPU 2 instructions: 650000002 cycles: 700770592 heartbeat IPC: 0.730406 cumulative IPC: 0.727351 (Simulation time: 2 hr 59 min 42 sec) 
Heartbeat CPU 0 instructions: 970000000 cycles: 703911227 heartbeat IPC: 1.29408 cumulative IPC: 1.28671 (Simulation time: 3 hr 0 min 28 sec) 
Heartbeat CPU 3 instructions: 1090000001 cycles: 707259726 heartbeat IPC: 1.48227 cumulative IPC: 1.37225 (Simulation time: 3 hr 1 min 15 sec) 
Heartbeat CPU 1 instructions: 640000000 cycles: 711093489 heartbeat IPC: 0.724132 cumulative IPC: 0.711428 (Simulation time: 3 hr 2 min 9 sec) 
Heartbeat CPU 0 instructions: 980000000 cycles: 711690771 heartbeat IPC: 1.28542 cumulative IPC: 1.28669 (Simulation time: 3 hr 2 min 18 sec) 
Heartbeat CPU 3 instructions: 1100000000 cycles: 713870098 heartbeat IPC: 1.51277 cumulative IPC: 1.37377 (Simulation time: 3 hr 2 min 48 sec) 
Heartbeat CPU 2 instructions: 660000000 cycles: 714452264 heartbeat IPC: 0.730905 cumulative IPC: 0.727431 (Simulation time: 3 hr 2 min 56 sec) 
Heartbeat CPU 0 instructions: 990000003 cycles: 719419588 heartbeat IPC: 1.29386 cumulative IPC: 1.28678 (Simulation time: 3 hr 4 min 9 sec) 
Heartbeat CPU 3 instructions: 1110000001 cycles: 720525473 heartbeat IPC: 1.50255 cumulative IPC: 1.37517 (Simulation time: 3 hr 4 min 24 sec) 
Heartbeat CPU 1 instructions: 650000000 cycles: 724501181 heartbeat IPC: 0.745841 cumulative IPC: 0.712174 (Simulation time: 3 hr 5 min 21 sec) 
Heartbeat CPU 3 instructions: 1120000000 cycles: 727150490 heartbeat IPC: 1.50943 cumulative IPC: 1.3766 (Simulation time: 3 hr 5 min 59 sec) 
Heartbeat CPU 0 instructions: 1000000000 cycles: 727210207 heartbeat IPC: 1.28359 cumulative IPC: 1.28674 (Simulation time: 3 hr 5 min 59 sec) 
Heartbeat CPU 2 instructions: 670000001 cycles: 728166100 heartbeat IPC: 0.729191 cumulative IPC: 0.72747 (Simulation time: 3 hr 6 min 13 sec) 
Heartbeat CPU 3 instructions: 1130000000 cycles: 733708812 heartbeat IPC: 1.52478 cumulative IPC: 1.37814 (Simulation time: 3 hr 7 min 34 sec) 
Heartbeat CPU 0 instructions: 1010000000 cycles: 734969735 heartbeat IPC: 1.28874 cumulative IPC: 1.28677 (Simulation time: 3 hr 7 min 51 sec) 
Heartbeat CPU 1 instructions: 660000000 cycles: 737701605 heartbeat IPC: 0.757551 cumulative IPC: 0.713121 (Simulation time: 3 hr 8 min 30 sec) 
Heartbeat CPU 3 instructions: 1140000000 cycles: 740353191 heartbeat IPC: 1.50503 cumulative IPC: 1.37947 (Simulation time: 3 hr 9 min 8 sec) 
Heartbeat CPU 2 instructions: 680000000 cycles: 741871212 heartbeat IPC: 0.729655 cumulative IPC: 0.727517 (Simulation time: 3 hr 9 min 30 sec) 
Heartbeat CPU 0 instructions: 1020000000 cycles: 742732948 heartbeat IPC: 1.28813 cumulative IPC: 1.28678 (Simulation time: 3 hr 9 min 42 sec) 
Heartbeat CPU 3 instructions: 1150000002 cycles: 747014843 heartbeat IPC: 1.50113 cumulative IPC: 1.38074 (Simulation time: 3 hr 10 min 45 sec) 
Heartbeat CPU 0 instructions: 1030000002 cycles: 750494159 heartbeat IPC: 1.28846 cumulative IPC: 1.2868 (Simulation time: 3 hr 11 min 34 sec) 
Heartbeat CPU 1 instructions: 670000000 cycles: 750978440 heartbeat IPC: 0.753192 cumulative IPC: 0.713945 (Simulation time: 3 hr 11 min 41 sec) 
Heartbeat CPU 3 instructions: 1160000000 cycles: 753731136 heartbeat IPC: 1.48892 cumulative IPC: 1.38186 (Simulation time: 3 hr 12 min 20 sec) 
Heartbeat CPU 2 instructions: 690000000 cycles: 755587631 heartbeat IPC: 0.729053 cumulative IPC: 0.727549 (Simulation time: 3 hr 12 min 45 sec) 
Heartbeat CPU 0 instructions: 1040000000 cycles: 758346901 heartbeat IPC: 1.27344 cumulative IPC: 1.28664 (Simulation time: 3 hr 13 min 19 sec) 
Heartbeat CPU 3 instructions: 1170000000 cycles: 761581036 heartbeat IPC: 1.2739 cumulative IPC: 1.38056 (Simulation time: 3 hr 14 min 11 sec) 
Heartbeat CPU 1 instructions: 680000000 cycles: 763914952 heartbeat IPC: 0.773006 cumulative IPC: 0.715106 (Simulation time: 3 hr 14 min 48 sec) 
Heartbeat CPU 0 instructions: 1050000002 cycles: 766221192 heartbeat IPC: 1.26996 cumulative IPC: 1.28644 (Simulation time: 3 hr 15 min 24 sec) 
Heartbeat CPU 3 instructions: 1180000000 cycles: 766626904 heartbeat IPC: 1.98182 cumulative IPC: 1.38515 (Simulation time: 3 hr 15 min 30 sec) 
Heartbeat CPU 2 instructions: 700000000 cycles: 769327439 heartbeat IPC: 0.727812 cumulative IPC: 0.727555 (Simulation time: 3 hr 16 min 10 sec) 
Heartbeat CPU 3 instructions: 1190000002 cycles: 773594143 heartbeat IPC: 1.43529 cumulative IPC: 1.38568 (Simulation time: 3 hr 17 min 12 sec) 
Heartbeat CPU 0 instructions: 1060000000 cycles: 773984263 heartbeat IPC: 1.28815 cumulative IPC: 1.28646 (Simulation time: 3 hr 17 min 17 sec) 
Heartbeat CPU 1 instructions: 690000002 cycles: 776309313 heartbeat IPC: 0.806819 cumulative IPC: 0.7168 (Simulation time: 3 hr 17 min 50 sec) 
Heartbeat CPU 3 instructions: 1200000000 cycles: 780856445 heartbeat IPC: 1.37697 cumulative IPC: 1.38558 (Simulation time: 3 hr 18 min 54 sec) 
Heartbeat CPU 0 instructions: 1070000000 cycles: 781765104 heartbeat IPC: 1.28521 cumulative IPC: 1.28645 (Simulation time: 3 hr 19 min 7 sec) 
Heartbeat CPU 2 instructions: 710000000 cycles: 783009908 heartbeat IPC: 0.730862 cumulative IPC: 0.727622 (Simulation time: 3 hr 19 min 24 sec) 
Heartbeat CPU 3 instructions: 1210000000 cycles: 788103225 heartbeat IPC: 1.37992 cumulative IPC: 1.38552 (Simulation time: 3 hr 20 min 38 sec) 
Heartbeat CPU 0 instructions: 1080000000 cycles: 789518177 heartbeat IPC: 1.28981 cumulative IPC: 1.28649 (Simulation time: 3 hr 20 min 58 sec) 
Heartbeat CPU 1 instructions: 700000000 cycles: 789607569 heartbeat IPC: 0.751978 cumulative IPC: 0.717484 (Simulation time: 3 hr 21 min 0 sec) 
Heartbeat CPU 3 instructions: 1220000000 cycles: 795325346 heartbeat IPC: 1.38463 cumulative IPC: 1.38551 (Simulation time: 3 hr 22 min 20 sec) 
Heartbeat CPU 2 instructions: 720000000 cycles: 796708625 heartbeat IPC: 0.729995 cumulative IPC: 0.727669 (Simulation time: 3 hr 22 min 40 sec) 
Heartbeat CPU 0 instructions: 1090000000 cycles: 797267695 heartbeat IPC: 1.2904 cumulative IPC: 1.28653 (Simulation time: 3 hr 22 min 48 sec) 
Heartbeat CPU 1 instructions: 710000001 cycles: 802495668 heartbeat IPC: 0.77591 cumulative IPC: 0.718564 (Simulation time: 3 hr 24 min 5 sec) 
Heartbeat CPU 3 instructions: 1230000002 cycles: 802562938 heartbeat IPC: 1.38168 cumulative IPC: 1.38547 (Simulation time: 3 hr 24 min 6 sec) 
Heartbeat CPU 0 instructions: 1100000000 cycles: 804967031 heartbeat IPC: 1.29881 cumulative IPC: 1.28667 (Simulation time: 3 hr 24 min 42 sec) 
Heartbeat CPU 3 instructions: 1240000000 cycles: 809831197 heartbeat IPC: 1.37585 cumulative IPC: 1.38537 (Simulation time: 3 hr 25 min 54 sec) 
Heartbeat CPU 2 instructions: 730000001 cycles: 810404247 heartbeat IPC: 0.73016 cumulative IPC: 0.727717 (Simulation time: 3 hr 26 min 3 sec) 
Heartbeat CPU 0 instructions: 1110000000 cycles: 812664792 heartbeat IPC: 1.29908 cumulative IPC: 1.2868 (Simulation time: 3 hr 26 min 36 sec) 
Heartbeat CPU 1 instructions: 720000000 cycles: 813968653 heartbeat IPC: 0.871613 cumulative IPC: 0.721043 (Simulation time: 3 hr 26 min 55 sec) 
Heartbeat CPU 3 instructions: 1250000000 cycles: 817084214 heartbeat IPC: 1.37874 cumulative IPC: 1.38531 (Simulation time: 3 hr 27 min 41 sec) 
Heartbeat CPU 0 instructions: 1120000000 cycles: 820387117 heartbeat IPC: 1.29495 cumulative IPC: 1.28689 (Simulation time: 3 hr 28 min 30 sec) 
Heartbeat CPU 2 instructions: 740000000 cycles: 824116888 heartbeat IPC: 0.729254 cumulative IPC: 0.727746 (Simulation time: 3 hr 29 min 25 sec) 
Heartbeat CPU 3 instructions: 1260000000 cycles: 824318119 heartbeat IPC: 1.38238 cumulative IPC: 1.38528 (Simulation time: 3 hr 29 min 28 sec) 
Heartbeat CPU 1 instructions: 730000002 cycles: 825323194 heartbeat IPC: 0.880705 cumulative IPC: 0.723561 (Simulation time: 3 hr 29 min 43 sec) 
Finished CPU 3 instructions: 1000000002 cycles: 722158685 cumulative IPC: 1.38474 (Simulation time: 3 hr 30 min 17 sec) 
Heartbeat CPU 0 instructions: 1130000000 cycles: 828163954 heartbeat IPC: 1.28587 cumulative IPC: 1.28688 (Simulation time: 3 hr 30 min 23 sec) 
Heartbeat CPU 3 instructions: 1270000002 cycles: 833231415 heartbeat IPC: 1.12192 cumulative IPC: 1.38205 (Simulation time: 3 hr 31 min 33 sec) 
Heartbeat CPU 0 instructions: 1140000000 cycles: 836006839 heartbeat IPC: 1.27504 cumulative IPC: 1.28675 (Simulation time: 3 hr 32 min 19 sec) 
Heartbeat CPU 1 instructions: 740000000 cycles: 837289081 heartbeat IPC: 0.835709 cumulative IPC: 0.725395 (Simulation time: 3 hr 32 min 40 sec) 
Heartbeat CPU 3 instructions: 1280000000 cycles: 837777320 heartbeat IPC: 2.19978 cumulative IPC: 1.38713 (Simulation time: 3 hr 32 min 47 sec) 
Heartbeat CPU 2 instructions: 750000003 cycles: 837945370 heartbeat IPC: 0.723145 cumulative IPC: 0.72766 (Simulation time: 3 hr 32 min 49 sec) 
Heartbeat CPU 0 instructions: 1150000001 cycles: 843780061 heartbeat IPC: 1.28647 cumulative IPC: 1.28675 (Simulation time: 3 hr 34 min 15 sec) 
Heartbeat CPU 3 instructions: 1290000001 cycles: 844534075 heartbeat IPC: 1.48 cumulative IPC: 1.38798 (Simulation time: 3 hr 34 min 26 sec) 
Heartbeat CPU 1 instructions: 750000003 cycles: 849080608 heartbeat IPC: 0.848067 cumulative IPC: 0.72734 (Simulation time: 3 hr 35 min 33 sec) 
Heartbeat CPU 0 instructions: 1160000000 cycles: 851503416 heartbeat IPC: 1.29477 cumulative IPC: 1.28683 (Simulation time: 3 hr 36 min 9 sec) 
Heartbeat CPU 2 instructions: 760000000 cycles: 851672004 heartbeat IPC: 0.72851 cumulative IPC: 0.727675 (Simulation time: 3 hr 36 min 12 sec) 
Heartbeat CPU 3 instructions: 1300000000 cycles: 851776679 heartbeat IPC: 1.38072 cumulative IPC: 1.38791 (Simulation time: 3 hr 36 min 13 sec) 
Heartbeat CPU 3 instructions: 1310000003 cycles: 859056868 heartbeat IPC: 1.37359 cumulative IPC: 1.38777 (Simulation time: 3 hr 38 min 1 sec) 
Heartbeat CPU 0 instructions: 1170000000 cycles: 859212666 heartbeat IPC: 1.29714 cumulative IPC: 1.28694 (Simulation time: 3 hr 38 min 3 sec) 
Heartbeat CPU 1 instructions: 760000000 cycles: 860640691 heartbeat IPC: 0.865045 cumulative IPC: 0.729448 (Simulation time: 3 hr 38 min 24 sec) 
Heartbeat CPU 2 instructions: 770000002 cycles: 865374127 heartbeat IPC: 0.729814 cumulative IPC: 0.727714 (Simulation time: 3 hr 39 min 34 sec) 
Heartbeat CPU 3 instructions: 1320000000 cycles: 866294728 heartbeat IPC: 1.38162 cumulative IPC: 1.38771 (Simulation time: 3 hr 39 min 48 sec) 
Heartbeat CPU 0 instructions: 1180000000 cycles: 866919216 heartbeat IPC: 1.2976 cumulative IPC: 1.28704 (Simulation time: 3 hr 39 min 57 sec) 
Heartbeat CPU 1 instructions: 770000001 cycles: 872157636 heartbeat IPC: 0.868286 cumulative IPC: 0.731534 (Simulation time: 3 hr 41 min 14 sec) 
Heartbeat CPU 3 instructions: 1330000003 cycles: 873597773 heartbeat IPC: 1.36929 cumulative IPC: 1.38753 (Simulation time: 3 hr 41 min 36 sec) 
Heartbeat CPU 0 instructions: 1190000003 cycles: 874623688 heartbeat IPC: 1.29795 cumulative IPC: 1.28715 (Simulation time: 3 hr 41 min 51 sec) 
Heartbeat CPU 2 instructions: 780000000 cycles: 879086961 heartbeat IPC: 0.729244 cumulative IPC: 0.727741 (Simulation time: 3 hr 42 min 57 sec) 
Heartbeat CPU 3 instructions: 1340000000 cycles: 880861901 heartbeat IPC: 1.37663 cumulative IPC: 1.38743 (Simulation time: 3 hr 43 min 23 sec) 
Heartbeat CPU 0 instructions: 1200000000 cycles: 882349150 heartbeat IPC: 1.29442 cumulative IPC: 1.28723 (Simulation time: 3 hr 43 min 45 sec) 
Finished CPU 0 instructions: 1000000000 cycles: 776864316 cumulative IPC: 1.28723 (Simulation time: 3 hr 43 min 45 sec) 
Heartbeat CPU 1 instructions: 780000000 cycles: 883543614 heartbeat IPC: 0.878273 cumulative IPC: 0.733681 (Simulation time: 3 hr 44 min 3 sec) 
Heartbeat CPU 3 instructions: 1350000002 cycles: 888102847 heartbeat IPC: 1.38104 cumulative IPC: 1.38737 (Simulation time: 3 hr 45 min 11 sec) 
Heartbeat CPU 0 instructions: 1210000001 cycles: 890053404 heartbeat IPC: 1.29798 cumulative IPC: 1.28733 (Simulation time: 3 hr 45 min 40 sec) 
Heartbeat CPU 2 instructions: 790000001 cycles: 892842541 heartbeat IPC: 0.726978 cumulative IPC: 0.727728 (Simulation time: 3 hr 46 min 21 sec) 
Heartbeat CPU 1 instructions: 790000001 cycles: 895065545 heartbeat IPC: 0.86791 cumulative IPC: 0.73564 (Simulation time: 3 hr 46 min 54 sec) 
Heartbeat CPU 3 instructions: 1360000000 cycles: 895397316 heartbeat IPC: 1.3709 cumulative IPC: 1.38722 (Simulation time: 3 hr 46 min 59 sec) 
Heartbeat CPU 0 instructions: 1220000000 cycles: 897778910 heartbeat IPC: 1.29441 cumulative IPC: 1.2874 (Simulation time: 3 hr 47 min 34 sec) 
Heartbeat CPU 3 instructions: 1370000000 cycles: 904690583 heartbeat IPC: 1.07605 cumulative IPC: 1.3836 (Simulation time: 3 hr 49 min 9 sec) 
Heartbeat CPU 0 instructions: 1230000002 cycles: 905662861 heartbeat IPC: 1.2684 cumulative IPC: 1.28721 (Simulation time: 3 hr 49 min 25 sec) 
Heartbeat CPU 2 instructions: 800000000 cycles: 906585554 heartbeat IPC: 0.727642 cumulative IPC: 0.727726 (Simulation time: 3 hr 49 min 40 sec) 
Heartbeat CPU 1 instructions: 800000000 cycles: 907186614 heartbeat IPC: 0.82501 cumulative IPC: 0.736991 (Simulation time: 3 hr 49 min 49 sec) 
Heartbeat CPU 3 instructions: 1380000000 cycles: 909122596 heartbeat IPC: 2.25631 cumulative IPC: 1.38842 (Simulation time: 3 hr 50 min 22 sec) 
Heartbeat CPU 0 instructions: 1240000000 cycles: 913532085 heartbeat IPC: 1.27077 cumulative IPC: 1.28705 (Simulation time: 3 hr 51 min 28 sec) 
Heartbeat CPU 3 instructions: 1390000001 cycles: 915481351 heartbeat IPC: 1.57264 cumulative IPC: 1.38986 (Simulation time: 3 hr 51 min 57 sec) 
Heartbeat CPU 1 instructions: 810000001 cycles: 918923131 heartbeat IPC: 0.852042 cumulative IPC: 0.738651 (Simulation time: 3 hr 52 min 47 sec) 
Heartbeat CPU 2 instructions: 810000001 cycles: 920337796 heartbeat IPC: 0.727154 cumulative IPC: 0.727716 (Simulation time: 3 hr 53 min 8 sec) 
Heartbeat CPU 0 instructions: 1250000000 cycles: 921228606 heartbeat IPC: 1.29929 cumulative IPC: 1.28717 (Simulation time: 3 hr 53 min 21 sec) 
Heartbeat CPU 3 instructions: 1400000000 cycles: 922528603 heartbeat IPC: 1.41899 cumulative IPC: 1.39011 (Simulation time: 3 hr 53 min 41 sec) 
Heartbeat CPU 0 instructions: 1260000000 cycles: 928922822 heartbeat IPC: 1.29968 cumulative IPC: 1.28729 (Simulation time: 3 hr 55 min 14 sec) 
Heartbeat CPU 3 instructions: 1410000000 cycles: 929784050 heartbeat IPC: 1.37827 cumulative IPC: 1.39001 (Simulation time: 3 hr 55 min 27 sec) 
Heartbeat CPU 1 instructions: 820000000 cycles: 930126462 heartbeat IPC: 0.892592 cumulative IPC: 0.740743 (Simulation time: 3 hr 55 min 32 sec) 
Heartbeat CPU 2 instructions: 820000000 cycles: 934102797 heartbeat IPC: 0.72648 cumulative IPC: 0.727696 (Simulation time: 3 hr 56 min 30 sec) 
Heartbeat CPU 0 instructions: 1270000002 cycles: 936602634 heartbeat IPC: 1.30212 cumulative IPC: 1.28742 (Simulation time: 3 hr 57 min 7 sec) 
Heartbeat CPU 3 instructions: 1420000000 cycles: 937134194 heartbeat IPC: 1.36052 cumulative IPC: 1.38975 (Simulation time: 3 hr 57 min 14 sec) 
Heartbeat CPU 1 instructions: 830000001 cycles: 941444867 heartbeat IPC: 0.883517 cumulative IPC: 0.742676 (Simulation time: 3 hr 58 min 18 sec) 
Heartbeat CPU 0 instructions: 1280000000 cycles: 944283222 heartbeat IPC: 1.30198 cumulative IPC: 1.28756 (Simulation time: 3 hr 58 min 59 sec) 
Heartbeat CPU 3 instructions: 1430000003 cycles: 944596460 heartbeat IPC: 1.34008 cumulative IPC: 1.38931 (Simulation time: 3 hr 59 min 3 sec) 
Heartbeat CPU 2 instructions: 830000000 cycles: 947834313 heartbeat IPC: 0.728252 cumulative IPC: 0.727705 (Simulation time: 3 hr 59 min 51 sec) 
Heartbeat CPU 0 instructions: 1290000001 cycles: 951952486 heartbeat IPC: 1.30391 cumulative IPC: 1.2877 (Simulation time: 4 hr 0 min 51 sec) 
Heartbeat CPU 3 instructions: 1440000000 cycles: 952053045 heartbeat IPC: 1.3411 cumulative IPC: 1.38888 (Simulation time: 4 hr 0 min 53 sec) 
Heartbeat CPU 1 instructions: 840000000 cycles: 952772624 heartbeat IPC: 0.882787 cumulative IPC: 0.744549 (Simulation time: 4 hr 1 min 3 sec) 
Heartbeat CPU 3 instructions: 1450000001 cycles: 959607952 heartbeat IPC: 1.32364 cumulative IPC: 1.3883 (Simulation time: 4 hr 2 min 43 sec) 
Heartbeat CPU 0 instructions: 1300000000 cycles: 959636709 heartbeat IPC: 1.30137 cumulative IPC: 1.28783 (Simulation time: 4 hr 2 min 43 sec) 
Heartbeat CPU 2 instructions: 840000000 cycles: 961609287 heartbeat IPC: 0.725954 cumulative IPC: 0.727677 (Simulation time: 4 hr 3 min 13 sec) 
Heartbeat CPU 1 instructions: 850000000 cycles: 964158546 heartbeat IPC: 0.878278 cumulative IPC: 0.746322 (Simulation time: 4 hr 3 min 49 sec) 
Heartbeat CPU 3 instructions: 1460000000 cycles: 967269124 heartbeat IPC: 1.30528 cumulative IPC: 1.38757 (Simulation time: 4 hr 4 min 35 sec) 
Heartbeat CPU 0 instructions: 1310000000 cycles: 967313769 heartbeat IPC: 1.30258 cumulative IPC: 1.28796 (Simulation time: 4 hr 4 min 35 sec) 
Heartbeat CPU 3 instructions: 1470000000 cycles: 974978700 heartbeat IPC: 1.29709 cumulative IPC: 1.38676 (Simulation time: 4 hr 6 min 26 sec) 
Heartbeat CPU 0 instructions: 1320000000 cycles: 974994952 heartbeat IPC: 1.30188 cumulative IPC: 1.28808 (Simulation time: 4 hr 6 min 26 sec) 
Heartbeat CPU 2 instructions: 850000002 cycles: 975342748 heartbeat IPC: 0.728149 cumulative IPC: 0.727684 (Simulation time: 4 hr 6 min 32 sec) 
Heartbeat CPU 1 instructions: 860000000 cycles: 975499694 heartbeat IPC: 0.881745 cumulative IPC: 0.748087 (Simulation time: 4 hr 6 min 34 sec) 
Heartbeat CPU 0 instructions: 1330000000 cycles: 982667306 heartbeat IPC: 1.30338 cumulative IPC: 1.28822 (Simulation time: 4 hr 8 min 18 sec) 
Heartbeat CPU 3 instructions: 1480000000 cycles: 982689833 heartbeat IPC: 1.29683 cumulative IPC: 1.38597 (Simulation time: 4 hr 8 min 18 sec) 
Heartbeat CPU 1 instructions: 870000002 cycles: 986640741 heartbeat IPC: 0.897582 cumulative IPC: 0.749978 (Simulation time: 4 hr 9 min 15 sec) 
Heartbeat CPU 2 instructions: 860000000 cycles: 989102533 heartbeat IPC: 0.726755 cumulative IPC: 0.72767 (Simulation time: 4 hr 9 min 51 sec) 
Heartbeat CPU 0 instructions: 1340000000 cycles: 990345033 heartbeat IPC: 1.30247 cumulative IPC: 1.28834 (Simulation time: 4 hr 10 min 9 sec) 
Heartbeat CPU 3 instructions: 1490000000 cycles: 990389988 heartbeat IPC: 1.29868 cumulative IPC: 1.38521 (Simulation time: 4 hr 10 min 9 sec) 
Heartbeat CPU 1 instructions: 880000000 cycles: 997956195 heartbeat IPC: 0.883747 cumulative IPC: 0.751674 (Simulation time: 4 hr 11 min 59 sec) 
Heartbeat CPU 0 instructions: 1350000002 cycles: 998025317 heartbeat IPC: 1.30204 cumulative IPC: 1.28846 (Simulation time: 4 hr 12 min 0 sec) 
Heartbeat CPU 3 instructions: 1500000000 cycles: 998096540 heartbeat IPC: 1.2976 cumulative IPC: 1.38446 (Simulation time: 4 hr 12 min 1 sec) 
Heartbeat CPU 2 instructions: 870000001 cycles: 1002853026 heartbeat IPC: 0.727247 cumulative IPC: 0.727663 (Simulation time: 4 hr 13 min 10 sec) 
Heartbeat CPU 0 instructions: 1360000000 cycles: 1005708664 heartbeat IPC: 1.30152 cumulative IPC: 1.28857 (Simulation time: 4 hr 13 min 51 sec) 
Heartbeat CPU 3 instructions: 1510000003 cycles: 1005825688 heartbeat IPC: 1.2938 cumulative IPC: 1.38368 (Simulation time: 4 hr 13 min 53 sec) 
Heartbeat CPU 1 instructions: 890000001 cycles: 1009267351 heartbeat IPC: 0.884083 cumulative IPC: 0.753331 (Simulation time: 4 hr 14 min 44 sec) 
Heartbeat CPU 0 instructions: 1370000003 cycles: 1013404754 heartbeat IPC: 1.29936 cumulative IPC: 1.28866 (Simulation time: 4 hr 15 min 42 sec) 
Heartbeat CPU 3 instructions: 1520000000 cycles: 1013511234 heartbeat IPC: 1.30114 cumulative IPC: 1.38298 (Simulation time: 4 hr 15 min 44 sec) 
Heartbeat CPU 2 instructions: 880000000 cycles: 1016576871 heartbeat IPC: 0.728659 cumulative IPC: 0.727678 (Simulation time: 4 hr 16 min 28 sec) 
Heartbeat CPU 3 instructions: 1530000002 cycles: 1021004278 heartbeat IPC: 1.33457 cumulative IPC: 1.38258 (Simulation time: 4 hr 17 min 32 sec) 
Heartbeat CPU 1 instructions: 900000000 cycles: 1021080288 heartbeat IPC: 0.846529 cumulative IPC: 0.754533 (Simulation time: 4 hr 17 min 33 sec) 
Heartbeat CPU 0 instructions: 1380000000 cycles: 1021098823 heartbeat IPC: 1.2997 cumulative IPC: 1.28875 (Simulation time: 4 hr 17 min 34 sec) 
Heartbeat CPU 3 instructions: 1540000000 cycles: 1028497102 heartbeat IPC: 1.33461 cumulative IPC: 1.3822 (Simulation time: 4 hr 19 min 22 sec) 
Heartbeat CPU 0 instructions: 1390000003 cycles: 1028761915 heartbeat IPC: 1.30496 cumulative IPC: 1.28889 (Simulation time: 4 hr 19 min 26 sec) 
Heartbeat CPU 2 instructions: 890000000 cycles: 1030281813 heartbeat IPC: 0.729664 cumulative IPC: 0.727708 (Simulation time: 4 hr 19 min 48 sec) 
Heartbeat CPU 1 instructions: 910000003 cycles: 1032151964 heartbeat IPC: 0.903206 cumulative IPC: 0.75631 (Simulation time: 4 hr 20 min 16 sec) 
Heartbeat CPU 3 instructions: 1550000000 cycles: 1035993672 heartbeat IPC: 1.33394 cumulative IPC: 1.38181 (Simulation time: 4 hr 21 min 10 sec) 
Heartbeat CPU 0 instructions: 1400000000 cycles: 1036466305 heartbeat IPC: 1.29796 cumulative IPC: 1.28896 (Simulation time: 4 hr 21 min 17 sec) 
Heartbeat CPU 3 instructions: 1560000000 cycles: 1043287616 heartbeat IPC: 1.371 cumulative IPC: 1.38172 (Simulation time: 4 hr 22 min 58 sec) 
Heartbeat CPU 1 instructions: 920000000 cycles: 1043753201 heartbeat IPC: 0.861977 cumulative IPC: 0.757616 (Simulation time: 4 hr 23 min 5 sec) 
Heartbeat CPU 2 instructions: 900000000 cycles: 1043981419 heartbeat IPC: 0.729948 cumulative IPC: 0.72774 (Simulation time: 4 hr 23 min 8 sec) 
Heartbeat CPU 0 instructions: 1410000001 cycles: 1044147260 heartbeat IPC: 1.30192 cumulative IPC: 1.28907 (Simulation time: 4 hr 23 min 11 sec) 
Heartbeat CPU 3 instructions: 1570000003 cycles: 1050128539 heartbeat IPC: 1.46179 cumulative IPC: 1.3823 (Simulation time: 4 hr 24 min 40 sec) 
Heartbeat CPU 0 instructions: 1420000000 cycles: 1051848057 heartbeat IPC: 1.29857 cumulative IPC: 1.28915 (Simulation time: 4 hr 25 min 5 sec) 
Heartbeat CPU 1 instructions: 930000000 cycles: 1055028602 heartbeat IPC: 0.886886 cumulative IPC: 0.759151 (Simulation time: 4 hr 25 min 52 sec) 
Heartbeat CPU 3 instructions: 1580000000 cycles: 1057353159 heartbeat IPC: 1.38416 cumulative IPC: 1.38232 (Simulation time: 4 hr 26 min 26 sec) 
Heartbeat CPU 2 instructions: 910000001 cycles: 1057708584 heartbeat IPC: 0.728483 cumulative IPC: 0.727751 (Simulation time: 4 hr 26 min 32 sec) 
Heartbeat CPU 0 instructions: 1430000002 cycles: 1059511720 heartbeat IPC: 1.30486 cumulative IPC: 1.28927 (Simulation time: 4 hr 26 min 58 sec) 
Heartbeat CPU 3 instructions: 1590000001 cycles: 1064652444 heartbeat IPC: 1.37 cumulative IPC: 1.38222 (Simulation time: 4 hr 28 min 13 sec) 
Heartbeat CPU 1 instructions: 940000000 cycles: 1067108696 heartbeat IPC: 0.827808 cumulative IPC: 0.760014 (Simulation time: 4 hr 28 min 47 sec) 
Heartbeat CPU 0 instructions: 1440000000 cycles: 1067249699 heartbeat IPC: 1.29233 cumulative IPC: 1.2893 (Simulation time: 4 hr 28 min 49 sec) 
Heartbeat CPU 2 instructions: 920000000 cycles: 1071396550 heartbeat IPC: 0.730569 cumulative IPC: 0.727791 (Simulation time: 4 hr 29 min 49 sec) 
Heartbeat CPU 3 instructions: 1600000000 cycles: 1072006197 heartbeat IPC: 1.35985 cumulative IPC: 1.38205 (Simulation time: 4 hr 29 min 58 sec) 
Heartbeat CPU 0 instructions: 1450000001 cycles: 1074970114 heartbeat IPC: 1.29527 cumulative IPC: 1.28934 (Simulation time: 4 hr 30 min 41 sec) 
Heartbeat CPU 1 instructions: 950000000 cycles: 1078766344 heartbeat IPC: 0.857806 cumulative IPC: 0.761185 (Simulation time: 4 hr 31 min 37 sec) 
Heartbeat CPU 3 instructions: 1610000003 cycles: 1079244865 heartbeat IPC: 1.38147 cumulative IPC: 1.38205 (Simulation time: 4 hr 31 min 44 sec) 
Heartbeat CPU 0 instructions: 1460000000 cycles: 1082632353 heartbeat IPC: 1.3051 cumulative IPC: 1.28947 (Simulation time: 4 hr 32 min 33 sec) 
Heartbeat CPU 2 instructions: 930000001 cycles: 1085103394 heartbeat IPC: 0.729563 cumulative IPC: 0.727816 (Simulation time: 4 hr 33 min 10 sec) 
Heartbeat CPU 3 instructions: 1620000000 cycles: 1086559768 heartbeat IPC: 1.36707 cumulative IPC: 1.38194 (Simulation time: 4 hr 33 min 32 sec) 
Heartbeat CPU 1 instructions: 960000000 cycles: 1089842514 heartbeat IPC: 0.902839 cumulative IPC: 0.762779 (Simulation time: 4 hr 34 min 20 sec) 
Heartbeat CPU 0 instructions: 1470000003 cycles: 1090307368 heartbeat IPC: 1.30293 cumulative IPC: 1.28957 (Simulation time: 4 hr 34 min 27 sec) 
Heartbeat CPU 3 instructions: 1630000002 cycles: 1094061651 heartbeat IPC: 1.333 cumulative IPC: 1.38157 (Simulation time: 4 hr 35 min 21 sec) 
Heartbeat CPU 0 instructions: 1480000000 cycles: 1097969489 heartbeat IPC: 1.30512 cumulative IPC: 1.28969 (Simulation time: 4 hr 36 min 18 sec) 
Heartbeat CPU 2 instructions: 940000000 cycles: 1098885803 heartbeat IPC: 0.725563 cumulative IPC: 0.727785 (Simulation time: 4 hr 36 min 31 sec) 
Heartbeat CPU 1 instructions: 970000000 cycles: 1101058834 heartbeat IPC: 0.891558 cumulative IPC: 0.76423 (Simulation time: 4 hr 37 min 3 sec) 
Heartbeat CPU 3 instructions: 1640000000 cycles: 1101506357 heartbeat IPC: 1.34324 cumulative IPC: 1.38128 (Simulation time: 4 hr 37 min 10 sec) 
Heartbeat CPU 0 instructions: 1490000002 cycles: 1105659405 heartbeat IPC: 1.3004 cumulative IPC: 1.28977 (Simulation time: 4 hr 38 min 10 sec) 
Heartbeat CPU 3 instructions: 1650000002 cycles: 1108898314 heartbeat IPC: 1.35282 cumulative IPC: 1.38107 (Simulation time: 4 hr 38 min 57 sec) 
Heartbeat CPU 2 instructions: 950000001 cycles: 1112700192 heartbeat IPC: 0.723883 cumulative IPC: 0.727731 (Simulation time: 4 hr 39 min 50 sec) 
Heartbeat CPU 1 instructions: 980000000 cycles: 1112991856 heartbeat IPC: 0.838011 cumulative IPC: 0.765104 (Simulation time: 4 hr 39 min 54 sec) 
Heartbeat CPU 0 instructions: 1500000000 cycles: 1113377254 heartbeat IPC: 1.2957 cumulative IPC: 1.28982 (Simulation time: 4 hr 39 min 59 sec) 
Heartbeat CPU 3 instructions: 1660000000 cycles: 1116300738 heartbeat IPC: 1.35091 cumulative IPC: 1.38085 (Simulation time: 4 hr 40 min 41 sec) 
Heartbeat CPU 0 instructions: 1510000000 cycles: 1121141458 heartbeat IPC: 1.28796 cumulative IPC: 1.28981 (Simulation time: 4 hr 41 min 49 sec) 
Heartbeat CPU 3 instructions: 1670000001 cycles: 1123723999 heartbeat IPC: 1.34712 cumulative IPC: 1.3806 (Simulation time: 4 hr 42 min 27 sec) 
Heartbeat CPU 1 instructions: 990000001 cycles: 1125311255 heartbeat IPC: 0.811728 cumulative IPC: 0.765667 (Simulation time: 4 hr 42 min 50 sec) 
Heartbeat CPU 2 instructions: 960000000 cycles: 1126479270 heartbeat IPC: 0.725738 cumulative IPC: 0.727704 (Simulation time: 4 hr 43 min 7 sec) 
Heartbeat CPU 0 instructions: 1520000000 cycles: 1128808228 heartbeat IPC: 1.30433 cumulative IPC: 1.28991 (Simulation time: 4 hr 43 min 41 sec) 
Heartbeat CPU 3 instructions: 1680000000 cycles: 1131187267 heartbeat IPC: 1.3399 cumulative IPC: 1.38031 (Simulation time: 4 hr 44 min 15 sec) 
Heartbeat CPU 0 instructions: 1530000000 cycles: 1136495867 heartbeat IPC: 1.30079 cumulative IPC: 1.29 (Simulation time: 4 hr 45 min 32 sec) 
Heartbeat CPU 1 instructions: 1000000000 cycles: 1136623916 heartbeat IPC: 0.883965 cumulative IPC: 0.766965 (Simulation time: 4 hr 45 min 34 sec) 
Heartbeat CPU 3 instructions: 1690000003 cycles: 1138633598 heartbeat IPC: 1.34294 cumulative IPC: 1.38004 (Simulation time: 4 hr 46 min 4 sec) 
Heartbeat CPU 2 instructions: 970000003 cycles: 1140207232 heartbeat IPC: 0.72844 cumulative IPC: 0.727714 (Simulation time: 4 hr 46 min 26 sec) 
Heartbeat CPU 0 instructions: 1540000000 cycles: 1144162245 heartbeat IPC: 1.3044 cumulative IPC: 1.2901 (Simulation time: 4 hr 47 min 24 sec) 
Heartbeat CPU 3 instructions: 1700000000 cycles: 1146077086 heartbeat IPC: 1.34346 cumulative IPC: 1.37978 (Simulation time: 4 hr 47 min 51 sec) 
Heartbeat CPU 1 instructions: 1010000000 cycles: 1147901114 heartbeat IPC: 0.886745 cumulative IPC: 0.76826 (Simulation time: 4 hr 48 min 18 sec) 
Heartbeat CPU 0 instructions: 1550000002 cycles: 1151841319 heartbeat IPC: 1.30224 cumulative IPC: 1.29019 (Simulation time: 4 hr 49 min 16 sec) 
Heartbeat CPU 3 instructions: 1710000002 cycles: 1153518378 heartbeat IPC: 1.34385 cumulative IPC: 1.37952 (Simulation time: 4 hr 49 min 40 sec) 
Heartbeat CPU 2 instructions: 980000000 cycles: 1153909215 heartbeat IPC: 0.729821 cumulative IPC: 0.727741 (Simulation time: 4 hr 49 min 46 sec) 
Heartbeat CPU 1 instructions: 1020000000 cycles: 1159139044 heartbeat IPC: 0.889844 cumulative IPC: 0.769557 (Simulation time: 4 hr 51 min 3 sec) 
Heartbeat CPU 0 instructions: 1560000000 cycles: 1159504498 heartbeat IPC: 1.30494 cumulative IPC: 1.2903 (Simulation time: 4 hr 51 min 8 sec) 
Heartbeat CPU 3 instructions: 1720000000 cycles: 1160934145 heartbeat IPC: 1.34848 cumulative IPC: 1.3793 (Simulation time: 4 hr 51 min 28 sec) 
Heartbeat CPU 0 instructions: 1570000002 cycles: 1167190045 heartbeat IPC: 1.30114 cumulative IPC: 1.29038 (Simulation time: 4 hr 53 min 0 sec) 
Heartbeat CPU 2 instructions: 990000000 cycles: 1167587746 heartbeat IPC: 0.731073 cumulative IPC: 0.727784 (Simulation time: 4 hr 53 min 5 sec) 
Heartbeat CPU 3 instructions: 1730000000 cycles: 1168336433 heartbeat IPC: 1.35093 cumulative IPC: 1.3791 (Simulation time: 4 hr 53 min 16 sec) 
Heartbeat CPU 1 instructions: 1030000003 cycles: 1170408520 heartbeat IPC: 0.887353 cumulative IPC: 0.770804 (Simulation time: 4 hr 53 min 46 sec) 
Heartbeat CPU 0 instructions: 1580000000 cycles: 1174845692 heartbeat IPC: 1.30623 cumulative IPC: 1.29049 (Simulation time: 4 hr 54 min 50 sec) 
Heartbeat CPU 3 instructions: 1740000000 cycles: 1175737743 heartbeat IPC: 1.35111 cumulative IPC: 1.37891 (Simulation time: 4 hr 55 min 3 sec) 
Heartbeat CPU 2 instructions: 1000000000 cycles: 1181300907 heartbeat IPC: 0.729226 cumulative IPC: 0.727803 (Simulation time: 4 hr 56 min 23 sec) 
Heartbeat CPU 1 instructions: 1040000000 cycles: 1181687377 heartbeat IPC: 0.886614 cumulative IPC: 0.772017 (Simulation time: 4 hr 56 min 29 sec) 
Heartbeat CPU 0 instructions: 1590000000 cycles: 1182534461 heartbeat IPC: 1.3006 cumulative IPC: 1.29056 (Simulation time: 4 hr 56 min 42 sec) 
Heartbeat CPU 3 instructions: 1750000000 cycles: 1183181101 heartbeat IPC: 1.34348 cumulative IPC: 1.37867 (Simulation time: 4 hr 56 min 51 sec) 
Heartbeat CPU 0 instructions: 1600000000 cycles: 1190218563 heartbeat IPC: 1.30139 cumulative IPC: 1.29064 (Simulation time: 4 hr 58 min 33 sec) 
Heartbeat CPU 3 instructions: 1760000000 cycles: 1190646497 heartbeat IPC: 1.33951 cumulative IPC: 1.3784 (Simulation time: 4 hr 58 min 39 sec) 
Heartbeat CPU 1 instructions: 1050000003 cycles: 1192855231 heartbeat IPC: 0.895427 cumulative IPC: 0.773285 (Simulation time: 4 hr 59 min 11 sec) 
Heartbeat CPU 2 instructions: 1010000003 cycles: 1195007102 heartbeat IPC: 0.729597 cumulative IPC: 0.727825 (Simulation time: 4 hr 59 min 42 sec) 
Heartbeat CPU 0 instructions: 1610000001 cycles: 1197929329 heartbeat IPC: 1.29689 cumulative IPC: 1.29068 (Simulation time: 5 hr 0 min 24 sec) 
[...]
Heartbeat CPU 1 instructions: 1240000000 cycles: 1408418150 heartbeat IPC: 0.867741 cumulative IPC: 0.791174 (Simulation time: 5 hr 51 min 44 sec) 
Heartbeat CPU 3 instructions: 2060000000 cycles: 1409026565 heartbeat IPC: 1.37616 cumulative IPC: 1.37762 (Simulation time: 5 hr 51 min 53 sec) 
Heartbeat CPU 0 instructions: 1890000001 cycles: 1413144458 heartbeat IPC: 1.29593 cumulative IPC: 1.29239 (Simulation time: 5 hr 52 min 55 sec) 
Heartbeat CPU 2 instructions: 1170000000 cycles: 1414916011 heartbeat IPC: 0.726918 cumulative IPC: 0.727783 (Simulation time: 5 hr 53 min 21 sec) 
Heartbeat CPU 3 instructions: 2070000002 cycles: 1416278110 heartbeat IPC: 1.37902 cumulative IPC: 1.37763 (Simulation time: 5 hr 53 min 41 sec) 
Heartbeat CPU 1 instructions: 1250000001 cycles: 1419981367 heartbeat IPC: 0.864811 cumulative IPC: 0.791822 (Simulation time: 5 hr 54 min 36 sec) 
Heartbeat CPU 0 instructions: 1900000000 cycles: 1420850242 heartbeat IPC: 1.29773 cumulative IPC: 1.29242 (Simulation time: 5 hr 54 min 49 sec) 
Heartbeat CPU 3 instructions: 2080000000 cycles: 1423534832 heartbeat IPC: 1.37803 cumulative IPC: 1.37763 (Simulation time: 5 hr 55 min 29 sec) 
Heartbeat CPU 0 instructions: 1910000003 cycles: 1428576019 heartbeat IPC: 1.29437 cumulative IPC: 1.29243 (Simulation time: 5 hr 56 min 43 sec) 
Heartbeat CPU 2 instructions: 1180000000 cycles: 1428692355 heartbeat IPC: 0.725882 cumulative IPC: 0.727763 (Simulation time: 5 hr 56 min 45 sec) 
Heartbeat CPU 1 instructions: 1260000000 cycles: 1432024381 heartbeat IPC: 0.830357 cumulative IPC: 0.792172 (Simulation time: 5 hr 57 min 27 sec) 
Heartbeat CPU 3 instructions: 2090000000 cycles: 1432842391 heartbeat IPC: 1.0744 cumulative IPC: 1.3755 (Simulation time: 5 hr 57 min 39 sec) 
Heartbeat CPU 0 instructions: 1920000000 cycles: 1436492779 heartbeat IPC: 1.26314 cumulative IPC: 1.29225 (Simulation time: 5 hr 58 min 38 sec) 
Heartbeat CPU 3 instructions: 2100000000 cycles: 1437408924 heartbeat IPC: 2.18985 cumulative IPC: 1.37829 (Simulation time: 5 hr 58 min 53 sec) 
Heartbeat CPU 2 instructions: 1190000000 cycles: 1442535985 heartbeat IPC: 0.722354 cumulative IPC: 0.727707 (Simulation time: 6 hr 0 min 10 sec) 
Heartbeat CPU 3 instructions: 2110000003 cycles: 1443646434 heartbeat IPC: 1.6032 cumulative IPC: 1.37934 (Simulation time: 6 hr 0 min 25 sec) 
Heartbeat CPU 1 instructions: 1270000002 cycles: 1443888693 heartbeat IPC: 0.842864 cumulative IPC: 0.792621 (Simulation time: 6 hr 0 min 29 sec) 
Heartbeat CPU 0 instructions: 1930000002 cycles: 1444301561 heartbeat IPC: 1.28061 cumulative IPC: 1.29219 (Simulation time: 6 hr 0 min 35 sec) 
Heartbeat CPU 3 instructions: 2120000000 cycles: 1451147801 heartbeat IPC: 1.33309 cumulative IPC: 1.37908 (Simulation time: 6 hr 2 min 14 sec) 
Heartbeat CPU 0 instructions: 1940000000 cycles: 1451961603 heartbeat IPC: 1.30548 cumulative IPC: 1.29226 (Simulation time: 6 hr 2 min 26 sec) 
Heartbeat CPU 1 instructions: 1280000000 cycles: 1454993190 heartbeat IPC: 0.900536 cumulative IPC: 0.793509 (Simulation time: 6 hr 3 min 9 sec) 
Heartbeat CPU 2 instructions: 1200000000 cycles: 1456323259 heartbeat IPC: 0.725307 cumulative IPC: 0.727683 (Simulation time: 6 hr 3 min 29 sec) 
Heartbeat CPU 3 instructions: 2130000003 cycles: 1458622205 heartbeat IPC: 1.3379 cumulative IPC: 1.37886 (Simulation time: 6 hr 4 min 1 sec) 
Heartbeat CPU 0 instructions: 1950000002 cycles: 1459643349 heartbeat IPC: 1.30179 cumulative IPC: 1.29232 (Simulation time: 6 hr 4 min 16 sec) 
Heartbeat CPU 3 instructions: 2140000000 cycles: 1466094224 heartbeat IPC: 1.33833 cumulative IPC: 1.37863 (Simulation time: 6 hr 5 min 49 sec) 
Heartbeat CPU 1 instructions: 1290000002 cycles: 1466255767 heartbeat IPC: 0.887896 cumulative IPC: 0.79429 (Simulation time: 6 hr 5 min 52 sec) 
Heartbeat CPU 0 instructions: 1960000000 cycles: 1467298501 heartbeat IPC: 1.30631 cumulative IPC: 1.29239 (Simulation time: 6 hr 6 min 7 sec) 
Heartbeat CPU 2 instructions: 1210000001 cycles: 1470130954 heartbeat IPC: 0.724234 cumulative IPC: 0.727648 (Simulation time: 6 hr 6 min 47 sec) 
Heartbeat CPU 3 instructions: 2150000002 cycles: 1473539393 heartbeat IPC: 1.34315 cumulative IPC: 1.37844 (Simulation time: 6 hr 7 min 36 sec) 
Heartbeat CPU 0 instructions: 1970000002 cycles: 1474990231 heartbeat IPC: 1.3001 cumulative IPC: 1.29244 (Simulation time: 6 hr 7 min 57 sec) 
Heartbeat CPU 1 instructions: 1300000000 cycles: 1477628475 heartbeat IPC: 0.879298 cumulative IPC: 0.794995 (Simulation time: 6 hr 8 min 35 sec) 
Finished CPU 2 instructions: 1000000000 cycles: 1374343377 cumulative IPC: 0.72762 (Simulation time: 6 hr 9 min 7 sec) 

CPU 0 Branch Prediction Accuracy: 99.9709% MPKI: 0.00727348

CPU 1 Branch Prediction Accuracy: 99.7821% MPKI: 0.116306

CPU 2 Branch Prediction Accuracy: 98.4192% MPKI: 1.44872

CPU 3 Branch Prediction Accuracy: 97.9932% MPKI: 0.603297

ChampSim completed all CPUs

Total Simulation Statistics (not including warmup)

CPU 0 cumulative IPC: 1.29248 instructions: 1776315394 cycles: 1374343376
L1D TOTAL     ACCESS:  679593720  HIT:  642663735  MISS:   36929985
L1D LOAD      ACCESS:  580347298  HIT:  544552263  MISS:   35795035
L1D RFO       ACCESS:   99246422  HIT:   98111472  MISS:    1134950
L1D PREFETCH  ACCESS:          0  HIT:          0  MISS:          0
L1D WRITEBACK ACCESS:          0  HIT:          0  MISS:          0
L1I TOTAL     ACCESS:  436045638  HIT:  436045638  MISS:          0
L1I LOAD      ACCESS:  436045638  HIT:  436045638  MISS:          0
L1I RFO       ACCESS:          0  HIT:          0  MISS:          0
L1I PREFETCH  ACCESS:          0  HIT:          0  MISS:          0
L1I WRITEBACK ACCESS:          0  HIT:          0  MISS:          0
L2C TOTAL     ACCESS:   82686173  HIT:   48889363  MISS:   33796810
L2C LOAD      ACCESS:   35784176  HIT:   34383753  MISS:    1400423
L2C RFO       ACCESS:    1112375  HIT:     246877  MISS:     865498
L2C PREFETCH  ACCESS:   44552531  HIT:   13022653  MISS:   31529878
L2C WRITEBACK ACCESS:    1237091  HIT:    1236080  MISS:       1011

Avg Lookahead Depth:	4.07709
TOTAL: 1.06851e+08	L2C: 9.30063e+07	LLC: 1.38452e+07	GOOD_L2C: 5.62735e+07
Printing all the perceptron weights to: perc_weights_0.csv
LLC TOTAL     ACCESS:   35423807  HIT:    1664640  MISS:   33759167
LLC LOAD      ACCESS:    1309161  HIT:       5726  MISS:    1303435
LLC RFO       ACCESS:     865498  HIT:          0  MISS:     865498
LLC PREFETCH  ACCESS:   32381146  HIT:     791514  MISS:   31589632
LLC WRITEBACK ACCESS:     868002  HIT:     867400  MISS:        602

CPU 1 cumulative IPC: 0.795153 instructions: 1092813875 cycles: 1374343377
L1D TOTAL     ACCESS:  451218235  HIT:  414018190  MISS:   37200045
L1D LOAD      ACCESS:  357398210  HIT:  324738315  MISS:   32659895
L1D RFO       ACCESS:   93820025  HIT:   89279875  MISS:    4540150
L1D PREFETCH  ACCESS:          0  HIT:          0  MISS:          0
L1D WRITEBACK ACCESS:          0  HIT:          0  MISS:          0
L1I TOTAL     ACCESS:  333470733  HIT:  333470400  MISS:        333
L1I LOAD      ACCESS:  333470733  HIT:  333470400  MISS:        333
L1I RFO       ACCESS:          0  HIT:          0  MISS:          0
L1I PREFETCH  ACCESS:          0  HIT:          0  MISS:          0
L1I WRITEBACK ACCESS:          0  HIT:          0  MISS:          0
L2C TOTAL     ACCESS:   64658175  HIT:   50823619  MISS:   13834556
L2C LOAD      ACCESS:   32657653  HIT:   30009695  MISS:    2647958
L2C RFO       ACCESS:    4538832  HIT:    1554681  MISS:    2984151
L2C PREFETCH  ACCESS:   21446408  HIT:   13245641  MISS:    8200767
L2C WRITEBACK ACCESS:    6015282  HIT:    6013602  MISS:       1680

Avg Lookahead Depth:	4.07709
TOTAL: 1.06851e+08	L2C: 9.30063e+07	LLC: 1.38452e+07	GOOD_L2C: 5.62735e+07
Printing all the perceptron weights to: perc_weights_0.csv
LLC TOTAL     ACCESS:   22401338  HIT:   15908692  MISS:    6492646
LLC LOAD      ACCESS:    2624361  HIT:    2069472  MISS:     554889
LLC RFO       ACCESS:    2984148  HIT:    1918125  MISS:    1066023
LLC PREFETCH  ACCESS:   12583303  HIT:    7752822  MISS:    4830481
LLC WRITEBACK ACCESS:    4209526  HIT:    4168273  MISS:      41253

CPU 2 cumulative IPC: 0.72762 instructions: 1000000000 cycles: 1374343377
L1D TOTAL     ACCESS:  285156479  HIT:  275539075  MISS:    9617404
L1D LOAD      ACCESS:  217248043  HIT:  207630695  MISS:    9617348
L1D RFO       ACCESS:   67908436  HIT:   67908380  MISS:         56
L1D PREFETCH  ACCESS:          0  HIT:          0  MISS:          0
L1D WRITEBACK ACCESS:          0  HIT:          0  MISS:          0
L1I TOTAL     ACCESS:  315416789  HIT:  315416789  MISS:          0
L1I LOAD      ACCESS:  315416789  HIT:  315416789  MISS:          0
L1I RFO       ACCESS:          0  HIT:          0  MISS:          0
L1I PREFETCH  ACCESS:          0  HIT:          0  MISS:          0
L1I WRITEBACK ACCESS:          0  HIT:          0  MISS:          0
L2C TOTAL     ACCESS:   28325334  HIT:   26555814  MISS:    1769520
L2C LOAD      ACCESS:    9617348  HIT:    9479191  MISS:     138157
L2C RFO       ACCESS:         52  HIT:         52  MISS:          0
L2C PREFETCH  ACCESS:   15698178  HIT:   14066870  MISS:    1631308
L2C WRITEBACK ACCESS:    3009756  HIT:    3009701  MISS:         55

Avg Lookahead Depth:	4.07709
TOTAL: 1.06851e+08	L2C: 9.30063e+07	LLC: 1.38452e+07	GOOD_L2C: 5.62735e+07
Printing all the perceptron weights to: perc_weights_0.csv
LLC TOTAL     ACCESS:    2667588  HIT:    1918048  MISS:     749540
LLC LOAD      ACCESS:     137848  HIT:      87649  MISS:      50199
LLC RFO       ACCESS:          0  HIT:          0  MISS:          0
LLC PREFETCH  ACCESS:    2155014  HIT:    1502912  MISS:     652102
LLC WRITEBACK ACCESS:     374726  HIT:     327487  MISS:      47239

CPU 3 cumulative IPC: 1.37827 instructions: 1894213050 cycles: 1374343377
L1D TOTAL     ACCESS:  296581256  HIT:  292756647  MISS:    3824609
L1D LOAD      ACCESS:  159956188  HIT:  157161958  MISS:    2794230
L1D RFO       ACCESS:  136625068  HIT:  135594689  MISS:    1030379
L1D PREFETCH  ACCESS:          0  HIT:          0  MISS:          0
L1D WRITEBACK ACCESS:          0  HIT:          0  MISS:          0
L1I TOTAL     ACCESS:  453892660  HIT:  452603672  MISS:    1288988
L1I LOAD      ACCESS:  453892660  HIT:  452603672  MISS:    1288988
L1I RFO       ACCESS:          0  HIT:          0  MISS:          0
L1I PREFETCH  ACCESS:          0  HIT:          0  MISS:          0
L1I WRITEBACK ACCESS:          0  HIT:          0  MISS:          0
L2C TOTAL     ACCESS:   10844455  HIT:    8594869  MISS:    2249586
L2C LOAD      ACCESS:    4083177  HIT:    3445933  MISS:     637244
L2C RFO       ACCESS:    1027467  HIT:     489405  MISS:     538062
L2C PREFETCH  ACCESS:    4558125  HIT:    3493903  MISS:    1064222
L2C WRITEBACK ACCESS:    1175686  HIT:    1165628  MISS:      10058

Avg Lookahead Depth:	4.07709
TOTAL: 1.06851e+08	L2C: 9.30063e+07	LLC: 1.38452e+07	GOOD_L2C: 5.62735e+07
Printing all the perceptron weights to: perc_weights_0.csv
LLC TOTAL     ACCESS:    3364299  HIT:    1546712  MISS:    1817587
LLC LOAD      ACCESS:     473894  HIT:     178002  MISS:     295892
LLC RFO       ACCESS:     537189  HIT:      23961  MISS:     513228
LLC PREFETCH  ACCESS:    1703054  HIT:     717746  MISS:     985308
LLC WRITEBACK ACCESS:     650162  HIT:     627003  MISS:      23159

Region of Interest Statistics

CPU 0 cumulative IPC: 1.28723 instructions: 1000000000 cycles: 776864316
L1D TOTAL     ACCESS:  382577739  HIT:  361787981  MISS:   20789758
L1D LOAD      ACCESS:  326709087  HIT:  306558160  MISS:   20150927
L1D RFO       ACCESS:   55868652  HIT:   55229821  MISS:     638831
L1D PREFETCH  ACCESS:          0  HIT:          0  MISS:          0
L1D WRITEBACK ACCESS:          0  HIT:          0  MISS:          0
L1D PREFETCH  REQUESTED:          0  ISSUED:          0  USEFUL:          0  USELESS:          0
L1I TOTAL     ACCESS:  245515244  HIT:  245515244  MISS:          0
L1I LOAD      ACCESS:  245515244  HIT:  245515244  MISS:          0
L1I RFO       ACCESS:          0  HIT:          0  MISS:          0
L1I PREFETCH  ACCESS:          0  HIT:          0  MISS:          0
L1I WRITEBACK ACCESS:          0  HIT:          0  MISS:          0
L1I PREFETCH  REQUESTED:          0  ISSUED:          0  USEFUL:          0  USELESS:          0
L2C TOTAL     ACCESS:   46610987  HIT:   27587123  MISS:   19023864
L2C LOAD      ACCESS:   20144791  HIT:   19319778  MISS:     825013
L2C RFO       ACCESS:     626099  HIT:     138856  MISS:     487243
L2C PREFETCH  ACCESS:   25143767  HIT:    7432633  MISS:   17711134
L2C WRITEBACK ACCESS:     696330  HIT:     695856  MISS:        474
L2C PREFETCH  REQUESTED:   53225711  ISSUED:   52681447  USEFUL:   35086616  USELESS:      17767
LLC TOTAL     ACCESS:   19922776  HIT:     917551  MISS:   19005225
LLC LOAD      ACCESS:     775228  HIT:       2814  MISS:     772414
LLC RFO       ACCESS:     487243  HIT:          0  MISS:     487243
LLC PREFETCH  ACCESS:   18171777  HIT:     426542  MISS:   17745235
LLC WRITEBACK ACCESS:     488528  HIT:     488195  MISS:        333
LLC PREFETCH  REQUESTED:          0  ISSUED:          0  USEFUL:    1449869  USELESS:   41370029
Major fault: 0 Minor fault: 556998

CPU 1 cumulative IPC: 0.788984 instructions: 1000000003 cycles: 1267452812
L1D TOTAL     ACCESS:  409443529  HIT:  376263423  MISS:   33180106
L1D LOAD      ACCESS:  322881457  HIT:  293784405  MISS:   29097052
L1D RFO       ACCESS:   86562072  HIT:   82479018  MISS:    4083054
L1D PREFETCH  ACCESS:          0  HIT:          0  MISS:          0
L1D WRITEBACK ACCESS:          0  HIT:          0  MISS:          0
L1D PREFETCH  REQUESTED:          0  ISSUED:          0  USEFUL:          0  USELESS:          0
L1I TOTAL     ACCESS:  307733626  HIT:  307733293  MISS:        333
L1I LOAD      ACCESS:  307733626  HIT:  307733293  MISS:        333
L1I RFO       ACCESS:          0  HIT:          0  MISS:          0
L1I PREFETCH  ACCESS:          0  HIT:          0  MISS:          0
L1I WRITEBACK ACCESS:          0  HIT:          0  MISS:          0
L1I PREFETCH  REQUESTED:          0  ISSUED:          0  USEFUL:          0  USELESS:          0
L2C TOTAL     ACCESS:   57747078  HIT:   45296468  MISS:   12450610
L2C LOAD      ACCESS:   29095096  HIT:   26720923  MISS:    2374173
L2C RFO       ACCESS:    4081944  HIT:    1379262  MISS:    2702682
L2C PREFETCH  ACCESS:   19174143  HIT:   11801958  MISS:    7372185
L2C WRITEBACK ACCESS:    5395895  HIT:    5394325  MISS:       1570
L2C PREFETCH  REQUESTED:   27305767  ISSUED:   27305350  USEFUL:    8714048  USELESS:     446667
LLC TOTAL     ACCESS:   20107568  HIT:   14183973  MISS:    5923595
LLC LOAD      ACCESS:    2352203  HIT:    1850468  MISS:     501735
LLC RFO       ACCESS:    2702679  HIT:    1703153  MISS:     999526
LLC PREFETCH  ACCESS:   11257953  HIT:    6876699  MISS:    4381254
LLC WRITEBACK ACCESS:    3794733  HIT:    3753653  MISS:      41080
LLC PREFETCH  REQUESTED:          0  ISSUED:          0  USEFUL:    1449869  USELESS:   41370029
Major fault: 0 Minor fault: 122909

CPU 2 cumulative IPC: 0.72762 instructions: 1000000000 cycles: 1374343377
L1D TOTAL     ACCESS:  285156479  HIT:  275539075  MISS:    9617404
L1D LOAD      ACCESS:  217248043  HIT:  207630695  MISS:    9617348
L1D RFO       ACCESS:   67908436  HIT:   67908380  MISS:         56
L1D PREFETCH  ACCESS:          0  HIT:          0  MISS:          0
L1D WRITEBACK ACCESS:          0  HIT:          0  MISS:          0
L1D PREFETCH  REQUESTED:          0  ISSUED:          0  USEFUL:          0  USELESS:          0
L1I TOTAL     ACCESS:  315416789  HIT:  315416789  MISS:          0
L1I LOAD      ACCESS:  315416789  HIT:  315416789  MISS:          0
L1I RFO       ACCESS:          0  HIT:          0  MISS:          0
L1I PREFETCH  ACCESS:          0  HIT:          0  MISS:          0
L1I WRITEBACK ACCESS:          0  HIT:          0  MISS:          0
L1I PREFETCH  REQUESTED:          0  ISSUED:          0  USEFUL:          0  USELESS:          0
L2C TOTAL     ACCESS:   28325334  HIT:   26555814  MISS:    1769520
L2C LOAD      ACCESS:    9617348  HIT:    9479191  MISS:     138157
L2C RFO       ACCESS:         52  HIT:         52  MISS:          0
L2C PREFETCH  ACCESS:   15698178  HIT:   14066870  MISS:    1631308
L2C WRITEBACK ACCESS:    3009756  HIT:    3009701  MISS:         55
L2C PREFETCH  REQUESTED:   19655337  ISSUED:   19655337  USEFUL:    1857893  USELESS:     439712
LLC TOTAL     ACCESS:    2667588  HIT:    1918048  MISS:     749540
LLC LOAD      ACCESS:     137848  HIT:      87649  MISS:      50199
LLC RFO       ACCESS:          0  HIT:          0  MISS:          0
LLC PREFETCH  ACCESS:    2155014  HIT:    1502912  MISS:     652102
LLC WRITEBACK ACCESS:     374726  HIT:     327487  MISS:      47239
LLC PREFETCH  REQUESTED:          0  ISSUED:          0  USEFUL:    1449869  USELESS:   41370029
Major fault: 0 Minor fault: 11066

CPU 3 cumulative IPC: 1.38474 instructions: 1000000002 cycles: 722158685
L1D TOTAL     ACCESS:  159985520  HIT:  157914580  MISS:    2070940
L1D LOAD      ACCESS:   88143807  HIT:   86676720  MISS:    1467087
L1D RFO       ACCESS:   71841713  HIT:   71237860  MISS:     603853
L1D PREFETCH  ACCESS:          0  HIT:          0  MISS:          0
L1D WRITEBACK ACCESS:          0  HIT:          0  MISS:          0
L1D PREFETCH  REQUESTED:          0  ISSUED:          0  USEFUL:          0  USELESS:          0
L1I TOTAL     ACCESS:  239398968  HIT:  238442149  MISS:     956819
L1I LOAD      ACCESS:  239398968  HIT:  238442149  MISS:     956819
L1I RFO       ACCESS:          0  HIT:          0  MISS:          0
L1I PREFETCH  ACCESS:          0  HIT:          0  MISS:          0
L1I WRITEBACK ACCESS:          0  HIT:          0  MISS:          0
L1I PREFETCH  REQUESTED:          0  ISSUED:          0  USEFUL:          0  USELESS:          0
L2C TOTAL     ACCESS:    6494112  HIT:    5262271  MISS:    1231841
L2C LOAD      ACCESS:    2423878  HIT:    2061793  MISS:     362085
L2C RFO       ACCESS:     601987  HIT:     285843  MISS:     316144
L2C PREFETCH  ACCESS:    2778139  HIT:    2231476  MISS:     546663
L2C WRITEBACK ACCESS:     690108  HIT:     683159  MISS:       6949
L2C PREFETCH  REQUESTED:    6664682  ISSUED:    6631002  USEFUL:    1111832  USELESS:     191243
LLC TOTAL     ACCESS:    1883720  HIT:     921677  MISS:     962043
LLC LOAD      ACCESS:     275941  HIT:     118875  MISS:     157066
LLC RFO       ACCESS:     315716  HIT:      18415  MISS:     297301
LLC PREFETCH  ACCESS:     916734  HIT:     423841  MISS:     492893
LLC WRITEBACK ACCESS:     375329  HIT:     360546  MISS:      14783
LLC PREFETCH  REQUESTED:          0  ISSUED:          0  USEFUL:    1449869  USELESS:   41370029
Major fault: 0 Minor fault: 12491

Avg Lookahead Depth:	4.07709
TOTAL: 1.06851e+08	L2C: 9.30063e+07	LLC: 1.38452e+07	GOOD_L2C: 5.62735e+07
Printing all the perceptron weights to: perc_weights_0.csv

Avg Lookahead Depth:	4.07709
TOTAL: 1.06851e+08	L2C: 9.30063e+07	LLC: 1.38452e+07	GOOD_L2C: 5.62735e+07
Printing all the perceptron weights to: perc_weights_0.csv

Avg Lookahead Depth:	4.07709
TOTAL: 1.06851e+08	L2C: 9.30063e+07	LLC: 1.38452e+07	GOOD_L2C: 5.62735e+07
Printing all the perceptron weights to: perc_weights_0.csv

Avg Lookahead Depth:	4.07709
TOTAL: 1.06851e+08	L2C: 9.30063e+07	LLC: 1.38452e+07	GOOD_L2C: 5.62735e+07
Printing all the perceptron weights to: perc_weights_0.csv

DRAM Statistics
 CHANNEL 0
 RQ ROW_BUFFER_HIT:   16321796  ROW_BUFFER_MISS:    5021256
 DBUS_CONGESTED:   16531176
 WQ ROW_BUFFER_HIT:     161529  ROW_BUFFER_MISS:    1187610  FULL:          0

 CHANNEL 1
 RQ ROW_BUFFER_HIT:   16297921  ROW_BUFFER_MISS:    5049021
 DBUS_CONGESTED:   16531176
 WQ ROW_BUFFER_HIT:     161504  ROW_BUFFER_MISS:    1188501  FULL:          0

 AVG_CONGESTED_CYCLE: 11
