Initialize SIGNATURE TABLE
ST_SET: 1
ST_WAY: 256
ST_TAG_BIT: 16
ST_TAG_MASK: ffff

Initialize PATTERN TABLE
PT_SET: 512
PT_WAY: 4
SIG_DELTA_BIT: 7
C_SIG_BIT: 4
C_DELTA_BIT: 4

Initialize PREFETCH FILTER
FILTER_SET: 1024

Initialize PERCEPTRON
PERC_ENTRIES: 4096
PERC_FEATURES: 9

*** ChampSim Multicore Out-of-Order Simulator ***

Warmup Instructions: 200000000
Simulation Instructions: 1000000000
Number of CPUs: 4
LLC sets: 8192
LLC ways: 16
Off-chip DRAM Size: 8192 MB Channels: 2 Width: 64-bit Data Rate: 1600 MT/s

CPU 0 runs /scratch/user/djimenez/champsim-traces/speccpu2017/xz/607.cactuBSSN_s/607.cactuBSSN_s-4248B.champsimtrace.xz
CPU 1 runs /scratch/user/djimenez/champsim-traces/speccpu2017/xz/605.mcf_s/605.mcf_s-472B.champsimtrace.xz
CPU 2 runs /scratch/user/djimenez/champsim-traces/speccpu2017/xz/620.omnetpp_s/620.omnetpp_s-874B.champsimtrace.xz
CPU 3 runs /scratch/user/djimenez/champsim-traces/speccpu2017/xz/620.omnetpp_s/620.omnetpp_s-141B.champsimtrace.xz
Heartbeat CPU 0 instructions: 10000002 cycles: 4536110 heartbeat IPC: 2.20453 cumulative IPC: 2.20453 (Simulation time: 0 hr 1 min 16 sec) 
Heartbeat CPU 1 instructions: 10000000 cycles: 6673789 heartbeat IPC: 1.4984 cumulative IPC: 1.4984 (Simulation time: 0 hr 1 min 52 sec) 
Heartbeat CPU 2 instructions: 10000000 cycles: 7372071 heartbeat IPC: 1.35647 cumulative IPC: 1.35647 (Simulation time: 0 hr 2 min 4 sec) 
Heartbeat CPU 3 instructions: 10000000 cycles: 7407174 heartbeat IPC: 1.35004 cumulative IPC: 1.35004 (Simulation time: 0 hr 2 min 4 sec) 
Heartbeat CPU 0 instructions: 20000000 cycles: 9072857 heartbeat IPC: 2.20422 cumulative IPC: 2.20438 (Simulation time: 0 hr 2 min 33 sec) 
Heartbeat CPU 1 instructions: 20000000 cycles: 12986900 heartbeat IPC: 1.58401 cumulative IPC: 1.54001 (Simulation time: 0 hr 3 min 42 sec) 
Heartbeat CPU 0 instructions: 30000000 cycles: 13608905 heartbeat IPC: 2.20456 cumulative IPC: 2.20444 (Simulation time: 0 hr 3 min 52 sec) 
Heartbeat CPU 2 instructions: 20000000 cycles: 14727163 heartbeat IPC: 1.3596 cumulative IPC: 1.35803 (Simulation time: 0 hr 4 min 12 sec) 
Heartbeat CPU 3 instructions: 20000000 cycles: 14839169 heartbeat IPC: 1.34553 cumulative IPC: 1.34778 (Simulation time: 0 hr 4 min 14 sec) 
Heartbeat CPU 0 instructions: 40000000 cycles: 18145711 heartbeat IPC: 2.20419 cumulative IPC: 2.20438 (Simulation time: 0 hr 5 min 14 sec) 
Heartbeat CPU 1 instructions: 30000002 cycles: 19080996 heartbeat IPC: 1.64093 cumulative IPC: 1.57225 (Simulation time: 0 hr 5 min 30 sec) 
Heartbeat CPU 2 instructions: 30000001 cycles: 22083809 heartbeat IPC: 1.35932 cumulative IPC: 1.35846 (Simulation time: 0 hr 6 min 20 sec) 
Heartbeat CPU 3 instructions: 30000003 cycles: 22294369 heartbeat IPC: 1.34135 cumulative IPC: 1.34563 (Simulation time: 0 hr 6 min 23 sec) 
Heartbeat CPU 0 instructions: 50000000 cycles: 22682398 heartbeat IPC: 2.20425 cumulative IPC: 2.20435 (Simulation time: 0 hr 6 min 30 sec) 
Heartbeat CPU 1 instructions: 40000000 cycles: 25727601 heartbeat IPC: 1.50453 cumulative IPC: 1.55475 (Simulation time: 0 hr 7 min 23 sec) 
Heartbeat CPU 0 instructions: 60000000 cycles: 26716469 heartbeat IPC: 2.47889 cumulative IPC: 2.24581 (Simulation time: 0 hr 7 min 40 sec) 
Heartbeat CPU 2 instructions: 40000000 cycles: 29449291 heartbeat IPC: 1.35768 cumulative IPC: 1.35827 (Simulation time: 0 hr 8 min 27 sec) 
Heartbeat CPU 3 instructions: 40000000 cycles: 29707041 heartbeat IPC: 1.34904 cumulative IPC: 1.34648 (Simulation time: 0 hr 8 min 32 sec) 
Heartbeat CPU 0 instructions: 70000001 cycles: 30544792 heartbeat IPC: 2.61211 cumulative IPC: 2.29172 (Simulation time: 0 hr 8 min 46 sec) 
Heartbeat CPU 1 instructions: 50000003 cycles: 32261738 heartbeat IPC: 1.53042 cumulative IPC: 1.54982 (Simulation time: 0 hr 9 min 17 sec) 
Heartbeat CPU 0 instructions: 80000000 cycles: 34373825 heartbeat IPC: 2.61163 cumulative IPC: 2.32735 (Simulation time: 0 hr 9 min 54 sec) 
Heartbeat CPU 2 instructions: 50000000 cycles: 36814360 heartbeat IPC: 1.35776 cumulative IPC: 1.35817 (Simulation time: 0 hr 10 min 37 sec) 
Heartbeat CPU 3 instructions: 50000001 cycles: 37167108 heartbeat IPC: 1.34047 cumulative IPC: 1.34528 (Simulation time: 0 hr 10 min 43 sec) 
Heartbeat CPU 0 instructions: 90000003 cycles: 38202448 heartbeat IPC: 2.61191 cumulative IPC: 2.35587 (Simulation time: 0 hr 11 min 1 sec) 
Heartbeat CPU 1 instructions: 60000000 cycles: 38769156 heartbeat IPC: 1.53671 cumulative IPC: 1.54762 (Simulation time: 0 hr 11 min 12 sec) 
Heartbeat CPU 0 instructions: 100000000 cycles: 42031109 heartbeat IPC: 2.61188 cumulative IPC: 2.37919 (Simulation time: 0 hr 12 min 9 sec) 
Heartbeat CPU 2 instructions: 60000000 cycles: 44187018 heartbeat IPC: 1.35636 cumulative IPC: 1.35786 (Simulation time: 0 hr 12 min 47 sec) 
Heartbeat CPU 3 instructions: 60000000 cycles: 44557367 heartbeat IPC: 1.35313 cumulative IPC: 1.34658 (Simulation time: 0 hr 12 min 53 sec) 
Heartbeat CPU 1 instructions: 70000002 cycles: 45374646 heartbeat IPC: 1.51389 cumulative IPC: 1.54271 (Simulation time: 0 hr 13 min 7 sec) 
Heartbeat CPU 0 instructions: 110000000 cycles: 45859942 heartbeat IPC: 2.61176 cumulative IPC: 2.39861 (Simulation time: 0 hr 13 min 15 sec) 
Heartbeat CPU 0 instructions: 120000000 cycles: 49688719 heartbeat IPC: 2.6118 cumulative IPC: 2.41504 (Simulation time: 0 hr 14 min 24 sec) 
Heartbeat CPU 2 instructions: 70000000 cycles: 51548944 heartbeat IPC: 1.35834 cumulative IPC: 1.35793 (Simulation time: 0 hr 14 min 57 sec) 
Heartbeat CPU 1 instructions: 80000000 cycles: 51704447 heartbeat IPC: 1.57983 cumulative IPC: 1.54726 (Simulation time: 0 hr 15 min 0 sec) 
Heartbeat CPU 3 instructions: 70000000 cycles: 52005335 heartbeat IPC: 1.34265 cumulative IPC: 1.34602 (Simulation time: 0 hr 15 min 5 sec) 
Heartbeat CPU 0 instructions: 130000002 cycles: 53517331 heartbeat IPC: 2.61191 cumulative IPC: 2.42912 (Simulation time: 0 hr 15 min 31 sec) 
Heartbeat CPU 0 instructions: 140000000 cycles: 57345958 heartbeat IPC: 2.6119 cumulative IPC: 2.44132 (Simulation time: 0 hr 16 min 39 sec) 
Heartbeat CPU 1 instructions: 90000000 cycles: 58289917 heartbeat IPC: 1.51849 cumulative IPC: 1.54401 (Simulation time: 0 hr 16 min 55 sec) 
Heartbeat CPU 2 instructions: 80000000 cycles: 58904886 heartbeat IPC: 1.35945 cumulative IPC: 1.35812 (Simulation time: 0 hr 17 min 6 sec) 
Heartbeat CPU 3 instructions: 80000000 cycles: 59430437 heartbeat IPC: 1.34678 cumulative IPC: 1.34611 (Simulation time: 0 hr 17 min 15 sec) 
Heartbeat CPU 0 instructions: 150000003 cycles: 61174698 heartbeat IPC: 2.61183 cumulative IPC: 2.45199 (Simulation time: 0 hr 17 min 46 sec) 
Heartbeat CPU 1 instructions: 100000000 cycles: 64678569 heartbeat IPC: 1.56528 cumulative IPC: 1.54611 (Simulation time: 0 hr 18 min 48 sec) 
Heartbeat CPU 0 instructions: 160000000 cycles: 65003366 heartbeat IPC: 2.61187 cumulative IPC: 2.46141 (Simulation time: 0 hr 18 min 54 sec) 
Heartbeat CPU 2 instructions: 90000000 cycles: 66263011 heartbeat IPC: 1.35904 cumulative IPC: 1.35822 (Simulation time: 0 hr 19 min 15 sec) 
Heartbeat CPU 3 instructions: 90000002 cycles: 66882852 heartbeat IPC: 1.34185 cumulative IPC: 1.34564 (Simulation time: 0 hr 19 min 26 sec) 
Heartbeat CPU 0 instructions: 170000002 cycles: 68832227 heartbeat IPC: 2.61174 cumulative IPC: 2.46977 (Simulation time: 0 hr 20 min 0 sec) 
Heartbeat CPU 1 instructions: 110000002 cycles: 71334014 heartbeat IPC: 1.50253 cumulative IPC: 1.54204 (Simulation time: 0 hr 20 min 44 sec) 
Heartbeat CPU 0 instructions: 180000000 cycles: 72660758 heartbeat IPC: 2.61197 cumulative IPC: 2.47727 (Simulation time: 0 hr 21 min 7 sec) 
Heartbeat CPU 2 instructions: 100000000 cycles: 73640543 heartbeat IPC: 1.35547 cumulative IPC: 1.35795 (Simulation time: 0 hr 21 min 25 sec) 
Heartbeat CPU 3 instructions: 100000000 cycles: 74316075 heartbeat IPC: 1.34531 cumulative IPC: 1.3456 (Simulation time: 0 hr 21 min 36 sec) 
Heartbeat CPU 0 instructions: 190000001 cycles: 76489537 heartbeat IPC: 2.6118 cumulative IPC: 2.484 (Simulation time: 0 hr 22 min 14 sec) 
Heartbeat CPU 1 instructions: 120000000 cycles: 77865530 heartbeat IPC: 1.53104 cumulative IPC: 1.54112 (Simulation time: 0 hr 22 min 38 sec) 
Heartbeat CPU 0 instructions: 200000000 cycles: 80318301 heartbeat IPC: 2.61181 cumulative IPC: 2.49009 (Simulation time: 0 hr 23 min 22 sec) 
Heartbeat CPU 2 instructions: 110000003 cycles: 80981854 heartbeat IPC: 1.36215 cumulative IPC: 1.35833 (Simulation time: 0 hr 23 min 34 sec) 
Heartbeat CPU 3 instructions: 110000002 cycles: 81750705 heartbeat IPC: 1.34506 cumulative IPC: 1.34555 (Simulation time: 0 hr 23 min 48 sec) 
Heartbeat CPU 0 instructions: 210000000 cycles: 84146768 heartbeat IPC: 2.61201 cumulative IPC: 0.11884 (Simulation time: 0 hr 24 min 30 sec) 
Heartbeat CPU 1 instructions: 130000002 cycles: 84299872 heartbeat IPC: 1.55416 cumulative IPC: 1.54211 (Simulation time: 0 hr 24 min 33 sec) 
Heartbeat CPU 0 instructions: 220000000 cycles: 87975446 heartbeat IPC: 2.61187 cumulative IPC: 0.227336 (Simulation time: 0 hr 25 min 38 sec) 
Heartbeat CPU 2 instructions: 120000000 cycles: 88343333 heartbeat IPC: 1.35842 cumulative IPC: 1.35834 (Simulation time: 0 hr 25 min 44 sec) 
Heartbeat CPU 3 instructions: 120000000 cycles: 89182745 heartbeat IPC: 1.34553 cumulative IPC: 1.34555 (Simulation time: 0 hr 25 min 59 sec) 
Heartbeat CPU 1 instructions: 140000000 cycles: 90729885 heartbeat IPC: 1.55521 cumulative IPC: 1.54304 (Simulation time: 0 hr 26 min 27 sec) 
Heartbeat CPU 0 instructions: 230000000 cycles: 91804300 heartbeat IPC: 2.61175 cumulative IPC: 0.326782 (Simulation time: 0 hr 26 min 45 sec) 
Heartbeat CPU 0 instructions: 240000000 cycles: 95632790 heartbeat IPC: 2.612 cumulative IPC: 0.418267 (Simulation time: 0 hr 27 min 54 sec) 
Heartbeat CPU 2 instructions: 130000000 cycles: 95688679 heartbeat IPC: 1.36141 cumulative IPC: 1.35857 (Simulation time: 0 hr 27 min 55 sec) 
Heartbeat CPU 3 instructions: 130000000 cycles: 96582967 heartbeat IPC: 1.35131 cumulative IPC: 1.34599 (Simulation time: 0 hr 28 min 11 sec) 
Heartbeat CPU 1 instructions: 150000001 cycles: 97134411 heartbeat IPC: 1.5614 cumulative IPC: 1.54425 (Simulation time: 0 hr 28 min 21 sec) 
Heartbeat CPU 0 instructions: 250000003 cycles: 99461497 heartbeat IPC: 2.61185 cumulative IPC: 0.502707 (Simulation time: 0 hr 29 min 2 sec) 
Heartbeat CPU 2 instructions: 140000000 cycles: 103059016 heartbeat IPC: 1.35679 cumulative IPC: 1.35844 (Simulation time: 0 hr 30 min 4 sec) 
Heartbeat CPU 0 instructions: 260000000 cycles: 103290213 heartbeat IPC: 2.61184 cumulative IPC: 0.580888 (Simulation time: 0 hr 30 min 8 sec) 
Heartbeat CPU 1 instructions: 160000000 cycles: 103695147 heartbeat IPC: 1.52422 cumulative IPC: 1.54298 (Simulation time: 0 hr 30 min 16 sec) 
Heartbeat CPU 3 instructions: 140000000 cycles: 104012639 heartbeat IPC: 1.34595 cumulative IPC: 1.34599 (Simulation time: 0 hr 30 min 22 sec) 
Heartbeat CPU 0 instructions: 270000002 cycles: 107118788 heartbeat IPC: 2.61194 cumulative IPC: 0.65348 (Simulation time: 0 hr 31 min 16 sec) 
Heartbeat CPU 1 instructions: 170000001 cycles: 110321032 heartbeat IPC: 1.50923 cumulative IPC: 1.54096 (Simulation time: 0 hr 32 min 11 sec) 
Heartbeat CPU 2 instructions: 150000001 cycles: 110436742 heartbeat IPC: 1.35543 cumulative IPC: 1.35824 (Simulation time: 0 hr 32 min 13 sec) 
Heartbeat CPU 0 instructions: 280000000 cycles: 110947626 heartbeat IPC: 2.61176 cumulative IPC: 0.721061 (Simulation time: 0 hr 32 min 22 sec) 
Heartbeat CPU 3 instructions: 150000001 cycles: 111457241 heartbeat IPC: 1.34326 cumulative IPC: 1.34581 (Simulation time: 0 hr 32 min 30 sec) 
Heartbeat CPU 0 instructions: 290000002 cycles: 114776462 heartbeat IPC: 2.61176 cumulative IPC: 0.784133 (Simulation time: 0 hr 33 min 28 sec) 
Heartbeat CPU 1 instructions: 180000000 cycles: 116944944 heartbeat IPC: 1.50968 cumulative IPC: 1.53919 (Simulation time: 0 hr 34 min 6 sec) 
Heartbeat CPU 2 instructions: 160000000 cycles: 117819039 heartbeat IPC: 1.35459 cumulative IPC: 1.35801 (Simulation time: 0 hr 34 min 21 sec) 
Heartbeat CPU 0 instructions: 300000000 cycles: 118605062 heartbeat IPC: 2.61192 cumulative IPC: 0.843134 (Simulation time: 0 hr 34 min 37 sec) 
Heartbeat CPU 3 instructions: 160000000 cycles: 118896005 heartbeat IPC: 1.34431 cumulative IPC: 1.34571 (Simulation time: 0 hr 34 min 42 sec) 
Heartbeat CPU 0 instructions: 310000000 cycles: 122433982 heartbeat IPC: 2.6117 cumulative IPC: 0.898443 (Simulation time: 0 hr 35 min 43 sec) 
Heartbeat CPU 1 instructions: 190000001 cycles: 123190248 heartbeat IPC: 1.6012 cumulative IPC: 1.54233 (Simulation time: 0 hr 35 min 58 sec) 
Heartbeat CPU 2 instructions: 170000003 cycles: 125178233 heartbeat IPC: 1.35884 cumulative IPC: 1.35806 (Simulation time: 0 hr 36 min 32 sec) 
Heartbeat CPU 0 instructions: 320000000 cycles: 126262598 heartbeat IPC: 2.61191 cumulative IPC: 0.9504 (Simulation time: 0 hr 36 min 52 sec) 
Heartbeat CPU 3 instructions: 170000003 cycles: 126306893 heartbeat IPC: 1.34937 cumulative IPC: 1.34593 (Simulation time: 0 hr 36 min 53 sec) 
Heartbeat CPU 1 instructions: 200000000 cycles: 129702069 heartbeat IPC: 1.53567 cumulative IPC: 1.542 (Simulation time: 0 hr 37 min 54 sec) 
Heartbeat CPU 0 instructions: 330000001 cycles: 130091212 heartbeat IPC: 2.61191 cumulative IPC: 0.999299 (Simulation time: 0 hr 38 min 1 sec) 
Heartbeat CPU 2 instructions: 180000000 cycles: 132547733 heartbeat IPC: 1.35694 cumulative IPC: 1.358 (Simulation time: 0 hr 38 min 45 sec) 
Heartbeat CPU 3 instructions: 180000000 cycles: 133737022 heartbeat IPC: 1.34587 cumulative IPC: 1.34592 (Simulation time: 0 hr 39 min 5 sec) 
Heartbeat CPU 0 instructions: 340000000 cycles: 133920080 heartbeat IPC: 2.61174 cumulative IPC: 1.0454 (Simulation time: 0 hr 39 min 8 sec) 
Heartbeat CPU 1 instructions: 210000001 cycles: 136310034 heartbeat IPC: 1.51333 cumulative IPC: 0.0733622 (Simulation time: 0 hr 39 min 51 sec) 
Heartbeat CPU 0 instructions: 350000002 cycles: 137748754 heartbeat IPC: 2.61187 cumulative IPC: 1.08894 (Simulation time: 0 hr 40 min 16 sec) 
Heartbeat CPU 2 instructions: 190000002 cycles: 139902882 heartbeat IPC: 1.35959 cumulative IPC: 1.35808 (Simulation time: 0 hr 40 min 56 sec) 
Heartbeat CPU 3 instructions: 190000003 cycles: 141163234 heartbeat IPC: 1.34658 cumulative IPC: 1.34596 (Simulation time: 0 hr 41 min 18 sec) 
Heartbeat CPU 0 instructions: 360000000 cycles: 141577373 heartbeat IPC: 2.61191 cumulative IPC: 1.13012 (Simulation time: 0 hr 41 min 26 sec) 
Heartbeat CPU 1 instructions: 220000000 cycles: 142759521 heartbeat IPC: 1.55051 cumulative IPC: 0.140096 (Simulation time: 0 hr 41 min 46 sec) 
Heartbeat CPU 0 instructions: 370000001 cycles: 145406124 heartbeat IPC: 2.61182 cumulative IPC: 1.16914 (Simulation time: 0 hr 42 min 33 sec) 
Heartbeat CPU 2 instructions: 200000000 cycles: 147260850 heartbeat IPC: 1.35907 cumulative IPC: 1.35813 (Simulation time: 0 hr 43 min 6 sec) 
Heartbeat CPU 3 instructions: 200000000 cycles: 148606710 heartbeat IPC: 1.34346 cumulative IPC: 1.34583 (Simulation time: 0 hr 43 min 29 sec) 

Warmup complete CPU 0 instructions: 378359378 cycles: 148606711 (Simulation time: 0 hr 43 min 29 sec) 
Warmup complete CPU 1 instructions: 228929384 cycles: 148606711 (Simulation time: 0 hr 43 min 29 sec) 
Warmup complete CPU 2 instructions: 201824770 cycles: 148606711 (Simulation time: 0 hr 43 min 29 sec) 
Warmup complete CPU 3 instructions: 200000003 cycles: 148606711 (Simulation time: 0 hr 43 min 29 sec) 

Heartbeat CPU 0 instructions: 380000000 cycles: 149712705 heartbeat IPC: 2.32203 cumulative IPC: 1.48339 (Simulation time: 0 hr 43 min 39 sec) 
Heartbeat CPU 1 instructions: 230000001 cycles: 152202596 heartbeat IPC: 1.05898 cumulative IPC: 0.297734 (Simulation time: 0 hr 43 min 59 sec) 
Heartbeat CPU 0 instructions: 390000002 cycles: 156467544 heartbeat IPC: 1.48042 cumulative IPC: 1.48084 (Simulation time: 0 hr 44 min 36 sec) 
Heartbeat CPU 0 instructions: 400000000 cycles: 163197281 heartbeat IPC: 1.48594 cumulative IPC: 1.48319 (Simulation time: 0 hr 45 min 31 sec) 
Heartbeat CPU 0 instructions: 410000000 cycles: 169936745 heartbeat IPC: 1.4838 cumulative IPC: 1.48338 (Simulation time: 0 hr 46 min 29 sec) 
Heartbeat CPU 1 instructions: 240000000 cycles: 174032411 heartbeat IPC: 0.458089 cumulative IPC: 0.43541 (Simulation time: 0 hr 47 min 7 sec) 
Heartbeat CPU 0 instructions: 420000000 cycles: 176658019 heartbeat IPC: 1.48781 cumulative IPC: 1.48444 (Simulation time: 0 hr 47 min 32 sec) 
Heartbeat CPU 0 instructions: 430000000 cycles: 183382622 heartbeat IPC: 1.48708 cumulative IPC: 1.48495 (Simulation time: 0 hr 48 min 35 sec) 
Heartbeat CPU 2 instructions: 210000003 cycles: 184328187 heartbeat IPC: 0.269779 cumulative IPC: 0.22886 (Simulation time: 0 hr 48 min 44 sec) 
Heartbeat CPU 1 instructions: 250000000 cycles: 189943472 heartbeat IPC: 0.628494 cumulative IPC: 0.509731 (Simulation time: 0 hr 49 min 36 sec) 
Heartbeat CPU 0 instructions: 440000000 cycles: 190105081 heartbeat IPC: 1.48755 cumulative IPC: 1.48537 (Simulation time: 0 hr 49 min 38 sec) 
Heartbeat CPU 3 instructions: 210000003 cycles: 194583294 heartbeat IPC: 0.217502 cumulative IPC: 0.217502 (Simulation time: 0 hr 50 min 20 sec) 
Heartbeat CPU 0 instructions: 450000002 cycles: 196826060 heartbeat IPC: 1.48788 cumulative IPC: 1.48572 (Simulation time: 0 hr 50 min 42 sec) 
Heartbeat CPU 0 instructions: 460000000 cycles: 203548787 heartbeat IPC: 1.48749 cumulative IPC: 1.48594 (Simulation time: 0 hr 51 min 45 sec) 
Heartbeat CPU 1 instructions: 260000000 cycles: 205876648 heartbeat IPC: 0.627621 cumulative IPC: 0.542529 (Simulation time: 0 hr 52 min 6 sec) 
Heartbeat CPU 0 instructions: 470000003 cycles: 210266512 heartbeat IPC: 1.4886 cumulative IPC: 1.48623 (Simulation time: 0 hr 52 min 47 sec) 
Heartbeat CPU 0 instructions: 480000000 cycles: 216989953 heartbeat IPC: 1.48733 cumulative IPC: 1.48634 (Simulation time: 0 hr 53 min 43 sec) 
Heartbeat CPU 0 instructions: 490000000 cycles: 223710624 heartbeat IPC: 1.48795 cumulative IPC: 1.48648 (Simulation time: 0 hr 54 min 39 sec) 
Heartbeat CPU 1 instructions: 270000000 cycles: 224752772 heartbeat IPC: 0.52977 cumulative IPC: 0.539366 (Simulation time: 0 hr 54 min 47 sec) 
Heartbeat CPU 2 instructions: 220000000 cycles: 227984813 heartbeat IPC: 0.22906 cumulative IPC: 0.22897 (Simulation time: 0 hr 55 min 14 sec) 
Heartbeat CPU 0 instructions: 500000000 cycles: 230427708 heartbeat IPC: 1.48874 cumulative IPC: 1.48667 (Simulation time: 0 hr 55 min 34 sec) 
Heartbeat CPU 0 instructions: 510000003 cycles: 237145997 heartbeat IPC: 1.48847 cumulative IPC: 1.4868 (Simulation time: 0 hr 56 min 29 sec) 
Heartbeat CPU 3 instructions: 220000000 cycles: 240237675 heartbeat IPC: 0.219037 cumulative IPC: 0.218267 (Simulation time: 0 hr 56 min 54 sec) 
Heartbeat CPU 0 instructions: 520000000 cycles: 243866951 heartbeat IPC: 1.48788 cumulative IPC: 1.48688 (Simulation time: 0 hr 57 min 23 sec) 
Heartbeat CPU 1 instructions: 280000000 cycles: 245357749 heartbeat IPC: 0.48532 cumulative IPC: 0.527856 (Simulation time: 0 hr 57 min 35 sec) 
Heartbeat CPU 0 instructions: 530000000 cycles: 250596540 heartbeat IPC: 1.48597 cumulative IPC: 1.48682 (Simulation time: 0 hr 58 min 18 sec) 
Heartbeat CPU 0 instructions: 540000000 cycles: 257333654 heartbeat IPC: 1.48432 cumulative IPC: 1.48667 (Simulation time: 0 hr 59 min 13 sec) 
Heartbeat CPU 0 instructions: 550000003 cycles: 264063031 heartbeat IPC: 1.48602 cumulative IPC: 1.48663 (Simulation time: 1 hr 0 min 9 sec) 
Heartbeat CPU 1 instructions: 290000000 cycles: 266967429 heartbeat IPC: 0.462756 cumulative IPC: 0.51597 (Simulation time: 1 hr 0 min 33 sec) 
Heartbeat CPU 2 instructions: 230000002 cycles: 270037660 heartbeat IPC: 0.237796 cumulative IPC: 0.232027 (Simulation time: 1 hr 0 min 59 sec) 
Heartbeat CPU 0 instructions: 560000000 cycles: 270798294 heartbeat IPC: 1.48472 cumulative IPC: 1.48652 (Simulation time: 1 hr 1 min 5 sec) 
Heartbeat CPU 0 instructions: 570000001 cycles: 277537137 heartbeat IPC: 1.48393 cumulative IPC: 1.48639 (Simulation time: 1 hr 2 min 2 sec) 
Heartbeat CPU 0 instructions: 580000000 cycles: 284277543 heartbeat IPC: 1.48359 cumulative IPC: 1.48625 (Simulation time: 1 hr 3 min 0 sec) 
Heartbeat CPU 3 instructions: 230000001 cycles: 284867509 heartbeat IPC: 0.224065 cumulative IPC: 0.220166 (Simulation time: 1 hr 3 min 5 sec) 
Heartbeat CPU 1 instructions: 300000000 cycles: 288830173 heartbeat IPC: 0.457399 cumulative IPC: 0.506838 (Simulation time: 1 hr 3 min 39 sec) 
Heartbeat CPU 0 instructions: 590000001 cycles: 291015331 heartbeat IPC: 1.48417 cumulative IPC: 1.48615 (Simulation time: 1 hr 3 min 57 sec) 
Heartbeat CPU 0 instructions: 600000000 cycles: 297761303 heartbeat IPC: 1.48237 cumulative IPC: 1.48598 (Simulation time: 1 hr 4 min 54 sec) 
Heartbeat CPU 0 instructions: 610000001 cycles: 304503424 heartbeat IPC: 1.48321 cumulative IPC: 1.48586 (Simulation time: 1 hr 5 min 52 sec) 
Heartbeat CPU 0 instructions: 620000000 cycles: 311242056 heartbeat IPC: 1.48398 cumulative IPC: 1.48578 (Simulation time: 1 hr 6 min 49 sec) 
Heartbeat CPU 1 instructions: 310000000 cycles: 311471734 heartbeat IPC: 0.441666 cumulative IPC: 0.497778 (Simulation time: 1 hr 6 min 51 sec) 
Heartbeat CPU 2 instructions: 240000000 cycles: 312466330 heartbeat IPC: 0.23569 cumulative IPC: 0.232975 (Simulation time: 1 hr 7 min 0 sec) 
Heartbeat CPU 0 instructions: 630000001 cycles: 317976268 heartbeat IPC: 1.48495 cumulative IPC: 1.48575 (Simulation time: 1 hr 7 min 46 sec) 
Heartbeat CPU 0 instructions: 640000000 cycles: 324726985 heartbeat IPC: 1.48132 cumulative IPC: 1.48558 (Simulation time: 1 hr 8 min 43 sec) 
Heartbeat CPU 3 instructions: 240000000 cycles: 329806567 heartbeat IPC: 0.222524 cumulative IPC: 0.220751 (Simulation time: 1 hr 9 min 26 sec) 
Heartbeat CPU 0 instructions: 650000001 cycles: 331471180 heartbeat IPC: 1.48276 cumulative IPC: 1.48548 (Simulation time: 1 hr 9 min 40 sec) 
Heartbeat CPU 1 instructions: 320000000 cycles: 334684965 heartbeat IPC: 0.430789 cumulative IPC: 0.489421 (Simulation time: 1 hr 10 min 7 sec) 
Heartbeat CPU 0 instructions: 660000000 cycles: 338210856 heartbeat IPC: 1.48375 cumulative IPC: 1.48541 (Simulation time: 1 hr 10 min 37 sec) 
Heartbeat CPU 0 instructions: 670000002 cycles: 344962305 heartbeat IPC: 1.48116 cumulative IPC: 1.48527 (Simulation time: 1 hr 11 min 36 sec) 
Heartbeat CPU 0 instructions: 680000000 cycles: 351713644 heartbeat IPC: 1.48119 cumulative IPC: 1.48513 (Simulation time: 1 hr 12 min 33 sec) 
Heartbeat CPU 2 instructions: 250000000 cycles: 354994823 heartbeat IPC: 0.235136 cumulative IPC: 0.233421 (Simulation time: 1 hr 13 min 0 sec) 
Heartbeat CPU 1 instructions: 330000003 cycles: 357589408 heartbeat IPC: 0.436597 cumulative IPC: 0.483632 (Simulation time: 1 hr 13 min 21 sec) 
Heartbeat CPU 0 instructions: 690000001 cycles: 358455646 heartbeat IPC: 1.48324 cumulative IPC: 1.48507 (Simulation time: 1 hr 13 min 29 sec) 
Heartbeat CPU 0 instructions: 700000000 cycles: 365200081 heartbeat IPC: 1.4827 cumulative IPC: 1.485 (Simulation time: 1 hr 14 min 26 sec) 
Heartbeat CPU 0 instructions: 710000003 cycles: 372023481 heartbeat IPC: 1.46555 cumulative IPC: 1.4844 (Simulation time: 1 hr 15 min 24 sec) 
Heartbeat CPU 3 instructions: 250000001 cycles: 373235611 heartbeat IPC: 0.230261 cumulative IPC: 0.222589 (Simulation time: 1 hr 15 min 34 sec) 
Heartbeat CPU 0 instructions: 720000000 cycles: 378989443 heartbeat IPC: 1.43555 cumulative IPC: 1.48293 (Simulation time: 1 hr 16 min 22 sec) 
Heartbeat CPU 1 instructions: 340000000 cycles: 379150216 heartbeat IPC: 0.463804 cumulative IPC: 0.481777 (Simulation time: 1 hr 16 min 23 sec) 
Heartbeat CPU 0 instructions: 730000000 cycles: 385969067 heartbeat IPC: 1.43274 cumulative IPC: 1.48145 (Simulation time: 1 hr 17 min 20 sec) 
Heartbeat CPU 0 instructions: 740000000 cycles: 392963537 heartbeat IPC: 1.4297 cumulative IPC: 1.47997 (Simulation time: 1 hr 18 min 20 sec) 
Heartbeat CPU 2 instructions: 260000000 cycles: 397308294 heartbeat IPC: 0.236331 cumulative IPC: 0.233916 (Simulation time: 1 hr 18 min 56 sec) 
Heartbeat CPU 0 instructions: 750000001 cycles: 399949022 heartbeat IPC: 1.43154 cumulative IPC: 1.47862 (Simulation time: 1 hr 19 min 19 sec) 
Heartbeat CPU 1 instructions: 350000003 cycles: 402756821 heartbeat IPC: 0.42361 cumulative IPC: 0.476374 (Simulation time: 1 hr 19 min 42 sec) 
Heartbeat CPU 0 instructions: 760000000 cycles: 406943350 heartbeat IPC: 1.42973 cumulative IPC: 1.4773 (Simulation time: 1 hr 20 min 16 sec) 
Heartbeat CPU 0 instructions: 770000000 cycles: 413922885 heartbeat IPC: 1.43276 cumulative IPC: 1.47613 (Simulation time: 1 hr 21 min 15 sec) 
Heartbeat CPU 3 instructions: 260000000 cycles: 417308033 heartbeat IPC: 0.226899 cumulative IPC: 0.223296 (Simulation time: 1 hr 21 min 44 sec) 
Heartbeat CPU 0 instructions: 780000000 cycles: 420920884 heartbeat IPC: 1.42898 cumulative IPC: 1.47492 (Simulation time: 1 hr 22 min 14 sec) 
Heartbeat CPU 1 instructions: 360000000 cycles: 425489925 heartbeat IPC: 0.439887 cumulative IPC: 0.473379 (Simulation time: 1 hr 22 min 52 sec) 
Heartbeat CPU 0 instructions: 790000003 cycles: 427913863 heartbeat IPC: 1.43001 cumulative IPC: 1.47379 (Simulation time: 1 hr 23 min 13 sec) 
Heartbeat CPU 0 instructions: 800000000 cycles: 434909230 heartbeat IPC: 1.42952 cumulative IPC: 1.47271 (Simulation time: 1 hr 24 min 11 sec) 
Heartbeat CPU 2 instructions: 270000000 cycles: 440382888 heartbeat IPC: 0.232155 cumulative IPC: 0.233656 (Simulation time: 1 hr 24 min 58 sec) 
Heartbeat CPU 0 instructions: 810000000 cycles: 441893566 heartbeat IPC: 1.43178 cumulative IPC: 1.47174 (Simulation time: 1 hr 25 min 10 sec) 
Heartbeat CPU 1 instructions: 370000003 cycles: 447524546 heartbeat IPC: 0.453831 cumulative IPC: 0.471938 (Simulation time: 1 hr 25 min 57 sec) 
Heartbeat CPU 0 instructions: 820000000 cycles: 448879659 heartbeat IPC: 1.43142 cumulative IPC: 1.4708 (Simulation time: 1 hr 26 min 9 sec) 
Heartbeat CPU 0 instructions: 830000000 cycles: 455860357 heartbeat IPC: 1.43252 cumulative IPC: 1.46993 (Simulation time: 1 hr 27 min 8 sec) 
Heartbeat CPU 3 instructions: 270000002 cycles: 461938585 heartbeat IPC: 0.224062 cumulative IPC: 0.223405 (Simulation time: 1 hr 27 min 58 sec) 
Heartbeat CPU 0 instructions: 840000000 cycles: 462850421 heartbeat IPC: 1.4306 cumulative IPC: 1.46905 (Simulation time: 1 hr 28 min 5 sec) 
Heartbeat CPU 1 instructions: 380000000 cycles: 469780948 heartbeat IPC: 0.449309 cumulative IPC: 0.47037 (Simulation time: 1 hr 29 min 4 sec) 
Heartbeat CPU 0 instructions: 850000000 cycles: 469839051 heartbeat IPC: 1.4309 cumulative IPC: 1.46822 (Simulation time: 1 hr 29 min 4 sec) 
Heartbeat CPU 0 instructions: 860000000 cycles: 476824588 heartbeat IPC: 1.43153 cumulative IPC: 1.46744 (Simulation time: 1 hr 30 min 3 sec) 
Heartbeat CPU 2 instructions: 280000000 cycles: 482816738 heartbeat IPC: 0.235661 cumulative IPC: 0.23391 (Simulation time: 1 hr 30 min 54 sec) 
Heartbeat CPU 0 instructions: 870000000 cycles: 483802687 heartbeat IPC: 1.43306 cumulative IPC: 1.46673 (Simulation time: 1 hr 31 min 3 sec) 
Heartbeat CPU 0 instructions: 880000000 cycles: 490802455 heartbeat IPC: 1.42862 cumulative IPC: 1.46595 (Simulation time: 1 hr 32 min 1 sec) 
Heartbeat CPU 1 instructions: 390000000 cycles: 491331279 heartbeat IPC: 0.46403 cumulative IPC: 0.469971 (Simulation time: 1 hr 32 min 5 sec) 
Heartbeat CPU 0 instructions: 890000002 cycles: 497783313 heartbeat IPC: 1.43249 cumulative IPC: 1.46528 (Simulation time: 1 hr 33 min 0 sec) 
Heartbeat CPU 0 instructions: 900000000 cycles: 504771753 heartbeat IPC: 1.43093 cumulative IPC: 1.4646 (Simulation time: 1 hr 33 min 58 sec) 
Heartbeat CPU 3 instructions: 280000000 cycles: 506963157 heartbeat IPC: 0.222101 cumulative IPC: 0.223241 (Simulation time: 1 hr 34 min 17 sec) 
Heartbeat CPU 0 instructions: 910000000 cycles: 511758530 heartbeat IPC: 1.43128 cumulative IPC: 1.46396 (Simulation time: 1 hr 34 min 56 sec) 
Heartbeat CPU 1 instructions: 400000000 cycles: 514465479 heartbeat IPC: 0.43226 cumulative IPC: 0.467586 (Simulation time: 1 hr 35 min 19 sec) 
Heartbeat CPU 0 instructions: 920000000 cycles: 518746164 heartbeat IPC: 1.4311 cumulative IPC: 1.46334 (Simulation time: 1 hr 35 min 55 sec) 
Heartbeat CPU 2 instructions: 290000000 cycles: 525362672 heartbeat IPC: 0.23504 cumulative IPC: 0.234038 (Simulation time: 1 hr 36 min 53 sec) 
Heartbeat CPU 0 instructions: 930000002 cycles: 525733327 heartbeat IPC: 1.4312 cumulative IPC: 1.46275 (Simulation time: 1 hr 36 min 56 sec) 
Heartbeat CPU 0 instructions: 940000000 cycles: 532724804 heartbeat IPC: 1.43031 cumulative IPC: 1.46216 (Simulation time: 1 hr 37 min 55 sec) 
Heartbeat CPU 1 instructions: 410000000 cycles: 534672619 heartbeat IPC: 0.494875 cumulative IPC: 0.469015 (Simulation time: 1 hr 38 min 11 sec) 
Heartbeat CPU 0 instructions: 950000002 cycles: 539706155 heartbeat IPC: 1.43239 cumulative IPC: 1.46162 (Simulation time: 1 hr 38 min 54 sec) 
Heartbeat CPU 0 instructions: 960000000 cycles: 546690644 heartbeat IPC: 1.43174 cumulative IPC: 1.4611 (Simulation time: 1 hr 39 min 52 sec) 
Heartbeat CPU 3 instructions: 290000001 cycles: 551487315 heartbeat IPC: 0.224597 cumulative IPC: 0.223391 (Simulation time: 1 hr 40 min 32 sec) 
Heartbeat CPU 0 instructions: 970000001 cycles: 553674570 heartbeat IPC: 1.43186 cumulative IPC: 1.4606 (Simulation time: 1 hr 40 min 51 sec) 
Heartbeat CPU 1 instructions: 420000000 cycles: 555411253 heartbeat IPC: 0.482192 cumulative IPC: 0.469687 (Simulation time: 1 hr 41 min 6 sec) 
Heartbeat CPU 0 instructions: 980000000 cycles: 560664221 heartbeat IPC: 1.43069 cumulative IPC: 1.46009 (Simulation time: 1 hr 41 min 49 sec) 
Heartbeat CPU 0 instructions: 990000002 cycles: 567648920 heartbeat IPC: 1.4317 cumulative IPC: 1.45962 (Simulation time: 1 hr 42 min 49 sec) 
Heartbeat CPU 2 instructions: 300000000 cycles: 567691311 heartbeat IPC: 0.236247 cumulative IPC: 0.234261 (Simulation time: 1 hr 42 min 49 sec) 
Heartbeat CPU 0 instructions: 1000000000 cycles: 574644807 heartbeat IPC: 1.42941 cumulative IPC: 1.45912 (Simulation time: 1 hr 43 min 46 sec) 
Heartbeat CPU 1 instructions: 430000002 cycles: 577610970 heartbeat IPC: 0.450456 cumulative IPC: 0.468691 (Simulation time: 1 hr 44 min 12 sec) 
Heartbeat CPU 0 instructions: 1010000000 cycles: 581630506 heartbeat IPC: 1.4315 cumulative IPC: 1.45867 (Simulation time: 1 hr 44 min 46 sec) 
Heartbeat CPU 0 instructions: 1020000000 cycles: 588616870 heartbeat IPC: 1.43136 cumulative IPC: 1.45824 (Simulation time: 1 hr 45 min 45 sec) 
Heartbeat CPU 3 instructions: 300000000 cycles: 595229790 heartbeat IPC: 0.228611 cumulative IPC: 0.223902 (Simulation time: 1 hr 46 min 41 sec) 
Heartbeat CPU 0 instructions: 1030000001 cycles: 595603792 heartbeat IPC: 1.43125 cumulative IPC: 1.45782 (Simulation time: 1 hr 46 min 44 sec) 
Heartbeat CPU 1 instructions: 440000000 cycles: 598896142 heartbeat IPC: 0.469811 cumulative IPC: 0.468744 (Simulation time: 1 hr 47 min 11 sec) 
Heartbeat CPU 0 instructions: 1040000000 cycles: 602602095 heartbeat IPC: 1.42892 cumulative IPC: 1.45737 (Simulation time: 1 hr 47 min 42 sec) 
Heartbeat CPU 0 instructions: 1050000000 cycles: 609589084 heartbeat IPC: 1.43123 cumulative IPC: 1.45698 (Simulation time: 1 hr 48 min 41 sec) 
Heartbeat CPU 2 instructions: 310000000 cycles: 609933734 heartbeat IPC: 0.236729 cumulative IPC: 0.234487 (Simulation time: 1 hr 48 min 44 sec) 
Heartbeat CPU 0 instructions: 1060000000 cycles: 616569313 heartbeat IPC: 1.43262 cumulative IPC: 1.45661 (Simulation time: 1 hr 49 min 39 sec) 
Heartbeat CPU 1 instructions: 450000001 cycles: 620534363 heartbeat IPC: 0.462145 cumulative IPC: 0.468442 (Simulation time: 1 hr 50 min 12 sec) 
Heartbeat CPU 0 instructions: 1070000003 cycles: 623556102 heartbeat IPC: 1.43127 cumulative IPC: 1.45624 (Simulation time: 1 hr 50 min 38 sec) 
Heartbeat CPU 0 instructions: 1080000000 cycles: 630545172 heartbeat IPC: 1.43081 cumulative IPC: 1.45587 (Simulation time: 1 hr 51 min 36 sec) 
Heartbeat CPU 0 instructions: 1090000003 cycles: 637524191 heartbeat IPC: 1.43287 cumulative IPC: 1.45554 (Simulation time: 1 hr 52 min 35 sec) 
Heartbeat CPU 3 instructions: 310000000 cycles: 639509922 heartbeat IPC: 0.225835 cumulative IPC: 0.224077 (Simulation time: 1 hr 52 min 52 sec) 
Heartbeat CPU 1 instructions: 460000000 cycles: 640557207 heartbeat IPC: 0.499429 cumulative IPC: 0.469703 (Simulation time: 1 hr 53 min 1 sec) 
Heartbeat CPU 0 instructions: 1100000000 cycles: 644503226 heartbeat IPC: 1.43286 cumulative IPC: 1.45522 (Simulation time: 1 hr 53 min 33 sec) 
Heartbeat CPU 0 instructions: 1110000002 cycles: 651486415 heartbeat IPC: 1.43201 cumulative IPC: 1.4549 (Simulation time: 1 hr 54 min 32 sec) 
Heartbeat CPU 2 instructions: 320000000 cycles: 651971524 heartbeat IPC: 0.237881 cumulative IPC: 0.234771 (Simulation time: 1 hr 54 min 36 sec) 
Heartbeat CPU 0 instructions: 1120000000 cycles: 658465567 heartbeat IPC: 1.43284 cumulative IPC: 1.4546 (Simulation time: 1 hr 55 min 30 sec) 
Heartbeat CPU 1 instructions: 470000003 cycles: 662596131 heartbeat IPC: 0.453743 cumulative IPC: 0.469019 (Simulation time: 1 hr 56 min 4 sec) 
Heartbeat CPU 0 instructions: 1130000001 cycles: 665454658 heartbeat IPC: 1.4308 cumulative IPC: 1.45428 (Simulation time: 1 hr 56 min 28 sec) 
Heartbeat CPU 0 instructions: 1140000000 cycles: 672451690 heartbeat IPC: 1.42918 cumulative IPC: 1.45394 (Simulation time: 1 hr 57 min 25 sec) 
Heartbeat CPU 0 instructions: 1150000002 cycles: 679443441 heartbeat IPC: 1.43026 cumulative IPC: 1.45363 (Simulation time: 1 hr 58 min 24 sec) 
Heartbeat CPU 3 instructions: 320000000 cycles: 683774704 heartbeat IPC: 0.225913 cumulative IPC: 0.224229 (Simulation time: 1 hr 59 min 1 sec) 
Heartbeat CPU 1 instructions: 480000000 cycles: 685452384 heartbeat IPC: 0.437517 cumulative IPC: 0.467677 (Simulation time: 1 hr 59 min 14 sec) 
Heartbeat CPU 0 instructions: 1160000000 cycles: 686435323 heartbeat IPC: 1.43023 cumulative IPC: 1.45333 (Simulation time: 1 hr 59 min 22 sec) 
Heartbeat CPU 0 instructions: 1170000002 cycles: 693422362 heartbeat IPC: 1.43122 cumulative IPC: 1.45304 (Simulation time: 2 hr 0 min 20 sec) 
Heartbeat CPU 2 instructions: 330000003 cycles: 694629522 heartbeat IPC: 0.234423 cumulative IPC: 0.234743 (Simulation time: 2 hr 0 min 31 sec) 
Heartbeat CPU 0 instructions: 1180000000 cycles: 700407889 heartbeat IPC: 1.43153 cumulative IPC: 1.45277 (Simulation time: 2 hr 1 min 20 sec) 
Heartbeat CPU 0 instructions: 1190000000 cycles: 707393834 heartbeat IPC: 1.43145 cumulative IPC: 1.4525 (Simulation time: 2 hr 2 min 18 sec) 
Heartbeat CPU 1 instructions: 490000001 cycles: 708180224 heartbeat IPC: 0.439989 cumulative IPC: 0.466553 (Simulation time: 2 hr 2 min 24 sec) 
Heartbeat CPU 0 instructions: 1200000000 cycles: 714384333 heartbeat IPC: 1.43051 cumulative IPC: 1.45223 (Simulation time: 2 hr 3 min 15 sec) 
Heartbeat CPU 0 instructions: 1210000000 cycles: 721362972 heartbeat IPC: 1.43294 cumulative IPC: 1.452 (Simulation time: 2 hr 4 min 13 sec) 
Heartbeat CPU 3 instructions: 330000000 cycles: 727934009 heartbeat IPC: 0.226453 cumulative IPC: 0.224398 (Simulation time: 2 hr 5 min 6 sec) 
Heartbeat CPU 0 instructions: 1220000000 cycles: 728345407 heartbeat IPC: 1.43217 cumulative IPC: 1.45176 (Simulation time: 2 hr 5 min 10 sec) 
Heartbeat CPU 1 instructions: 500000000 cycles: 732197376 heartbeat IPC: 0.416369 cumulative IPC: 0.464488 (Simulation time: 2 hr 5 min 42 sec) 
Heartbeat CPU 0 instructions: 1230000002 cycles: 735327792 heartbeat IPC: 1.43218 cumulative IPC: 1.45153 (Simulation time: 2 hr 6 min 8 sec) 
Heartbeat CPU 2 instructions: 340000000 cycles: 737000326 heartbeat IPC: 0.236012 cumulative IPC: 0.234835 (Simulation time: 2 hr 6 min 21 sec) 
Heartbeat CPU 0 instructions: 1240000000 cycles: 742313000 heartbeat IPC: 1.4316 cumulative IPC: 1.45129 (Simulation time: 2 hr 7 min 4 sec) 
Heartbeat CPU 0 instructions: 1250000000 cycles: 749296711 heartbeat IPC: 1.4319 cumulative IPC: 1.45107 (Simulation time: 2 hr 8 min 3 sec) 
Heartbeat CPU 1 instructions: 510000001 cycles: 755149455 heartbeat IPC: 0.43569 cumulative IPC: 0.463398 (Simulation time: 2 hr 8 min 53 sec) 
Heartbeat CPU 0 instructions: 1260000000 cycles: 756286838 heartbeat IPC: 1.43059 cumulative IPC: 1.45083 (Simulation time: 2 hr 9 min 2 sec) 
Heartbeat CPU 0 instructions: 1270000000 cycles: 763284275 heartbeat IPC: 1.42909 cumulative IPC: 1.45058 (Simulation time: 2 hr 10 min 0 sec) 
Heartbeat CPU 0 instructions: 1280000000 cycles: 770272930 heartbeat IPC: 1.43089 cumulative IPC: 1.45036 (Simulation time: 2 hr 10 min 59 sec) 
Heartbeat CPU 3 instructions: 340000000 cycles: 771729227 heartbeat IPC: 0.228335 cumulative IPC: 0.224675 (Simulation time: 2 hr 11 min 11 sec) 
Heartbeat CPU 0 instructions: 1290000000 cycles: 777258058 heartbeat IPC: 1.43161 cumulative IPC: 1.45015 (Simulation time: 2 hr 11 min 58 sec) 
Heartbeat CPU 1 instructions: 520000000 cycles: 777978260 heartbeat IPC: 0.438043 cumulative IPC: 0.462478 (Simulation time: 2 hr 12 min 4 sec) 
Heartbeat CPU 2 instructions: 350000001 cycles: 780049380 heartbeat IPC: 0.232293 cumulative IPC: 0.234661 (Simulation time: 2 hr 12 min 21 sec) 
Heartbeat CPU 0 instructions: 1300000000 cycles: 784245877 heartbeat IPC: 1.43106 cumulative IPC: 1.44994 (Simulation time: 2 hr 12 min 56 sec) 
Heartbeat CPU 0 instructions: 1310000000 cycles: 791232102 heartbeat IPC: 1.43139 cumulative IPC: 1.44974 (Simulation time: 2 hr 13 min 54 sec) 
Heartbeat CPU 0 instructions: 1320000000 cycles: 798215388 heartbeat IPC: 1.43199 cumulative IPC: 1.44955 (Simulation time: 2 hr 14 min 53 sec) 
Heartbeat CPU 1 instructions: 530000000 cycles: 799108268 heartbeat IPC: 0.473261 cumulative IPC: 0.462828 (Simulation time: 2 hr 15 min 1 sec) 
Heartbeat CPU 0 instructions: 1330000002 cycles: 805199383 heartbeat IPC: 1.43185 cumulative IPC: 1.44936 (Simulation time: 2 hr 15 min 52 sec) 
Heartbeat CPU 0 instructions: 1340000000 cycles: 812182473 heartbeat IPC: 1.43203 cumulative IPC: 1.44918 (Simulation time: 2 hr 16 min 52 sec) 
Heartbeat CPU 3 instructions: 350000000 cycles: 815963881 heartbeat IPC: 0.226067 cumulative IPC: 0.224767 (Simulation time: 2 hr 17 min 23 sec) 
Heartbeat CPU 0 instructions: 1350000002 cycles: 819168343 heartbeat IPC: 1.43146 cumulative IPC: 1.449 (Simulation time: 2 hr 17 min 49 sec) 
Heartbeat CPU 1 instructions: 540000000 cycles: 819290259 heartbeat IPC: 0.495491 cumulative IPC: 0.463811 (Simulation time: 2 hr 17 min 50 sec) 
Heartbeat CPU 2 instructions: 360000000 cycles: 822390976 heartbeat IPC: 0.236174 cumulative IPC: 0.234756 (Simulation time: 2 hr 18 min 16 sec) 
Heartbeat CPU 0 instructions: 1360000000 cycles: 826161344 heartbeat IPC: 1.43 cumulative IPC: 1.4488 (Simulation time: 2 hr 18 min 46 sec) 
Heartbeat CPU 0 instructions: 1370000000 cycles: 833142913 heartbeat IPC: 1.43234 cumulative IPC: 1.44863 (Simulation time: 2 hr 19 min 44 sec) 
Finished CPU 0 instructions: 1000000002 cycles: 690378247 cumulative IPC: 1.44848 (Simulation time: 2 hr 20 min 32 sec) 
Heartbeat CPU 0 instructions: 1380000000 cycles: 840127708 heartbeat IPC: 1.43168 cumulative IPC: 1.44846 (Simulation time: 2 hr 20 min 42 sec) 
Heartbeat CPU 1 instructions: 550000001 cycles: 844150399 heartbeat IPC: 0.40225 cumulative IPC: 0.461611 (Simulation time: 2 hr 21 min 15 sec) 
Heartbeat CPU 0 instructions: 1390000000 cycles: 847116002 heartbeat IPC: 1.43096 cumulative IPC: 1.44829 (Simulation time: 2 hr 21 min 39 sec) 
Heartbeat CPU 0 instructions: 1400000000 cycles: 854101785 heartbeat IPC: 1.43148 cumulative IPC: 1.44812 (Simulation time: 2 hr 22 min 38 sec) 
Heartbeat CPU 3 instructions: 360000000 cycles: 859964134 heartbeat IPC: 0.227271 cumulative IPC: 0.224922 (Simulation time: 2 hr 23 min 25 sec) 
Heartbeat CPU 0 instructions: 1410000001 cycles: 860951059 heartbeat IPC: 1.46001 cumulative IPC: 1.44823 (Simulation time: 2 hr 23 min 33 sec) 
Heartbeat CPU 2 instructions: 370000001 cycles: 864827694 heartbeat IPC: 0.235645 cumulative IPC: 0.234809 (Simulation time: 2 hr 24 min 6 sec) 
Heartbeat CPU 1 instructions: 560000000 cycles: 867571564 heartbeat IPC: 0.426964 cumulative IPC: 0.460482 (Simulation time: 2 hr 24 min 28 sec) 
Heartbeat CPU 0 instructions: 1420000000 cycles: 867694715 heartbeat IPC: 1.48287 cumulative IPC: 1.44856 (Simulation time: 2 hr 24 min 29 sec) 
Heartbeat CPU 0 instructions: 1430000001 cycles: 874432727 heartbeat IPC: 1.48412 cumulative IPC: 1.44889 (Simulation time: 2 hr 25 min 27 sec) 
Heartbeat CPU 0 instructions: 1440000000 cycles: 881173054 heartbeat IPC: 1.48361 cumulative IPC: 1.44921 (Simulation time: 2 hr 26 min 24 sec) 
Heartbeat CPU 0 instructions: 1450000000 cycles: 887909569 heartbeat IPC: 1.48445 cumulative IPC: 1.44953 (Simulation time: 2 hr 27 min 22 sec) 
Heartbeat CPU 1 instructions: 570000000 cycles: 888365797 heartbeat IPC: 0.480903 cumulative IPC: 0.461056 (Simulation time: 2 hr 27 min 26 sec) 
Heartbeat CPU 0 instructions: 1460000000 cycles: 894659126 heartbeat IPC: 1.48158 cumulative IPC: 1.44982 (Simulation time: 2 hr 28 min 19 sec) 
Heartbeat CPU 0 instructions: 1470000003 cycles: 901396602 heartbeat IPC: 1.48424 cumulative IPC: 1.45013 (Simulation time: 2 hr 29 min 17 sec) 
Heartbeat CPU 3 instructions: 370000000 cycles: 904234142 heartbeat IPC: 0.225887 cumulative IPC: 0.224979 (Simulation time: 2 hr 29 min 40 sec) 
Heartbeat CPU 2 instructions: 380000000 cycles: 907371065 heartbeat IPC: 0.235054 cumulative IPC: 0.234823 (Simulation time: 2 hr 30 min 7 sec) 
Heartbeat CPU 0 instructions: 1480000000 cycles: 908134668 heartbeat IPC: 1.4841 cumulative IPC: 1.45043 (Simulation time: 2 hr 30 min 14 sec) 
Heartbeat CPU 1 instructions: 580000000 cycles: 911156098 heartbeat IPC: 0.438783 cumulative IPC: 0.460391 (Simulation time: 2 hr 30 min 40 sec) 
Heartbeat CPU 0 instructions: 1490000003 cycles: 914873814 heartbeat IPC: 1.48387 cumulative IPC: 1.45072 (Simulation time: 2 hr 31 min 11 sec) 
Heartbeat CPU 0 instructions: 1500000000 cycles: 921621363 heartbeat IPC: 1.48202 cumulative IPC: 1.451 (Simulation time: 2 hr 32 min 9 sec) 
Heartbeat CPU 0 instructions: 1510000003 cycles: 928362644 heartbeat IPC: 1.4834 cumulative IPC: 1.45128 (Simulation time: 2 hr 33 min 6 sec) 
Heartbeat CPU 1 instructions: 590000000 cycles: 933446728 heartbeat IPC: 0.448619 cumulative IPC: 0.460056 (Simulation time: 2 hr 33 min 50 sec) 
Heartbeat CPU 0 instructions: 1520000000 cycles: 935100274 heartbeat IPC: 1.4842 cumulative IPC: 1.45156 (Simulation time: 2 hr 34 min 5 sec) 
Heartbeat CPU 0 instructions: 1530000002 cycles: 941844107 heartbeat IPC: 1.48284 cumulative IPC: 1.45182 (Simulation time: 2 hr 35 min 1 sec) 
Heartbeat CPU 3 instructions: 380000000 cycles: 948095603 heartbeat IPC: 0.227991 cumulative IPC: 0.225144 (Simulation time: 2 hr 35 min 54 sec) 
Heartbeat CPU 0 instructions: 1540000000 cycles: 948584220 heartbeat IPC: 1.48365 cumulative IPC: 1.45209 (Simulation time: 2 hr 35 min 58 sec) 
Heartbeat CPU 2 instructions: 390000002 cycles: 949496215 heartbeat IPC: 0.237388 cumulative IPC: 0.234958 (Simulation time: 2 hr 36 min 6 sec) 
Heartbeat CPU 0 instructions: 1550000002 cycles: 955323328 heartbeat IPC: 1.48388 cumulative IPC: 1.45236 (Simulation time: 2 hr 36 min 55 sec) 
Heartbeat CPU 1 instructions: 600000000 cycles: 956142533 heartbeat IPC: 0.44061 cumulative IPC: 0.45951 (Simulation time: 2 hr 37 min 2 sec) 
Heartbeat CPU 0 instructions: 1560000000 cycles: 962064191 heartbeat IPC: 1.48349 cumulative IPC: 1.45262 (Simulation time: 2 hr 37 min 52 sec) 
Heartbeat CPU 0 instructions: 1570000003 cycles: 968799395 heartbeat IPC: 1.48474 cumulative IPC: 1.45288 (Simulation time: 2 hr 38 min 49 sec) 
Heartbeat CPU 0 instructions: 1580000000 cycles: 975544534 heartbeat IPC: 1.48255 cumulative IPC: 1.45312 (Simulation time: 2 hr 39 min 44 sec) 
Heartbeat CPU 1 instructions: 610000003 cycles: 978702773 heartbeat IPC: 0.443258 cumulative IPC: 0.459068 (Simulation time: 2 hr 40 min 11 sec) 
Heartbeat CPU 0 instructions: 1590000003 cycles: 982282949 heartbeat IPC: 1.48403 cumulative IPC: 1.45337 (Simulation time: 2 hr 40 min 42 sec) 
Heartbeat CPU 0 instructions: 1600000000 cycles: 989018729 heartbeat IPC: 1.48461 cumulative IPC: 1.45362 (Simulation time: 2 hr 41 min 40 sec) 
Heartbeat CPU 2 instructions: 400000000 cycles: 991805213 heartbeat IPC: 0.236356 cumulative IPC: 0.235028 (Simulation time: 2 hr 42 min 3 sec) 
Heartbeat CPU 3 instructions: 390000000 cycles: 991979555 heartbeat IPC: 0.227874 cumulative IPC: 0.225286 (Simulation time: 2 hr 42 min 5 sec) 
Heartbeat CPU 0 instructions: 1610000000 cycles: 995761083 heartbeat IPC: 1.48316 cumulative IPC: 1.45386 (Simulation time: 2 hr 42 min 37 sec) 
Heartbeat CPU 1 instructions: 620000000 cycles: 1000474249 heartbeat IPC: 0.459316 cumulative IPC: 0.459074 (Simulation time: 2 hr 43 min 17 sec) 
Heartbeat CPU 0 instructions: 1620000000 cycles: 1002514469 heartbeat IPC: 1.48074 cumulative IPC: 1.45407 (Simulation time: 2 hr 43 min 34 sec) 
Heartbeat CPU 0 instructions: 1630000001 cycles: 1009246605 heartbeat IPC: 1.48541 cumulative IPC: 1.45431 (Simulation time: 2 hr 44 min 29 sec) 
Heartbeat CPU 0 instructions: 1640000000 cycles: 1015994725 heartbeat IPC: 1.48189 cumulative IPC: 1.45453 (Simulation time: 2 hr 45 min 27 sec) 
Heartbeat CPU 0 instructions: 1650000001 cycles: 1022730332 heartbeat IPC: 1.48465 cumulative IPC: 1.45476 (Simulation time: 2 hr 46 min 23 sec) 
Heartbeat CPU 1 instructions: 630000000 cycles: 1023323460 heartbeat IPC: 0.437652 cumulative IPC: 0.458515 (Simulation time: 2 hr 46 min 28 sec) 
Heartbeat CPU 0 instructions: 1660000000 cycles: 1029478326 heartbeat IPC: 1.48192 cumulative IPC: 1.45497 (Simulation time: 2 hr 47 min 21 sec) 
Heartbeat CPU 2 instructions: 410000000 cycles: 1034456062 heartbeat IPC: 0.234462 cumulative IPC: 0.235001 (Simulation time: 2 hr 48 min 3 sec) 
Heartbeat CPU 3 instructions: 400000000 cycles: 1036220445 heartbeat IPC: 0.226035 cumulative IPC: 0.225323 (Simulation time: 2 hr 48 min 17 sec) 
Heartbeat CPU 0 instructions: 1670000003 cycles: 1036225716 heartbeat IPC: 1.48205 cumulative IPC: 1.45517 (Simulation time: 2 hr 48 min 17 sec) 
Heartbeat CPU 0 instructions: 1680000000 cycles: 1042964017 heartbeat IPC: 1.48405 cumulative IPC: 1.45539 (Simulation time: 2 hr 49 min 14 sec) 
Heartbeat CPU 1 instructions: 640000000 cycles: 1047389712 heartbeat IPC: 0.41552 cumulative IPC: 0.457364 (Simulation time: 2 hr 49 min 50 sec) 
Heartbeat CPU 0 instructions: 1690000001 cycles: 1049709969 heartbeat IPC: 1.48237 cumulative IPC: 1.45559 (Simulation time: 2 hr 50 min 11 sec) 
Heartbeat CPU 0 instructions: 1700000000 cycles: 1056451280 heartbeat IPC: 1.48339 cumulative IPC: 1.4558 (Simulation time: 2 hr 51 min 8 sec) 
Heartbeat CPU 0 instructions: 1710000000 cycles: 1063191590 heartbeat IPC: 1.48361 cumulative IPC: 1.45601 (Simulation time: 2 hr 52 min 5 sec) 
Heartbeat CPU 1 instructions: 650000001 cycles: 1068328630 heartbeat IPC: 0.47758 cumulative IPC: 0.457824 (Simulation time: 2 hr 52 min 49 sec) 
Heartbeat CPU 0 instructions: 1720000000 cycles: 1069932080 heartbeat IPC: 1.48357 cumulative IPC: 1.45621 (Simulation time: 2 hr 53 min 3 sec) 
Heartbeat CPU 2 instructions: 420000000 cycles: 1076435191 heartbeat IPC: 0.238214 cumulative IPC: 0.235146 (Simulation time: 2 hr 53 min 57 sec) 
Heartbeat CPU 0 instructions: 1730000000 cycles: 1076670469 heartbeat IPC: 1.48403 cumulative IPC: 1.45641 (Simulation time: 2 hr 53 min 59 sec) 
Heartbeat CPU 3 instructions: 410000000 cycles: 1079996721 heartbeat IPC: 0.228434 cumulative IPC: 0.225469 (Simulation time: 2 hr 54 min 27 sec) 
Heartbeat CPU 0 instructions: 1740000000 cycles: 1083413131 heartbeat IPC: 1.48309 cumulative IPC: 1.4566 (Simulation time: 2 hr 54 min 57 sec) 
Heartbeat CPU 0 instructions: 1750000001 cycles: 1090151881 heartbeat IPC: 1.48395 cumulative IPC: 1.4568 (Simulation time: 2 hr 55 min 53 sec) 
Heartbeat CPU 1 instructions: 660000000 cycles: 1090438241 heartbeat IPC: 0.452292 cumulative IPC: 0.457694 (Simulation time: 2 hr 55 min 55 sec) 
Heartbeat CPU 0 instructions: 1760000000 cycles: 1096896019 heartbeat IPC: 1.48277 cumulative IPC: 1.45698 (Simulation time: 2 hr 56 min 49 sec) 
Heartbeat CPU 0 instructions: 1770000000 cycles: 1103641425 heartbeat IPC: 1.48249 cumulative IPC: 1.45716 (Simulation time: 2 hr 57 min 45 sec) 
Heartbeat CPU 0 instructions: 1780000000 cycles: 1110379789 heartbeat IPC: 1.48404 cumulative IPC: 1.45735 (Simulation time: 2 hr 58 min 42 sec) 
Heartbeat CPU 1 instructions: 670000000 cycles: 1114690585 heartbeat IPC: 0.412331 cumulative IPC: 0.456555 (Simulation time: 2 hr 59 min 18 sec) 
Heartbeat CPU 0 instructions: 1790000003 cycles: 1117116676 heartbeat IPC: 1.48437 cumulative IPC: 1.45754 (Simulation time: 2 hr 59 min 39 sec) 
Heartbeat CPU 2 instructions: 430000000 cycles: 1118990897 heartbeat IPC: 0.234986 cumulative IPC: 0.235139 (Simulation time: 2 hr 59 min 54 sec) 
Heartbeat CPU 0 instructions: 1800000000 cycles: 1123862294 heartbeat IPC: 1.48244 cumulative IPC: 1.45771 (Simulation time: 3 hr 0 min 36 sec) 
Heartbeat CPU 3 instructions: 420000000 cycles: 1124147311 heartbeat IPC: 0.226498 cumulative IPC: 0.225516 (Simulation time: 3 hr 0 min 39 sec) 
Heartbeat CPU 0 instructions: 1810000001 cycles: 1130604700 heartbeat IPC: 1.48315 cumulative IPC: 1.45789 (Simulation time: 3 hr 1 min 34 sec) 
Heartbeat CPU 1 instructions: 680000000 cycles: 1134750561 heartbeat IPC: 0.498505 cumulative IPC: 0.457409 (Simulation time: 3 hr 2 min 9 sec) 
Heartbeat CPU 0 instructions: 1820000000 cycles: 1137348158 heartbeat IPC: 1.48292 cumulative IPC: 1.45806 (Simulation time: 3 hr 2 min 31 sec) 
Heartbeat CPU 0 instructions: 1830000000 cycles: 1144090975 heartbeat IPC: 1.48306 cumulative IPC: 1.45823 (Simulation time: 3 hr 3 min 27 sec) 
Heartbeat CPU 0 instructions: 1840000000 cycles: 1150831387 heartbeat IPC: 1.48359 cumulative IPC: 1.4584 (Simulation time: 3 hr 4 min 25 sec) 
Heartbeat CPU 0 instructions: 1850000003 cycles: 1157572523 heartbeat IPC: 1.48343 cumulative IPC: 1.45856 (Simulation time: 3 hr 5 min 21 sec) 
Heartbeat CPU 1 instructions: 690000000 cycles: 1157726569 heartbeat IPC: 0.435237 cumulative IPC: 0.456904 (Simulation time: 3 hr 5 min 22 sec) 
Heartbeat CPU 2 instructions: 440000000 cycles: 1160991599 heartbeat IPC: 0.238091 cumulative IPC: 0.235262 (Simulation time: 3 hr 5 min 51 sec) 
Heartbeat CPU 0 instructions: 1860000000 cycles: 1164312291 heartbeat IPC: 1.48373 cumulative IPC: 1.45873 (Simulation time: 3 hr 6 min 18 sec) 
Heartbeat CPU 3 instructions: 430000001 cycles: 1168499672 heartbeat IPC: 0.225467 cumulative IPC: 0.225514 (Simulation time: 3 hr 6 min 54 sec) 
Heartbeat CPU 0 instructions: 1870000003 cycles: 1171050825 heartbeat IPC: 1.484 cumulative IPC: 1.4589 (Simulation time: 3 hr 7 min 16 sec) 
Heartbeat CPU 0 instructions: 1880000000 cycles: 1177797022 heartbeat IPC: 1.48232 cumulative IPC: 1.45905 (Simulation time: 3 hr 8 min 14 sec) 
Heartbeat CPU 1 instructions: 700000000 cycles: 1179537319 heartbeat IPC: 0.45849 cumulative IPC: 0.456937 (Simulation time: 3 hr 8 min 28 sec) 
Heartbeat CPU 0 instructions: 1890000001 cycles: 1184545984 heartbeat IPC: 1.48171 cumulative IPC: 1.4592 (Simulation time: 3 hr 9 min 11 sec) 
Heartbeat CPU 0 instructions: 1900000000 cycles: 1191287514 heartbeat IPC: 1.48334 cumulative IPC: 1.45935 (Simulation time: 3 hr 10 min 8 sec) 
Heartbeat CPU 0 instructions: 1910000001 cycles: 1198022216 heartbeat IPC: 1.48485 cumulative IPC: 1.45952 (Simulation time: 3 hr 11 min 6 sec) 
Heartbeat CPU 1 instructions: 710000000 cycles: 1201544067 heartbeat IPC: 0.454406 cumulative IPC: 0.456884 (Simulation time: 3 hr 11 min 35 sec) 
Heartbeat CPU 2 instructions: 450000002 cycles: 1203730756 heartbeat IPC: 0.233978 cumulative IPC: 0.23521 (Simulation time: 3 hr 11 min 54 sec) 
Heartbeat CPU 0 instructions: 1920000000 cycles: 1204766541 heartbeat IPC: 1.48273 cumulative IPC: 1.45967 (Simulation time: 3 hr 12 min 3 sec) 
Heartbeat CPU 0 instructions: 1930000002 cycles: 1211511926 heartbeat IPC: 1.4825 cumulative IPC: 1.45981 (Simulation time: 3 hr 13 min 1 sec) 
Heartbeat CPU 3 instructions: 440000000 cycles: 1212619461 heartbeat IPC: 0.226656 cumulative IPC: 0.225561 (Simulation time: 3 hr 13 min 10 sec) 
Heartbeat CPU 0 instructions: 1940000000 cycles: 1218250769 heartbeat IPC: 1.48393 cumulative IPC: 1.45996 (Simulation time: 3 hr 13 min 59 sec) 
Heartbeat CPU 1 instructions: 720000000 cycles: 1222222274 heartbeat IPC: 0.483601 cumulative IPC: 0.457399 (Simulation time: 3 hr 14 min 33 sec) 
Heartbeat CPU 0 instructions: 1950000000 cycles: 1224999644 heartbeat IPC: 1.48173 cumulative IPC: 1.4601 (Simulation time: 3 hr 14 min 56 sec) 
Heartbeat CPU 0 instructions: 1960000000 cycles: 1231738872 heartbeat IPC: 1.48385 cumulative IPC: 1.46025 (Simulation time: 3 hr 15 min 53 sec) 
Heartbeat CPU 0 instructions: 1970000001 cycles: 1238489624 heartbeat IPC: 1.48132 cumulative IPC: 1.46038 (Simulation time: 3 hr 16 min 50 sec) 
Heartbeat CPU 1 instructions: 730000000 cycles: 1244860141 heartbeat IPC: 0.441738 cumulative IPC: 0.457076 (Simulation time: 3 hr 17 min 43 sec) 
Heartbeat CPU 2 instructions: 460000000 cycles: 1245230485 heartbeat IPC: 0.240965 cumulative IPC: 0.235427 (Simulation time: 3 hr 17 min 46 sec) 
Heartbeat CPU 0 instructions: 1980000000 cycles: 1245231364 heartbeat IPC: 1.4833 cumulative IPC: 1.46052 (Simulation time: 3 hr 17 min 46 sec) 
Heartbeat CPU 0 instructions: 1990000001 cycles: 1251970996 heartbeat IPC: 1.48376 cumulative IPC: 1.46066 (Simulation time: 3 hr 18 min 44 sec) 
Heartbeat CPU 3 instructions: 450000000 cycles: 1256547489 heartbeat IPC: 0.227645 cumulative IPC: 0.225644 (Simulation time: 3 hr 19 min 22 sec) 
*** Reached end of trace for Core: 0 Repeating trace: /scratch/user/djimenez/champsim-traces/speccpu2017/xz/607.cactuBSSN_s/607.cactuBSSN_s-4248B.champsimtrace.xz
Heartbeat CPU 0 instructions: 2000000000 cycles: 1258719918 heartbeat IPC: 1.48172 cumulative IPC: 1.46079 (Simulation time: 3 hr 19 min 41 sec) 
Heartbeat CPU 0 instructions: 2010000003 cycles: 1265589717 heartbeat IPC: 1.45565 cumulative IPC: 1.46076 (Simulation time: 3 hr 20 min 38 sec) 
Heartbeat CPU 1 instructions: 740000000 cycles: 1266348955 heartbeat IPC: 0.465358 cumulative IPC: 0.457235 (Simulation time: 3 hr 20 min 45 sec) 
Heartbeat CPU 0 instructions: 2020000000 cycles: 1272464374 heartbeat IPC: 1.45462 cumulative IPC: 1.46072 (Simulation time: 3 hr 21 min 36 sec) 
Heartbeat CPU 0 instructions: 2030000001 cycles: 1279340517 heartbeat IPC: 1.4543 cumulative IPC: 1.46068 (Simulation time: 3 hr 22 min 36 sec) 
Heartbeat CPU 0 instructions: 2040000000 cycles: 1286218723 heartbeat IPC: 1.45387 cumulative IPC: 1.46064 (Simulation time: 3 hr 23 min 33 sec) 
Heartbeat CPU 2 instructions: 470000001 cycles: 1287461245 heartbeat IPC: 0.236794 cumulative IPC: 0.235478 (Simulation time: 3 hr 23 min 44 sec) 
Heartbeat CPU 1 instructions: 750000000 cycles: 1288290412 heartbeat IPC: 0.455758 cumulative IPC: 0.457206 (Simulation time: 3 hr 23 min 51 sec) 
Heartbeat CPU 0 instructions: 2050000000 cycles: 1293090815 heartbeat IPC: 1.45516 cumulative IPC: 1.46061 (Simulation time: 3 hr 24 min 32 sec) 
Heartbeat CPU 0 instructions: 2060000000 cycles: 1299917122 heartbeat IPC: 1.46492 cumulative IPC: 1.46063 (Simulation time: 3 hr 25 min 31 sec) 
Heartbeat CPU 3 instructions: 460000000 cycles: 1300538923 heartbeat IPC: 0.227317 cumulative IPC: 0.225708 (Simulation time: 3 hr 25 min 36 sec) 
Heartbeat CPU 0 instructions: 2070000000 cycles: 1306661010 heartbeat IPC: 1.48282 cumulative IPC: 1.46076 (Simulation time: 3 hr 26 min 28 sec) 
Heartbeat CPU 1 instructions: 760000000 cycles: 1309422865 heartbeat IPC: 0.473206 cumulative IPC: 0.457498 (Simulation time: 3 hr 26 min 51 sec) 
Heartbeat CPU 0 instructions: 2080000000 cycles: 1313402509 heartbeat IPC: 1.48335 cumulative IPC: 1.46089 (Simulation time: 3 hr 27 min 25 sec) 
Heartbeat CPU 0 instructions: 2090000000 cycles: 1320142426 heartbeat IPC: 1.4837 cumulative IPC: 1.46102 (Simulation time: 3 hr 28 min 22 sec) 
Heartbeat CPU 0 instructions: 2100000000 cycles: 1326883966 heartbeat IPC: 1.48334 cumulative IPC: 1.46115 (Simulation time: 3 hr 29 min 21 sec) 
Heartbeat CPU 1 instructions: 770000001 cycles: 1329048652 heartbeat IPC: 0.509534 cumulative IPC: 0.458363 (Simulation time: 3 hr 29 min 39 sec) 
Heartbeat CPU 2 instructions: 480000000 cycles: 1329491009 heartbeat IPC: 0.237927 cumulative IPC: 0.235565 (Simulation time: 3 hr 29 min 43 sec) 
Heartbeat CPU 0 instructions: 2110000000 cycles: 1333620227 heartbeat IPC: 1.4845 cumulative IPC: 1.46128 (Simulation time: 3 hr 30 min 19 sec) 
Heartbeat CPU 0 instructions: 2120000000 cycles: 1340361636 heartbeat IPC: 1.48337 cumulative IPC: 1.46141 (Simulation time: 3 hr 31 min 16 sec) 
Heartbeat CPU 3 instructions: 470000000 cycles: 1344353398 heartbeat IPC: 0.228235 cumulative IPC: 0.2258 (Simulation time: 3 hr 31 min 50 sec) 
Heartbeat CPU 0 instructions: 2130000001 cycles: 1347106188 heartbeat IPC: 1.48268 cumulative IPC: 1.46153 (Simulation time: 3 hr 32 min 13 sec) 
Heartbeat CPU 1 instructions: 780000000 cycles: 1350211223 heartbeat IPC: 0.472532 cumulative IPC: 0.458612 (Simulation time: 3 hr 32 min 38 sec) 
Heartbeat CPU 0 instructions: 2140000000 cycles: 1353852571 heartbeat IPC: 1.48228 cumulative IPC: 1.46164 (Simulation time: 3 hr 33 min 9 sec) 
Heartbeat CPU 0 instructions: 2150000001 cycles: 1360591477 heartbeat IPC: 1.48392 cumulative IPC: 1.46177 (Simulation time: 3 hr 34 min 6 sec) 
Heartbeat CPU 0 instructions: 2160000000 cycles: 1367338117 heartbeat IPC: 1.48222 cumulative IPC: 1.46188 (Simulation time: 3 hr 35 min 3 sec) 
Heartbeat CPU 1 instructions: 790000003 cycles: 1371140993 heartbeat IPC: 0.477788 cumulative IPC: 0.458941 (Simulation time: 3 hr 35 min 36 sec) 
Heartbeat CPU 2 instructions: 490000002 cycles: 1371209193 heartbeat IPC: 0.239704 cumulative IPC: 0.235706 (Simulation time: 3 hr 35 min 36 sec) 
Heartbeat CPU 0 instructions: 2170000001 cycles: 1374076914 heartbeat IPC: 1.48394 cumulative IPC: 1.462 (Simulation time: 3 hr 36 min 0 sec) 
Heartbeat CPU 0 instructions: 2180000000 cycles: 1380817079 heartbeat IPC: 1.48364 cumulative IPC: 1.46212 (Simulation time: 3 hr 36 min 57 sec) 
Heartbeat CPU 0 instructions: 2190000002 cycles: 1387561031 heartbeat IPC: 1.48281 cumulative IPC: 1.46223 (Simulation time: 3 hr 37 min 55 sec) 
Heartbeat CPU 3 instructions: 480000000 cycles: 1388032919 heartbeat IPC: 0.22894 cumulative IPC: 0.225911 (Simulation time: 3 hr 37 min 59 sec) 
Heartbeat CPU 1 instructions: 800000000 cycles: 1392890217 heartbeat IPC: 0.459786 cumulative IPC: 0.458955 (Simulation time: 3 hr 38 min 39 sec) 
Heartbeat CPU 0 instructions: 2200000000 cycles: 1394313337 heartbeat IPC: 1.48098 cumulative IPC: 1.46234 (Simulation time: 3 hr 38 min 51 sec) 
Heartbeat CPU 0 instructions: 2210000000 cycles: 1401060330 heartbeat IPC: 1.48214 cumulative IPC: 1.46244 (Simulation time: 3 hr 39 min 47 sec) 
Heartbeat CPU 0 instructions: 2220000000 cycles: 1407808366 heartbeat IPC: 1.48191 cumulative IPC: 1.46255 (Simulation time: 3 hr 40 min 45 sec) 
Heartbeat CPU 2 instructions: 500000000 cycles: 1413286754 heartbeat IPC: 0.237656 cumulative IPC: 0.235771 (Simulation time: 3 hr 41 min 32 sec) 
Heartbeat CPU 0 instructions: 2230000001 cycles: 1414548124 heartbeat IPC: 1.48373 cumulative IPC: 1.46266 (Simulation time: 3 hr 41 min 43 sec) 
Heartbeat CPU 1 instructions: 810000001 cycles: 1415398836 heartbeat IPC: 0.444274 cumulative IPC: 0.458695 (Simulation time: 3 hr 41 min 50 sec) 
Heartbeat CPU 0 instructions: 2240000000 cycles: 1421290620 heartbeat IPC: 1.48313 cumulative IPC: 1.46277 (Simulation time: 3 hr 42 min 40 sec) 
Heartbeat CPU 0 instructions: 2250000000 cycles: 1428036560 heartbeat IPC: 1.48237 cumulative IPC: 1.46287 (Simulation time: 3 hr 43 min 39 sec) 
Heartbeat CPU 3 instructions: 490000000 cycles: 1433577460 heartbeat IPC: 0.219565 cumulative IPC: 0.225686 (Simulation time: 3 hr 44 min 26 sec) 
Heartbeat CPU 0 instructions: 2260000000 cycles: 1434783830 heartbeat IPC: 1.48208 cumulative IPC: 1.46297 (Simulation time: 3 hr 44 min 37 sec) 
Heartbeat CPU 1 instructions: 820000000 cycles: 1435822010 heartbeat IPC: 0.48964 cumulative IPC: 0.459186 (Simulation time: 3 hr 44 min 46 sec) 
Heartbeat CPU 0 instructions: 2270000002 cycles: 1441520614 heartbeat IPC: 1.48439 cumulative IPC: 1.46308 (Simulation time: 3 hr 45 min 35 sec) 
Heartbeat CPU 0 instructions: 2280000000 cycles: 1448264589 heartbeat IPC: 1.4828 cumulative IPC: 1.46319 (Simulation time: 3 hr 46 min 33 sec) 
Heartbeat CPU 0 instructions: 2290000000 cycles: 1455008722 heartbeat IPC: 1.48277 cumulative IPC: 1.46329 (Simulation time: 3 hr 47 min 31 sec) 
Heartbeat CPU 2 instructions: 510000002 cycles: 1455076850 heartbeat IPC: 0.239291 cumulative IPC: 0.235884 (Simulation time: 3 hr 47 min 32 sec) 
Heartbeat CPU 1 instructions: 830000003 cycles: 1456069504 heartbeat IPC: 0.493888 cumulative IPC: 0.459723 (Simulation time: 3 hr 47 min 40 sec) 
Heartbeat CPU 0 instructions: 2300000000 cycles: 1461744845 heartbeat IPC: 1.48453 cumulative IPC: 1.4634 (Simulation time: 3 hr 48 min 28 sec) 
Heartbeat CPU 0 instructions: 2310000000 cycles: 1468494076 heartbeat IPC: 1.48165 cumulative IPC: 1.46349 (Simulation time: 3 hr 49 min 25 sec) 
Heartbeat CPU 0 instructions: 2320000000 cycles: 1475239154 heartbeat IPC: 1.48256 cumulative IPC: 1.46359 (Simulation time: 3 hr 50 min 23 sec) 
Heartbeat CPU 3 instructions: 500000000 cycles: 1476993612 heartbeat IPC: 0.230329 cumulative IPC: 0.225838 (Simulation time: 3 hr 50 min 37 sec) 
Heartbeat CPU 1 instructions: 840000000 cycles: 1478623037 heartbeat IPC: 0.443389 cumulative IPC: 0.459446 (Simulation time: 3 hr 50 min 50 sec) 
Heartbeat CPU 0 instructions: 2330000001 cycles: 1481988314 heartbeat IPC: 1.48167 cumulative IPC: 1.46368 (Simulation time: 3 hr 51 min 19 sec) 
Heartbeat CPU 0 instructions: 2340000000 cycles: 1488733993 heartbeat IPC: 1.48243 cumulative IPC: 1.46377 (Simulation time: 3 hr 52 min 17 sec) 
Heartbeat CPU 0 instructions: 2350000002 cycles: 1495476581 heartbeat IPC: 1.48311 cumulative IPC: 1.46387 (Simulation time: 3 hr 53 min 14 sec) 
Heartbeat CPU 2 instructions: 520000000 cycles: 1497110733 heartbeat IPC: 0.237903 cumulative IPC: 0.235947 (Simulation time: 3 hr 53 min 28 sec) 
Heartbeat CPU 1 instructions: 850000000 cycles: 1500817502 heartbeat IPC: 0.450563 cumulative IPC: 0.4593 (Simulation time: 3 hr 53 min 59 sec) 
Heartbeat CPU 0 instructions: 2360000000 cycles: 1502217944 heartbeat IPC: 1.48338 cumulative IPC: 1.46397 (Simulation time: 3 hr 54 min 11 sec) 
Heartbeat CPU 0 instructions: 2370000001 cycles: 1508963350 heartbeat IPC: 1.48249 cumulative IPC: 1.46406 (Simulation time: 3 hr 55 min 6 sec) 
Heartbeat CPU 0 instructions: 2380000000 cycles: 1515709166 heartbeat IPC: 1.4824 cumulative IPC: 1.46415 (Simulation time: 3 hr 56 min 3 sec) 
Heartbeat CPU 3 instructions: 510000000 cycles: 1521751595 heartbeat IPC: 0.223424 cumulative IPC: 0.225759 (Simulation time: 3 hr 56 min 55 sec) 
Heartbeat CPU 0 instructions: 2390000002 cycles: 1522455574 heartbeat IPC: 1.48227 cumulative IPC: 1.46424 (Simulation time: 3 hr 57 min 1 sec) 
Heartbeat CPU 1 instructions: 860000000 cycles: 1523488148 heartbeat IPC: 0.441099 cumulative IPC: 0.459 (Simulation time: 3 hr 57 min 10 sec) 
Heartbeat CPU 0 instructions: 2400000000 cycles: 1529205008 heartbeat IPC: 1.48161 cumulative IPC: 1.46432 (Simulation time: 3 hr 57 min 58 sec) 
Heartbeat CPU 0 instructions: 2410000000 cycles: 1535944691 heartbeat IPC: 1.48375 cumulative IPC: 1.46442 (Simulation time: 3 hr 58 min 57 sec) 
Heartbeat CPU 2 instructions: 530000000 cycles: 1539078464 heartbeat IPC: 0.238278 cumulative IPC: 0.236017 (Simulation time: 3 hr 59 min 25 sec) 
Heartbeat CPU 0 instructions: 2420000000 cycles: 1542685795 heartbeat IPC: 1.48344 cumulative IPC: 1.46451 (Simulation time: 3 hr 59 min 56 sec) 
Heartbeat CPU 1 instructions: 870000003 cycles: 1543314147 heartbeat IPC: 0.504388 cumulative IPC: 0.459645 (Simulation time: 4 hr 0 min 2 sec) 
Heartbeat CPU 0 instructions: 2430000000 cycles: 1549428974 heartbeat IPC: 1.48298 cumulative IPC: 1.4646 (Simulation time: 4 hr 0 min 55 sec) 
Heartbeat CPU 0 instructions: 2440000000 cycles: 1556174810 heartbeat IPC: 1.4824 cumulative IPC: 1.46468 (Simulation time: 4 hr 1 min 50 sec) 
Heartbeat CPU 0 instructions: 2450000002 cycles: 1562920966 heartbeat IPC: 1.48233 cumulative IPC: 1.46477 (Simulation time: 4 hr 2 min 47 sec) 
Heartbeat CPU 3 instructions: 520000000 cycles: 1565973027 heartbeat IPC: 0.226135 cumulative IPC: 0.225771 (Simulation time: 4 hr 3 min 13 sec) 
Heartbeat CPU 1 instructions: 880000000 cycles: 1566515118 heartbeat IPC: 0.431016 cumulative IPC: 0.459177 (Simulation time: 4 hr 3 min 18 sec) 
Heartbeat CPU 0 instructions: 2460000000 cycles: 1569664315 heartbeat IPC: 1.48294 cumulative IPC: 1.46485 (Simulation time: 4 hr 3 min 44 sec) 
Heartbeat CPU 0 instructions: 2470000003 cycles: 1576412387 heartbeat IPC: 1.48191 cumulative IPC: 1.46493 (Simulation time: 4 hr 4 min 41 sec) 
Heartbeat CPU 2 instructions: 540000000 cycles: 1580825813 heartbeat IPC: 0.239536 cumulative IPC: 0.23612 (Simulation time: 4 hr 5 min 18 sec) 
Heartbeat CPU 0 instructions: 2480000000 cycles: 1583155457 heartbeat IPC: 1.483 cumulative IPC: 1.46502 (Simulation time: 4 hr 5 min 38 sec) 
Heartbeat CPU 1 instructions: 890000002 cycles: 1587292548 heartbeat IPC: 0.481292 cumulative IPC: 0.459496 (Simulation time: 4 hr 6 min 15 sec) 
Heartbeat CPU 0 instructions: 2490000000 cycles: 1589903468 heartbeat IPC: 1.48192 cumulative IPC: 1.4651 (Simulation time: 4 hr 6 min 37 sec) 
Heartbeat CPU 0 instructions: 2500000000 cycles: 1596653725 heartbeat IPC: 1.48143 cumulative IPC: 1.46517 (Simulation time: 4 hr 7 min 34 sec) 
Heartbeat CPU 0 instructions: 2510000003 cycles: 1603393988 heartbeat IPC: 1.48362 cumulative IPC: 1.46526 (Simulation time: 4 hr 8 min 33 sec) 
Heartbeat CPU 1 instructions: 900000000 cycles: 1608192512 heartbeat IPC: 0.47847 cumulative IPC: 0.459768 (Simulation time: 4 hr 9 min 14 sec) 
Heartbeat CPU 3 instructions: 530000001 cycles: 1609933123 heartbeat IPC: 0.227479 cumulative IPC: 0.225822 (Simulation time: 4 hr 9 min 29 sec) 
Heartbeat CPU 0 instructions: 2520000000 cycles: 1610138420 heartbeat IPC: 1.4827 cumulative IPC: 1.46534 (Simulation time: 4 hr 9 min 30 sec) 
Heartbeat CPU 0 instructions: 2530000000 cycles: 1616885068 heartbeat IPC: 1.48222 cumulative IPC: 1.46542 (Simulation time: 4 hr 10 min 27 sec) 
Heartbeat CPU 2 instructions: 550000001 cycles: 1623257793 heartbeat IPC: 0.235671 cumulative IPC: 0.236107 (Simulation time: 4 hr 11 min 20 sec) 
Heartbeat CPU 0 instructions: 2540000000 cycles: 1623623300 heartbeat IPC: 1.48407 cumulative IPC: 1.4655 (Simulation time: 4 hr 11 min 23 sec) 
Heartbeat CPU 0 instructions: 2550000003 cycles: 1630363343 heartbeat IPC: 1.48367 cumulative IPC: 1.46559 (Simulation time: 4 hr 12 min 19 sec) 
Heartbeat CPU 1 instructions: 910000001 cycles: 1631257413 heartbeat IPC: 0.433559 cumulative IPC: 0.45936 (Simulation time: 4 hr 12 min 26 sec) 
Heartbeat CPU 0 instructions: 2560000000 cycles: 1637119525 heartbeat IPC: 1.48013 cumulative IPC: 1.46565 (Simulation time: 4 hr 13 min 15 sec) 
Heartbeat CPU 0 instructions: 2570000001 cycles: 1643867466 heartbeat IPC: 1.48193 cumulative IPC: 1.46572 (Simulation time: 4 hr 14 min 12 sec) 
Heartbeat CPU 0 instructions: 2580000000 cycles: 1650606933 heartbeat IPC: 1.4838 cumulative IPC: 1.46581 (Simulation time: 4 hr 15 min 9 sec) 
Heartbeat CPU 1 instructions: 920000000 cycles: 1654600846 heartbeat IPC: 0.428386 cumulative IPC: 0.45888 (Simulation time: 4 hr 15 min 43 sec) 
Heartbeat CPU 3 instructions: 540000000 cycles: 1654958142 heartbeat IPC: 0.222099 cumulative IPC: 0.225711 (Simulation time: 4 hr 15 min 46 sec) 
Heartbeat CPU 0 instructions: 2590000001 cycles: 1657351719 heartbeat IPC: 1.48263 cumulative IPC: 1.46588 (Simulation time: 4 hr 16 min 7 sec) 
Heartbeat CPU 0 instructions: 2600000000 cycles: 1664093952 heartbeat IPC: 1.48319 cumulative IPC: 1.46596 (Simulation time: 4 hr 17 min 6 sec) 
Heartbeat CPU 2 instructions: 560000000 cycles: 1665875760 heartbeat IPC: 0.234643 cumulative IPC: 0.236066 (Simulation time: 4 hr 17 min 21 sec) 
Heartbeat CPU 0 instructions: 2610000001 cycles: 1670841829 heartbeat IPC: 1.48195 cumulative IPC: 1.46603 (Simulation time: 4 hr 18 min 3 sec) 
Heartbeat CPU 1 instructions: 930000000 cycles: 1675686888 heartbeat IPC: 0.474247 cumulative IPC: 0.459092 (Simulation time: 4 hr 18 min 45 sec) 
Heartbeat CPU 0 instructions: 2620000000 cycles: 1677584510 heartbeat IPC: 1.48309 cumulative IPC: 1.4661 (Simulation time: 4 hr 19 min 2 sec) 
Heartbeat CPU 0 instructions: 2630000001 cycles: 1684328120 heartbeat IPC: 1.48289 cumulative IPC: 1.46618 (Simulation time: 4 hr 19 min 58 sec) 
Heartbeat CPU 0 instructions: 2640000000 cycles: 1691069730 heartbeat IPC: 1.48333 cumulative IPC: 1.46625 (Simulation time: 4 hr 20 min 56 sec) 
Heartbeat CPU 1 instructions: 940000000 cycles: 1696803244 heartbeat IPC: 0.473567 cumulative IPC: 0.45929 (Simulation time: 4 hr 21 min 45 sec) 
Heartbeat CPU 0 instructions: 2650000001 cycles: 1697810460 heartbeat IPC: 1.48352 cumulative IPC: 1.46633 (Simulation time: 4 hr 21 min 53 sec) 
Heartbeat CPU 3 instructions: 550000000 cycles: 1699687162 heartbeat IPC: 0.223568 cumulative IPC: 0.225649 (Simulation time: 4 hr 22 min 9 sec) 
Heartbeat CPU 0 instructions: 2660000000 cycles: 1704555591 heartbeat IPC: 1.48255 cumulative IPC: 1.4664 (Simulation time: 4 hr 22 min 50 sec) 
Heartbeat CPU 2 instructions: 570000001 cycles: 1707947804 heartbeat IPC: 0.237688 cumulative IPC: 0.236109 (Simulation time: 4 hr 23 min 19 sec) 
Heartbeat CPU 0 instructions: 2670000002 cycles: 1711301067 heartbeat IPC: 1.48248 cumulative IPC: 1.46647 (Simulation time: 4 hr 23 min 48 sec) 
Heartbeat CPU 0 instructions: 2680000000 cycles: 1718048401 heartbeat IPC: 1.48207 cumulative IPC: 1.46653 (Simulation time: 4 hr 24 min 45 sec) 
Heartbeat CPU 1 instructions: 950000003 cycles: 1718658958 heartbeat IPC: 0.457546 cumulative IPC: 0.459265 (Simulation time: 4 hr 24 min 50 sec) 
Heartbeat CPU 0 instructions: 2690000001 cycles: 1724788327 heartbeat IPC: 1.4837 cumulative IPC: 1.46661 (Simulation time: 4 hr 25 min 43 sec) 
Heartbeat CPU 0 instructions: 2700000000 cycles: 1731536634 heartbeat IPC: 1.48185 cumulative IPC: 1.46667 (Simulation time: 4 hr 26 min 40 sec) 
Heartbeat CPU 0 instructions: 2710000003 cycles: 1738354068 heartbeat IPC: 1.46683 cumulative IPC: 1.46667 (Simulation time: 4 hr 27 min 39 sec) 
Heartbeat CPU 1 instructions: 960000000 cycles: 1741068934 heartbeat IPC: 0.44623 cumulative IPC: 0.459082 (Simulation time: 4 hr 28 min 1 sec) 
Heartbeat CPU 3 instructions: 560000000 cycles: 1744265551 heartbeat IPC: 0.224324 cumulative IPC: 0.225612 (Simulation time: 4 hr 28 min 28 sec) 
Heartbeat CPU 0 instructions: 2720000000 cycles: 1745328769 heartbeat IPC: 1.43375 cumulative IPC: 1.46653 (Simulation time: 4 hr 28 min 37 sec) 
Heartbeat CPU 2 instructions: 580000000 cycles: 1750143767 heartbeat IPC: 0.236989 cumulative IPC: 0.236133 (Simulation time: 4 hr 29 min 17 sec) 
Heartbeat CPU 0 instructions: 2730000000 cycles: 1752302421 heartbeat IPC: 1.43397 cumulative IPC: 1.46639 (Simulation time: 4 hr 29 min 35 sec) 
Heartbeat CPU 0 instructions: 2740000000 cycles: 1759292406 heartbeat IPC: 1.43062 cumulative IPC: 1.46623 (Simulation time: 4 hr 30 min 34 sec) 
Heartbeat CPU 1 instructions: 970000001 cycles: 1762748332 heartbeat IPC: 0.461267 cumulative IPC: 0.459111 (Simulation time: 4 hr 31 min 3 sec) 
Heartbeat CPU 0 instructions: 2750000001 cycles: 1766289297 heartbeat IPC: 1.42921 cumulative IPC: 1.46607 (Simulation time: 4 hr 31 min 32 sec) 
Heartbeat CPU 0 instructions: 2760000000 cycles: 1773278447 heartbeat IPC: 1.43079 cumulative IPC: 1.46592 (Simulation time: 4 hr 32 min 31 sec) 
Heartbeat CPU 0 instructions: 2770000000 cycles: 1780274418 heartbeat IPC: 1.42939 cumulative IPC: 1.46576 (Simulation time: 4 hr 33 min 30 sec) 
Heartbeat CPU 1 instructions: 980000000 cycles: 1784976144 heartbeat IPC: 0.449887 cumulative IPC: 0.458986 (Simulation time: 4 hr 34 min 10 sec) 
Heartbeat CPU 0 instructions: 2780000000 cycles: 1787261133 heartbeat IPC: 1.43129 cumulative IPC: 1.46562 (Simulation time: 4 hr 34 min 30 sec) 
Heartbeat CPU 3 instructions: 570000001 cycles: 1789161268 heartbeat IPC: 0.222738 cumulative IPC: 0.225533 (Simulation time: 4 hr 34 min 46 sec) 
Heartbeat CPU 2 instructions: 590000001 cycles: 1792575839 heartbeat IPC: 0.235671 cumulative IPC: 0.236121 (Simulation time: 4 hr 35 min 13 sec) 
Heartbeat CPU 0 instructions: 2790000003 cycles: 1794252923 heartbeat IPC: 1.43025 cumulative IPC: 1.46547 (Simulation time: 4 hr 35 min 27 sec) 
Heartbeat CPU 0 instructions: 2800000000 cycles: 1801247477 heartbeat IPC: 1.42968 cumulative IPC: 1.46532 (Simulation time: 4 hr 36 min 26 sec) 
Heartbeat CPU 0 instructions: 2810000000 cycles: 1808244492 heartbeat IPC: 1.42918 cumulative IPC: 1.46516 (Simulation time: 4 hr 37 min 24 sec) 
Heartbeat CPU 1 instructions: 990000000 cycles: 1808927695 heartbeat IPC: 0.417509 cumulative IPC: 0.458388 (Simulation time: 4 hr 37 min 30 sec) 
Heartbeat CPU 0 instructions: 2820000000 cycles: 1815239481 heartbeat IPC: 1.42959 cumulative IPC: 1.46501 (Simulation time: 4 hr 38 min 23 sec) 
Heartbeat CPU 0 instructions: 2830000000 cycles: 1822225090 heartbeat IPC: 1.43151 cumulative IPC: 1.46487 (Simulation time: 4 hr 39 min 21 sec) 
Heartbeat CPU 0 instructions: 2840000000 cycles: 1829220170 heartbeat IPC: 1.42958 cumulative IPC: 1.46473 (Simulation time: 4 hr 40 min 20 sec) 
Heartbeat CPU 1 instructions: 1000000000 cycles: 1830284102 heartbeat IPC: 0.468244 cumulative IPC: 0.458513 (Simulation time: 4 hr 40 min 30 sec) 
Heartbeat CPU 3 instructions: 580000000 cycles: 1833772007 heartbeat IPC: 0.224161 cumulative IPC: 0.225497 (Simulation time: 4 hr 40 min 58 sec) 
Heartbeat CPU 2 instructions: 600000000 cycles: 1834992104 heartbeat IPC: 0.235759 cumulative IPC: 0.236112 (Simulation time: 4 hr 41 min 8 sec) 
Heartbeat CPU 0 instructions: 2850000000 cycles: 1836215633 heartbeat IPC: 1.4295 cumulative IPC: 1.46458 (Simulation time: 4 hr 41 min 18 sec) 
Heartbeat CPU 0 instructions: 2860000000 cycles: 1843204052 heartbeat IPC: 1.43094 cumulative IPC: 1.46444 (Simulation time: 4 hr 42 min 16 sec) 
Heartbeat CPU 0 instructions: 2870000000 cycles: 1850188772 heartbeat IPC: 1.4317 cumulative IPC: 1.46431 (Simulation time: 4 hr 43 min 15 sec) 
Heartbeat CPU 1 instructions: 1010000001 cycles: 1853316053 heartbeat IPC: 0.43418 cumulative IPC: 0.458184 (Simulation time: 4 hr 43 min 41 sec) 
Heartbeat CPU 0 instructions: 2880000000 cycles: 1857177739 heartbeat IPC: 1.43083 cumulative IPC: 1.46417 (Simulation time: 4 hr 44 min 13 sec) 
Heartbeat CPU 0 instructions: 2890000002 cycles: 1864167227 heartbeat IPC: 1.43072 cumulative IPC: 1.46404 (Simulation time: 4 hr 45 min 11 sec) 
Heartbeat CPU 0 instructions: 2900000000 cycles: 1871160206 heartbeat IPC: 1.43001 cumulative IPC: 1.4639 (Simulation time: 4 hr 46 min 10 sec) 
Heartbeat CPU 1 instructions: 1020000000 cycles: 1876704310 heartbeat IPC: 0.427565 cumulative IPC: 0.45777 (Simulation time: 4 hr 46 min 56 sec) 
Heartbeat CPU 2 instructions: 610000003 cycles: 1877312735 heartbeat IPC: 0.236291 cumulative IPC: 0.236116 (Simulation time: 4 hr 47 min 2 sec) 
Heartbeat CPU 0 instructions: 2910000000 cycles: 1878156272 heartbeat IPC: 1.42937 cumulative IPC: 1.46376 (Simulation time: 4 hr 47 min 9 sec) 
Heartbeat CPU 3 instructions: 590000002 cycles: 1878704069 heartbeat IPC: 0.222558 cumulative IPC: 0.225421 (Simulation time: 4 hr 47 min 14 sec) 
Heartbeat CPU 0 instructions: 2920000000 cycles: 1885146297 heartbeat IPC: 1.43061 cumulative IPC: 1.46362 (Simulation time: 4 hr 48 min 8 sec) 
Heartbeat CPU 0 instructions: 2930000002 cycles: 1892134697 heartbeat IPC: 1.43094 cumulative IPC: 1.46349 (Simulation time: 4 hr 49 min 7 sec) 
Heartbeat CPU 1 instructions: 1030000001 cycles: 1897950577 heartbeat IPC: 0.470671 cumulative IPC: 0.457926 (Simulation time: 4 hr 49 min 56 sec) 
Heartbeat CPU 0 instructions: 2940000000 cycles: 1899127084 heartbeat IPC: 1.43013 cumulative IPC: 1.46336 (Simulation time: 4 hr 50 min 5 sec) 
Heartbeat CPU 0 instructions: 2950000002 cycles: 1906126228 heartbeat IPC: 1.42875 cumulative IPC: 1.46322 (Simulation time: 4 hr 51 min 3 sec) 
Heartbeat CPU 0 instructions: 2960000000 cycles: 1913112146 heartbeat IPC: 1.43145 cumulative IPC: 1.4631 (Simulation time: 4 hr 52 min 2 sec) 
Heartbeat CPU 1 instructions: 1040000000 cycles: 1920054933 heartbeat IPC: 0.452399 cumulative IPC: 0.457857 (Simulation time: 4 hr 53 min 1 sec) 
Heartbeat CPU 0 instructions: 2970000001 cycles: 1920097476 heartbeat IPC: 1.43157 cumulative IPC: 1.46297 (Simulation time: 4 hr 53 min 1 sec) 
Heartbeat CPU 2 instructions: 620000000 cycles: 1920315486 heartbeat IPC: 0.232543 cumulative IPC: 0.236029 (Simulation time: 4 hr 53 min 3 sec) 
Heartbeat CPU 3 instructions: 600000000 cycles: 1922830948 heartbeat IPC: 0.226619 cumulative IPC: 0.225451 (Simulation time: 4 hr 53 min 24 sec) 
Heartbeat CPU 0 instructions: 2980000000 cycles: 1927082396 heartbeat IPC: 1.43166 cumulative IPC: 1.46285 (Simulation time: 4 hr 54 min 0 sec) 
Heartbeat CPU 0 instructions: 2990000002 cycles: 1934077821 heartbeat IPC: 1.42951 cumulative IPC: 1.46272 (Simulation time: 4 hr 54 min 58 sec) 
Heartbeat CPU 0 instructions: 3000000000 cycles: 1941064218 heartbeat IPC: 1.43135 cumulative IPC: 1.4626 (Simulation time: 4 hr 55 min 56 sec) 
Heartbeat CPU 1 instructions: 1050000000 cycles: 1942625947 heartbeat IPC: 0.443046 cumulative IPC: 0.457671 (Simulation time: 4 hr 56 min 10 sec) 
Heartbeat CPU 0 instructions: 3010000000 cycles: 1948056303 heartbeat IPC: 1.43019 cumulative IPC: 1.46247 (Simulation time: 4 hr 56 min 54 sec) 
Heartbeat CPU 0 instructions: 3020000000 cycles: 1955046889 heartbeat IPC: 1.4305 cumulative IPC: 1.46235 (Simulation time: 4 hr 57 min 53 sec) 
Heartbeat CPU 0 instructions: 3030000001 cycles: 1962039641 heartbeat IPC: 1.43005 cumulative IPC: 1.46222 (Simulation time: 4 hr 58 min 51 sec) 
Heartbeat CPU 2 instructions: 630000000 cycles: 1962538494 heartbeat IPC: 0.236838 cumulative IPC: 0.236048 (Simulation time: 4 hr 58 min 55 sec) 
Heartbeat CPU 1 instructions: 1060000000 cycles: 1964756565 heartbeat IPC: 0.451863 cumulative IPC: 0.4576 (Simulation time: 4 hr 59 min 14 sec) 
Heartbeat CPU 3 instructions: 610000000 cycles: 1966833184 heartbeat IPC: 0.227261 cumulative IPC: 0.225494 (Simulation time: 4 hr 59 min 31 sec) 
Heartbeat CPU 0 instructions: 3040000000 cycles: 1969035928 heartbeat IPC: 1.42933 cumulative IPC: 1.4621 (Simulation time: 4 hr 59 min 50 sec) 
Heartbeat CPU 0 instructions: 3050000000 cycles: 1976023920 heartbeat IPC: 1.43103 cumulative IPC: 1.46198 (Simulation time: 5 hr 0 min 50 sec) 
Heartbeat CPU 0 instructions: 3060000000 cycles: 1983014201 heartbeat IPC: 1.43056 cumulative IPC: 1.46186 (Simulation time: 5 hr 1 min 49 sec) 
Heartbeat CPU 1 instructions: 1070000000 cycles: 1986119938 heartbeat IPC: 0.468091 cumulative IPC: 0.457722 (Simulation time: 5 hr 2 min 14 sec) 
Heartbeat CPU 0 instructions: 3070000003 cycles: 1990001242 heartbeat IPC: 1.43122 cumulative IPC: 1.46174 (Simulation time: 5 hr 2 min 47 sec) 
Heartbeat CPU 0 instructions: 3080000000 cycles: 1996998762 heartbeat IPC: 1.42908 cumulative IPC: 1.46162 (Simulation time: 5 hr 3 min 45 sec) 
Heartbeat CPU 0 instructions: 3090000003 cycles: 2003992266 heartbeat IPC: 1.4299 cumulative IPC: 1.4615 (Simulation time: 5 hr 4 min 42 sec) 
Heartbeat CPU 2 instructions: 640000000 cycles: 2004708996 heartbeat IPC: 0.237133 cumulative IPC: 0.236073 (Simulation time: 5 hr 4 min 48 sec) 
[...]
Heartbeat CPU 0 instructions: 6650000001 cycles: 4430813261 heartbeat IPC: 1.48281 cumulative IPC: 1.46458 (Simulation time: 10 hr 44 min 44 sec) 
Heartbeat CPU 0 instructions: 6660000000 cycles: 4437561372 heartbeat IPC: 1.4819 cumulative IPC: 1.46461 (Simulation time: 10 hr 45 min 41 sec) 
Heartbeat CPU 1 instructions: 2190000000 cycles: 4438188440 heartbeat IPC: 0.419236 cumulative IPC: 0.457171 (Simulation time: 10 hr 45 min 46 sec) 
Heartbeat CPU 0 instructions: 6670000002 cycles: 4444302626 heartbeat IPC: 1.4834 cumulative IPC: 1.46464 (Simulation time: 10 hr 46 min 39 sec) 
Heartbeat CPU 0 instructions: 6680000000 cycles: 4451049931 heartbeat IPC: 1.48207 cumulative IPC: 1.46467 (Simulation time: 10 hr 47 min 35 sec) 
Heartbeat CPU 0 instructions: 6690000001 cycles: 4457798133 heartbeat IPC: 1.48188 cumulative IPC: 1.46469 (Simulation time: 10 hr 48 min 33 sec) 
Heartbeat CPU 1 instructions: 2200000000 cycles: 4459349442 heartbeat IPC: 0.472567 cumulative IPC: 0.457246 (Simulation time: 10 hr 48 min 46 sec) 
Heartbeat CPU 2 instructions: 1220000000 cycles: 4463504686 heartbeat IPC: 0.235119 cumulative IPC: 0.235967 (Simulation time: 10 hr 49 min 20 sec) 
Heartbeat CPU 0 instructions: 6700000000 cycles: 4464549541 heartbeat IPC: 1.48117 cumulative IPC: 1.46472 (Simulation time: 10 hr 49 min 29 sec) 
Heartbeat CPU 3 instructions: 1180000000 cycles: 4471155399 heartbeat IPC: 0.230446 cumulative IPC: 0.226718 (Simulation time: 10 hr 50 min 24 sec) 
Heartbeat CPU 0 instructions: 6710000003 cycles: 4471355321 heartbeat IPC: 1.46934 cumulative IPC: 1.46473 (Simulation time: 10 hr 50 min 25 sec) 
Heartbeat CPU 0 instructions: 6720000000 cycles: 4478334732 heartbeat IPC: 1.43279 cumulative IPC: 1.46467 (Simulation time: 10 hr 51 min 23 sec) 
Heartbeat CPU 1 instructions: 2210000000 cycles: 4482073269 heartbeat IPC: 0.440067 cumulative IPC: 0.457156 (Simulation time: 10 hr 51 min 54 sec) 
Heartbeat CPU 0 instructions: 6730000000 cycles: 4485301178 heartbeat IPC: 1.43545 cumulative IPC: 1.46463 (Simulation time: 10 hr 52 min 20 sec) 
Heartbeat CPU 0 instructions: 6740000000 cycles: 4492303025 heartbeat IPC: 1.42819 cumulative IPC: 1.46457 (Simulation time: 10 hr 53 min 18 sec) 
Heartbeat CPU 0 instructions: 6750000001 cycles: 4499292932 heartbeat IPC: 1.43063 cumulative IPC: 1.46451 (Simulation time: 10 hr 54 min 16 sec) 
Heartbeat CPU 1 instructions: 2220000000 cycles: 4504349752 heartbeat IPC: 0.448904 cumulative IPC: 0.457114 (Simulation time: 10 hr 54 min 58 sec) 
Heartbeat CPU 2 instructions: 1230000001 cycles: 4506073070 heartbeat IPC: 0.234916 cumulative IPC: 0.235957 (Simulation time: 10 hr 55 min 12 sec) 
Heartbeat CPU 0 instructions: 6760000000 cycles: 4506290222 heartbeat IPC: 1.42912 cumulative IPC: 1.46446 (Simulation time: 10 hr 55 min 14 sec) 
Heartbeat CPU 0 instructions: 6770000000 cycles: 4513280280 heartbeat IPC: 1.4306 cumulative IPC: 1.4644 (Simulation time: 10 hr 56 min 13 sec) 
Heartbeat CPU 3 instructions: 1190000001 cycles: 4515030310 heartbeat IPC: 0.227921 cumulative IPC: 0.22673 (Simulation time: 10 hr 56 min 28 sec) 
Heartbeat CPU 0 instructions: 6780000000 cycles: 4520271281 heartbeat IPC: 1.43041 cumulative IPC: 1.46435 (Simulation time: 10 hr 57 min 12 sec) 
Heartbeat CPU 1 instructions: 2230000001 cycles: 4526713294 heartbeat IPC: 0.447156 cumulative IPC: 0.457063 (Simulation time: 10 hr 58 min 4 sec) 
Heartbeat CPU 0 instructions: 6790000003 cycles: 4527261961 heartbeat IPC: 1.43048 cumulative IPC: 1.46429 (Simulation time: 10 hr 58 min 8 sec) 
Heartbeat CPU 0 instructions: 6800000000 cycles: 4534255385 heartbeat IPC: 1.42991 cumulative IPC: 1.46424 (Simulation time: 10 hr 59 min 7 sec) 
Heartbeat CPU 0 instructions: 6810000000 cycles: 4541247649 heartbeat IPC: 1.43015 cumulative IPC: 1.46419 (Simulation time: 11 hr 0 min 3 sec) 
Heartbeat CPU 0 instructions: 6820000000 cycles: 4548234327 heartbeat IPC: 1.4313 cumulative IPC: 1.46413 (Simulation time: 11 hr 1 min 5 sec) 
Heartbeat CPU 1 instructions: 2240000000 cycles: 4548547300 heartbeat IPC: 0.458001 cumulative IPC: 0.457068 (Simulation time: 11 hr 1 min 8 sec) 
Heartbeat CPU 2 instructions: 1240000000 cycles: 4549144765 heartbeat IPC: 0.232171 cumulative IPC: 0.23592 (Simulation time: 11 hr 1 min 14 sec) 
Heartbeat CPU 0 instructions: 6830000000 cycles: 4555214339 heartbeat IPC: 1.43266 cumulative IPC: 1.46408 (Simulation time: 11 hr 2 min 10 sec) 
Heartbeat CPU 3 instructions: 1200000000 cycles: 4559208811 heartbeat IPC: 0.226354 cumulative IPC: 0.226726 (Simulation time: 11 hr 2 min 47 sec) 
Finished CPU 3 instructions: 1000000000 cycles: 4410602126 cumulative IPC: 0.226726 (Simulation time: 11 hr 2 min 47 sec) 

CPU 0 Branch Prediction Accuracy: 99.9632% MPKI: 0.0435945

CPU 1 Branch Prediction Accuracy: 98.552% MPKI: 1.69564

CPU 2 Branch Prediction Accuracy: 96.7198% MPKI: 4.85837

CPU 3 Branch Prediction Accuracy: 96.1636% MPKI: 5.73015

ChampSim completed all CPUs

Total Simulation Statistics (not including warmup)

CPU 0 cumulative IPC: 1.46405 instructions: 6457359395 cycles: 4410602126
L1D TOTAL     ACCESS: 1008132851  HIT: 1001995546  MISS:    6137305
L1D LOAD      ACCESS:  811200054  HIT:  805062952  MISS:    6137102
L1D RFO       ACCESS:  196932797  HIT:  196932594  MISS:        203
L1D PREFETCH  ACCESS:          0  HIT:          0  MISS:          0
L1D WRITEBACK ACCESS:          0  HIT:          0  MISS:          0
L1I TOTAL     ACCESS: 1731220714  HIT: 1731220166  MISS:        548
L1I LOAD      ACCESS: 1731220714  HIT: 1731220166  MISS:        548
L1I RFO       ACCESS:          0  HIT:          0  MISS:          0
L1I PREFETCH  ACCESS:          0  HIT:          0  MISS:          0
L1I WRITEBACK ACCESS:          0  HIT:          0  MISS:          0
L2C TOTAL     ACCESS:   13693173  HIT:    7554603  MISS:    6138570
L2C LOAD      ACCESS:    6137650  HIT:    5987221  MISS:     150429
L2C RFO       ACCESS:        203  HIT:         17  MISS:        186
L2C PREFETCH  ACCESS:    7554698  HIT:    1566804  MISS:    5987894
L2C WRITEBACK ACCESS:        622  HIT:        561  MISS:         61

Avg Lookahead Depth:	3.46674
TOTAL: 1.94492e+08	L2C: 1.49602e+08	LLC: 4.48906e+07	GOOD_L2C: 1.06196e+08
Printing all the perceptron weights to: perc_weights_0.csv
LLC TOTAL     ACCESS:    6596412  HIT:     457174  MISS:    6139238
LLC LOAD      ACCESS:     149687  HIT:       1017  MISS:     148670
LLC RFO       ACCESS:        186  HIT:         29  MISS:        157
LLC PREFETCH  ACCESS:    6445927  HIT:     455669  MISS:    5990258
LLC WRITEBACK ACCESS:        612  HIT:        459  MISS:        153

CPU 1 cumulative IPC: 0.457506 instructions: 2017876914 cycles: 4410602126
L1D TOTAL     ACCESS:  962009908  HIT:  864784372  MISS:   97225536
L1D LOAD      ACCESS:  482475819  HIT:  390118468  MISS:   92357351
L1D RFO       ACCESS:  479534089  HIT:  474665904  MISS:    4868185
L1D PREFETCH  ACCESS:          0  HIT:          0  MISS:          0
L1D WRITEBACK ACCESS:          0  HIT:          0  MISS:          0
L1I TOTAL     ACCESS:  667980304  HIT:  667980294  MISS:         10
L1I LOAD      ACCESS:  667980304  HIT:  667980294  MISS:         10
L1I RFO       ACCESS:          0  HIT:          0  MISS:          0
L1I PREFETCH  ACCESS:          0  HIT:          0  MISS:          0
L1I WRITEBACK ACCESS:          0  HIT:          0  MISS:          0
L2C TOTAL     ACCESS:  196102362  HIT:   84719916  MISS:  111382446
L2C LOAD      ACCESS:   92356878  HIT:   63635531  MISS:   28721347
L2C RFO       ACCESS:    4867806  HIT:     425682  MISS:    4442124
L2C PREFETCH  ACCESS:   87828731  HIT:    9659858  MISS:   78168873
L2C WRITEBACK ACCESS:   11048947  HIT:   10998845  MISS:      50102

Avg Lookahead Depth:	3.46674
TOTAL: 1.94492e+08	L2C: 1.49602e+08	LLC: 4.48906e+07	GOOD_L2C: 1.06196e+08
Printing all the perceptron weights to: perc_weights_0.csv
LLC TOTAL     ACCESS:  133695269  HIT:   54185245  MISS:   79510024
LLC LOAD      ACCESS:   11829231  HIT:    4690547  MISS:    7138684
LLC RFO       ACCESS:    4411387  HIT:      74976  MISS:    4336411
LLC PREFETCH  ACCESS:  108292330  HIT:   40265352  MISS:   68026978
LLC WRITEBACK ACCESS:    9162321  HIT:    9154370  MISS:       7951

CPU 2 cumulative IPC: 0.235923 instructions: 1040562719 cycles: 4410602126
L1D TOTAL     ACCESS:  462012435  HIT:  441186152  MISS:   20826283
L1D LOAD      ACCESS:  273349560  HIT:  255145470  MISS:   18204090
L1D RFO       ACCESS:  188662875  HIT:  186040682  MISS:    2622193
L1D PREFETCH  ACCESS:          0  HIT:          0  MISS:          0
L1D WRITEBACK ACCESS:          0  HIT:          0  MISS:          0
L1I TOTAL     ACCESS:  370521808  HIT:  370126439  MISS:     395369
L1I LOAD      ACCESS:  370521808  HIT:  370126439  MISS:     395369
L1I RFO       ACCESS:          0  HIT:          0  MISS:          0
L1I PREFETCH  ACCESS:          0  HIT:          0  MISS:          0
L1I WRITEBACK ACCESS:          0  HIT:          0  MISS:          0
L2C TOTAL     ACCESS:   41047521  HIT:   22236142  MISS:   18811379
L2C LOAD      ACCESS:   18598809  HIT:    7852350  MISS:   10746459
L2C RFO       ACCESS:    2622050  HIT:     582649  MISS:    2039401
L2C PREFETCH  ACCESS:    9761146  HIT:    3770500  MISS:    5990646
L2C WRITEBACK ACCESS:   10065516  HIT:   10030643  MISS:      34873

Avg Lookahead Depth:	3.46674
TOTAL: 1.94492e+08	L2C: 1.49602e+08	LLC: 4.48906e+07	GOOD_L2C: 1.06196e+08
Printing all the perceptron weights to: perc_weights_0.csv
LLC TOTAL     ACCESS:   32570739  HIT:   14916422  MISS:   17654317
LLC LOAD      ACCESS:   10578112  HIT:    3470483  MISS:    7107629
LLC RFO       ACCESS:    2024403  HIT:     835871  MISS:    1188532
LLC PREFETCH  ACCESS:   12228528  HIT:    3048869  MISS:    9179659
LLC WRITEBACK ACCESS:    7739696  HIT:    7561199  MISS:     178497

CPU 3 cumulative IPC: 0.226726 instructions: 1000000000 cycles: 4410602126
L1D TOTAL     ACCESS:  448562446  HIT:  427964397  MISS:   20598049
L1D LOAD      ACCESS:  267368606  HIT:  249277458  MISS:   18091148
L1D RFO       ACCESS:  181193840  HIT:  178686939  MISS:    2506901
L1D PREFETCH  ACCESS:          0  HIT:          0  MISS:          0
L1D WRITEBACK ACCESS:          0  HIT:          0  MISS:          0
L1I TOTAL     ACCESS:  350631953  HIT:  349978301  MISS:     653652
L1I LOAD      ACCESS:  350631953  HIT:  349978301  MISS:     653652
L1I RFO       ACCESS:          0  HIT:          0  MISS:          0
L1I PREFETCH  ACCESS:          0  HIT:          0  MISS:          0
L1I WRITEBACK ACCESS:          0  HIT:          0  MISS:          0
L2C TOTAL     ACCESS:   40497968  HIT:   21523205  MISS:   18974763
L2C LOAD      ACCESS:   18744047  HIT:    7970679  MISS:   10773368
L2C RFO       ACCESS:    2506763  HIT:     517413  MISS:    1989350
L2C PREFETCH  ACCESS:    9479475  HIT:    3303881  MISS:    6175594
L2C WRITEBACK ACCESS:    9767683  HIT:    9731232  MISS:      36451

Avg Lookahead Depth:	3.46674
TOTAL: 1.94492e+08	L2C: 1.49602e+08	LLC: 4.48906e+07	GOOD_L2C: 1.06196e+08
Printing all the perceptron weights to: perc_weights_0.csv
LLC TOTAL     ACCESS:   32594352  HIT:   14037156  MISS:   18557196
LLC LOAD      ACCESS:   10609239  HIT:    3154085  MISS:    7455154
LLC RFO       ACCESS:    1974950  HIT:     700760  MISS:    1274190
LLC PREFETCH  ACCESS:   12400392  HIT:    2736301  MISS:    9664091
LLC WRITEBACK ACCESS:    7609771  HIT:    7446010  MISS:     163761

Region of Interest Statistics

CPU 0 cumulative IPC: 1.44848 instructions: 1000000002 cycles: 690378247
L1D TOTAL     ACCESS:  155789312  HIT:  154854036  MISS:     935276
L1D LOAD      ACCESS:  125777118  HIT:  124841877  MISS:     935241
L1D RFO       ACCESS:   30012194  HIT:   30012159  MISS:         35
L1D PREFETCH  ACCESS:          0  HIT:          0  MISS:          0
L1D WRITEBACK ACCESS:          0  HIT:          0  MISS:          0
L1D PREFETCH  REQUESTED:          0  ISSUED:          0  USEFUL:          0  USELESS:          0
L1I TOTAL     ACCESS:  268430327  HIT:  268430115  MISS:        212
L1I LOAD      ACCESS:  268430327  HIT:  268430115  MISS:        212
L1I RFO       ACCESS:          0  HIT:          0  MISS:          0
L1I PREFETCH  ACCESS:          0  HIT:          0  MISS:          0
L1I WRITEBACK ACCESS:          0  HIT:          0  MISS:          0
L1I PREFETCH  REQUESTED:          0  ISSUED:          0  USEFUL:          0  USELESS:          0
L2C TOTAL     ACCESS:    2172017  HIT:    1236418  MISS:     935599
L2C LOAD      ACCESS:     935453  HIT:     912655  MISS:      22798
L2C RFO       ACCESS:         35  HIT:          3  MISS:         32
L2C PREFETCH  ACCESS:    1236456  HIT:     323690  MISS:     912766
L2C WRITEBACK ACCESS:         73  HIT:         70  MISS:          3
L2C PREFETCH  REQUESTED:    8588118  ISSUED:    8588118  USEFUL:    6342651  USELESS:        770
LLC TOTAL     ACCESS:    1074551  HIT:     138862  MISS:     935689
LLC LOAD      ACCESS:      22695  HIT:        221  MISS:      22474
LLC RFO       ACCESS:         32  HIT:          3  MISS:         29
LLC PREFETCH  ACCESS:    1051752  HIT:     138580  MISS:     913172
LLC WRITEBACK ACCESS:         72  HIT:         58  MISS:         14
LLC PREFETCH  REQUESTED:          0  ISSUED:          0  USEFUL:    4939729  USELESS:   98453334
Major fault: 0 Minor fault: 19986

CPU 1 cumulative IPC: 0.457963 instructions: 1000000001 cycles: 2183584085
L1D TOTAL     ACCESS:  469423752  HIT:  417991218  MISS:   51432534
L1D LOAD      ACCESS:  240705938  HIT:  191721124  MISS:   48984814
L1D RFO       ACCESS:  228717814  HIT:  226270094  MISS:    2447720
L1D PREFETCH  ACCESS:          0  HIT:          0  MISS:          0
L1D WRITEBACK ACCESS:          0  HIT:          0  MISS:          0
L1D PREFETCH  REQUESTED:          0  ISSUED:          0  USEFUL:          0  USELESS:          0
L1I TOTAL     ACCESS:  331323078  HIT:  331323068  MISS:         10
L1I LOAD      ACCESS:  331323078  HIT:  331323068  MISS:         10
L1I RFO       ACCESS:          0  HIT:          0  MISS:          0
L1I PREFETCH  ACCESS:          0  HIT:          0  MISS:          0
L1I WRITEBACK ACCESS:          0  HIT:          0  MISS:          0
L1I PREFETCH  REQUESTED:          0  ISSUED:          0  USEFUL:          0  USELESS:          0
L2C TOTAL     ACCESS:  103022505  HIT:   44359272  MISS:   58663233
L2C LOAD      ACCESS:   48984580  HIT:   33833244  MISS:   15151336
L2C RFO       ACCESS:    2447492  HIT:     216527  MISS:    2230965
L2C PREFETCH  ACCESS:   46179796  HIT:    4923033  MISS:   41256763
L2C WRITEBACK ACCESS:    5410637  HIT:    5386468  MISS:      24169
L2C PREFETCH  REQUESTED:  143332362  ISSUED:  143331616  USEFUL:   71361442  USELESS:   17913139
LLC TOTAL     ACCESS:   69770484  HIT:   29071789  MISS:   40698695
LLC LOAD      ACCESS:    6076759  HIT:    2530814  MISS:    3545945
LLC RFO       ACCESS:    2216338  HIT:      36100  MISS:    2180238
LLC PREFETCH  ACCESS:   57033905  HIT:   22065210  MISS:   34968695
LLC WRITEBACK ACCESS:    4443482  HIT:    4439665  MISS:       3817
LLC PREFETCH  REQUESTED:          0  ISSUED:          0  USEFUL:    4939729  USELESS:   98453334
Major fault: 0 Minor fault: 316817

CPU 2 cumulative IPC: 0.235967 instructions: 1000000000 cycles: 4237887056
L1D TOTAL     ACCESS:  443991781  HIT:  423978351  MISS:   20013430
L1D LOAD      ACCESS:  262705023  HIT:  245211223  MISS:   17493800
L1D RFO       ACCESS:  181286758  HIT:  178767128  MISS:    2519630
L1D PREFETCH  ACCESS:          0  HIT:          0  MISS:          0
L1D WRITEBACK ACCESS:          0  HIT:          0  MISS:          0
L1D PREFETCH  REQUESTED:          0  ISSUED:          0  USEFUL:          0  USELESS:          0
L1I TOTAL     ACCESS:  356086729  HIT:  355707502  MISS:     379227
L1I LOAD      ACCESS:  356086729  HIT:  355707502  MISS:     379227
L1I RFO       ACCESS:          0  HIT:          0  MISS:          0
L1I PREFETCH  ACCESS:          0  HIT:          0  MISS:          0
L1I WRITEBACK ACCESS:          0  HIT:          0  MISS:          0
L1I PREFETCH  REQUESTED:          0  ISSUED:          0  USEFUL:          0  USELESS:          0
L2C TOTAL     ACCESS:   39440332  HIT:   21368339  MISS:   18071993
L2C LOAD      ACCESS:   17872409  HIT:    7548101  MISS:   10324308
L2C RFO       ACCESS:    2519494  HIT:     558145  MISS:    1961349
L2C PREFETCH  ACCESS:    9376342  HIT:    3623582  MISS:    5752760
L2C WRITEBACK ACCESS:    9672087  HIT:    9638511  MISS:      33576
L2C PREFETCH  REQUESTED:   21403919  ISSUED:   21403919  USEFUL:    3357979  USELESS:    3830527
LLC TOTAL     ACCESS:   31289038  HIT:   14333683  MISS:   16955355
LLC LOAD      ACCESS:   10162490  HIT:    3335596  MISS:    6826894
LLC RFO       ACCESS:    1946925  HIT:     799827  MISS:    1147098
LLC PREFETCH  ACCESS:   11742416  HIT:    2930572  MISS:    8811844
LLC WRITEBACK ACCESS:    7437207  HIT:    7267688  MISS:     169519
LLC PREFETCH  REQUESTED:          0  ISSUED:          0  USEFUL:    4939729  USELESS:   98453334
Major fault: 0 Minor fault: 52250

CPU 3 cumulative IPC: 0.226726 instructions: 1000000000 cycles: 4410602126
L1D TOTAL     ACCESS:  448562446  HIT:  427964397  MISS:   20598049
L1D LOAD      ACCESS:  267368606  HIT:  249277458  MISS:   18091148
L1D RFO       ACCESS:  181193840  HIT:  178686939  MISS:    2506901
L1D PREFETCH  ACCESS:          0  HIT:          0  MISS:          0
L1D WRITEBACK ACCESS:          0  HIT:          0  MISS:          0
L1D PREFETCH  REQUESTED:          0  ISSUED:          0  USEFUL:          0  USELESS:          0
L1I TOTAL     ACCESS:  350631953  HIT:  349978301  MISS:     653652
L1I LOAD      ACCESS:  350631953  HIT:  349978301  MISS:     653652
L1I RFO       ACCESS:          0  HIT:          0  MISS:          0
L1I PREFETCH  ACCESS:          0  HIT:          0  MISS:          0
L1I WRITEBACK ACCESS:          0  HIT:          0  MISS:          0
L1I PREFETCH  REQUESTED:          0  ISSUED:          0  USEFUL:          0  USELESS:          0
L2C TOTAL     ACCESS:   40497968  HIT:   21523205  MISS:   18974763
L2C LOAD      ACCESS:   18744047  HIT:    7970679  MISS:   10773368
L2C RFO       ACCESS:    2506763  HIT:     517413  MISS:    1989350
L2C PREFETCH  ACCESS:    9479475  HIT:    3303881  MISS:    6175594
L2C WRITEBACK ACCESS:    9767683  HIT:    9731232  MISS:      36451
L2C PREFETCH  REQUESTED:   21167797  ISSUED:   21167797  USEFUL:    3425057  USELESS:    4044763
LLC TOTAL     ACCESS:   32594352  HIT:   14037156  MISS:   18557196
LLC LOAD      ACCESS:   10609239  HIT:    3154085  MISS:    7455154
LLC RFO       ACCESS:    1974950  HIT:     700760  MISS:    1274190
LLC PREFETCH  ACCESS:   12400392  HIT:    2736301  MISS:    9664091
LLC WRITEBACK ACCESS:    7609771  HIT:    7446010  MISS:     163761
LLC PREFETCH  REQUESTED:          0  ISSUED:          0  USEFUL:    4939729  USELESS:   98453334
Major fault: 0 Minor fault: 55545

Avg Lookahead Depth:	3.46674
TOTAL: 1.94492e+08	L2C: 1.49602e+08	LLC: 4.48906e+07	GOOD_L2C: 1.06196e+08
Printing all the perceptron weights to: perc_weights_0.csv

Avg Lookahead Depth:	3.46674
TOTAL: 1.94492e+08	L2C: 1.49602e+08	LLC: 4.48906e+07	GOOD_L2C: 1.06196e+08
Printing all the perceptron weights to: perc_weights_0.csv

Avg Lookahead Depth:	3.46674
TOTAL: 1.94492e+08	L2C: 1.49602e+08	LLC: 4.48906e+07	GOOD_L2C: 1.06196e+08
Printing all the perceptron weights to: perc_weights_0.csv

Avg Lookahead Depth:	3.46674
TOTAL: 1.94492e+08	L2C: 1.49602e+08	LLC: 4.48906e+07	GOOD_L2C: 1.06196e+08
Printing all the perceptron weights to: perc_weights_0.csv

DRAM Statistics
 CHANNEL 0
 RQ ROW_BUFFER_HIT:   27416411  ROW_BUFFER_MISS:   33460925
 DBUS_CONGESTED:   77169377
 WQ ROW_BUFFER_HIT:     722882  ROW_BUFFER_MISS:    9530781  FULL:          0

 CHANNEL 1
 RQ ROW_BUFFER_HIT:   27240883  ROW_BUFFER_MISS:   33380830
 DBUS_CONGESTED:   77169377
 WQ ROW_BUFFER_HIT:     717833  ROW_BUFFER_MISS:    9497771  FULL:          0

 AVG_CONGESTED_CYCLE: 13
