Initialize SIGNATURE TABLE
ST_SET: 1
ST_WAY: 256
ST_TAG_BIT: 16
ST_TAG_MASK: ffff

Initialize PATTERN TABLE
PT_SET: 512
PT_WAY: 4
SIG_DELTA_BIT: 7
C_SIG_BIT: 4
C_DELTA_BIT: 4

Initialize PREFETCH FILTER
FILTER_SET: 1024

Initialize PERCEPTRON
PERC_ENTRIES: 4096
PERC_FEATURES: 9

*** ChampSim Multicore Out-of-Order Simulator ***

Warmup Instructions: 200000000
Simulation Instructions: 1000000000
Number of CPUs: 4
LLC sets: 8192
LLC ways: 16
Off-chip DRAM Size: 8192 MB Channels: 2 Width: 64-bit Data Rate: 1600 MT/s

CPU 0 runs /scratch/user/djimenez/champsim-traces/speccpu2017/xz/620.omnetpp_s/620.omnetpp_s-141B.champsimtrace.xz
CPU 1 runs /scratch/user/djimenez/champsim-traces/speccpu2017/xz/648.exchange2_s/648.exchange2_s-387B.champsimtrace.xz
CPU 2 runs /scratch/user/djimenez/champsim-traces/speccpu2017/xz/649.fotonik3d_s/649.fotonik3d_s-1176B.champsimtrace.xz
CPU 3 runs /scratch/user/djimenez/champsim-traces/speccpu2017/xz/623.xalancbmk_s/623.xalancbmk_s-325B.champsimtrace.xz
Heartbeat CPU 1 instructions: 10000000 cycles: 4364009 heartbeat IPC: 2.29147 cumulative IPC: 2.29147 (Simulation time: 0 hr 1 min 21 sec) 
Heartbeat CPU 2 instructions: 10000000 cycles: 4400055 heartbeat IPC: 2.2727 cumulative IPC: 2.2727 (Simulation time: 0 hr 1 min 22 sec) 
Heartbeat CPU 3 instructions: 10000000 cycles: 6131793 heartbeat IPC: 1.63084 cumulative IPC: 1.63084 (Simulation time: 0 hr 1 min 54 sec) 
Heartbeat CPU 0 instructions: 10000000 cycles: 7404722 heartbeat IPC: 1.35049 cumulative IPC: 1.35049 (Simulation time: 0 hr 2 min 18 sec) 
Heartbeat CPU 1 instructions: 20000000 cycles: 8782693 heartbeat IPC: 2.26312 cumulative IPC: 2.27721 (Simulation time: 0 hr 2 min 43 sec) 
Heartbeat CPU 2 instructions: 20000000 cycles: 8799500 heartbeat IPC: 2.27301 cumulative IPC: 2.27286 (Simulation time: 0 hr 2 min 43 sec) 
Heartbeat CPU 3 instructions: 20000000 cycles: 12347998 heartbeat IPC: 1.6087 cumulative IPC: 1.6197 (Simulation time: 0 hr 3 min 48 sec) 
Heartbeat CPU 1 instructions: 30000000 cycles: 13182708 heartbeat IPC: 2.27272 cumulative IPC: 2.27571 (Simulation time: 0 hr 4 min 3 sec) 
Heartbeat CPU 2 instructions: 30000002 cycles: 13199326 heartbeat IPC: 2.27282 cumulative IPC: 2.27284 (Simulation time: 0 hr 4 min 3 sec) 
Heartbeat CPU 0 instructions: 20000000 cycles: 14833601 heartbeat IPC: 1.3461 cumulative IPC: 1.34829 (Simulation time: 0 hr 4 min 33 sec) 
Heartbeat CPU 1 instructions: 40000000 cycles: 17589103 heartbeat IPC: 2.26943 cumulative IPC: 2.27414 (Simulation time: 0 hr 5 min 23 sec) 
Heartbeat CPU 2 instructions: 40000000 cycles: 17599887 heartbeat IPC: 2.27244 cumulative IPC: 2.27274 (Simulation time: 0 hr 5 min 23 sec) 
Heartbeat CPU 3 instructions: 30000001 cycles: 18708888 heartbeat IPC: 1.57211 cumulative IPC: 1.60352 (Simulation time: 0 hr 5 min 43 sec) 
Heartbeat CPU 1 instructions: 50000001 cycles: 21994182 heartbeat IPC: 2.27011 cumulative IPC: 2.27333 (Simulation time: 0 hr 6 min 43 sec) 
Heartbeat CPU 2 instructions: 50000000 cycles: 22000146 heartbeat IPC: 2.27259 cumulative IPC: 2.27271 (Simulation time: 0 hr 6 min 43 sec) 
Heartbeat CPU 0 instructions: 30000003 cycles: 22285393 heartbeat IPC: 1.34196 cumulative IPC: 1.34617 (Simulation time: 0 hr 6 min 48 sec) 
Heartbeat CPU 3 instructions: 40000000 cycles: 24941481 heartbeat IPC: 1.60447 cumulative IPC: 1.60375 (Simulation time: 0 hr 7 min 36 sec) 
Heartbeat CPU 2 instructions: 60000000 cycles: 26400578 heartbeat IPC: 2.2725 cumulative IPC: 2.27268 (Simulation time: 0 hr 8 min 2 sec) 
Heartbeat CPU 1 instructions: 60000000 cycles: 26449352 heartbeat IPC: 2.24458 cumulative IPC: 2.26849 (Simulation time: 0 hr 8 min 3 sec) 
Heartbeat CPU 0 instructions: 40000000 cycles: 29695129 heartbeat IPC: 1.34958 cumulative IPC: 1.34702 (Simulation time: 0 hr 9 min 2 sec) 
Heartbeat CPU 3 instructions: 50000001 cycles: 30113387 heartbeat IPC: 1.93352 cumulative IPC: 1.66039 (Simulation time: 0 hr 9 min 10 sec) 
Heartbeat CPU 2 instructions: 70000002 cycles: 30800422 heartbeat IPC: 2.27281 cumulative IPC: 2.2727 (Simulation time: 0 hr 9 min 22 sec) 
Heartbeat CPU 1 instructions: 70000003 cycles: 30847376 heartbeat IPC: 2.27375 cumulative IPC: 2.26924 (Simulation time: 0 hr 9 min 23 sec) 
Heartbeat CPU 3 instructions: 60000000 cycles: 35001848 heartbeat IPC: 2.04563 cumulative IPC: 1.7142 (Simulation time: 0 hr 10 min 41 sec) 
Heartbeat CPU 2 instructions: 80000000 cycles: 35199700 heartbeat IPC: 2.2731 cumulative IPC: 2.27275 (Simulation time: 0 hr 10 min 45 sec) 
Heartbeat CPU 1 instructions: 80000000 cycles: 35283787 heartbeat IPC: 2.25407 cumulative IPC: 2.26733 (Simulation time: 0 hr 10 min 46 sec) 
Heartbeat CPU 0 instructions: 50000001 cycles: 37151541 heartbeat IPC: 1.34113 cumulative IPC: 1.34584 (Simulation time: 0 hr 11 min 20 sec) 
Heartbeat CPU 2 instructions: 90000001 cycles: 39599775 heartbeat IPC: 2.27269 cumulative IPC: 2.27274 (Simulation time: 0 hr 12 min 4 sec) 
Heartbeat CPU 1 instructions: 90000002 cycles: 39670445 heartbeat IPC: 2.27964 cumulative IPC: 2.26869 (Simulation time: 0 hr 12 min 6 sec) 
Heartbeat CPU 3 instructions: 70000001 cycles: 41047314 heartbeat IPC: 1.65413 cumulative IPC: 1.70535 (Simulation time: 0 hr 12 min 31 sec) 
Heartbeat CPU 2 instructions: 100000000 cycles: 44000405 heartbeat IPC: 2.2724 cumulative IPC: 2.27271 (Simulation time: 0 hr 13 min 25 sec) 
Heartbeat CPU 1 instructions: 100000000 cycles: 44083017 heartbeat IPC: 2.26625 cumulative IPC: 2.26845 (Simulation time: 0 hr 13 min 27 sec) 
Heartbeat CPU 0 instructions: 60000000 cycles: 44538499 heartbeat IPC: 1.35374 cumulative IPC: 1.34715 (Simulation time: 0 hr 13 min 35 sec) 
Heartbeat CPU 3 instructions: 80000000 cycles: 47458920 heartbeat IPC: 1.55967 cumulative IPC: 1.68567 (Simulation time: 0 hr 14 min 28 sec) 
Heartbeat CPU 2 instructions: 110000000 cycles: 48400484 heartbeat IPC: 2.27269 cumulative IPC: 2.2727 (Simulation time: 0 hr 14 min 45 sec) 
Heartbeat CPU 1 instructions: 110000001 cycles: 48504547 heartbeat IPC: 2.26166 cumulative IPC: 2.26783 (Simulation time: 0 hr 14 min 47 sec) 
Heartbeat CPU 0 instructions: 70000000 cycles: 51982420 heartbeat IPC: 1.34338 cumulative IPC: 1.34661 (Simulation time: 0 hr 15 min 50 sec) 
Heartbeat CPU 2 instructions: 120000000 cycles: 52800857 heartbeat IPC: 2.27253 cumulative IPC: 2.27269 (Simulation time: 0 hr 16 min 5 sec) 
Heartbeat CPU 1 instructions: 120000000 cycles: 52890521 heartbeat IPC: 2.27999 cumulative IPC: 2.26884 (Simulation time: 0 hr 16 min 6 sec) 
Heartbeat CPU 3 instructions: 90000002 cycles: 54075057 heartbeat IPC: 1.51146 cumulative IPC: 1.66435 (Simulation time: 0 hr 16 min 28 sec) 
Heartbeat CPU 2 instructions: 130000001 cycles: 57200547 heartbeat IPC: 2.27289 cumulative IPC: 2.27271 (Simulation time: 0 hr 17 min 24 sec) 
Heartbeat CPU 1 instructions: 130000002 cycles: 57287336 heartbeat IPC: 2.27437 cumulative IPC: 2.26926 (Simulation time: 0 hr 17 min 26 sec) 
Heartbeat CPU 0 instructions: 80000000 cycles: 59404010 heartbeat IPC: 1.34742 cumulative IPC: 1.34671 (Simulation time: 0 hr 18 min 4 sec) 
Heartbeat CPU 3 instructions: 100000000 cycles: 60389227 heartbeat IPC: 1.58374 cumulative IPC: 1.65592 (Simulation time: 0 hr 18 min 22 sec) 
Heartbeat CPU 2 instructions: 140000000 cycles: 61599909 heartbeat IPC: 2.27306 cumulative IPC: 2.27273 (Simulation time: 0 hr 18 min 44 sec) 
Heartbeat CPU 1 instructions: 140000000 cycles: 61704404 heartbeat IPC: 2.26394 cumulative IPC: 2.26888 (Simulation time: 0 hr 18 min 46 sec) 
Heartbeat CPU 2 instructions: 150000003 cycles: 65999930 heartbeat IPC: 2.27272 cumulative IPC: 2.27273 (Simulation time: 0 hr 20 min 4 sec) 
Heartbeat CPU 1 instructions: 150000000 cycles: 66108026 heartbeat IPC: 2.27086 cumulative IPC: 2.26901 (Simulation time: 0 hr 20 min 6 sec) 
Heartbeat CPU 3 instructions: 110000000 cycles: 66469979 heartbeat IPC: 1.64453 cumulative IPC: 1.65488 (Simulation time: 0 hr 20 min 12 sec) 
Heartbeat CPU 0 instructions: 90000002 cycles: 66853259 heartbeat IPC: 1.34242 cumulative IPC: 1.34623 (Simulation time: 0 hr 20 min 19 sec) 
Heartbeat CPU 2 instructions: 160000000 cycles: 70400482 heartbeat IPC: 2.27244 cumulative IPC: 2.27271 (Simulation time: 0 hr 21 min 26 sec) 
Heartbeat CPU 1 instructions: 160000000 cycles: 70466712 heartbeat IPC: 2.29427 cumulative IPC: 2.27058 (Simulation time: 0 hr 21 min 27 sec) 
Heartbeat CPU 3 instructions: 120000000 cycles: 71374856 heartbeat IPC: 2.03879 cumulative IPC: 1.68126 (Simulation time: 0 hr 21 min 44 sec) 
Heartbeat CPU 0 instructions: 100000000 cycles: 74283405 heartbeat IPC: 1.34587 cumulative IPC: 1.3462 (Simulation time: 0 hr 22 min 38 sec) 
Heartbeat CPU 2 instructions: 170000001 cycles: 74800886 heartbeat IPC: 2.27252 cumulative IPC: 2.2727 (Simulation time: 0 hr 22 min 48 sec) 
Heartbeat CPU 1 instructions: 170000000 cycles: 74862643 heartbeat IPC: 2.27483 cumulative IPC: 2.27083 (Simulation time: 0 hr 22 min 49 sec) 
Heartbeat CPU 3 instructions: 130000003 cycles: 76478244 heartbeat IPC: 1.95948 cumulative IPC: 1.69983 (Simulation time: 0 hr 23 min 20 sec) 
Heartbeat CPU 2 instructions: 180000000 cycles: 79200808 heartbeat IPC: 2.27277 cumulative IPC: 2.2727 (Simulation time: 0 hr 24 min 9 sec) 
Heartbeat CPU 1 instructions: 180000000 cycles: 79273986 heartbeat IPC: 2.26688 cumulative IPC: 2.27061 (Simulation time: 0 hr 24 min 10 sec) 
Heartbeat CPU 0 instructions: 110000002 cycles: 81714176 heartbeat IPC: 1.34576 cumulative IPC: 1.34616 (Simulation time: 0 hr 24 min 55 sec) 
Heartbeat CPU 3 instructions: 140000000 cycles: 83062037 heartbeat IPC: 1.51888 cumulative IPC: 1.68549 (Simulation time: 0 hr 25 min 19 sec) 
Heartbeat CPU 2 instructions: 190000003 cycles: 83600495 heartbeat IPC: 2.27289 cumulative IPC: 2.27271 (Simulation time: 0 hr 25 min 29 sec) 
Heartbeat CPU 1 instructions: 190000002 cycles: 83689428 heartbeat IPC: 2.26478 cumulative IPC: 2.2703 (Simulation time: 0 hr 25 min 30 sec) 
Heartbeat CPU 2 instructions: 200000000 cycles: 87999748 heartbeat IPC: 2.27311 cumulative IPC: 2.27273 (Simulation time: 0 hr 26 min 49 sec) 
Heartbeat CPU 1 instructions: 200000000 cycles: 88080862 heartbeat IPC: 2.27716 cumulative IPC: 2.27064 (Simulation time: 0 hr 26 min 51 sec) 
Heartbeat CPU 0 instructions: 120000000 cycles: 89142491 heartbeat IPC: 1.3462 cumulative IPC: 1.34616 (Simulation time: 0 hr 27 min 10 sec) 
Heartbeat CPU 3 instructions: 150000000 cycles: 89353876 heartbeat IPC: 1.58936 cumulative IPC: 1.67872 (Simulation time: 0 hr 27 min 14 sec) 
Heartbeat CPU 2 instructions: 210000001 cycles: 92400002 heartbeat IPC: 2.2726 cumulative IPC: 0.108225 (Simulation time: 0 hr 28 min 10 sec) 
Heartbeat CPU 1 instructions: 210000000 cycles: 92445770 heartbeat IPC: 2.291 cumulative IPC: 0.108172 (Simulation time: 0 hr 28 min 11 sec) 
Heartbeat CPU 3 instructions: 160000000 cycles: 94594364 heartbeat IPC: 1.90822 cumulative IPC: 1.69143 (Simulation time: 0 hr 28 min 53 sec) 
Heartbeat CPU 0 instructions: 130000000 cycles: 96538785 heartbeat IPC: 1.35203 cumulative IPC: 1.34661 (Simulation time: 0 hr 29 min 30 sec) 
Heartbeat CPU 1 instructions: 220000000 cycles: 96783878 heartbeat IPC: 2.30515 cumulative IPC: 0.206646 (Simulation time: 0 hr 29 min 35 sec) 
Heartbeat CPU 2 instructions: 220000000 cycles: 96800439 heartbeat IPC: 2.2725 cumulative IPC: 0.206611 (Simulation time: 0 hr 29 min 35 sec) 
Heartbeat CPU 3 instructions: 170000000 cycles: 100071179 heartbeat IPC: 1.82588 cumulative IPC: 1.69879 (Simulation time: 0 hr 30 min 35 sec) 
Heartbeat CPU 1 instructions: 230000002 cycles: 101143362 heartbeat IPC: 2.29385 cumulative IPC: 0.296609 (Simulation time: 0 hr 30 min 55 sec) 
Heartbeat CPU 2 instructions: 230000003 cycles: 101200715 heartbeat IPC: 2.27259 cumulative IPC: 0.296441 (Simulation time: 0 hr 30 min 56 sec) 
Heartbeat CPU 0 instructions: 140000000 cycles: 103965056 heartbeat IPC: 1.34657 cumulative IPC: 1.34661 (Simulation time: 0 hr 31 min 47 sec) 
Heartbeat CPU 1 instructions: 240000000 cycles: 105400925 heartbeat IPC: 2.34876 cumulative IPC: 0.379503 (Simulation time: 0 hr 32 min 14 sec) 
Heartbeat CPU 2 instructions: 240000000 cycles: 105600696 heartbeat IPC: 2.27274 cumulative IPC: 0.378785 (Simulation time: 0 hr 32 min 17 sec) 
Heartbeat CPU 3 instructions: 180000000 cycles: 106548484 heartbeat IPC: 1.54385 cumulative IPC: 1.68937 (Simulation time: 0 hr 32 min 34 sec) 
Heartbeat CPU 1 instructions: 250000003 cycles: 109810412 heartbeat IPC: 2.26784 cumulative IPC: 0.45533 (Simulation time: 0 hr 33 min 36 sec) 
Heartbeat CPU 2 instructions: 250000002 cycles: 110000193 heartbeat IPC: 2.27299 cumulative IPC: 0.454545 (Simulation time: 0 hr 33 min 40 sec) 
Heartbeat CPU 0 instructions: 150000001 cycles: 111406340 heartbeat IPC: 1.34385 cumulative IPC: 1.34642 (Simulation time: 0 hr 34 min 5 sec) 
Heartbeat CPU 3 instructions: 190000001 cycles: 111906047 heartbeat IPC: 1.86652 cumulative IPC: 1.69785 (Simulation time: 0 hr 34 min 14 sec) 
Heartbeat CPU 1 instructions: 260000000 cycles: 114254975 heartbeat IPC: 2.24994 cumulative IPC: 0.525141 (Simulation time: 0 hr 34 min 57 sec) 
Heartbeat CPU 2 instructions: 260000000 cycles: 114399586 heartbeat IPC: 2.27304 cumulative IPC: 0.524477 (Simulation time: 0 hr 35 min 0 sec) 
Heartbeat CPU 3 instructions: 200000000 cycles: 118453356 heartbeat IPC: 1.52734 cumulative IPC: 1.68843 (Simulation time: 0 hr 36 min 13 sec) 
Heartbeat CPU 1 instructions: 270000000 cycles: 118664110 heartbeat IPC: 2.26802 cumulative IPC: 0.5899 (Simulation time: 0 hr 36 min 16 sec) 
Heartbeat CPU 0 instructions: 160000000 cycles: 118841680 heartbeat IPC: 1.34493 cumulative IPC: 1.34633 (Simulation time: 0 hr 36 min 20 sec) 
Heartbeat CPU 2 instructions: 270000001 cycles: 118927670 heartbeat IPC: 2.20844 cumulative IPC: 0.588593 (Simulation time: 0 hr 36 min 21 sec) 
Heartbeat CPU 1 instructions: 280000000 cycles: 123034892 heartbeat IPC: 2.28792 cumulative IPC: 0.650222 (Simulation time: 0 hr 37 min 33 sec) 
Heartbeat CPU 2 instructions: 280000000 cycles: 123485979 heartbeat IPC: 2.1938 cumulative IPC: 0.647847 (Simulation time: 0 hr 37 min 41 sec) 
Heartbeat CPU 3 instructions: 210000003 cycles: 124752215 heartbeat IPC: 1.58759 cumulative IPC: 0.0801589 (Simulation time: 0 hr 38 min 4 sec) 
Heartbeat CPU 0 instructions: 170000003 cycles: 126248720 heartbeat IPC: 1.35007 cumulative IPC: 1.34655 (Simulation time: 0 hr 38 min 31 sec) 
Heartbeat CPU 1 instructions: 290000002 cycles: 127443185 heartbeat IPC: 2.26845 cumulative IPC: 0.706197 (Simulation time: 0 hr 38 min 53 sec) 
Heartbeat CPU 2 instructions: 290000003 cycles: 127885413 heartbeat IPC: 2.27302 cumulative IPC: 0.703755 (Simulation time: 0 hr 39 min 1 sec) 
Heartbeat CPU 3 instructions: 220000000 cycles: 130962218 heartbeat IPC: 1.6103 cumulative IPC: 0.152716 (Simulation time: 0 hr 39 min 57 sec) 
Heartbeat CPU 1 instructions: 300000000 cycles: 131852791 heartbeat IPC: 2.26778 cumulative IPC: 0.758422 (Simulation time: 0 hr 40 min 13 sec) 
Heartbeat CPU 2 instructions: 300000000 cycles: 132285083 heartbeat IPC: 2.2729 cumulative IPC: 0.755943 (Simulation time: 0 hr 40 min 21 sec) 
Heartbeat CPU 0 instructions: 180000000 cycles: 133675922 heartbeat IPC: 1.3464 cumulative IPC: 1.34654 (Simulation time: 0 hr 40 min 46 sec) 
Heartbeat CPU 1 instructions: 310000002 cycles: 136283118 heartbeat IPC: 2.25717 cumulative IPC: 0.807143 (Simulation time: 0 hr 41 min 33 sec) 
Heartbeat CPU 3 instructions: 230000000 cycles: 136366233 heartbeat IPC: 1.85048 cumulative IPC: 0.219996 (Simulation time: 0 hr 41 min 35 sec) 
Heartbeat CPU 2 instructions: 310000001 cycles: 136685873 heartbeat IPC: 2.27232 cumulative IPC: 0.804765 (Simulation time: 0 hr 41 min 41 sec) 
Heartbeat CPU 1 instructions: 320000000 cycles: 140549887 heartbeat IPC: 2.34369 cumulative IPC: 0.853789 (Simulation time: 0 hr 42 min 54 sec) 
Heartbeat CPU 2 instructions: 320000000 cycles: 141086447 heartbeat IPC: 2.27243 cumulative IPC: 0.850542 (Simulation time: 0 hr 43 min 4 sec) 
Heartbeat CPU 0 instructions: 190000003 cycles: 141098745 heartbeat IPC: 1.3472 cumulative IPC: 1.34657 (Simulation time: 0 hr 43 min 4 sec) 
Heartbeat CPU 3 instructions: 240000000 cycles: 141304600 heartbeat IPC: 2.02496 cumulative IPC: 0.283076 (Simulation time: 0 hr 43 min 8 sec) 
Heartbeat CPU 1 instructions: 330000001 cycles: 144886675 heartbeat IPC: 2.30585 cumulative IPC: 0.897253 (Simulation time: 0 hr 44 min 16 sec) 
Heartbeat CPU 2 instructions: 330000003 cycles: 145486137 heartbeat IPC: 2.27289 cumulative IPC: 0.893556 (Simulation time: 0 hr 44 min 27 sec) 
Heartbeat CPU 3 instructions: 250000001 cycles: 146348912 heartbeat IPC: 1.98243 cumulative IPC: 0.341649 (Simulation time: 0 hr 44 min 43 sec) 
Heartbeat CPU 0 instructions: 200000000 cycles: 148538073 heartbeat IPC: 1.34421 cumulative IPC: 1.34646 (Simulation time: 0 hr 45 min 23 sec) 

Warmup complete CPU 0 instructions: 200000003 cycles: 148538074 (Simulation time: 0 hr 45 min 23 sec) 
Warmup complete CPU 1 instructions: 338237558 cycles: 148538073 (Simulation time: 0 hr 45 min 23 sec) 
Warmup complete CPU 2 instructions: 336936889 cycles: 148538073 (Simulation time: 0 hr 45 min 23 sec) 
Warmup complete CPU 3 instructions: 253241828 cycles: 148538073 (Simulation time: 0 hr 45 min 23 sec) 

Heartbeat CPU 1 instructions: 340000000 cycles: 150336695 heartbeat IPC: 1.83486 cumulative IPC: 0.979885 (Simulation time: 0 hr 45 min 39 sec) 
Heartbeat CPU 2 instructions: 340000000 cycles: 151236018 heartbeat IPC: 1.73917 cumulative IPC: 1.13535 (Simulation time: 0 hr 45 min 48 sec) 
Heartbeat CPU 1 instructions: 350000003 cycles: 158490968 heartbeat IPC: 1.22635 cumulative IPC: 1.18181 (Simulation time: 0 hr 46 min 56 sec) 
Heartbeat CPU 2 instructions: 350000003 cycles: 159903675 heartbeat IPC: 1.15371 cumulative IPC: 1.14936 (Simulation time: 0 hr 47 min 9 sec) 
Heartbeat CPU 1 instructions: 360000000 cycles: 166638313 heartbeat IPC: 1.22739 cumulative IPC: 1.20233 (Simulation time: 0 hr 48 min 14 sec) 
Heartbeat CPU 3 instructions: 260000000 cycles: 167808692 heartbeat IPC: 0.465988 cumulative IPC: 0.350698 (Simulation time: 0 hr 48 min 25 sec) 
Heartbeat CPU 2 instructions: 360000000 cycles: 168538797 heartbeat IPC: 1.15806 cumulative IPC: 1.15311 (Simulation time: 0 hr 48 min 32 sec) 
Heartbeat CPU 1 instructions: 370000003 cycles: 175301418 heartbeat IPC: 1.15432 cumulative IPC: 1.18679 (Simulation time: 0 hr 49 min 35 sec) 
Heartbeat CPU 2 instructions: 370000001 cycles: 177157652 heartbeat IPC: 1.16025 cumulative IPC: 1.15526 (Simulation time: 0 hr 49 min 52 sec) 
Heartbeat CPU 1 instructions: 380000000 cycles: 184269166 heartbeat IPC: 1.11511 cumulative IPC: 1.1688 (Simulation time: 0 hr 51 min 0 sec) 
Heartbeat CPU 2 instructions: 380000000 cycles: 186175507 heartbeat IPC: 1.10891 cumulative IPC: 1.14416 (Simulation time: 0 hr 51 min 17 sec) 
Heartbeat CPU 3 instructions: 270000001 cycles: 192947376 heartbeat IPC: 0.397793 cumulative IPC: 0.377357 (Simulation time: 0 hr 52 min 18 sec) 
Heartbeat CPU 0 instructions: 210000003 cycles: 193329680 heartbeat IPC: 0.223256 cumulative IPC: 0.223256 (Simulation time: 0 hr 52 min 22 sec) 
Heartbeat CPU 1 instructions: 390000002 cycles: 194104841 heartbeat IPC: 1.01671 cumulative IPC: 1.13597 (Simulation time: 0 hr 52 min 29 sec) 
Heartbeat CPU 2 instructions: 390000003 cycles: 194843857 heartbeat IPC: 1.15362 cumulative IPC: 1.14593 (Simulation time: 0 hr 52 min 36 sec) 
Heartbeat CPU 1 instructions: 400000000 cycles: 203131870 heartbeat IPC: 1.10778 cumulative IPC: 1.13131 (Simulation time: 0 hr 53 min 53 sec) 
Heartbeat CPU 2 instructions: 400000000 cycles: 203510836 heartbeat IPC: 1.1538 cumulative IPC: 1.14717 (Simulation time: 0 hr 53 min 56 sec) 
Heartbeat CPU 1 instructions: 410000000 cycles: 211447518 heartbeat IPC: 1.20255 cumulative IPC: 1.14073 (Simulation time: 0 hr 55 min 11 sec) 
Heartbeat CPU 2 instructions: 410000001 cycles: 212197017 heartbeat IPC: 1.15125 cumulative IPC: 1.14773 (Simulation time: 0 hr 55 min 18 sec) 
Heartbeat CPU 1 instructions: 420000000 cycles: 219930393 heartbeat IPC: 1.17885 cumulative IPC: 1.14526 (Simulation time: 0 hr 56 min 32 sec) 
Heartbeat CPU 3 instructions: 280000000 cycles: 220397877 heartbeat IPC: 0.364292 cumulative IPC: 0.372366 (Simulation time: 0 hr 56 min 36 sec) 
Heartbeat CPU 2 instructions: 420000000 cycles: 220877165 heartbeat IPC: 1.15205 cumulative IPC: 1.14825 (Simulation time: 0 hr 56 min 41 sec) 
Heartbeat CPU 1 instructions: 430000002 cycles: 226265598 heartbeat IPC: 1.57848 cumulative IPC: 1.18057 (Simulation time: 0 hr 57 min 38 sec) 
Heartbeat CPU 2 instructions: 430000002 cycles: 229667417 heartbeat IPC: 1.13762 cumulative IPC: 1.1471 (Simulation time: 0 hr 58 min 14 sec) 
Heartbeat CPU 1 instructions: 440000000 cycles: 232647392 heartbeat IPC: 1.56696 cumulative IPC: 1.20988 (Simulation time: 0 hr 58 min 45 sec) 
Heartbeat CPU 0 instructions: 220000000 cycles: 238335007 heartbeat IPC: 0.222196 cumulative IPC: 0.222725 (Simulation time: 0 hr 59 min 41 sec) 
Heartbeat CPU 2 instructions: 440000000 cycles: 238611546 heartbeat IPC: 1.11805 cumulative IPC: 1.14421 (Simulation time: 0 hr 59 min 44 sec) 
Heartbeat CPU 1 instructions: 450000000 cycles: 239036136 heartbeat IPC: 1.56525 cumulative IPC: 1.23497 (Simulation time: 0 hr 59 min 48 sec) 
Heartbeat CPU 3 instructions: 290000000 cycles: 242398150 heartbeat IPC: 0.45454 cumulative IPC: 0.391627 (Simulation time: 1 hr 0 min 22 sec) 
Heartbeat CPU 1 instructions: 460000000 cycles: 245688487 heartbeat IPC: 1.50323 cumulative IPC: 1.25334 (Simulation time: 1 hr 0 min 54 sec) 
Heartbeat CPU 2 instructions: 450000003 cycles: 247291027 heartbeat IPC: 1.15214 cumulative IPC: 1.14491 (Simulation time: 1 hr 1 min 8 sec) 
Heartbeat CPU 1 instructions: 470000001 cycles: 255365248 heartbeat IPC: 1.0334 cumulative IPC: 1.23342 (Simulation time: 1 hr 2 min 22 sec) 
Heartbeat CPU 2 instructions: 460000000 cycles: 255978946 heartbeat IPC: 1.15102 cumulative IPC: 1.1454 (Simulation time: 1 hr 2 min 28 sec) 
Heartbeat CPU 1 instructions: 480000000 cycles: 262975550 heartbeat IPC: 1.31401 cumulative IPC: 1.23878 (Simulation time: 1 hr 3 min 35 sec) 
Heartbeat CPU 2 instructions: 470000003 cycles: 264694930 heartbeat IPC: 1.14732 cumulative IPC: 1.14555 (Simulation time: 1 hr 3 min 51 sec) 
Heartbeat CPU 3 instructions: 300000000 cycles: 269788831 heartbeat IPC: 0.365088 cumulative IPC: 0.385632 (Simulation time: 1 hr 4 min 39 sec) 
Heartbeat CPU 1 instructions: 490000001 cycles: 272029685 heartbeat IPC: 1.10447 cumulative IPC: 1.22893 (Simulation time: 1 hr 5 min 0 sec) 
Heartbeat CPU 2 instructions: 480000000 cycles: 273422920 heartbeat IPC: 1.14574 cumulative IPC: 1.14556 (Simulation time: 1 hr 5 min 12 sec) 
Heartbeat CPU 1 instructions: 500000000 cycles: 281491891 heartbeat IPC: 1.05684 cumulative IPC: 1.21668 (Simulation time: 1 hr 6 min 27 sec) 
Heartbeat CPU 2 instructions: 490000001 cycles: 282146389 heartbeat IPC: 1.14633 cumulative IPC: 1.14561 (Simulation time: 1 hr 6 min 33 sec) 
Heartbeat CPU 0 instructions: 230000001 cycles: 283579323 heartbeat IPC: 0.221022 cumulative IPC: 0.222154 (Simulation time: 1 hr 6 min 46 sec) 
Heartbeat CPU 1 instructions: 510000002 cycles: 288757712 heartbeat IPC: 1.37631 cumulative IPC: 1.22495 (Simulation time: 1 hr 7 min 38 sec) 
Heartbeat CPU 2 instructions: 500000000 cycles: 290867656 heartbeat IPC: 1.14662 cumulative IPC: 1.14567 (Simulation time: 1 hr 7 min 58 sec) 
Heartbeat CPU 3 instructions: 310000002 cycles: 294591913 heartbeat IPC: 0.403176 cumulative IPC: 0.388611 (Simulation time: 1 hr 8 min 33 sec) 
Heartbeat CPU 1 instructions: 520000000 cycles: 297826188 heartbeat IPC: 1.10272 cumulative IPC: 1.21753 (Simulation time: 1 hr 9 min 3 sec) 
Heartbeat CPU 2 instructions: 510000000 cycles: 299599917 heartbeat IPC: 1.14518 cumulative IPC: 1.14564 (Simulation time: 1 hr 9 min 20 sec) 
Heartbeat CPU 1 instructions: 530000000 cycles: 307228484 heartbeat IPC: 1.06357 cumulative IPC: 1.20841 (Simulation time: 1 hr 10 min 32 sec) 
Heartbeat CPU 2 instructions: 520000000 cycles: 308285510 heartbeat IPC: 1.15133 cumulative IPC: 1.14595 (Simulation time: 1 hr 10 min 42 sec) 
Heartbeat CPU 1 instructions: 540000000 cycles: 316426163 heartbeat IPC: 1.08723 cumulative IPC: 1.20177 (Simulation time: 1 hr 12 min 0 sec) 
Heartbeat CPU 2 instructions: 530000001 cycles: 316913019 heartbeat IPC: 1.15908 cumulative IPC: 1.14663 (Simulation time: 1 hr 12 min 5 sec) 
Heartbeat CPU 3 instructions: 320000000 cycles: 316916045 heartbeat IPC: 0.447946 cumulative IPC: 0.396478 (Simulation time: 1 hr 12 min 5 sec) 
Heartbeat CPU 1 instructions: 550000000 cycles: 325439097 heartbeat IPC: 1.10952 cumulative IPC: 1.19707 (Simulation time: 1 hr 13 min 32 sec) 
Heartbeat CPU 2 instructions: 540000000 cycles: 325613456 heartbeat IPC: 1.14937 cumulative IPC: 1.14676 (Simulation time: 1 hr 13 min 34 sec) 
Heartbeat CPU 0 instructions: 240000000 cycles: 328782425 heartbeat IPC: 0.221224 cumulative IPC: 0.221921 (Simulation time: 1 hr 14 min 7 sec) 
Heartbeat CPU 3 instructions: 330000000 cycles: 330978770 heartbeat IPC: 0.7111 cumulative IPC: 0.420729 (Simulation time: 1 hr 14 min 29 sec) 
Heartbeat CPU 1 instructions: 560000000 cycles: 334113915 heartbeat IPC: 1.15276 cumulative IPC: 1.195 (Simulation time: 1 hr 14 min 59 sec) 
Heartbeat CPU 2 instructions: 550000000 cycles: 334320950 heartbeat IPC: 1.14844 cumulative IPC: 1.14684 (Simulation time: 1 hr 15 min 1 sec) 
Heartbeat CPU 1 instructions: 570000000 cycles: 342350917 heartbeat IPC: 1.21403 cumulative IPC: 1.19581 (Simulation time: 1 hr 16 min 21 sec) 
Heartbeat CPU 2 instructions: 560000000 cycles: 343081260 heartbeat IPC: 1.14151 cumulative IPC: 1.1466 (Simulation time: 1 hr 16 min 28 sec) 
Heartbeat CPU 3 instructions: 340000000 cycles: 348849647 heartbeat IPC: 0.55957 cumulative IPC: 0.433116 (Simulation time: 1 hr 17 min 23 sec) 
Heartbeat CPU 1 instructions: 580000000 cycles: 350784098 heartbeat IPC: 1.18579 cumulative IPC: 1.19539 (Simulation time: 1 hr 17 min 40 sec) 
Heartbeat CPU 2 instructions: 570000003 cycles: 352023795 heartbeat IPC: 1.11825 cumulative IPC: 1.14535 (Simulation time: 1 hr 17 min 51 sec) 
Heartbeat CPU 1 instructions: 590000001 cycles: 358492131 heartbeat IPC: 1.29735 cumulative IPC: 1.19913 (Simulation time: 1 hr 18 min 52 sec) 
Heartbeat CPU 2 instructions: 580000000 cycles: 360762860 heartbeat IPC: 1.14429 cumulative IPC: 1.14531 (Simulation time: 1 hr 19 min 15 sec) 
Heartbeat CPU 1 instructions: 600000000 cycles: 365165283 heartbeat IPC: 1.49854 cumulative IPC: 1.20835 (Simulation time: 1 hr 19 min 58 sec) 
Heartbeat CPU 2 instructions: 590000001 cycles: 369497650 heartbeat IPC: 1.14485 cumulative IPC: 1.14529 (Simulation time: 1 hr 20 min 38 sec) 
Heartbeat CPU 0 instructions: 250000001 cycles: 372843761 heartbeat IPC: 0.226956 cumulative IPC: 0.22291 (Simulation time: 1 hr 21 min 9 sec) 
Heartbeat CPU 1 instructions: 610000000 cycles: 374499679 heartbeat IPC: 1.07131 cumulative IPC: 1.20269 (Simulation time: 1 hr 21 min 23 sec) 
Heartbeat CPU 3 instructions: 350000000 cycles: 376409958 heartbeat IPC: 0.362841 cumulative IPC: 0.424617 (Simulation time: 1 hr 21 min 41 sec) 
Heartbeat CPU 2 instructions: 600000000 cycles: 378303906 heartbeat IPC: 1.13556 cumulative IPC: 1.14492 (Simulation time: 1 hr 22 min 0 sec) 
Heartbeat CPU 1 instructions: 620000000 cycles: 381419510 heartbeat IPC: 1.44512 cumulative IPC: 1.2099 (Simulation time: 1 hr 22 min 32 sec) 
Heartbeat CPU 2 instructions: 610000003 cycles: 386971703 heartbeat IPC: 1.1537 cumulative IPC: 1.14524 (Simulation time: 1 hr 23 min 25 sec) 
Heartbeat CPU 1 instructions: 630000001 cycles: 388978250 heartbeat IPC: 1.32297 cumulative IPC: 1.21345 (Simulation time: 1 hr 23 min 45 sec) 
Heartbeat CPU 2 instructions: 620000000 cycles: 395656459 heartbeat IPC: 1.15144 cumulative IPC: 1.14546 (Simulation time: 1 hr 24 min 49 sec) 
Heartbeat CPU 1 instructions: 640000000 cycles: 396564408 heartbeat IPC: 1.31819 cumulative IPC: 1.21665 (Simulation time: 1 hr 24 min 58 sec) 
Heartbeat CPU 1 instructions: 650000001 cycles: 402977787 heartbeat IPC: 1.55924 cumulative IPC: 1.22529 (Simulation time: 1 hr 26 min 3 sec) 
Heartbeat CPU 3 instructions: 360000000 cycles: 403752425 heartbeat IPC: 0.365731 cumulative IPC: 0.418308 (Simulation time: 1 hr 26 min 11 sec) 
Heartbeat CPU 2 instructions: 630000001 cycles: 404298373 heartbeat IPC: 1.15715 cumulative IPC: 1.14585 (Simulation time: 1 hr 26 min 16 sec) 
Heartbeat CPU 1 instructions: 660000000 cycles: 412598366 heartbeat IPC: 1.03944 cumulative IPC: 1.21852 (Simulation time: 1 hr 27 min 31 sec) 
Heartbeat CPU 2 instructions: 640000000 cycles: 413041744 heartbeat IPC: 1.14372 cumulative IPC: 1.14578 (Simulation time: 1 hr 27 min 36 sec) 
Heartbeat CPU 0 instructions: 260000000 cycles: 417399395 heartbeat IPC: 0.224438 cumulative IPC: 0.223163 (Simulation time: 1 hr 28 min 16 sec) 
Heartbeat CPU 1 instructions: 670000002 cycles: 421657923 heartbeat IPC: 1.10381 cumulative IPC: 1.21471 (Simulation time: 1 hr 28 min 55 sec) 
Heartbeat CPU 2 instructions: 650000002 cycles: 421764686 heartbeat IPC: 1.1464 cumulative IPC: 1.1458 (Simulation time: 1 hr 28 min 56 sec) 
Heartbeat CPU 3 instructions: 370000001 cycles: 428641853 heartbeat IPC: 0.401777 cumulative IPC: 0.416839 (Simulation time: 1 hr 30 min 0 sec) 
Heartbeat CPU 2 instructions: 660000000 cycles: 430475221 heartbeat IPC: 1.14803 cumulative IPC: 1.14587 (Simulation time: 1 hr 30 min 17 sec) 
Heartbeat CPU 1 instructions: 680000000 cycles: 431607550 heartbeat IPC: 1.00506 cumulative IPC: 1.20734 (Simulation time: 1 hr 30 min 28 sec) 
Heartbeat CPU 2 instructions: 670000002 cycles: 439192893 heartbeat IPC: 1.1471 cumulative IPC: 1.14591 (Simulation time: 1 hr 31 min 44 sec) 
Heartbeat CPU 1 instructions: 690000003 cycles: 441656260 heartbeat IPC: 0.995153 cumulative IPC: 1.20007 (Simulation time: 1 hr 32 min 9 sec) 
Heartbeat CPU 3 instructions: 380000000 cycles: 444645050 heartbeat IPC: 0.624875 cumulative IPC: 0.428082 (Simulation time: 1 hr 32 min 38 sec) 
Heartbeat CPU 2 instructions: 680000000 cycles: 447975234 heartbeat IPC: 1.13865 cumulative IPC: 1.14569 (Simulation time: 1 hr 33 min 10 sec) 
Heartbeat CPU 1 instructions: 700000000 cycles: 451641415 heartbeat IPC: 1.00149 cumulative IPC: 1.19353 (Simulation time: 1 hr 33 min 44 sec) 
Heartbeat CPU 2 instructions: 690000000 cycles: 456942427 heartbeat IPC: 1.11518 cumulative IPC: 1.14481 (Simulation time: 1 hr 34 min 31 sec) 
Heartbeat CPU 1 instructions: 710000000 cycles: 461462951 heartbeat IPC: 1.01817 cumulative IPC: 1.18802 (Simulation time: 1 hr 35 min 11 sec) 
Heartbeat CPU 0 instructions: 270000002 cycles: 462309211 heartbeat IPC: 0.222669 cumulative IPC: 0.223093 (Simulation time: 1 hr 35 min 19 sec) 
Heartbeat CPU 2 instructions: 700000000 cycles: 465628716 heartbeat IPC: 1.15124 cumulative IPC: 1.14498 (Simulation time: 1 hr 35 min 50 sec) 
Heartbeat CPU 1 instructions: 720000000 cycles: 469020913 heartbeat IPC: 1.32311 cumulative IPC: 1.19121 (Simulation time: 1 hr 36 min 23 sec) 
Heartbeat CPU 3 instructions: 390000001 cycles: 469157383 heartbeat IPC: 0.407958 cumulative IPC: 0.426544 (Simulation time: 1 hr 36 min 25 sec) 
Heartbeat CPU 2 instructions: 710000002 cycles: 474291923 heartbeat IPC: 1.15431 cumulative IPC: 1.14523 (Simulation time: 1 hr 37 min 17 sec) 
Heartbeat CPU 1 instructions: 730000002 cycles: 475361141 heartbeat IPC: 1.57723 cumulative IPC: 1.1987 (Simulation time: 1 hr 37 min 28 sec) 
Heartbeat CPU 1 instructions: 740000000 cycles: 481559390 heartbeat IPC: 1.61336 cumulative IPC: 1.20642 (Simulation time: 1 hr 38 min 30 sec) 
Heartbeat CPU 2 instructions: 720000000 cycles: 483246192 heartbeat IPC: 1.11679 cumulative IPC: 1.14447 (Simulation time: 1 hr 38 min 46 sec) 
Heartbeat CPU 1 instructions: 750000000 cycles: 490016798 heartbeat IPC: 1.1824 cumulative IPC: 1.20582 (Simulation time: 1 hr 39 min 49 sec) 
Heartbeat CPU 2 instructions: 730000000 cycles: 491922210 heartbeat IPC: 1.1526 cumulative IPC: 1.14467 (Simulation time: 1 hr 40 min 6 sec) 
Heartbeat CPU 3 instructions: 400000000 cycles: 496465784 heartbeat IPC: 0.366188 cumulative IPC: 0.421807 (Simulation time: 1 hr 40 min 48 sec) 
Heartbeat CPU 1 instructions: 760000000 cycles: 499468493 heartbeat IPC: 1.05801 cumulative IPC: 1.20184 (Simulation time: 1 hr 41 min 16 sec) 
Heartbeat CPU 2 instructions: 740000000 cycles: 500614216 heartbeat IPC: 1.15048 cumulative IPC: 1.14482 (Simulation time: 1 hr 41 min 27 sec) 
Heartbeat CPU 0 instructions: 280000000 cycles: 508060651 heartbeat IPC: 0.218572 cumulative IPC: 0.222517 (Simulation time: 1 hr 42 min 36 sec) 
Heartbeat CPU 1 instructions: 770000000 cycles: 508828057 heartbeat IPC: 1.06843 cumulative IPC: 1.19837 (Simulation time: 1 hr 42 min 43 sec) 
Heartbeat CPU 2 instructions: 750000002 cycles: 509303281 heartbeat IPC: 1.15087 cumulative IPC: 1.14496 (Simulation time: 1 hr 42 min 48 sec) 
Heartbeat CPU 2 instructions: 760000000 cycles: 518036409 heartbeat IPC: 1.14506 cumulative IPC: 1.14497 (Simulation time: 1 hr 44 min 8 sec) 
Heartbeat CPU 1 instructions: 780000000 cycles: 518758463 heartbeat IPC: 1.00701 cumulative IPC: 1.19324 (Simulation time: 1 hr 44 min 15 sec) 
Heartbeat CPU 3 instructions: 410000001 cycles: 522751316 heartbeat IPC: 0.380437 cumulative IPC: 0.418901 (Simulation time: 1 hr 44 min 52 sec) 
Heartbeat CPU 2 instructions: 770000000 cycles: 526760112 heartbeat IPC: 1.1463 cumulative IPC: 1.145 (Simulation time: 1 hr 45 min 30 sec) 
Heartbeat CPU 1 instructions: 790000000 cycles: 528762314 heartbeat IPC: 0.999615 cumulative IPC: 1.18815 (Simulation time: 1 hr 45 min 48 sec) 
Heartbeat CPU 2 instructions: 780000000 cycles: 535504979 heartbeat IPC: 1.14353 cumulative IPC: 1.14496 (Simulation time: 1 hr 46 min 51 sec) 
Heartbeat CPU 1 instructions: 800000000 cycles: 538514923 heartbeat IPC: 1.02537 cumulative IPC: 1.18408 (Simulation time: 1 hr 47 min 19 sec) 
Heartbeat CPU 2 instructions: 790000003 cycles: 544266551 heartbeat IPC: 1.14135 cumulative IPC: 1.14488 (Simulation time: 1 hr 48 min 12 sec) 
Heartbeat CPU 3 instructions: 420000000 cycles: 546986015 heartbeat IPC: 0.412631 cumulative IPC: 0.418519 (Simulation time: 1 hr 48 min 38 sec) 
Heartbeat CPU 1 instructions: 810000000 cycles: 548516550 heartbeat IPC: 0.999837 cumulative IPC: 1.17947 (Simulation time: 1 hr 48 min 52 sec) 
Heartbeat CPU 2 instructions: 800000000 cycles: 552968610 heartbeat IPC: 1.14915 cumulative IPC: 1.14498 (Simulation time: 1 hr 49 min 34 sec) 
Heartbeat CPU 0 instructions: 290000001 cycles: 553236785 heartbeat IPC: 0.221356 cumulative IPC: 0.222388 (Simulation time: 1 hr 49 min 36 sec) 
Heartbeat CPU 1 instructions: 820000000 cycles: 558459640 heartbeat IPC: 1.00572 cumulative IPC: 1.17526 (Simulation time: 1 hr 50 min 26 sec) 
Heartbeat CPU 2 instructions: 810000001 cycles: 561607863 heartbeat IPC: 1.15751 cumulative IPC: 1.14524 (Simulation time: 1 hr 50 min 56 sec) 
Heartbeat CPU 3 instructions: 430000003 cycles: 567151357 heartbeat IPC: 0.4959 cumulative IPC: 0.422247 (Simulation time: 1 hr 51 min 52 sec) 
Heartbeat CPU 1 instructions: 830000003 cycles: 568518470 heartbeat IPC: 0.994152 cumulative IPC: 1.17092 (Simulation time: 1 hr 52 min 5 sec) 
Heartbeat CPU 2 instructions: 820000000 cycles: 570336048 heartbeat IPC: 1.14571 cumulative IPC: 1.14525 (Simulation time: 1 hr 52 min 24 sec) 
Heartbeat CPU 1 instructions: 840000000 cycles: 578392804 heartbeat IPC: 1.01273 cumulative IPC: 1.16728 (Simulation time: 1 hr 53 min 44 sec) 
Heartbeat CPU 2 instructions: 830000000 cycles: 579059237 heartbeat IPC: 1.14637 cumulative IPC: 1.14527 (Simulation time: 1 hr 53 min 51 sec) 
Heartbeat CPU 3 instructions: 440000000 cycles: 581369322 heartbeat IPC: 0.703335 cumulative IPC: 0.43148 (Simulation time: 1 hr 54 min 14 sec) 
Heartbeat CPU 2 instructions: 840000000 cycles: 587785772 heartbeat IPC: 1.14593 cumulative IPC: 1.14528 (Simulation time: 1 hr 55 min 16 sec) 
Heartbeat CPU 1 instructions: 850000003 cycles: 588084167 heartbeat IPC: 1.03185 cumulative IPC: 1.1643 (Simulation time: 1 hr 55 min 19 sec) 
Heartbeat CPU 2 instructions: 850000002 cycles: 596627848 heartbeat IPC: 1.13096 cumulative IPC: 1.145 (Simulation time: 1 hr 56 min 40 sec) 
Heartbeat CPU 0 instructions: 300000000 cycles: 597384862 heartbeat IPC: 0.22651 cumulative IPC: 0.222793 (Simulation time: 1 hr 56 min 47 sec) 
Heartbeat CPU 1 instructions: 860000000 cycles: 597838984 heartbeat IPC: 1.02513 cumulative IPC: 1.16128 (Simulation time: 1 hr 56 min 51 sec) 
Heartbeat CPU 3 instructions: 450000000 cycles: 599459488 heartbeat IPC: 0.552787 cumulative IPC: 0.436347 (Simulation time: 1 hr 57 min 6 sec) 
Heartbeat CPU 2 instructions: 860000000 cycles: 605521448 heartbeat IPC: 1.1244 cumulative IPC: 1.1446 (Simulation time: 1 hr 57 min 59 sec) 
Heartbeat CPU 1 instructions: 870000001 cycles: 607876285 heartbeat IPC: 0.996284 cumulative IPC: 1.15767 (Simulation time: 1 hr 58 min 21 sec) 
Heartbeat CPU 2 instructions: 870000001 cycles: 614257784 heartbeat IPC: 1.14464 cumulative IPC: 1.1446 (Simulation time: 1 hr 59 min 19 sec) 
Heartbeat CPU 1 instructions: 880000000 cycles: 617684070 heartbeat IPC: 1.0196 cumulative IPC: 1.15478 (Simulation time: 1 hr 59 min 49 sec) 
Heartbeat CPU 2 instructions: 880000000 cycles: 623013214 heartbeat IPC: 1.14215 cumulative IPC: 1.14456 (Simulation time: 2 hr 0 min 37 sec) 
Heartbeat CPU 1 instructions: 890000003 cycles: 627597554 heartbeat IPC: 1.00873 cumulative IPC: 1.15176 (Simulation time: 2 hr 1 min 18 sec) 
Heartbeat CPU 3 instructions: 460000000 cycles: 628196484 heartbeat IPC: 0.347983 cumulative IPC: 0.431053 (Simulation time: 2 hr 1 min 24 sec) 
Heartbeat CPU 2 instructions: 890000003 cycles: 631799729 heartbeat IPC: 1.13811 cumulative IPC: 1.14444 (Simulation time: 2 hr 1 min 57 sec) 
Heartbeat CPU 1 instructions: 900000000 cycles: 636200091 heartbeat IPC: 1.16245 cumulative IPC: 1.15195 (Simulation time: 2 hr 2 min 39 sec) 
Heartbeat CPU 2 instructions: 900000000 cycles: 640450322 heartbeat IPC: 1.15599 cumulative IPC: 1.14464 (Simulation time: 2 hr 3 min 23 sec) 
Heartbeat CPU 0 instructions: 310000000 cycles: 642562922 heartbeat IPC: 0.221346 cumulative IPC: 0.222661 (Simulation time: 2 hr 3 min 43 sec) 
Heartbeat CPU 1 instructions: 910000000 cycles: 643022572 heartbeat IPC: 1.46574 cumulative IPC: 1.15628 (Simulation time: 2 hr 3 min 47 sec) 
Heartbeat CPU 2 instructions: 910000002 cycles: 649147250 heartbeat IPC: 1.14983 cumulative IPC: 1.14473 (Simulation time: 2 hr 4 min 43 sec) 
Heartbeat CPU 1 instructions: 920000000 cycles: 652721103 heartbeat IPC: 1.03108 cumulative IPC: 1.15387 (Simulation time: 2 hr 5 min 16 sec) 
Heartbeat CPU 3 instructions: 470000002 cycles: 655882019 heartbeat IPC: 0.3612 cumulative IPC: 0.427241 (Simulation time: 2 hr 5 min 45 sec) 
Heartbeat CPU 2 instructions: 920000000 cycles: 657836866 heartbeat IPC: 1.1508 cumulative IPC: 1.14483 (Simulation time: 2 hr 6 min 3 sec) 
Heartbeat CPU 1 instructions: 930000002 cycles: 662049207 heartbeat IPC: 1.07203 cumulative IPC: 1.15238 (Simulation time: 2 hr 6 min 44 sec) 
Heartbeat CPU 2 instructions: 930000001 cycles: 666644424 heartbeat IPC: 1.13539 cumulative IPC: 1.14467 (Simulation time: 2 hr 7 min 29 sec) 
Heartbeat CPU 1 instructions: 940000000 cycles: 672087503 heartbeat IPC: 0.996185 cumulative IPC: 1.14939 (Simulation time: 2 hr 8 min 19 sec) 
Heartbeat CPU 2 instructions: 940000000 cycles: 675599469 heartbeat IPC: 1.11669 cumulative IPC: 1.1442 (Simulation time: 2 hr 8 min 50 sec) 
Heartbeat CPU 3 instructions: 480000000 cycles: 677822454 heartbeat IPC: 0.455779 cumulative IPC: 0.428424 (Simulation time: 2 hr 9 min 10 sec) 
Heartbeat CPU 1 instructions: 950000001 cycles: 682198972 heartbeat IPC: 0.988976 cumulative IPC: 1.14635 (Simulation time: 2 hr 9 min 49 sec) 
Heartbeat CPU 2 instructions: 950000000 cycles: 684235760 heartbeat IPC: 1.1579 cumulative IPC: 1.14442 (Simulation time: 2 hr 10 min 8 sec) 
Heartbeat CPU 0 instructions: 320000000 cycles: 687494188 heartbeat IPC: 0.222562 cumulative IPC: 0.222653 (Simulation time: 2 hr 10 min 38 sec) 
Heartbeat CPU 1 instructions: 960000000 cycles: 691701782 heartbeat IPC: 1.05232 cumulative IPC: 1.14471 (Simulation time: 2 hr 11 min 17 sec) 
Heartbeat CPU 2 instructions: 960000000 cycles: 692895282 heartbeat IPC: 1.1548 cumulative IPC: 1.14459 (Simulation time: 2 hr 11 min 28 sec) 
Heartbeat CPU 2 instructions: 970000002 cycles: 701579503 heartbeat IPC: 1.15151 cumulative IPC: 1.14469 (Simulation time: 2 hr 12 min 48 sec) 
Heartbeat CPU 1 instructions: 970000003 cycles: 701785089 heartbeat IPC: 0.991738 cumulative IPC: 1.14192 (Simulation time: 2 hr 12 min 50 sec) 
Heartbeat CPU 3 instructions: 490000000 cycles: 703688955 heartbeat IPC: 0.3866 cumulative IPC: 0.426475 (Simulation time: 2 hr 13 min 8 sec) 
Heartbeat CPU 2 instructions: 980000000 cycles: 710577818 heartbeat IPC: 1.11132 cumulative IPC: 1.14416 (Simulation time: 2 hr 14 min 11 sec) 
Heartbeat CPU 1 instructions: 980000000 cycles: 711229334 heartbeat IPC: 1.05885 cumulative IPC: 1.14052 (Simulation time: 2 hr 14 min 17 sec) 
Heartbeat CPU 2 instructions: 990000000 cycles: 719238741 heartbeat IPC: 1.15461 cumulative IPC: 1.14432 (Simulation time: 2 hr 15 min 31 sec) 
Heartbeat CPU 1 instructions: 990000000 cycles: 720422534 heartbeat IPC: 1.08776 cumulative IPC: 1.13968 (Simulation time: 2 hr 15 min 41 sec) 
Heartbeat CPU 2 instructions: 1000000000 cycles: 727930156 heartbeat IPC: 1.15056 cumulative IPC: 1.14441 (Simulation time: 2 hr 16 min 50 sec) 
Heartbeat CPU 1 instructions: 1000000000 cycles: 729861690 heartbeat IPC: 1.05942 cumulative IPC: 1.13837 (Simulation time: 2 hr 17 min 8 sec) 
Heartbeat CPU 3 instructions: 500000000 cycles: 730344511 heartbeat IPC: 0.375156 cumulative IPC: 0.424124 (Simulation time: 2 hr 17 min 12 sec) 
Heartbeat CPU 0 instructions: 330000000 cycles: 732403404 heartbeat IPC: 0.222671 cumulative IPC: 0.222654 (Simulation time: 2 hr 17 min 33 sec) 
Heartbeat CPU 2 instructions: 1010000001 cycles: 736579134 heartbeat IPC: 1.15621 cumulative IPC: 1.14459 (Simulation time: 2 hr 18 min 13 sec) 
Heartbeat CPU 1 instructions: 1010000002 cycles: 737948927 heartbeat IPC: 1.23652 cumulative IPC: 1.13972 (Simulation time: 2 hr 18 min 26 sec) 
Heartbeat CPU 2 instructions: 1020000000 cycles: 745280071 heartbeat IPC: 1.1493 cumulative IPC: 1.14465 (Simulation time: 2 hr 19 min 36 sec) 
Heartbeat CPU 1 instructions: 1020000000 cycles: 746347639 heartbeat IPC: 1.19066 cumulative IPC: 1.14043 (Simulation time: 2 hr 19 min 48 sec) 
Heartbeat CPU 3 instructions: 510000002 cycles: 752515459 heartbeat IPC: 0.451041 cumulative IPC: 0.425112 (Simulation time: 2 hr 20 min 50 sec) 
Heartbeat CPU 1 instructions: 1030000000 cycles: 754059861 heartbeat IPC: 1.29664 cumulative IPC: 1.14242 (Simulation time: 2 hr 21 min 5 sec) 
Heartbeat CPU 2 instructions: 1030000003 cycles: 754208039 heartbeat IPC: 1.12008 cumulative IPC: 1.14429 (Simulation time: 2 hr 21 min 7 sec) 
Heartbeat CPU 1 instructions: 1040000000 cycles: 761782838 heartbeat IPC: 1.29484 cumulative IPC: 1.14434 (Simulation time: 2 hr 22 min 19 sec) 
Heartbeat CPU 2 instructions: 1040000000 cycles: 763000276 heartbeat IPC: 1.13737 cumulative IPC: 1.14419 (Simulation time: 2 hr 22 min 30 sec) 
Heartbeat CPU 1 instructions: 1050000000 cycles: 769729727 heartbeat IPC: 1.25835 cumulative IPC: 1.1458 (Simulation time: 2 hr 23 min 35 sec) 
Heartbeat CPU 2 instructions: 1050000001 cycles: 771652199 heartbeat IPC: 1.15581 cumulative IPC: 1.14435 (Simulation time: 2 hr 23 min 53 sec) 
Heartbeat CPU 0 instructions: 340000000 cycles: 775868248 heartbeat IPC: 0.230071 cumulative IPC: 0.223168 (Simulation time: 2 hr 24 min 34 sec) 
Heartbeat CPU 1 instructions: 1060000000 cycles: 778199039 heartbeat IPC: 1.18073 cumulative IPC: 1.14627 (Simulation time: 2 hr 24 min 55 sec) 
Heartbeat CPU 3 instructions: 520000000 cycles: 780125621 heartbeat IPC: 0.362185 cumulative IPC: 0.422361 (Simulation time: 2 hr 25 min 13 sec) 
Heartbeat CPU 2 instructions: 1060000000 cycles: 780314657 heartbeat IPC: 1.15441 cumulative IPC: 1.14449 (Simulation time: 2 hr 25 min 14 sec) 
Heartbeat CPU 1 instructions: 1070000001 cycles: 787702976 heartbeat IPC: 1.0522 cumulative IPC: 1.14487 (Simulation time: 2 hr 26 min 23 sec) 
Heartbeat CPU 2 instructions: 1070000002 cycles: 788977949 heartbeat IPC: 1.1543 cumulative IPC: 1.14462 (Simulation time: 2 hr 26 min 35 sec) 
Heartbeat CPU 1 instructions: 1080000000 cycles: 796977107 heartbeat IPC: 1.07827 cumulative IPC: 1.14392 (Simulation time: 2 hr 27 min 49 sec) 
Heartbeat CPU 2 instructions: 1080000000 cycles: 797694382 heartbeat IPC: 1.14726 cumulative IPC: 1.14466 (Simulation time: 2 hr 27 min 56 sec) 
Heartbeat CPU 3 instructions: 530000000 cycles: 804768771 heartbeat IPC: 0.405792 cumulative IPC: 0.421739 (Simulation time: 2 hr 29 min 2 sec) 
Heartbeat CPU 1 instructions: 1090000003 cycles: 806334334 heartbeat IPC: 1.06869 cumulative IPC: 1.14285 (Simulation time: 2 hr 29 min 18 sec) 
Heartbeat CPU 2 instructions: 1090000001 cycles: 806434956 heartbeat IPC: 1.14409 cumulative IPC: 1.14465 (Simulation time: 2 hr 29 min 20 sec) 
Heartbeat CPU 1 instructions: 1100000000 cycles: 815105334 heartbeat IPC: 1.14012 cumulative IPC: 1.14281 (Simulation time: 2 hr 30 min 46 sec) 
Heartbeat CPU 2 instructions: 1100000000 cycles: 815257782 heartbeat IPC: 1.13342 cumulative IPC: 1.1445 (Simulation time: 2 hr 30 min 47 sec) 
Heartbeat CPU 0 instructions: 350000000 cycles: 820841681 heartbeat IPC: 0.222353 cumulative IPC: 0.223113 (Simulation time: 2 hr 31 min 38 sec) 
Heartbeat CPU 3 instructions: 540000000 cycles: 823531456 heartbeat IPC: 0.532973 cumulative IPC: 0.424831 (Simulation time: 2 hr 32 min 2 sec) 
Heartbeat CPU 2 instructions: 1110000003 cycles: 824203705 heartbeat IPC: 1.11783 cumulative IPC: 1.14415 (Simulation time: 2 hr 32 min 8 sec) 
Heartbeat CPU 1 instructions: 1110000000 cycles: 824929679 heartbeat IPC: 1.01788 cumulative IPC: 1.141 (Simulation time: 2 hr 32 min 15 sec) 
Heartbeat CPU 2 instructions: 1120000000 cycles: 832884089 heartbeat IPC: 1.15202 cumulative IPC: 1.14425 (Simulation time: 2 hr 33 min 27 sec) 
Heartbeat CPU 1 instructions: 1120000000 cycles: 834749364 heartbeat IPC: 1.01836 cumulative IPC: 1.13924 (Simulation time: 2 hr 33 min 44 sec) 
Heartbeat CPU 2 instructions: 1130000002 cycles: 841600673 heartbeat IPC: 1.14724 cumulative IPC: 1.14429 (Simulation time: 2 hr 34 min 48 sec) 
Heartbeat CPU 1 instructions: 1130000003 cycles: 843952472 heartbeat IPC: 1.08659 cumulative IPC: 1.13855 (Simulation time: 2 hr 35 min 9 sec) 
Heartbeat CPU 2 instructions: 1140000000 cycles: 850319304 heartbeat IPC: 1.14697 cumulative IPC: 1.14432 (Simulation time: 2 hr 36 min 7 sec) 
Heartbeat CPU 3 instructions: 550000001 cycles: 851650778 heartbeat IPC: 0.355627 cumulative IPC: 0.422063 (Simulation time: 2 hr 36 min 19 sec) 
Heartbeat CPU 1 instructions: 1140000000 cycles: 853475517 heartbeat IPC: 1.05008 cumulative IPC: 1.13735 (Simulation time: 2 hr 36 min 37 sec) 
Heartbeat CPU 2 instructions: 1150000003 cycles: 859041323 heartbeat IPC: 1.14652 cumulative IPC: 1.14435 (Simulation time: 2 hr 37 min 29 sec) 
Heartbeat CPU 1 instructions: 1150000002 cycles: 862516803 heartbeat IPC: 1.10604 cumulative IPC: 1.13696 (Simulation time: 2 hr 38 min 1 sec) 
Heartbeat CPU 0 instructions: 360000000 cycles: 865469127 heartbeat IPC: 0.224077 cumulative IPC: 0.223173 (Simulation time: 2 hr 38 min 29 sec) 
Heartbeat CPU 2 instructions: 1160000000 cycles: 867772221 heartbeat IPC: 1.14536 cumulative IPC: 1.14436 (Simulation time: 2 hr 38 min 51 sec) 
Heartbeat CPU 1 instructions: 1160000000 cycles: 871438465 heartbeat IPC: 1.12087 cumulative IPC: 1.13676 (Simulation time: 2 hr 39 min 25 sec) 
Heartbeat CPU 2 instructions: 1170000000 cycles: 876486135 heartbeat IPC: 1.14759 cumulative IPC: 1.1444 (Simulation time: 2 hr 40 min 16 sec) 
Heartbeat CPU 3 instructions: 560000000 cycles: 876805942 heartbeat IPC: 0.397533 cumulative IPC: 0.421216 (Simulation time: 2 hr 40 min 20 sec) 
Heartbeat CPU 1 instructions: 1170000001 cycles: 878086024 heartbeat IPC: 1.50431 cumulative IPC: 1.14011 (Simulation time: 2 hr 40 min 32 sec) 
Heartbeat CPU 2 instructions: 1180000000 cycles: 885125989 heartbeat IPC: 1.15743 cumulative IPC: 1.14455 (Simulation time: 2 hr 41 min 38 sec) 
Heartbeat CPU 1 instructions: 1180000000 cycles: 887821302 heartbeat IPC: 1.02719 cumulative IPC: 1.13862 (Simulation time: 2 hr 42 min 3 sec) 
Heartbeat CPU 2 instructions: 1190000000 cycles: 893814718 heartbeat IPC: 1.15092 cumulative IPC: 1.14463 (Simulation time: 2 hr 43 min 1 sec) 
Heartbeat CPU 1 instructions: 1190000001 cycles: 896441675 heartbeat IPC: 1.16004 cumulative IPC: 1.13887 (Simulation time: 2 hr 43 min 26 sec) 
Heartbeat CPU 3 instructions: 570000002 cycles: 900310628 heartbeat IPC: 0.425447 cumulative IPC: 0.421348 (Simulation time: 2 hr 44 min 4 sec) 
Heartbeat CPU 2 instructions: 1200000000 cycles: 902456532 heartbeat IPC: 1.15716 cumulative IPC: 1.14477 (Simulation time: 2 hr 44 min 24 sec) 
Heartbeat CPU 1 instructions: 1200000000 cycles: 905511980 heartbeat IPC: 1.1025 cumulative IPC: 1.13843 (Simulation time: 2 hr 44 min 53 sec) 
Heartbeat CPU 0 instructions: 370000000 cycles: 910314633 heartbeat IPC: 0.222988 cumulative IPC: 0.223163 (Simulation time: 2 hr 45 min 39 sec) 
Heartbeat CPU 2 instructions: 1210000003 cycles: 911109905 heartbeat IPC: 1.15562 cumulative IPC: 1.14489 (Simulation time: 2 hr 45 min 46 sec) 
Heartbeat CPU 1 instructions: 1210000002 cycles: 913682058 heartbeat IPC: 1.22398 cumulative IPC: 1.13934 (Simulation time: 2 hr 46 min 13 sec) 
Heartbeat CPU 3 instructions: 580000000 cycles: 919055079 heartbeat IPC: 0.533491 cumulative IPC: 0.424077 (Simulation time: 2 hr 47 min 11 sec) 
Heartbeat CPU 2 instructions: 1220000000 cycles: 919836900 heartbeat IPC: 1.14587 cumulative IPC: 1.1449 (Simulation time: 2 hr 47 min 20 sec) 
Heartbeat CPU 1 instructions: 1220000000 cycles: 921144499 heartbeat IPC: 1.34004 cumulative IPC: 1.14128 (Simulation time: 2 hr 47 min 33 sec) 
Heartbeat CPU 2 instructions: 1230000001 cycles: 928558524 heartbeat IPC: 1.14658 cumulative IPC: 1.14492 (Simulation time: 2 hr 48 min 48 sec) 
Heartbeat CPU 1 instructions: 1230000000 cycles: 929890389 heartbeat IPC: 1.14339 cumulative IPC: 1.14131 (Simulation time: 2 hr 49 min 3 sec) 
Heartbeat CPU 3 instructions: 590000000 cycles: 933044598 heartbeat IPC: 0.714821 cumulative IPC: 0.429261 (Simulation time: 2 hr 49 min 37 sec) 
Heartbeat CPU 1 instructions: 1240000000 cycles: 936170348 heartbeat IPC: 1.59237 cumulative IPC: 1.1449 (Simulation time: 2 hr 50 min 11 sec) 
Heartbeat CPU 2 instructions: 1240000000 cycles: 937289688 heartbeat IPC: 1.14532 cumulative IPC: 1.14493 (Simulation time: 2 hr 50 min 23 sec) 
Heartbeat CPU 1 instructions: 1250000003 cycles: 945539046 heartbeat IPC: 1.06738 cumulative IPC: 1.14399 (Simulation time: 2 hr 51 min 42 sec) 
Heartbeat CPU 2 instructions: 1250000003 cycles: 946070527 heartbeat IPC: 1.13884 cumulative IPC: 1.14486 (Simulation time: 2 hr 51 min 47 sec) 
Heartbeat CPU 3 instructions: 600000000 cycles: 949812949 heartbeat IPC: 0.596362 cumulative IPC: 0.432758 (Simulation time: 2 hr 52 min 24 sec) 
Heartbeat CPU 1 instructions: 1260000000 cycles: 952936337 heartbeat IPC: 1.35185 cumulative IPC: 1.1459 (Simulation time: 2 hr 52 min 57 sec) 
Heartbeat CPU 2 instructions: 1260000000 cycles: 954835416 heartbeat IPC: 1.14092 cumulative IPC: 1.14482 (Simulation time: 2 hr 53 min 16 sec) 
Heartbeat CPU 0 instructions: 380000000 cycles: 954870100 heartbeat IPC: 0.224439 cumulative IPC: 0.223233 (Simulation time: 2 hr 53 min 16 sec) 
Heartbeat CPU 1 instructions: 1270000003 cycles: 959199488 heartbeat IPC: 1.59664 cumulative IPC: 1.14939 (Simulation time: 2 hr 53 min 59 sec) 
Heartbeat CPU 2 instructions: 1270000001 cycles: 963668801 heartbeat IPC: 1.13207 cumulative IPC: 1.14468 (Simulation time: 2 hr 54 min 41 sec) 
Heartbeat CPU 1 instructions: 1280000000 cycles: 966618972 heartbeat IPC: 1.3478 cumulative IPC: 1.15119 (Simulation time: 2 hr 55 min 9 sec) 
Heartbeat CPU 2 instructions: 1280000000 cycles: 972322921 heartbeat IPC: 1.15552 cumulative IPC: 1.14479 (Simulation time: 2 hr 56 min 1 sec) 
Heartbeat CPU 3 instructions: 610000001 cycles: 976386816 heartbeat IPC: 0.37631 cumulative IPC: 0.430946 (Simulation time: 2 hr 56 min 38 sec) 
Heartbeat CPU 1 instructions: 1290000000 cycles: 976593111 heartbeat IPC: 1.00259 cumulative IPC: 1.1494 (Simulation time: 2 hr 56 min 40 sec) 
Heartbeat CPU 2 instructions: 1290000002 cycles: 981002144 heartbeat IPC: 1.15218 cumulative IPC: 1.14487 (Simulation time: 2 hr 57 min 20 sec) 
Heartbeat CPU 1 instructions: 1300000000 cycles: 986575314 heartbeat IPC: 1.00178 cumulative IPC: 1.14764 (Simulation time: 2 hr 58 min 11 sec) 
Heartbeat CPU 2 instructions: 1300000000 cycles: 989664054 heartbeat IPC: 1.15448 cumulative IPC: 1.14497 (Simulation time: 2 hr 58 min 39 sec) 
Heartbeat CPU 1 instructions: 1310000000 cycles: 996142387 heartbeat IPC: 1.04525 cumulative IPC: 1.14648 (Simulation time: 2 hr 59 min 42 sec) 
Heartbeat CPU 2 instructions: 1310000001 cycles: 998609121 heartbeat IPC: 1.11793 cumulative IPC: 1.14468 (Simulation time: 3 hr 0 min 5 sec) 
Heartbeat CPU 0 instructions: 390000000 cycles: 999440918 heartbeat IPC: 0.224362 cumulative IPC: 0.223292 (Simulation time: 3 hr 0 min 14 sec) 
Heartbeat CPU 3 instructions: 620000000 cycles: 999513542 heartbeat IPC: 0.4324 cumulative IPC: 0.430986 (Simulation time: 3 hr 0 min 14 sec) 
Heartbeat CPU 1 instructions: 1320000000 cycles: 1004997023 heartbeat IPC: 1.12935 cumulative IPC: 1.1463 (Simulation time: 3 hr 1 min 3 sec) 
Heartbeat CPU 2 instructions: 1320000000 cycles: 1007402914 heartbeat IPC: 1.13717 cumulative IPC: 1.14461 (Simulation time: 3 hr 1 min 25 sec) 
Heartbeat CPU 1 instructions: 1330000003 cycles: 1012250075 heartbeat IPC: 1.37873 cumulative IPC: 1.14826 (Simulation time: 3 hr 2 min 13 sec) 
Heartbeat CPU 2 instructions: 1330000002 cycles: 1016036596 heartbeat IPC: 1.15825 cumulative IPC: 1.14474 (Simulation time: 3 hr 2 min 51 sec) 
Finished CPU 1 instructions: 1000000003 cycles: 869507609 cumulative IPC: 1.15008 (Simulation time: 3 hr 3 min 10 sec) 
Heartbeat CPU 1 instructions: 1340000000 cycles: 1019225131 heartbeat IPC: 1.43368 cumulative IPC: 1.15054 (Simulation time: 3 hr 3 min 22 sec) 
Finished CPU 2 instructions: 1000000000 cycles: 873489837 cumulative IPC: 1.14483 (Simulation time: 3 hr 3 min 50 sec) 
Heartbeat CPU 2 instructions: 1340000000 cycles: 1024677028 heartbeat IPC: 1.15735 cumulative IPC: 1.14487 (Simulation time: 3 hr 4 min 16 sec) 
Heartbeat CPU 1 instructions: 1350000000 cycles: 1025769940 heartbeat IPC: 1.52793 cumulative IPC: 1.15336 (Simulation time: 3 hr 4 min 27 sec) 
Heartbeat CPU 3 instructions: 630000002 cycles: 1027649356 heartbeat IPC: 0.355419 cumulative IPC: 0.428567 (Simulation time: 3 hr 4 min 47 sec) 
Heartbeat CPU 1 instructions: 1360000000 cycles: 1033247690 heartbeat IPC: 1.3373 cumulative IPC: 1.15491 (Simulation time: 3 hr 5 min 40 sec) 
Heartbeat CPU 2 instructions: 1350000002 cycles: 1033327179 heartbeat IPC: 1.15605 cumulative IPC: 1.14498 (Simulation time: 3 hr 5 min 41 sec) 
Heartbeat CPU 2 instructions: 1360000000 cycles: 1042028173 heartbeat IPC: 1.14929 cumulative IPC: 1.14502 (Simulation time: 3 hr 7 min 2 sec) 
Heartbeat CPU 1 instructions: 1370000002 cycles: 1042167849 heartbeat IPC: 1.12106 cumulative IPC: 1.15457 (Simulation time: 3 hr 7 min 4 sec) 
Heartbeat CPU 0 instructions: 400000000 cycles: 1044345814 heartbeat IPC: 0.222693 cumulative IPC: 0.223262 (Simulation time: 3 hr 7 min 26 sec) 
Heartbeat CPU 1 instructions: 1380000000 cycles: 1049732270 heartbeat IPC: 1.32198 cumulative IPC: 1.15598 (Simulation time: 3 hr 8 min 19 sec) 
Heartbeat CPU 3 instructions: 640000000 cycles: 1050555210 heartbeat IPC: 0.43657 cumulative IPC: 0.42877 (Simulation time: 3 hr 8 min 28 sec) 
Heartbeat CPU 2 instructions: 1370000000 cycles: 1050728303 heartbeat IPC: 1.14941 cumulative IPC: 1.14506 (Simulation time: 3 hr 8 min 30 sec) 
Heartbeat CPU 1 instructions: 1390000001 cycles: 1056032468 heartbeat IPC: 1.58725 cumulative IPC: 1.15897 (Simulation time: 3 hr 9 min 27 sec) 
Heartbeat CPU 2 instructions: 1380000000 cycles: 1059498383 heartbeat IPC: 1.14024 cumulative IPC: 1.14501 (Simulation time: 3 hr 10 min 3 sec) 
Heartbeat CPU 1 instructions: 1400000000 cycles: 1063298153 heartbeat IPC: 1.37633 cumulative IPC: 1.1607 (Simulation time: 3 hr 10 min 39 sec) 
Heartbeat CPU 2 instructions: 1390000002 cycles: 1068376034 heartbeat IPC: 1.12642 cumulative IPC: 1.14484 (Simulation time: 3 hr 11 min 25 sec) 
Heartbeat CPU 3 instructions: 650000001 cycles: 1072457252 heartbeat IPC: 0.456578 cumulative IPC: 0.42943 (Simulation time: 3 hr 12 min 2 sec) 
Heartbeat CPU 1 instructions: 1410000000 cycles: 1072955665 heartbeat IPC: 1.03546 cumulative IPC: 1.15939 (Simulation time: 3 hr 12 min 6 sec) 
Heartbeat CPU 2 instructions: 1400000000 cycles: 1077035036 heartbeat IPC: 1.15487 cumulative IPC: 1.14493 (Simulation time: 3 hr 12 min 47 sec) 
Heartbeat CPU 1 instructions: 1420000000 cycles: 1079145909 heartbeat IPC: 1.61545 cumulative IPC: 1.16243 (Simulation time: 3 hr 13 min 9 sec) 
Heartbeat CPU 2 instructions: 1410000000 cycles: 1085729554 heartbeat IPC: 1.15015 cumulative IPC: 1.14498 (Simulation time: 3 hr 14 min 10 sec) 
Heartbeat CPU 1 instructions: 1430000001 cycles: 1088245496 heartbeat IPC: 1.09895 cumulative IPC: 1.16181 (Simulation time: 3 hr 14 min 34 sec) 
Heartbeat CPU 0 instructions: 410000000 cycles: 1088558686 heartbeat IPC: 0.226178 cumulative IPC: 0.223399 (Simulation time: 3 hr 14 min 37 sec) 
Heartbeat CPU 2 instructions: 1420000000 cycles: 1094546614 heartbeat IPC: 1.13416 cumulative IPC: 1.14488 (Simulation time: 3 hr 15 min 34 sec) 
Heartbeat CPU 3 instructions: 660000000 cycles: 1097157633 heartbeat IPC: 0.404852 cumulative IPC: 0.42879 (Simulation time: 3 hr 15 min 59 sec) 
Heartbeat CPU 1 instructions: 1440000000 cycles: 1097445911 heartbeat IPC: 1.08691 cumulative IPC: 1.16108 (Simulation time: 3 hr 16 min 1 sec) 
Heartbeat CPU 2 instructions: 1430000000 cycles: 1103446556 heartbeat IPC: 1.1236 cumulative IPC: 1.14468 (Simulation time: 3 hr 16 min 57 sec) 
Heartbeat CPU 1 instructions: 1450000003 cycles: 1105854758 heartbeat IPC: 1.18922 cumulative IPC: 1.16133 (Simulation time: 3 hr 17 min 20 sec) 
Heartbeat CPU 2 instructions: 1440000000 cycles: 1112201417 heartbeat IPC: 1.14222 cumulative IPC: 1.14466 (Simulation time: 3 hr 18 min 19 sec) 
Heartbeat CPU 1 instructions: 1460000000 cycles: 1114303593 heartbeat IPC: 1.18359 cumulative IPC: 1.16153 (Simulation time: 3 hr 18 min 40 sec) 
Heartbeat CPU 2 instructions: 1450000001 cycles: 1120888298 heartbeat IPC: 1.15116 cumulative IPC: 1.14471 (Simulation time: 3 hr 19 min 44 sec) 
Heartbeat CPU 1 instructions: 1470000000 cycles: 1120991408 heartbeat IPC: 1.49526 cumulative IPC: 1.16382 (Simulation time: 3 hr 19 min 45 sec) 
Heartbeat CPU 3 instructions: 670000000 cycles: 1126071357 heartbeat IPC: 0.345857 cumulative IPC: 0.426337 (Simulation time: 3 hr 20 min 34 sec) 
Heartbeat CPU 1 instructions: 1480000000 cycles: 1129419522 heartbeat IPC: 1.18651 cumulative IPC: 1.16402 (Simulation time: 3 hr 21 min 5 sec) 
Heartbeat CPU 2 instructions: 1460000000 cycles: 1129604826 heartbeat IPC: 1.14725 cumulative IPC: 1.14474 (Simulation time: 3 hr 21 min 7 sec) 
Heartbeat CPU 0 instructions: 420000000 cycles: 1133222136 heartbeat IPC: 0.223897 cumulative IPC: 0.223422 (Simulation time: 3 hr 21 min 42 sec) 
Heartbeat CPU 1 instructions: 1490000003 cycles: 1137903519 heartbeat IPC: 1.17869 cumulative IPC: 1.16414 (Simulation time: 3 hr 22 min 26 sec) 
Heartbeat CPU 2 instructions: 1470000003 cycles: 1138316289 heartbeat IPC: 1.14791 cumulative IPC: 1.14476 (Simulation time: 3 hr 22 min 31 sec) 
Heartbeat CPU 1 instructions: 1500000000 cycles: 1145528041 heartbeat IPC: 1.31156 cumulative IPC: 1.16527 (Simulation time: 3 hr 23 min 41 sec) 
Heartbeat CPU 2 instructions: 1480000000 cycles: 1147034800 heartbeat IPC: 1.14698 cumulative IPC: 1.14478 (Simulation time: 3 hr 23 min 56 sec) 
Heartbeat CPU 3 instructions: 680000000 cycles: 1151935154 heartbeat IPC: 0.386641 cumulative IPC: 0.425313 (Simulation time: 3 hr 24 min 43 sec) 
Heartbeat CPU 1 instructions: 1510000001 cycles: 1153574265 heartbeat IPC: 1.24282 cumulative IPC: 1.16589 (Simulation time: 3 hr 24 min 58 sec) 
Heartbeat CPU 2 instructions: 1490000002 cycles: 1155768935 heartbeat IPC: 1.14493 cumulative IPC: 1.14479 (Simulation time: 3 hr 25 min 20 sec) 
Heartbeat CPU 1 instructions: 1520000000 cycles: 1160264192 heartbeat IPC: 1.49478 cumulative IPC: 1.16807 (Simulation time: 3 hr 26 min 6 sec) 
Heartbeat CPU 2 instructions: 1500000000 cycles: 1164477611 heartbeat IPC: 1.14828 cumulative IPC: 1.14482 (Simulation time: 3 hr 26 min 47 sec) 
Heartbeat CPU 1 instructions: 1530000001 cycles: 1169250429 heartbeat IPC: 1.11281 cumulative IPC: 1.16758 (Simulation time: 3 hr 27 min 31 sec) 
Heartbeat CPU 2 instructions: 1510000000 cycles: 1173148477 heartbeat IPC: 1.15329 cumulative IPC: 1.14489 (Simulation time: 3 hr 28 min 7 sec) 
Heartbeat CPU 3 instructions: 690000003 cycles: 1175897278 heartbeat IPC: 0.417325 cumulative IPC: 0.425127 (Simulation time: 3 hr 28 min 34 sec) 
Heartbeat CPU 0 instructions: 430000000 cycles: 1178082004 heartbeat IPC: 0.222916 cumulative IPC: 0.2234 (Simulation time: 3 hr 28 min 55 sec) 
Heartbeat CPU 1 instructions: 1540000000 cycles: 1178937205 heartbeat IPC: 1.03234 cumulative IPC: 1.16631 (Simulation time: 3 hr 29 min 3 sec) 
Heartbeat CPU 2 instructions: 1520000000 cycles: 1181828162 heartbeat IPC: 1.15212 cumulative IPC: 1.14495 (Simulation time: 3 hr 29 min 30 sec) 
Heartbeat CPU 1 instructions: 1550000001 cycles: 1188577931 heartbeat IPC: 1.03727 cumulative IPC: 1.16511 (Simulation time: 3 hr 30 min 34 sec) 
Heartbeat CPU 2 instructions: 1530000002 cycles: 1190489522 heartbeat IPC: 1.15455 cumulative IPC: 1.14503 (Simulation time: 3 hr 30 min 53 sec) 
Heartbeat CPU 1 instructions: 1560000000 cycles: 1195337717 heartbeat IPC: 1.47934 cumulative IPC: 1.16714 (Simulation time: 3 hr 31 min 46 sec) 
Heartbeat CPU 3 instructions: 700000000 cycles: 1195398821 heartbeat IPC: 0.51278 cumulative IPC: 0.42676 (Simulation time: 3 hr 31 min 47 sec) 
Heartbeat CPU 2 instructions: 1540000000 cycles: 1199250499 heartbeat IPC: 1.14143 cumulative IPC: 1.145 (Simulation time: 3 hr 32 min 30 sec) 
Heartbeat CPU 1 instructions: 1570000000 cycles: 1202721481 heartbeat IPC: 1.35432 cumulative IPC: 1.16845 (Simulation time: 3 hr 33 min 5 sec) 
Heartbeat CPU 2 instructions: 1550000002 cycles: 1207904168 heartbeat IPC: 1.15558 cumulative IPC: 1.14508 (Simulation time: 3 hr 33 min 59 sec) 
Heartbeat CPU 3 instructions: 710000002 cycles: 1209556067 heartbeat IPC: 0.706352 cumulative IPC: 0.43049 (Simulation time: 3 hr 34 min 17 sec) 
Heartbeat CPU 1 instructions: 1580000000 cycles: 1210144562 heartbeat IPC: 1.34715 cumulative IPC: 1.1697 (Simulation time: 3 hr 34 min 24 sec) 
Heartbeat CPU 1 instructions: 1590000002 cycles: 1216527947 heartbeat IPC: 1.56657 cumulative IPC: 1.17207 (Simulation time: 3 hr 35 min 31 sec) 
Heartbeat CPU 2 instructions: 1560000000 cycles: 1216661417 heartbeat IPC: 1.14191 cumulative IPC: 1.14506 (Simulation time: 3 hr 35 min 33 sec) 
Heartbeat CPU 0 instructions: 440000000 cycles: 1222961285 heartbeat IPC: 0.22282 cumulative IPC: 0.223376 (Simulation time: 3 hr 36 min 36 sec) 
Heartbeat CPU 1 instructions: 1600000000 cycles: 1223504421 heartbeat IPC: 1.43339 cumulative IPC: 1.17377 (Simulation time: 3 hr 36 min 42 sec) 
Heartbeat CPU 2 instructions: 1570000003 cycles: 1225426932 heartbeat IPC: 1.14083 cumulative IPC: 1.14502 (Simulation time: 3 hr 36 min 59 sec) 
Heartbeat CPU 3 instructions: 720000000 cycles: 1227621920 heartbeat IPC: 0.55353 cumulative IPC: 0.43255 (Simulation time: 3 hr 37 min 19 sec) 
Heartbeat CPU 1 instructions: 1610000001 cycles: 1231460013 heartbeat IPC: 1.25698 cumulative IPC: 1.17438 (Simulation time: 3 hr 37 min 56 sec) 
Heartbeat CPU 2 instructions: 1580000000 cycles: 1234314679 heartbeat IPC: 1.12514 cumulative IPC: 1.14486 (Simulation time: 3 hr 38 min 21 sec) 
Heartbeat CPU 1 instructions: 1620000000 cycles: 1240069623 heartbeat IPC: 1.16149 cumulative IPC: 1.17428 (Simulation time: 3 hr 39 min 15 sec) 
Heartbeat CPU 2 instructions: 1590000002 cycles: 1243077496 heartbeat IPC: 1.14119 cumulative IPC: 1.14483 (Simulation time: 3 hr 39 min 42 sec) 
Heartbeat CPU 1 instructions: 1630000002 cycles: 1247456521 heartbeat IPC: 1.35375 cumulative IPC: 1.17549 (Simulation time: 3 hr 40 min 25 sec) 
Heartbeat CPU 2 instructions: 1600000000 cycles: 1251755579 heartbeat IPC: 1.15233 cumulative IPC: 1.14489 (Simulation time: 3 hr 41 min 8 sec) 
Heartbeat CPU 1 instructions: 1640000000 cycles: 1253627091 heartbeat IPC: 1.6206 cumulative IPC: 1.17797 (Simulation time: 3 hr 41 min 26 sec) 
Heartbeat CPU 3 instructions: 730000000 cycles: 1255896204 heartbeat IPC: 0.353678 cumulative IPC: 0.430537 (Simulation time: 3 hr 41 min 49 sec) 
Heartbeat CPU 1 instructions: 1650000000 cycles: 1259877405 heartbeat IPC: 1.59992 cumulative IPC: 1.18034 (Simulation time: 3 hr 42 min 28 sec) 
Heartbeat CPU 2 instructions: 1610000000 cycles: 1260573688 heartbeat IPC: 1.13403 cumulative IPC: 1.1448 (Simulation time: 3 hr 42 min 35 sec) 
Heartbeat CPU 1 instructions: 1660000000 cycles: 1266091278 heartbeat IPC: 1.6093 cumulative IPC: 1.18273 (Simulation time: 3 hr 43 min 30 sec) 
Heartbeat CPU 0 instructions: 450000000 cycles: 1267862885 heartbeat IPC: 0.222709 cumulative IPC: 0.223349 (Simulation time: 3 hr 43 min 47 sec) 
Heartbeat CPU 2 instructions: 1620000000 cycles: 1269199774 heartbeat IPC: 1.15927 cumulative IPC: 1.14492 (Simulation time: 3 hr 44 min 0 sec) 
Heartbeat CPU 1 instructions: 1670000001 cycles: 1273730288 heartbeat IPC: 1.30907 cumulative IPC: 1.18359 (Simulation time: 3 hr 44 min 43 sec) 
Heartbeat CPU 2 instructions: 1630000000 cycles: 1277851508 heartbeat IPC: 1.15584 cumulative IPC: 1.145 (Simulation time: 3 hr 45 min 21 sec) 
Heartbeat CPU 1 instructions: 1680000000 cycles: 1282257724 heartbeat IPC: 1.17269 cumulative IPC: 1.1835 (Simulation time: 3 hr 46 min 3 sec) 
Heartbeat CPU 3 instructions: 740000000 cycles: 1284115276 heartbeat IPC: 0.35437 cumulative IPC: 0.428644 (Simulation time: 3 hr 46 min 20 sec) 
Heartbeat CPU 2 instructions: 1640000000 cycles: 1286497409 heartbeat IPC: 1.15662 cumulative IPC: 1.14509 (Simulation time: 3 hr 46 min 43 sec) 
Heartbeat CPU 1 instructions: 1690000001 cycles: 1290536876 heartbeat IPC: 1.20785 cumulative IPC: 1.18368 (Simulation time: 3 hr 47 min 22 sec) 
Heartbeat CPU 2 instructions: 1650000001 cycles: 1295242092 heartbeat IPC: 1.14355 cumulative IPC: 1.14508 (Simulation time: 3 hr 48 min 8 sec) 
Heartbeat CPU 1 instructions: 1700000000 cycles: 1298074103 heartbeat IPC: 1.32675 cumulative IPC: 1.18462 (Simulation time: 3 hr 48 min 38 sec) 
Heartbeat CPU 2 instructions: 1660000000 cycles: 1304172452 heartbeat IPC: 1.11978 cumulative IPC: 1.14488 (Simulation time: 3 hr 49 min 40 sec) 
Heartbeat CPU 1 instructions: 1710000000 cycles: 1304413722 heartbeat IPC: 1.57738 cumulative IPC: 1.18677 (Simulation time: 3 hr 49 min 43 sec) 
Heartbeat CPU 3 instructions: 750000003 cycles: 1305589376 heartbeat IPC: 0.465677 cumulative IPC: 0.429331 (Simulation time: 3 hr 49 min 54 sec) 
Heartbeat CPU 1 instructions: 1720000000 cycles: 1311753496 heartbeat IPC: 1.36244 cumulative IPC: 1.18788 (Simulation time: 3 hr 50 min 52 sec) 
Heartbeat CPU 0 instructions: 460000000 cycles: 1312582734 heartbeat IPC: 0.223614 cumulative IPC: 0.223359 (Simulation time: 3 hr 51 min 1 sec) 
Heartbeat CPU 2 instructions: 1670000002 cycles: 1312942727 heartbeat IPC: 1.14022 cumulative IPC: 1.14485 (Simulation time: 3 hr 51 min 4 sec) 
Heartbeat CPU 1 instructions: 1730000000 cycles: 1317866774 heartbeat IPC: 1.63578 cumulative IPC: 1.19022 (Simulation time: 3 hr 51 min 54 sec) 
Heartbeat CPU 2 instructions: 1680000000 cycles: 1321586545 heartbeat IPC: 1.1569 cumulative IPC: 1.14493 (Simulation time: 3 hr 52 min 32 sec) 
Heartbeat CPU 1 instructions: 1740000000 cycles: 1323933752 heartbeat IPC: 1.64827 cumulative IPC: 1.19259 (Simulation time: 3 hr 52 min 57 sec) 
Heartbeat CPU 2 instructions: 1690000001 cycles: 1330250806 heartbeat IPC: 1.15417 cumulative IPC: 1.145 (Simulation time: 3 hr 53 min 57 sec) 
Heartbeat CPU 1 instructions: 1750000001 cycles: 1332359423 heartbeat IPC: 1.18685 cumulative IPC: 1.19255 (Simulation time: 3 hr 54 min 17 sec) 
Heartbeat CPU 3 instructions: 760000000 cycles: 1333847617 heartbeat IPC: 0.353879 cumulative IPC: 0.427532 (Simulation time: 3 hr 54 min 31 sec) 
Heartbeat CPU 2 instructions: 1700000000 cycles: 1338930629 heartbeat IPC: 1.1521 cumulative IPC: 1.14505 (Simulation time: 3 hr 55 min 20 sec) 
Heartbeat CPU 1 instructions: 1760000000 cycles: 1339948364 heartbeat IPC: 1.31771 cumulative IPC: 1.19334 (Simulation time: 3 hr 55 min 30 sec) 
Heartbeat CPU 1 instructions: 1770000001 cycles: 1347434727 heartbeat IPC: 1.33576 cumulative IPC: 1.19423 (Simulation time: 3 hr 56 min 43 sec) 
Heartbeat CPU 2 instructions: 1710000002 cycles: 1347639667 heartbeat IPC: 1.14823 cumulative IPC: 1.14508 (Simulation time: 3 hr 56 min 45 sec) 
Heartbeat CPU 1 instructions: 1780000000 cycles: 1355963049 heartbeat IPC: 1.17256 cumulative IPC: 1.19408 (Simulation time: 3 hr 58 min 5 sec) 
Heartbeat CPU 2 instructions: 1720000000 cycles: 1356346792 heartbeat IPC: 1.14848 cumulative IPC: 1.1451 (Simulation time: 3 hr 58 min 9 sec) 
Heartbeat CPU 0 instructions: 470000000 cycles: 1357357882 heartbeat IPC: 0.223338 cumulative IPC: 0.223358 (Simulation time: 3 hr 58 min 19 sec) 
Heartbeat CPU 3 instructions: 770000000 cycles: 1357568959 heartbeat IPC: 0.421561 cumulative IPC: 0.427415 (Simulation time: 3 hr 58 min 21 sec) 
Heartbeat CPU 1 instructions: 1790000001 cycles: 1364837075 heartbeat IPC: 1.12688 cumulative IPC: 1.19359 (Simulation time: 3 hr 59 min 33 sec) 
Heartbeat CPU 2 instructions: 1730000001 cycles: 1365118472 heartbeat IPC: 1.14003 cumulative IPC: 1.14506 (Simulation time: 3 hr 59 min 35 sec) 
Heartbeat CPU 1 instructions: 1800000000 cycles: 1372171106 heartbeat IPC: 1.36351 cumulative IPC: 1.19461 (Simulation time: 4 hr 0 min 45 sec) 
Heartbeat CPU 2 instructions: 1740000000 cycles: 1374027381 heartbeat IPC: 1.12247 cumulative IPC: 1.1449 (Simulation time: 4 hr 1 min 2 sec) 
Heartbeat CPU 3 instructions: 780000000 cycles: 1377488540 heartbeat IPC: 0.502019 cumulative IPC: 0.428624 (Simulation time: 4 hr 1 min 34 sec) 
Heartbeat CPU 1 instructions: 1810000001 cycles: 1380816748 heartbeat IPC: 1.15665 cumulative IPC: 1.19434 (Simulation time: 4 hr 2 min 5 sec) 
Heartbeat CPU 2 instructions: 1750000002 cycles: 1382695026 heartbeat IPC: 1.15372 cumulative IPC: 1.14496 (Simulation time: 4 hr 2 min 22 sec) 
Heartbeat CPU 1 instructions: 1820000000 cycles: 1390562042 heartbeat IPC: 1.02614 cumulative IPC: 1.19302 (Simulation time: 4 hr 3 min 35 sec) 
Heartbeat CPU 2 instructions: 1760000000 cycles: 1391372370 heartbeat IPC: 1.15243 cumulative IPC: 1.14501 (Simulation time: 4 hr 3 min 42 sec) 
Heartbeat CPU 1 instructions: 1830000000 cycles: 1397945425 heartbeat IPC: 1.35439 cumulative IPC: 1.19398 (Simulation time: 4 hr 4 min 46 sec) 
Heartbeat CPU 2 instructions: 1770000002 cycles: 1400036351 heartbeat IPC: 1.1542 cumulative IPC: 1.14508 (Simulation time: 4 hr 5 min 7 sec) 
Heartbeat CPU 0 instructions: 480000000 cycles: 1402287258 heartbeat IPC: 0.222572 cumulative IPC: 0.22333 (Simulation time: 4 hr 5 min 30 sec) 
Heartbeat CPU 1 instructions: 1840000000 cycles: 1404479520 heartbeat IPC: 1.53043 cumulative IPC: 1.19573 (Simulation time: 4 hr 5 min 52 sec) 
Heartbeat CPU 3 instructions: 790000000 cycles: 1405094112 heartbeat IPC: 0.362246 cumulative IPC: 0.427166 (Simulation time: 4 hr 5 min 58 sec) 
Heartbeat CPU 2 instructions: 1780000000 cycles: 1408749954 heartbeat IPC: 1.14763 cumulative IPC: 1.1451 (Simulation time: 4 hr 6 min 35 sec) 
Heartbeat CPU 1 instructions: 1850000002 cycles: 1411133545 heartbeat IPC: 1.50285 cumulative IPC: 1.19735 (Simulation time: 4 hr 6 min 58 sec) 
Heartbeat CPU 2 instructions: 1790000003 cycles: 1417478702 heartbeat IPC: 1.14564 cumulative IPC: 1.1451 (Simulation time: 4 hr 7 min 59 sec) 
Heartbeat CPU 1 instructions: 1860000000 cycles: 1418842837 heartbeat IPC: 1.29714 cumulative IPC: 1.19795 (Simulation time: 4 hr 8 min 13 sec) 
Heartbeat CPU 1 instructions: 1870000002 cycles: 1425096027 heartbeat IPC: 1.59918 cumulative IPC: 1.19992 (Simulation time: 4 hr 9 min 18 sec) 
Heartbeat CPU 2 instructions: 1800000000 cycles: 1426174913 heartbeat IPC: 1.14993 cumulative IPC: 1.14513 (Simulation time: 4 hr 9 min 29 sec) 
Heartbeat CPU 3 instructions: 800000000 cycles: 1430014509 heartbeat IPC: 0.401278 cumulative IPC: 0.426663 (Simulation time: 4 hr 10 min 7 sec) 
Heartbeat CPU 1 instructions: 1880000000 cycles: 1433075945 heartbeat IPC: 1.25315 cumulative IPC: 1.20025 (Simulation time: 4 hr 10 min 35 sec) 
Heartbeat CPU 2 instructions: 1810000002 cycles: 1434871462 heartbeat IPC: 1.14988 cumulative IPC: 1.14516 (Simulation time: 4 hr 10 min 53 sec) 
Heartbeat CPU 1 instructions: 1890000003 cycles: 1439911379 heartbeat IPC: 1.46297 cumulative IPC: 1.20164 (Simulation time: 4 hr 11 min 44 sec) 
Heartbeat CPU 2 instructions: 1820000000 cycles: 1443548056 heartbeat IPC: 1.15253 cumulative IPC: 1.14521 (Simulation time: 4 hr 12 min 21 sec) 
Heartbeat CPU 1 instructions: 1900000000 cycles: 1446600852 heartbeat IPC: 1.49489 cumulative IPC: 1.20315 (Simulation time: 4 hr 12 min 55 sec) 
Heartbeat CPU 0 instructions: 490000000 cycles: 1448424635 heartbeat IPC: 0.216744 cumulative IPC: 0.223096 (Simulation time: 4 hr 13 min 15 sec) 
Heartbeat CPU 3 instructions: 810000000 cycles: 1449201404 heartbeat IPC: 0.521189 cumulative IPC: 0.428057 (Simulation time: 4 hr 13 min 23 sec) 
Heartbeat CPU 2 instructions: 1830000000 cycles: 1452244272 heartbeat IPC: 1.14993 cumulative IPC: 1.14525 (Simulation time: 4 hr 13 min 55 sec) 
Heartbeat CPU 1 instructions: 1910000002 cycles: 1454294890 heartbeat IPC: 1.29971 cumulative IPC: 1.20372 (Simulation time: 4 hr 14 min 16 sec) 
Heartbeat CPU 2 instructions: 1840000000 cycles: 1460987540 heartbeat IPC: 1.14374 cumulative IPC: 1.14524 (Simulation time: 4 hr 15 min 24 sec) 
Heartbeat CPU 1 instructions: 1920000000 cycles: 1461995998 heartbeat IPC: 1.29851 cumulative IPC: 1.20427 (Simulation time: 4 hr 15 min 34 sec) 
Heartbeat CPU 3 instructions: 820000000 cycles: 1465282414 heartbeat IPC: 0.621852 cumulative IPC: 0.430424 (Simulation time: 4 hr 16 min 8 sec) 
Heartbeat CPU 1 instructions: 1930000003 cycles: 1468560892 heartbeat IPC: 1.52325 cumulative IPC: 1.20586 (Simulation time: 4 hr 16 min 41 sec) 
Heartbeat CPU 2 instructions: 1850000000 cycles: 1469880733 heartbeat IPC: 1.12446 cumulative IPC: 1.1451 (Simulation time: 4 hr 16 min 55 sec) 
Heartbeat CPU 1 instructions: 1940000000 cycles: 1475152866 heartbeat IPC: 1.517 cumulative IPC: 1.20741 (Simulation time: 4 hr 17 min 46 sec) 
Heartbeat CPU 2 instructions: 1860000000 cycles: 1478705247 heartbeat IPC: 1.13321 cumulative IPC: 1.14502 (Simulation time: 4 hr 18 min 21 sec) 
Heartbeat CPU 1 instructions: 1950000001 cycles: 1482419107 heartbeat IPC: 1.37623 cumulative IPC: 1.20833 (Simulation time: 4 hr 18 min 56 sec) 
Heartbeat CPU 2 instructions: 1870000001 cycles: 1487517830 heartbeat IPC: 1.13474 cumulative IPC: 1.14495 (Simulation time: 4 hr 19 min 46 sec) 
Heartbeat CPU 1 instructions: 1960000000 cycles: 1489348937 heartbeat IPC: 1.44304 cumulative IPC: 1.20954 (Simulation time: 4 hr 20 min 5 sec) 
Heartbeat CPU 3 instructions: 830000000 cycles: 1492021765 heartbeat IPC: 0.373981 cumulative IPC: 0.4293 (Simulation time: 4 hr 20 min 30 sec) 
Heartbeat CPU 0 instructions: 500000000 cycles: 1492816511 heartbeat IPC: 0.225266 cumulative IPC: 0.223168 (Simulation time: 4 hr 20 min 38 sec) 
Heartbeat CPU 2 instructions: 1880000000 cycles: 1496172005 heartbeat IPC: 1.15551 cumulative IPC: 1.14502 (Simulation time: 4 hr 21 min 13 sec) 
Heartbeat CPU 1 instructions: 1970000000 cycles: 1496255313 heartbeat IPC: 1.44794 cumulative IPC: 1.21076 (Simulation time: 4 hr 21 min 13 sec) 
Heartbeat CPU 1 instructions: 1980000000 cycles: 1502623587 heartbeat IPC: 1.57028 cumulative IPC: 1.21245 (Simulation time: 4 hr 22 min 19 sec) 
Heartbeat CPU 2 instructions: 1890000003 cycles: 1504796475 heartbeat IPC: 1.15949 cumulative IPC: 1.14511 (Simulation time: 4 hr 22 min 41 sec) 
Heartbeat CPU 1 instructions: 1990000000 cycles: 1509038286 heartbeat IPC: 1.55892 cumulative IPC: 1.21408 (Simulation time: 4 hr 23 min 24 sec) 
Heartbeat CPU 2 instructions: 1900000000 cycles: 1513446968 heartbeat IPC: 1.156 cumulative IPC: 1.14518 (Simulation time: 4 hr 24 min 9 sec) 
*** Reached end of trace for Core: 1 Repeating trace: /scratch/user/djimenez/champsim-traces/speccpu2017/xz/648.exchange2_s/648.exchange2_s-387B.champsimtrace.xz
Heartbeat CPU 1 instructions: 2000000000 cycles: 1515389363 heartbeat IPC: 1.57454 cumulative IPC: 1.21576 (Simulation time: 4 hr 24 min 30 sec) 
Heartbeat CPU 3 instructions: 840000000 cycles: 1517293431 heartbeat IPC: 0.3957 cumulative IPC: 0.42868 (Simulation time: 4 hr 24 min 50 sec) 
Heartbeat CPU 1 instructions: 2010000001 cycles: 1521762214 heartbeat IPC: 1.56916 cumulative IPC: 1.2174 (Simulation time: 4 hr 25 min 36 sec) 
Heartbeat CPU 2 instructions: 1910000001 cycles: 1522351764 heartbeat IPC: 1.12299 cumulative IPC: 1.14503 (Simulation time: 4 hr 25 min 42 sec) 
Heartbeat CPU 2 instructions: 1920000000 cycles: 1531163494 heartbeat IPC: 1.13485 cumulative IPC: 1.14497 (Simulation time: 4 hr 27 min 1 sec) 
Heartbeat CPU 1 instructions: 2020000000 cycles: 1531449698 heartbeat IPC: 1.03226 cumulative IPC: 1.2161 (Simulation time: 4 hr 27 min 3 sec) 
Heartbeat CPU 0 instructions: 510000000 cycles: 1538156066 heartbeat IPC: 0.220558 cumulative IPC: 0.223083 (Simulation time: 4 hr 28 min 5 sec) 
Heartbeat CPU 2 instructions: 1930000003 cycles: 1539809623 heartbeat IPC: 1.15659 cumulative IPC: 1.14504 (Simulation time: 4 hr 28 min 20 sec) 
Heartbeat CPU 1 instructions: 2030000000 cycles: 1541457535 heartbeat IPC: 0.999217 cumulative IPC: 1.21454 (Simulation time: 4 hr 28 min 35 sec) 
Heartbeat CPU 3 instructions: 850000000 cycles: 1543531905 heartbeat IPC: 0.38112 cumulative IPC: 0.427786 (Simulation time: 4 hr 28 min 54 sec) 
Heartbeat CPU 2 instructions: 1940000000 cycles: 1548503501 heartbeat IPC: 1.15023 cumulative IPC: 1.14507 (Simulation time: 4 hr 29 min 40 sec) 
Heartbeat CPU 1 instructions: 2040000000 cycles: 1550982652 heartbeat IPC: 1.04986 cumulative IPC: 1.21343 (Simulation time: 4 hr 30 min 2 sec) 
Heartbeat CPU 2 instructions: 1950000001 cycles: 1557185979 heartbeat IPC: 1.15175 cumulative IPC: 1.14511 (Simulation time: 4 hr 31 min 0 sec) 
Heartbeat CPU 1 instructions: 2050000001 cycles: 1560680626 heartbeat IPC: 1.03114 cumulative IPC: 1.21217 (Simulation time: 4 hr 31 min 33 sec) 
Heartbeat CPU 2 instructions: 1960000000 cycles: 1565998475 heartbeat IPC: 1.13475 cumulative IPC: 1.14505 (Simulation time: 4 hr 32 min 24 sec) 
Heartbeat CPU 3 instructions: 860000000 cycles: 1566260796 heartbeat IPC: 0.439969 cumulative IPC: 0.427981 (Simulation time: 4 hr 32 min 27 sec) 
Heartbeat CPU 1 instructions: 2060000000 cycles: 1570806210 heartbeat IPC: 0.987597 cumulative IPC: 1.21058 (Simulation time: 4 hr 33 min 9 sec) 
Heartbeat CPU 2 instructions: 1970000000 cycles: 1574950893 heartbeat IPC: 1.11702 cumulative IPC: 1.14487 (Simulation time: 4 hr 33 min 45 sec) 
Heartbeat CPU 1 instructions: 2070000003 cycles: 1580794279 heartbeat IPC: 1.00119 cumulative IPC: 1.20912 (Simulation time: 4 hr 34 min 38 sec) 
[...]
Heartbeat CPU 1 instructions: 5560000000 cycles: 4534674743 heartbeat IPC: 1.47859 cumulative IPC: 1.19052 (Simulation time: 12 hr 25 min 6 sec) 
Heartbeat CPU 0 instructions: 1180000000 cycles: 4539132080 heartbeat IPC: 0.227038 cumulative IPC: 0.223204 (Simulation time: 12 hr 25 min 49 sec) 
Heartbeat CPU 2 instructions: 5360000000 cycles: 4540103957 heartbeat IPC: 1.15423 cumulative IPC: 1.1438 (Simulation time: 12 hr 25 min 58 sec) 
Heartbeat CPU 1 instructions: 5570000000 cycles: 4542056713 heartbeat IPC: 1.35465 cumulative IPC: 1.19079 (Simulation time: 12 hr 26 min 17 sec) 
Heartbeat CPU 2 instructions: 5370000000 cycles: 4548801656 heartbeat IPC: 1.14973 cumulative IPC: 1.14381 (Simulation time: 12 hr 27 min 21 sec) 
Heartbeat CPU 1 instructions: 5580000000 cycles: 4549478115 heartbeat IPC: 1.34745 cumulative IPC: 1.19106 (Simulation time: 12 hr 27 min 28 sec) 
Heartbeat CPU 1 instructions: 5590000002 cycles: 4555863577 heartbeat IPC: 1.56606 cumulative IPC: 1.1916 (Simulation time: 12 hr 28 min 32 sec) 
Heartbeat CPU 2 instructions: 5380000000 cycles: 4557485154 heartbeat IPC: 1.15161 cumulative IPC: 1.14382 (Simulation time: 12 hr 28 min 48 sec) 
Heartbeat CPU 3 instructions: 2200000000 cycles: 4558495746 heartbeat IPC: 0.362129 cumulative IPC: 0.441446 (Simulation time: 12 hr 28 min 58 sec) 
Heartbeat CPU 1 instructions: 5600000000 cycles: 4562841256 heartbeat IPC: 1.43314 cumulative IPC: 1.19198 (Simulation time: 12 hr 29 min 40 sec) 
Heartbeat CPU 2 instructions: 5390000002 cycles: 4566211143 heartbeat IPC: 1.146 cumulative IPC: 1.14383 (Simulation time: 12 hr 30 min 11 sec) 
Heartbeat CPU 1 instructions: 5610000001 cycles: 4570794002 heartbeat IPC: 1.25743 cumulative IPC: 1.1921 (Simulation time: 12 hr 30 min 56 sec) 
Heartbeat CPU 2 instructions: 5400000000 cycles: 4574926869 heartbeat IPC: 1.14735 cumulative IPC: 1.14384 (Simulation time: 12 hr 31 min 34 sec) 
Heartbeat CPU 1 instructions: 5620000000 cycles: 4579401003 heartbeat IPC: 1.16184 cumulative IPC: 1.19204 (Simulation time: 12 hr 32 min 17 sec) 
Heartbeat CPU 3 instructions: 2210000003 cycles: 4583445334 heartbeat IPC: 0.400808 cumulative IPC: 0.441217 (Simulation time: 12 hr 32 min 55 sec) 
Heartbeat CPU 2 instructions: 5410000000 cycles: 4583646333 heartbeat IPC: 1.14686 cumulative IPC: 1.14384 (Simulation time: 12 hr 32 min 57 sec) 
Heartbeat CPU 0 instructions: 1190000001 cycles: 4584131055 heartbeat IPC: 0.222227 cumulative IPC: 0.223195 (Simulation time: 12 hr 33 min 2 sec) 
Heartbeat CPU 1 instructions: 5630000002 cycles: 4586786361 heartbeat IPC: 1.35403 cumulative IPC: 1.19231 (Simulation time: 12 hr 33 min 29 sec) 
Heartbeat CPU 2 instructions: 5420000000 cycles: 4592336878 heartbeat IPC: 1.15068 cumulative IPC: 1.14386 (Simulation time: 12 hr 34 min 25 sec) 
Heartbeat CPU 1 instructions: 5640000000 cycles: 4592956953 heartbeat IPC: 1.62059 cumulative IPC: 1.1929 (Simulation time: 12 hr 34 min 32 sec) 
Heartbeat CPU 1 instructions: 5650000000 cycles: 4599208746 heartbeat IPC: 1.59954 cumulative IPC: 1.19347 (Simulation time: 12 hr 35 min 35 sec) 
Heartbeat CPU 2 instructions: 5430000000 cycles: 4600995123 heartbeat IPC: 1.15497 cumulative IPC: 1.14388 (Simulation time: 12 hr 35 min 53 sec) 
Heartbeat CPU 1 instructions: 5660000000 cycles: 4605422273 heartbeat IPC: 1.60939 cumulative IPC: 1.19405 (Simulation time: 12 hr 36 min 38 sec) 
Heartbeat CPU 3 instructions: 2220000000 cycles: 4606798350 heartbeat IPC: 0.42821 cumulative IPC: 0.441149 (Simulation time: 12 hr 36 min 52 sec) 
Heartbeat CPU 2 instructions: 5440000000 cycles: 4609646371 heartbeat IPC: 1.1559 cumulative IPC: 1.1439 (Simulation time: 12 hr 37 min 21 sec) 
Heartbeat CPU 1 instructions: 5670000001 cycles: 4613060918 heartbeat IPC: 1.30913 cumulative IPC: 1.19425 (Simulation time: 12 hr 37 min 53 sec) 
Heartbeat CPU 2 instructions: 5450000001 cycles: 4618346574 heartbeat IPC: 1.1494 cumulative IPC: 1.14391 (Simulation time: 12 hr 38 min 48 sec) 
Heartbeat CPU 1 instructions: 5680000000 cycles: 4621589504 heartbeat IPC: 1.17253 cumulative IPC: 1.19421 (Simulation time: 12 hr 39 min 21 sec) 
Heartbeat CPU 3 instructions: 2230000000 cycles: 4623194151 heartbeat IPC: 0.609912 cumulative IPC: 0.441768 (Simulation time: 12 hr 39 min 37 sec) 
Heartbeat CPU 2 instructions: 5460000000 cycles: 4627056018 heartbeat IPC: 1.14818 cumulative IPC: 1.14392 (Simulation time: 12 hr 40 min 17 sec) 
Heartbeat CPU 0 instructions: 1200000000 cycles: 4628590524 heartbeat IPC: 0.224924 cumulative IPC: 0.223212 (Simulation time: 12 hr 40 min 33 sec) 
Finished CPU 0 instructions: 1000000000 cycles: 4480052476 cumulative IPC: 0.223212 (Simulation time: 12 hr 40 min 33 sec) 

CPU 0 Branch Prediction Accuracy: 96.1636% MPKI: 5.73015

CPU 1 Branch Prediction Accuracy: 96.6384% MPKI: 4.99365

CPU 2 Branch Prediction Accuracy: 99.9595% MPKI: 0.00698493

CPU 3 Branch Prediction Accuracy: 99.2407% MPKI: 1.87792

ChampSim completed all CPUs

Total Simulation Statistics (not including warmup)

CPU 0 cumulative IPC: 0.223212 instructions: 1000000000 cycles: 4480052476
L1D TOTAL     ACCESS:  448983261  HIT:  428385366  MISS:   20597895
L1D LOAD      ACCESS:  267450997  HIT:  249360060  MISS:   18090937
L1D RFO       ACCESS:  181532264  HIT:  179025306  MISS:    2506958
L1D PREFETCH  ACCESS:          0  HIT:          0  MISS:          0
L1D WRITEBACK ACCESS:          0  HIT:          0  MISS:          0
L1I TOTAL     ACCESS:  350503260  HIT:  349849106  MISS:     654154
L1I LOAD      ACCESS:  350503260  HIT:  349849106  MISS:     654154
L1I RFO       ACCESS:          0  HIT:          0  MISS:          0
L1I PREFETCH  ACCESS:          0  HIT:          0  MISS:          0
L1I WRITEBACK ACCESS:          0  HIT:          0  MISS:          0
L2C TOTAL     ACCESS:   41026102  HIT:   21570147  MISS:   19455955
L2C LOAD      ACCESS:   18744350  HIT:    8222301  MISS:   10522049
L2C RFO       ACCESS:    2506809  HIT:     584683  MISS:    1922126
L2C PREFETCH  ACCESS:   10006552  HIT:    3032649  MISS:    6973903
L2C WRITEBACK ACCESS:    9768391  HIT:    9730514  MISS:      37877

Avg Lookahead Depth:	4.01489
TOTAL: 2.19444e+08	L2C: 1.63966e+08	LLC: 5.5478e+07	GOOD_L2C: 1.15502e+08
Printing all the perceptron weights to: perc_weights_0.csv
LLC TOTAL     ACCESS:   32270128  HIT:   15854912  MISS:   16415216
LLC LOAD      ACCESS:   10352854  HIT:    3970756  MISS:    6382098
LLC RFO       ACCESS:    1911279  HIT:     969134  MISS:     942145
LLC PREFETCH  ACCESS:   12377334  HIT:    3299819  MISS:    9077515
LLC WRITEBACK ACCESS:    7628661  HIT:    7615203  MISS:      13458

CPU 1 cumulative IPC: 1.19416 instructions: 5349916807 cycles: 4480052477
L1D TOTAL     ACCESS: 1402259502  HIT: 1402259502  MISS:          0
L1D LOAD      ACCESS:  687403652  HIT:  687403652  MISS:          0
L1D RFO       ACCESS:  714855850  HIT:  714855850  MISS:          0
L1D PREFETCH  ACCESS:          0  HIT:          0  MISS:          0
L1D WRITEBACK ACCESS:          0  HIT:          0  MISS:          0
L1I TOTAL     ACCESS: 1264006876  HIT: 1262424969  MISS:    1581907
L1I LOAD      ACCESS: 1264006876  HIT: 1262424969  MISS:    1581907
L1I RFO       ACCESS:          0  HIT:          0  MISS:          0
L1I PREFETCH  ACCESS:          0  HIT:          0  MISS:          0
L1I WRITEBACK ACCESS:          0  HIT:          0  MISS:          0
L2C TOTAL     ACCESS:    3975542  HIT:    3975400  MISS:        142
L2C LOAD      ACCESS:    1581907  HIT:    1581907  MISS:          0
L2C RFO       ACCESS:          0  HIT:          0  MISS:          0
L2C PREFETCH  ACCESS:    2393635  HIT:    2393493  MISS:        142
L2C WRITEBACK ACCESS:          0  HIT:          0  MISS:          0

Avg Lookahead Depth:	4.01489
TOTAL: 2.19444e+08	L2C: 1.63966e+08	LLC: 5.5478e+07	GOOD_L2C: 1.15502e+08
Printing all the perceptron weights to: perc_weights_0.csv
LLC TOTAL     ACCESS:        352  HIT:         23  MISS:        329
LLC LOAD      ACCESS:          0  HIT:          0  MISS:          0
LLC RFO       ACCESS:          0  HIT:          0  MISS:          0
LLC PREFETCH  ACCESS:        352  HIT:         23  MISS:        329
LLC WRITEBACK ACCESS:          0  HIT:          0  MISS:          0

CPU 2 cumulative IPC: 1.14392 instructions: 5124818549 cycles: 4480052477
L1D TOTAL     ACCESS: 1094681993  HIT: 1026946386  MISS:   67735607
L1D LOAD      ACCESS:  734859596  HIT:  667206504  MISS:   67653092
L1D RFO       ACCESS:  359822397  HIT:  359739882  MISS:      82515
L1D PREFETCH  ACCESS:          0  HIT:          0  MISS:          0
L1D WRITEBACK ACCESS:          0  HIT:          0  MISS:          0
L1I TOTAL     ACCESS: 1064023821  HIT: 1064023821  MISS:          0
L1I LOAD      ACCESS: 1064023821  HIT: 1064023821  MISS:          0
L1I RFO       ACCESS:          0  HIT:          0  MISS:          0
L1I PREFETCH  ACCESS:          0  HIT:          0  MISS:          0
L1I WRITEBACK ACCESS:          0  HIT:          0  MISS:          0
L2C TOTAL     ACCESS:  183127936  HIT:  115739356  MISS:   67388580
L2C LOAD      ACCESS:   67653092  HIT:   64593594  MISS:    3059498
L2C RFO       ACCESS:      82515  HIT:      15563  MISS:      66952
L2C PREFETCH  ACCESS:   70427479  HIT:    6165349  MISS:   64262130
L2C WRITEBACK ACCESS:   44964850  HIT:   44964850  MISS:          0

Avg Lookahead Depth:	4.01489
TOTAL: 2.19444e+08	L2C: 1.63966e+08	LLC: 5.5478e+07	GOOD_L2C: 1.15502e+08
Printing all the perceptron weights to: perc_weights_0.csv
LLC TOTAL     ACCESS:  112542822  HIT:   67640471  MISS:   44902351
LLC LOAD      ACCESS:    1849921  HIT:     762173  MISS:    1087748
LLC RFO       ACCESS:      66949  HIT:      66939  MISS:         10
LLC PREFETCH  ACCESS:   65693594  HIT:   21879012  MISS:   43814582
LLC WRITEBACK ACCESS:   44932358  HIT:   44932347  MISS:         11

CPU 3 cumulative IPC: 0.442095 instructions: 1980609267 cycles: 4480052477
L1D TOTAL     ACCESS:  499041214  HIT:  413504849  MISS:   85536365
L1D LOAD      ACCESS:  346266365  HIT:  264552668  MISS:   81713697
L1D RFO       ACCESS:  152774849  HIT:  148952181  MISS:    3822668
L1D PREFETCH  ACCESS:          0  HIT:          0  MISS:          0
L1D WRITEBACK ACCESS:          0  HIT:          0  MISS:          0
L1I TOTAL     ACCESS:  858611170  HIT:  853191698  MISS:    5419472
L1I LOAD      ACCESS:  858611170  HIT:  853191698  MISS:    5419472
L1I RFO       ACCESS:          0  HIT:          0  MISS:          0
L1I PREFETCH  ACCESS:          0  HIT:          0  MISS:          0
L1I WRITEBACK ACCESS:          0  HIT:          0  MISS:          0
L2C TOTAL     ACCESS:  181682722  HIT:  155078123  MISS:   26604599
L2C LOAD      ACCESS:   87132716  HIT:   74300226  MISS:   12832490
L2C RFO       ACCESS:    3822593  HIT:     880053  MISS:    2942540
L2C PREFETCH  ACCESS:   84456500  HIT:   73630627  MISS:   10825873
L2C WRITEBACK ACCESS:    6270913  HIT:    6267217  MISS:       3696

Avg Lookahead Depth:	4.01489
TOTAL: 2.19444e+08	L2C: 1.63966e+08	LLC: 5.5478e+07	GOOD_L2C: 1.15502e+08
Printing all the perceptron weights to: perc_weights_0.csv
LLC TOTAL     ACCESS:   45707448  HIT:   40262847  MISS:    5444601
LLC LOAD      ACCESS:   12393547  HIT:   11842038  MISS:     551509
LLC RFO       ACCESS:    2930258  HIT:     318109  MISS:    2612149
LLC PREFETCH  ACCESS:   26421585  HIT:   24186228  MISS:    2235357
LLC WRITEBACK ACCESS:    3962058  HIT:    3916472  MISS:      45586

Region of Interest Statistics

CPU 0 cumulative IPC: 0.223212 instructions: 1000000000 cycles: 4480052476
L1D TOTAL     ACCESS:  448983261  HIT:  428385366  MISS:   20597895
L1D LOAD      ACCESS:  267450997  HIT:  249360060  MISS:   18090937
L1D RFO       ACCESS:  181532264  HIT:  179025306  MISS:    2506958
L1D PREFETCH  ACCESS:          0  HIT:          0  MISS:          0
L1D WRITEBACK ACCESS:          0  HIT:          0  MISS:          0
L1D PREFETCH  REQUESTED:          0  ISSUED:          0  USEFUL:          0  USELESS:          0
L1I TOTAL     ACCESS:  350503260  HIT:  349849106  MISS:     654154
L1I LOAD      ACCESS:  350503260  HIT:  349849106  MISS:     654154
L1I RFO       ACCESS:          0  HIT:          0  MISS:          0
L1I PREFETCH  ACCESS:          0  HIT:          0  MISS:          0
L1I WRITEBACK ACCESS:          0  HIT:          0  MISS:          0
L1I PREFETCH  REQUESTED:          0  ISSUED:          0  USEFUL:          0  USELESS:          0
L2C TOTAL     ACCESS:   41026102  HIT:   21570147  MISS:   19455955
L2C LOAD      ACCESS:   18744350  HIT:    8222301  MISS:   10522049
L2C RFO       ACCESS:    2506809  HIT:     584683  MISS:    1922126
L2C PREFETCH  ACCESS:   10006552  HIT:    3032649  MISS:    6973903
L2C WRITEBACK ACCESS:    9768391  HIT:    9730514  MISS:      37877
L2C PREFETCH  REQUESTED:   21004945  ISSUED:   21004945  USEFUL:    3781306  USELESS:    4619932
LLC TOTAL     ACCESS:   32270128  HIT:   15854912  MISS:   16415216
LLC LOAD      ACCESS:   10352854  HIT:    3970756  MISS:    6382098
LLC RFO       ACCESS:    1911279  HIT:     969134  MISS:     942145
LLC PREFETCH  ACCESS:   12377334  HIT:    3299819  MISS:    9077515
LLC WRITEBACK ACCESS:    7628661  HIT:    7615203  MISS:      13458
LLC PREFETCH  REQUESTED:          0  ISSUED:          0  USEFUL:    1529405  USELESS:   58407687
Major fault: 0 Minor fault: 55545

CPU 1 cumulative IPC: 1.15008 instructions: 1000000003 cycles: 869507609
L1D TOTAL     ACCESS:  258246959  HIT:  258246959  MISS:          0
L1D LOAD      ACCESS:  129190144  HIT:  129190144  MISS:          0
L1D RFO       ACCESS:  129056815  HIT:  129056815  MISS:          0
L1D PREFETCH  ACCESS:          0  HIT:          0  MISS:          0
L1D WRITEBACK ACCESS:          0  HIT:          0  MISS:          0
L1D PREFETCH  REQUESTED:          0  ISSUED:          0  USEFUL:          0  USELESS:          0
L1I TOTAL     ACCESS:  239551503  HIT:  239206986  MISS:     344517
L1I LOAD      ACCESS:  239551503  HIT:  239206986  MISS:     344517
L1I RFO       ACCESS:          0  HIT:          0  MISS:          0
L1I PREFETCH  ACCESS:          0  HIT:          0  MISS:          0
L1I WRITEBACK ACCESS:          0  HIT:          0  MISS:          0
L1I PREFETCH  REQUESTED:          0  ISSUED:          0  USEFUL:          0  USELESS:          0
L2C TOTAL     ACCESS:     860891  HIT:     860807  MISS:         84
L2C LOAD      ACCESS:     344517  HIT:     344517  MISS:          0
L2C RFO       ACCESS:          0  HIT:          0  MISS:          0
L2C PREFETCH  ACCESS:     516374  HIT:     516290  MISS:         84
L2C WRITEBACK ACCESS:          0  HIT:          0  MISS:          0
L2C PREFETCH  REQUESTED:    2761113  ISSUED:    2761111  USEFUL:       1117  USELESS:          0
LLC TOTAL     ACCESS:        192  HIT:         20  MISS:        172
LLC LOAD      ACCESS:          0  HIT:          0  MISS:          0
LLC RFO       ACCESS:          0  HIT:          0  MISS:          0
LLC PREFETCH  ACCESS:        192  HIT:         20  MISS:        172
LLC WRITEBACK ACCESS:          0  HIT:          0  MISS:          0
LLC PREFETCH  REQUESTED:          0  ISSUED:          0  USEFUL:    1529405  USELESS:   58407687
Major fault: 0 Minor fault: 48

CPU 2 cumulative IPC: 1.14483 instructions: 1000000000 cycles: 873489837
L1D TOTAL     ACCESS:  213554055  HIT:  200320276  MISS:   13233779
L1D LOAD      ACCESS:  143382126  HIT:  130163684  MISS:   13218442
L1D RFO       ACCESS:   70171929  HIT:   70156592  MISS:      15337
L1D PREFETCH  ACCESS:          0  HIT:          0  MISS:          0
L1D WRITEBACK ACCESS:          0  HIT:          0  MISS:          0
L1D PREFETCH  REQUESTED:          0  ISSUED:          0  USEFUL:          0  USELESS:          0
L1I TOTAL     ACCESS:  207443236  HIT:  207443236  MISS:          0
L1I LOAD      ACCESS:  207443236  HIT:  207443236  MISS:          0
L1I RFO       ACCESS:          0  HIT:          0  MISS:          0
L1I PREFETCH  ACCESS:          0  HIT:          0  MISS:          0
L1I WRITEBACK ACCESS:          0  HIT:          0  MISS:          0
L1I PREFETCH  REQUESTED:          0  ISSUED:          0  USEFUL:          0  USELESS:          0
L2C TOTAL     ACCESS:   35684782  HIT:   22507980  MISS:   13176802
L2C LOAD      ACCESS:   13218442  HIT:   12611663  MISS:     606779
L2C RFO       ACCESS:      15337  HIT:       2551  MISS:      12786
L2C PREFETCH  ACCESS:   13666003  HIT:    1108766  MISS:   12557237
L2C WRITEBACK ACCESS:    8785000  HIT:    8785000  MISS:          0
L2C PREFETCH  REQUESTED:   77438139  ISSUED:   77438139  USEFUL:   68296333  USELESS:     204631
LLC TOTAL     ACCESS:   21998909  HIT:   13225598  MISS:    8773311
LLC LOAD      ACCESS:     360322  HIT:     148968  MISS:     211354
LLC RFO       ACCESS:      12786  HIT:      12786  MISS:          0
LLC PREFETCH  ACCESS:   12846983  HIT:    4285028  MISS:    8561955
LLC WRITEBACK ACCESS:    8778818  HIT:    8778816  MISS:          2
LLC PREFETCH  REQUESTED:          0  ISSUED:          0  USEFUL:    1529405  USELESS:   58407687
Major fault: 0 Minor fault: 274047

CPU 3 cumulative IPC: 0.451688 instructions: 1000000001 cycles: 2213916304
L1D TOTAL     ACCESS:  245255326  HIT:  202599817  MISS:   42655509
L1D LOAD      ACCESS:  170002160  HIT:  129540048  MISS:   40462112
L1D RFO       ACCESS:   75253166  HIT:   73059769  MISS:    2193397
L1D PREFETCH  ACCESS:          0  HIT:          0  MISS:          0
L1D WRITEBACK ACCESS:          0  HIT:          0  MISS:          0
L1D PREFETCH  REQUESTED:          0  ISSUED:          0  USEFUL:          0  USELESS:          0
L1I TOTAL     ACCESS:  437281866  HIT:  434594679  MISS:    2687187
L1I LOAD      ACCESS:  437281866  HIT:  434594679  MISS:    2687187
L1I RFO       ACCESS:          0  HIT:          0  MISS:          0
L1I PREFETCH  ACCESS:          0  HIT:          0  MISS:          0
L1I WRITEBACK ACCESS:          0  HIT:          0  MISS:          0
L1I PREFETCH  REQUESTED:          0  ISSUED:          0  USEFUL:          0  USELESS:          0
L2C TOTAL     ACCESS:   90702526  HIT:   76988123  MISS:   13714403
L2C LOAD      ACCESS:   43149043  HIT:   36636439  MISS:    6512604
L2C RFO       ACCESS:    2193352  HIT:     471170  MISS:    1722182
L2C PREFETCH  ACCESS:   41926856  HIT:   36449106  MISS:    5477750
L2C WRITEBACK ACCESS:    3433275  HIT:    3431408  MISS:       1867
L2C PREFETCH  REQUESTED:  118239589  ISSUED:  118239099  USEFUL:    3818209  USELESS:    8489766
LLC TOTAL     ACCESS:   23408949  HIT:   20480329  MISS:    2928620
LLC LOAD      ACCESS:    6291336  HIT:    6033375  MISS:     257961
LLC RFO       ACCESS:    1716277  HIT:     153668  MISS:    1562609
LLC PREFETCH  ACCESS:   13175317  HIT:   12088891  MISS:    1086426
LLC WRITEBACK ACCESS:    2226019  HIT:    2204395  MISS:      21624
LLC PREFETCH  REQUESTED:          0  ISSUED:          0  USEFUL:    1529405  USELESS:   58407687
Major fault: 0 Minor fault: 11234

Avg Lookahead Depth:	4.01489
TOTAL: 2.19444e+08	L2C: 1.63966e+08	LLC: 5.5478e+07	GOOD_L2C: 1.15502e+08
Printing all the perceptron weights to: perc_weights_0.csv

Avg Lookahead Depth:	4.01489
TOTAL: 2.19444e+08	L2C: 1.63966e+08	LLC: 5.5478e+07	GOOD_L2C: 1.15502e+08
Printing all the perceptron weights to: perc_weights_0.csv

Avg Lookahead Depth:	4.01489
TOTAL: 2.19444e+08	L2C: 1.63966e+08	LLC: 5.5478e+07	GOOD_L2C: 1.15502e+08
Printing all the perceptron weights to: perc_weights_0.csv

Avg Lookahead Depth:	4.01489
TOTAL: 2.19444e+08	L2C: 1.63966e+08	LLC: 5.5478e+07	GOOD_L2C: 1.15502e+08
Printing all the perceptron weights to: perc_weights_0.csv

DRAM Statistics
 CHANNEL 0
 RQ ROW_BUFFER_HIT:   14063130  ROW_BUFFER_MISS:   19253239
 DBUS_CONGESTED:   67300706
 WQ ROW_BUFFER_HIT:    3712928  ROW_BUFFER_MISS:   22819034  FULL:          0

 CHANNEL 1
 RQ ROW_BUFFER_HIT:   14052715  ROW_BUFFER_MISS:   19333561
 DBUS_CONGESTED:   67300706
 WQ ROW_BUFFER_HIT:    3711286  ROW_BUFFER_MISS:   22814012  FULL:          0

 AVG_CONGESTED_CYCLE: 14
