Initialize SIGNATURE TABLE
ST_SET: 1
ST_WAY: 256
ST_TAG_BIT: 16
ST_TAG_MASK: ffff

Initialize PATTERN TABLE
PT_SET: 512
PT_WAY: 4
SIG_DELTA_BIT: 7
C_SIG_BIT: 4
C_DELTA_BIT: 4

Initialize PREFETCH FILTER
FILTER_SET: 1024

Initialize PERCEPTRON
PERC_ENTRIES: 4096
PERC_FEATURES: 9

*** ChampSim Multicore Out-of-Order Simulator ***

Warmup Instructions: 200000000
Simulation Instructions: 1000000000
Number of CPUs: 4
LLC sets: 8192
LLC ways: 16
Off-chip DRAM Size: 8192 MB Channels: 2 Width: 64-bit Data Rate: 1600 MT/s

CPU 0 runs /scratch/user/djimenez/champsim-traces/speccpu2017/xz/619.lbm_s/619.lbm_s-4268B.champsimtrace.xz
CPU 1 runs /scratch/user/djimenez/champsim-traces/speccpu2017/xz/648.exchange2_s/648.exchange2_s-210B.champsimtrace.xz
CPU 2 runs /scratch/user/djimenez/champsim-traces/speccpu2017/xz/623.xalancbmk_s/623.xalancbmk_s-10B.champsimtrace.xz
CPU 3 runs /scratch/user/djimenez/champsim-traces/speccpu2017/xz/644.nab_s/644.nab_s-12459B.champsimtrace.xz
Heartbeat CPU 1 instructions: 10000002 cycles: 4421543 heartbeat IPC: 2.26165 cumulative IPC: 2.26165 (Simulation time: 0 hr 1 min 26 sec) 
Heartbeat CPU 3 instructions: 10000000 cycles: 4636420 heartbeat IPC: 2.15684 cumulative IPC: 2.15684 (Simulation time: 0 hr 1 min 31 sec) 
Heartbeat CPU 2 instructions: 10000001 cycles: 4859208 heartbeat IPC: 2.05795 cumulative IPC: 2.05795 (Simulation time: 0 hr 1 min 35 sec) 
Heartbeat CPU 0 instructions: 10000001 cycles: 4902266 heartbeat IPC: 2.03987 cumulative IPC: 2.03987 (Simulation time: 0 hr 1 min 36 sec) 
Heartbeat CPU 1 instructions: 20000000 cycles: 8805984 heartbeat IPC: 2.28079 cumulative IPC: 2.27118 (Simulation time: 0 hr 2 min 53 sec) 
Heartbeat CPU 3 instructions: 20000000 cycles: 9298939 heartbeat IPC: 2.14476 cumulative IPC: 2.15078 (Simulation time: 0 hr 3 min 3 sec) 
Heartbeat CPU 2 instructions: 20000000 cycles: 9647302 heartbeat IPC: 2.08851 cumulative IPC: 2.07312 (Simulation time: 0 hr 3 min 9 sec) 
Heartbeat CPU 0 instructions: 20000000 cycles: 9797947 heartbeat IPC: 2.04262 cumulative IPC: 2.04124 (Simulation time: 0 hr 3 min 12 sec) 
Heartbeat CPU 1 instructions: 30000000 cycles: 13155158 heartbeat IPC: 2.29929 cumulative IPC: 2.28047 (Simulation time: 0 hr 4 min 18 sec) 
Heartbeat CPU 3 instructions: 30000001 cycles: 13993549 heartbeat IPC: 2.1301 cumulative IPC: 2.14385 (Simulation time: 0 hr 4 min 34 sec) 
Heartbeat CPU 2 instructions: 30000000 cycles: 14543884 heartbeat IPC: 2.04224 cumulative IPC: 2.06272 (Simulation time: 0 hr 4 min 45 sec) 
Heartbeat CPU 0 instructions: 30000000 cycles: 14681726 heartbeat IPC: 2.04759 cumulative IPC: 2.04336 (Simulation time: 0 hr 4 min 48 sec) 
Heartbeat CPU 1 instructions: 40000000 cycles: 17485059 heartbeat IPC: 2.30952 cumulative IPC: 2.28767 (Simulation time: 0 hr 5 min 43 sec) 
Heartbeat CPU 3 instructions: 40000000 cycles: 18646796 heartbeat IPC: 2.14904 cumulative IPC: 2.14514 (Simulation time: 0 hr 6 min 6 sec) 
Heartbeat CPU 2 instructions: 40000000 cycles: 19460136 heartbeat IPC: 2.03407 cumulative IPC: 2.05548 (Simulation time: 0 hr 6 min 21 sec) 
Heartbeat CPU 0 instructions: 40000000 cycles: 19591166 heartbeat IPC: 2.03689 cumulative IPC: 2.04174 (Simulation time: 0 hr 6 min 23 sec) 
Heartbeat CPU 1 instructions: 50000003 cycles: 21887675 heartbeat IPC: 2.27138 cumulative IPC: 2.28439 (Simulation time: 0 hr 7 min 9 sec) 
Heartbeat CPU 3 instructions: 50000002 cycles: 23348385 heartbeat IPC: 2.12694 cumulative IPC: 2.14148 (Simulation time: 0 hr 7 min 38 sec) 
Heartbeat CPU 2 instructions: 50000001 cycles: 24361753 heartbeat IPC: 2.04014 cumulative IPC: 2.0524 (Simulation time: 0 hr 7 min 58 sec) 
Heartbeat CPU 0 instructions: 50000001 cycles: 24507114 heartbeat IPC: 2.0342 cumulative IPC: 2.04022 (Simulation time: 0 hr 8 min 1 sec) 
Heartbeat CPU 1 instructions: 60000000 cycles: 26279882 heartbeat IPC: 2.27676 cumulative IPC: 2.28312 (Simulation time: 0 hr 8 min 36 sec) 
Heartbeat CPU 3 instructions: 60000000 cycles: 28116959 heartbeat IPC: 2.09706 cumulative IPC: 2.13394 (Simulation time: 0 hr 9 min 13 sec) 
Heartbeat CPU 2 instructions: 60000000 cycles: 29166433 heartbeat IPC: 2.0813 cumulative IPC: 2.05716 (Simulation time: 0 hr 9 min 33 sec) 
Heartbeat CPU 0 instructions: 60000000 cycles: 29442576 heartbeat IPC: 2.02615 cumulative IPC: 2.03787 (Simulation time: 0 hr 9 min 38 sec) 
Heartbeat CPU 1 instructions: 70000002 cycles: 30655560 heartbeat IPC: 2.28536 cumulative IPC: 2.28344 (Simulation time: 0 hr 10 min 2 sec) 
Heartbeat CPU 3 instructions: 70000001 cycles: 32942393 heartbeat IPC: 2.07235 cumulative IPC: 2.12492 (Simulation time: 0 hr 10 min 46 sec) 
Heartbeat CPU 2 instructions: 70000000 cycles: 34165671 heartbeat IPC: 2.0003 cumulative IPC: 2.04884 (Simulation time: 0 hr 11 min 10 sec) 
Heartbeat CPU 0 instructions: 70000003 cycles: 34366897 heartbeat IPC: 2.03074 cumulative IPC: 2.03684 (Simulation time: 0 hr 11 min 14 sec) 
Heartbeat CPU 1 instructions: 80000000 cycles: 35028816 heartbeat IPC: 2.28663 cumulative IPC: 2.28383 (Simulation time: 0 hr 11 min 27 sec) 
Heartbeat CPU 3 instructions: 80000000 cycles: 37747595 heartbeat IPC: 2.08108 cumulative IPC: 2.11934 (Simulation time: 0 hr 12 min 20 sec) 
Heartbeat CPU 2 instructions: 80000000 cycles: 38955812 heartbeat IPC: 2.08762 cumulative IPC: 2.05361 (Simulation time: 0 hr 12 min 45 sec) 
Heartbeat CPU 0 instructions: 80000000 cycles: 39266430 heartbeat IPC: 2.04101 cumulative IPC: 2.03736 (Simulation time: 0 hr 12 min 50 sec) 
Heartbeat CPU 1 instructions: 90000003 cycles: 39420026 heartbeat IPC: 2.27728 cumulative IPC: 2.2831 (Simulation time: 0 hr 12 min 53 sec) 
Heartbeat CPU 3 instructions: 90000000 cycles: 42510962 heartbeat IPC: 2.09936 cumulative IPC: 2.1171 (Simulation time: 0 hr 13 min 53 sec) 
Heartbeat CPU 1 instructions: 100000000 cycles: 43818020 heartbeat IPC: 2.27376 cumulative IPC: 2.28217 (Simulation time: 0 hr 14 min 19 sec) 
Heartbeat CPU 2 instructions: 90000001 cycles: 43904315 heartbeat IPC: 2.02081 cumulative IPC: 2.04991 (Simulation time: 0 hr 14 min 20 sec) 
Heartbeat CPU 0 instructions: 90000000 cycles: 44183545 heartbeat IPC: 2.03371 cumulative IPC: 2.03696 (Simulation time: 0 hr 14 min 25 sec) 
Heartbeat CPU 3 instructions: 100000000 cycles: 47357297 heartbeat IPC: 2.06341 cumulative IPC: 2.11161 (Simulation time: 0 hr 15 min 27 sec) 
Heartbeat CPU 1 instructions: 110000001 cycles: 48219184 heartbeat IPC: 2.27213 cumulative IPC: 2.28125 (Simulation time: 0 hr 15 min 43 sec) 
Heartbeat CPU 2 instructions: 100000000 cycles: 48852497 heartbeat IPC: 2.02094 cumulative IPC: 2.04698 (Simulation time: 0 hr 15 min 56 sec) 
Heartbeat CPU 0 instructions: 100000000 cycles: 49082236 heartbeat IPC: 2.04136 cumulative IPC: 2.0374 (Simulation time: 0 hr 16 min 0 sec) 
Heartbeat CPU 3 instructions: 110000001 cycles: 52295922 heartbeat IPC: 2.02486 cumulative IPC: 2.10341 (Simulation time: 0 hr 17 min 0 sec) 
Heartbeat CPU 1 instructions: 120000000 cycles: 52613460 heartbeat IPC: 2.27569 cumulative IPC: 2.28079 (Simulation time: 0 hr 17 min 6 sec) 
Heartbeat CPU 2 instructions: 110000000 cycles: 53893647 heartbeat IPC: 1.98367 cumulative IPC: 2.04106 (Simulation time: 0 hr 17 min 30 sec) 
Heartbeat CPU 0 instructions: 110000002 cycles: 53999934 heartbeat IPC: 2.03347 cumulative IPC: 2.03704 (Simulation time: 0 hr 17 min 32 sec) 
Heartbeat CPU 1 instructions: 130000000 cycles: 57035969 heartbeat IPC: 2.26116 cumulative IPC: 2.27926 (Simulation time: 0 hr 18 min 30 sec) 
Heartbeat CPU 3 instructions: 120000000 cycles: 57310135 heartbeat IPC: 1.99433 cumulative IPC: 2.09387 (Simulation time: 0 hr 18 min 36 sec) 
Heartbeat CPU 2 instructions: 120000000 cycles: 58694086 heartbeat IPC: 2.08314 cumulative IPC: 2.0445 (Simulation time: 0 hr 19 min 2 sec) 
Heartbeat CPU 0 instructions: 120000000 cycles: 58934053 heartbeat IPC: 2.0267 cumulative IPC: 2.03617 (Simulation time: 0 hr 19 min 7 sec) 
Heartbeat CPU 1 instructions: 140000000 cycles: 61470439 heartbeat IPC: 2.25506 cumulative IPC: 2.27752 (Simulation time: 0 hr 19 min 57 sec) 
Heartbeat CPU 3 instructions: 130000001 cycles: 62235993 heartbeat IPC: 2.0301 cumulative IPC: 2.08882 (Simulation time: 0 hr 20 min 12 sec) 
Heartbeat CPU 2 instructions: 130000003 cycles: 63544286 heartbeat IPC: 2.06177 cumulative IPC: 2.04582 (Simulation time: 0 hr 20 min 38 sec) 
Heartbeat CPU 0 instructions: 130000003 cycles: 63833664 heartbeat IPC: 2.04098 cumulative IPC: 2.03654 (Simulation time: 0 hr 20 min 43 sec) 
Heartbeat CPU 1 instructions: 150000001 cycles: 65821768 heartbeat IPC: 2.29815 cumulative IPC: 2.27888 (Simulation time: 0 hr 21 min 21 sec) 
Heartbeat CPU 3 instructions: 140000000 cycles: 67074974 heartbeat IPC: 2.06655 cumulative IPC: 2.08722 (Simulation time: 0 hr 21 min 45 sec) 
Heartbeat CPU 2 instructions: 140000000 cycles: 68552033 heartbeat IPC: 1.99691 cumulative IPC: 2.04224 (Simulation time: 0 hr 22 min 14 sec) 
Heartbeat CPU 0 instructions: 140000000 cycles: 68743326 heartbeat IPC: 2.0368 cumulative IPC: 2.03656 (Simulation time: 0 hr 22 min 17 sec) 
Heartbeat CPU 1 instructions: 160000000 cycles: 70263824 heartbeat IPC: 2.25121 cumulative IPC: 2.27713 (Simulation time: 0 hr 22 min 46 sec) 
Heartbeat CPU 3 instructions: 150000000 cycles: 71911287 heartbeat IPC: 2.06769 cumulative IPC: 2.0859 (Simulation time: 0 hr 23 min 18 sec) 
Heartbeat CPU 2 instructions: 150000000 cycles: 73492432 heartbeat IPC: 2.02413 cumulative IPC: 2.04103 (Simulation time: 0 hr 23 min 47 sec) 
Heartbeat CPU 0 instructions: 150000000 cycles: 73673966 heartbeat IPC: 2.02813 cumulative IPC: 2.036 (Simulation time: 0 hr 23 min 51 sec) 
Heartbeat CPU 1 instructions: 170000000 cycles: 74696950 heartbeat IPC: 2.25574 cumulative IPC: 2.27586 (Simulation time: 0 hr 24 min 11 sec) 
Heartbeat CPU 3 instructions: 160000000 cycles: 76742605 heartbeat IPC: 2.06983 cumulative IPC: 2.08489 (Simulation time: 0 hr 24 min 51 sec) 
Heartbeat CPU 2 instructions: 160000000 cycles: 78373702 heartbeat IPC: 2.04865 cumulative IPC: 2.0415 (Simulation time: 0 hr 25 min 22 sec) 
Heartbeat CPU 0 instructions: 160000000 cycles: 78618051 heartbeat IPC: 2.02262 cumulative IPC: 2.03516 (Simulation time: 0 hr 25 min 27 sec) 
Heartbeat CPU 1 instructions: 180000000 cycles: 79098673 heartbeat IPC: 2.27184 cumulative IPC: 2.27564 (Simulation time: 0 hr 25 min 36 sec) 
Heartbeat CPU 3 instructions: 170000003 cycles: 81587074 heartbeat IPC: 2.06421 cumulative IPC: 2.08366 (Simulation time: 0 hr 26 min 24 sec) 
Heartbeat CPU 2 instructions: 170000000 cycles: 83139757 heartbeat IPC: 2.09817 cumulative IPC: 2.04475 (Simulation time: 0 hr 26 min 54 sec) 
Heartbeat CPU 1 instructions: 190000003 cycles: 83508728 heartbeat IPC: 2.26755 cumulative IPC: 2.27521 (Simulation time: 0 hr 27 min 1 sec) 
Heartbeat CPU 0 instructions: 170000000 cycles: 83552651 heartbeat IPC: 2.02651 cumulative IPC: 2.03465 (Simulation time: 0 hr 27 min 2 sec) 
Heartbeat CPU 3 instructions: 180000000 cycles: 86397758 heartbeat IPC: 2.07871 cumulative IPC: 2.08339 (Simulation time: 0 hr 27 min 56 sec) 
Heartbeat CPU 1 instructions: 200000000 cycles: 87917723 heartbeat IPC: 2.26809 cumulative IPC: 2.27485 (Simulation time: 0 hr 28 min 26 sec) 
Heartbeat CPU 2 instructions: 180000000 cycles: 88026287 heartbeat IPC: 2.04644 cumulative IPC: 2.04484 (Simulation time: 0 hr 28 min 28 sec) 
Heartbeat CPU 0 instructions: 180000000 cycles: 88481875 heartbeat IPC: 2.02872 cumulative IPC: 2.03431 (Simulation time: 0 hr 28 min 36 sec) 
Heartbeat CPU 3 instructions: 190000000 cycles: 91164803 heartbeat IPC: 2.09774 cumulative IPC: 2.08414 (Simulation time: 0 hr 29 min 27 sec) 
Heartbeat CPU 1 instructions: 210000003 cycles: 92296023 heartbeat IPC: 2.28399 cumulative IPC: 0.108347 (Simulation time: 0 hr 29 min 49 sec) 
Heartbeat CPU 2 instructions: 190000001 cycles: 92877166 heartbeat IPC: 2.06148 cumulative IPC: 2.04571 (Simulation time: 0 hr 30 min 1 sec) 
Heartbeat CPU 0 instructions: 190000001 cycles: 93420479 heartbeat IPC: 2.02486 cumulative IPC: 2.03382 (Simulation time: 0 hr 30 min 10 sec) 
Heartbeat CPU 3 instructions: 200000000 cycles: 95942132 heartbeat IPC: 2.09322 cumulative IPC: 2.08459 (Simulation time: 0 hr 30 min 58 sec) 
Heartbeat CPU 1 instructions: 220000000 cycles: 96631907 heartbeat IPC: 2.30633 cumulative IPC: 0.206971 (Simulation time: 0 hr 31 min 12 sec) 
Heartbeat CPU 2 instructions: 200000000 cycles: 97828219 heartbeat IPC: 2.01977 cumulative IPC: 2.0444 (Simulation time: 0 hr 31 min 35 sec) 
Heartbeat CPU 0 instructions: 200000000 cycles: 98349474 heartbeat IPC: 2.02881 cumulative IPC: 2.03356 (Simulation time: 0 hr 31 min 45 sec) 

Warmup complete CPU 0 instructions: 200000001 cycles: 98349475 (Simulation time: 0 hr 31 min 45 sec) 
Warmup complete CPU 1 instructions: 223915972 cycles: 98349474 (Simulation time: 0 hr 31 min 45 sec) 
Warmup complete CPU 2 instructions: 201053826 cycles: 98349474 (Simulation time: 0 hr 31 min 45 sec) 
Warmup complete CPU 3 instructions: 204999585 cycles: 98349474 (Simulation time: 0 hr 31 min 45 sec) 

Heartbeat CPU 1 instructions: 230000003 cycles: 102139500 heartbeat IPC: 1.81568 cumulative IPC: 1.60527 (Simulation time: 0 hr 32 min 20 sec) 
Heartbeat CPU 3 instructions: 210000000 cycles: 105635825 heartbeat IPC: 1.0316 cumulative IPC: 0.686271 (Simulation time: 0 hr 32 min 53 sec) 
Heartbeat CPU 1 instructions: 240000000 cycles: 108467715 heartbeat IPC: 1.58022 cumulative IPC: 1.58961 (Simulation time: 0 hr 33 min 19 sec) 
Heartbeat CPU 1 instructions: 250000003 cycles: 114937299 heartbeat IPC: 1.54569 cumulative IPC: 1.57248 (Simulation time: 0 hr 34 min 17 sec) 
Heartbeat CPU 0 instructions: 210000002 cycles: 116458197 heartbeat IPC: 0.55222 cumulative IPC: 0.55222 (Simulation time: 0 hr 34 min 31 sec) 
Heartbeat CPU 3 instructions: 220000000 cycles: 120399272 heartbeat IPC: 0.677349 cumulative IPC: 0.680297 (Simulation time: 0 hr 35 min 9 sec) 
Heartbeat CPU 1 instructions: 260000000 cycles: 121308002 heartbeat IPC: 1.56968 cumulative IPC: 1.5717 (Simulation time: 0 hr 35 min 17 sec) 
Heartbeat CPU 1 instructions: 270000003 cycles: 127747993 heartbeat IPC: 1.5528 cumulative IPC: 1.56756 (Simulation time: 0 hr 36 min 15 sec) 
Heartbeat CPU 1 instructions: 280000000 cycles: 134402923 heartbeat IPC: 1.50265 cumulative IPC: 1.55558 (Simulation time: 0 hr 37 min 14 sec) 
Heartbeat CPU 0 instructions: 220000000 cycles: 134587269 heartbeat IPC: 0.5516 cumulative IPC: 0.55191 (Simulation time: 0 hr 37 min 16 sec) 
Heartbeat CPU 3 instructions: 230000003 cycles: 134918055 heartbeat IPC: 0.688763 cumulative IPC: 0.683658 (Simulation time: 0 hr 37 min 19 sec) 
Heartbeat CPU 1 instructions: 290000001 cycles: 140830334 heartbeat IPC: 1.55584 cumulative IPC: 1.55562 (Simulation time: 0 hr 38 min 14 sec) 
Heartbeat CPU 2 instructions: 210000001 cycles: 145393603 heartbeat IPC: 0.210237 cumulative IPC: 0.190166 (Simulation time: 0 hr 38 min 56 sec) 
Heartbeat CPU 1 instructions: 300000000 cycles: 147286113 heartbeat IPC: 1.549 cumulative IPC: 1.55475 (Simulation time: 0 hr 39 min 14 sec) 
Heartbeat CPU 3 instructions: 240000000 cycles: 149645612 heartbeat IPC: 0.678999 cumulative IPC: 0.682321 (Simulation time: 0 hr 39 min 35 sec) 
Heartbeat CPU 0 instructions: 230000002 cycles: 152667466 heartbeat IPC: 0.553091 cumulative IPC: 0.552303 (Simulation time: 0 hr 40 min 3 sec) 
Heartbeat CPU 1 instructions: 310000000 cycles: 153589322 heartbeat IPC: 1.58649 cumulative IPC: 1.55837 (Simulation time: 0 hr 40 min 11 sec) 
Heartbeat CPU 1 instructions: 320000000 cycles: 160154416 heartbeat IPC: 1.52321 cumulative IPC: 1.55463 (Simulation time: 0 hr 41 min 11 sec) 
Heartbeat CPU 3 instructions: 250000001 cycles: 164225369 heartbeat IPC: 0.685883 cumulative IPC: 0.683109 (Simulation time: 0 hr 41 min 48 sec) 
Heartbeat CPU 1 instructions: 330000002 cycles: 166508288 heartbeat IPC: 1.57384 cumulative IPC: 1.55642 (Simulation time: 0 hr 42 min 10 sec) 
Heartbeat CPU 0 instructions: 240000000 cycles: 171043132 heartbeat IPC: 0.544198 cumulative IPC: 0.550254 (Simulation time: 0 hr 42 min 51 sec) 
Heartbeat CPU 1 instructions: 340000000 cycles: 173033121 heartbeat IPC: 1.53261 cumulative IPC: 1.55434 (Simulation time: 0 hr 43 min 8 sec) 
Heartbeat CPU 3 instructions: 260000000 cycles: 178901397 heartbeat IPC: 0.681383 cumulative IPC: 0.682795 (Simulation time: 0 hr 44 min 3 sec) 
Heartbeat CPU 1 instructions: 350000002 cycles: 179852877 heartbeat IPC: 1.46633 cumulative IPC: 1.54698 (Simulation time: 0 hr 44 min 12 sec) 
Heartbeat CPU 1 instructions: 360000000 cycles: 185985026 heartbeat IPC: 1.63075 cumulative IPC: 1.55284 (Simulation time: 0 hr 45 min 9 sec) 
Heartbeat CPU 0 instructions: 250000000 cycles: 188809670 heartbeat IPC: 0.562856 cumulative IPC: 0.552729 (Simulation time: 0 hr 45 min 36 sec) 
Heartbeat CPU 1 instructions: 370000003 cycles: 192281239 heartbeat IPC: 1.58826 cumulative IPC: 1.55521 (Simulation time: 0 hr 46 min 8 sec) 
Heartbeat CPU 2 instructions: 220000000 cycles: 193312189 heartbeat IPC: 0.208687 cumulative IPC: 0.199512 (Simulation time: 0 hr 46 min 18 sec) 
Heartbeat CPU 3 instructions: 270000002 cycles: 193598792 heartbeat IPC: 0.680393 cumulative IPC: 0.682424 (Simulation time: 0 hr 46 min 20 sec) 
Heartbeat CPU 1 instructions: 380000000 cycles: 198470123 heartbeat IPC: 1.6158 cumulative IPC: 1.55896 (Simulation time: 0 hr 47 min 6 sec) 
Heartbeat CPU 1 instructions: 390000003 cycles: 204817334 heartbeat IPC: 1.5755 cumulative IPC: 1.55995 (Simulation time: 0 hr 48 min 6 sec) 
Heartbeat CPU 0 instructions: 260000000 cycles: 206488628 heartbeat IPC: 0.565644 cumulative IPC: 0.554841 (Simulation time: 0 hr 48 min 21 sec) 
Heartbeat CPU 3 instructions: 280000000 cycles: 208391066 heartbeat IPC: 0.676028 cumulative IPC: 0.681564 (Simulation time: 0 hr 48 min 39 sec) 
Heartbeat CPU 1 instructions: 400000000 cycles: 211108179 heartbeat IPC: 1.58961 cumulative IPC: 1.5616 (Simulation time: 0 hr 49 min 5 sec) 
Heartbeat CPU 1 instructions: 410000000 cycles: 217405909 heartbeat IPC: 1.58787 cumulative IPC: 1.56299 (Simulation time: 0 hr 50 min 3 sec) 
Heartbeat CPU 3 instructions: 290000001 cycles: 223278875 heartbeat IPC: 0.671691 cumulative IPC: 0.680388 (Simulation time: 0 hr 50 min 57 sec) 
Heartbeat CPU 0 instructions: 270000002 cycles: 224047928 heartbeat IPC: 0.569499 cumulative IPC: 0.556888 (Simulation time: 0 hr 51 min 5 sec) 
Heartbeat CPU 1 instructions: 420000000 cycles: 224287366 heartbeat IPC: 1.45318 cumulative IPC: 1.55699 (Simulation time: 0 hr 51 min 7 sec) 
Heartbeat CPU 1 instructions: 430000001 cycles: 230312682 heartbeat IPC: 1.65966 cumulative IPC: 1.56168 (Simulation time: 0 hr 52 min 4 sec) 
Heartbeat CPU 1 instructions: 440000000 cycles: 236492525 heartbeat IPC: 1.61816 cumulative IPC: 1.5642 (Simulation time: 0 hr 53 min 2 sec) 
Heartbeat CPU 2 instructions: 230000001 cycles: 236642024 heartbeat IPC: 0.230788 cumulative IPC: 0.209311 (Simulation time: 0 hr 53 min 4 sec) 
Heartbeat CPU 3 instructions: 300000000 cycles: 238180951 heartbeat IPC: 0.671047 cumulative IPC: 0.679392 (Simulation time: 0 hr 53 min 17 sec) 
Heartbeat CPU 0 instructions: 280000000 cycles: 241339461 heartbeat IPC: 0.578318 cumulative IPC: 0.55948 (Simulation time: 0 hr 53 min 46 sec) 
Heartbeat CPU 1 instructions: 450000000 cycles: 242840683 heartbeat IPC: 1.57526 cumulative IPC: 1.56469 (Simulation time: 0 hr 54 min 0 sec) 
Heartbeat CPU 1 instructions: 460000000 cycles: 249095192 heartbeat IPC: 1.59885 cumulative IPC: 1.56611 (Simulation time: 0 hr 54 min 57 sec) 
Heartbeat CPU 3 instructions: 310000002 cycles: 253233735 heartbeat IPC: 0.664329 cumulative IPC: 0.677928 (Simulation time: 0 hr 55 min 33 sec) 
Heartbeat CPU 1 instructions: 470000000 cycles: 256022845 heartbeat IPC: 1.44349 cumulative IPC: 1.56072 (Simulation time: 0 hr 55 min 59 sec) 
Heartbeat CPU 0 instructions: 290000001 cycles: 259126443 heartbeat IPC: 0.562209 cumulative IPC: 0.559782 (Simulation time: 0 hr 56 min 28 sec) 
Heartbeat CPU 1 instructions: 480000000 cycles: 262249848 heartbeat IPC: 1.60591 cumulative IPC: 1.56244 (Simulation time: 0 hr 56 min 57 sec) 
Heartbeat CPU 3 instructions: 320000000 cycles: 268321122 heartbeat IPC: 0.662805 cumulative IPC: 0.676586 (Simulation time: 0 hr 57 min 49 sec) 
Heartbeat CPU 1 instructions: 490000002 cycles: 270206537 heartbeat IPC: 1.2568 cumulative IPC: 1.54829 (Simulation time: 0 hr 58 min 7 sec) 
Heartbeat CPU 1 instructions: 500000000 cycles: 276404839 heartbeat IPC: 1.61334 cumulative IPC: 1.55055 (Simulation time: 0 hr 59 min 5 sec) 
Heartbeat CPU 0 instructions: 300000000 cycles: 276872969 heartbeat IPC: 0.563491 cumulative IPC: 0.56015 (Simulation time: 0 hr 59 min 9 sec) 
Heartbeat CPU 1 instructions: 510000000 cycles: 282570895 heartbeat IPC: 1.62178 cumulative IPC: 1.55294 (Simulation time: 1 hr 0 min 1 sec) 
Heartbeat CPU 3 instructions: 330000003 cycles: 283257033 heartbeat IPC: 0.669527 cumulative IPC: 0.676016 (Simulation time: 1 hr 0 min 8 sec) 
Heartbeat CPU 2 instructions: 240000000 cycles: 287661953 heartbeat IPC: 0.196002 cumulative IPC: 0.205724 (Simulation time: 1 hr 0 min 49 sec) 
Heartbeat CPU 1 instructions: 520000000 cycles: 288841682 heartbeat IPC: 1.5947 cumulative IPC: 1.55431 (Simulation time: 1 hr 1 min 0 sec) 
Heartbeat CPU 0 instructions: 310000002 cycles: 295099084 heartbeat IPC: 0.548663 cumulative IPC: 0.559086 (Simulation time: 1 hr 1 min 56 sec) 
Heartbeat CPU 1 instructions: 530000001 cycles: 295265335 heartbeat IPC: 1.55675 cumulative IPC: 1.55439 (Simulation time: 1 hr 1 min 58 sec) 
Heartbeat CPU 3 instructions: 340000000 cycles: 298281115 heartbeat IPC: 0.665598 cumulative IPC: 0.675233 (Simulation time: 1 hr 2 min 25 sec) 
Heartbeat CPU 1 instructions: 540000000 cycles: 301660229 heartbeat IPC: 1.56375 cumulative IPC: 1.55468 (Simulation time: 1 hr 2 min 56 sec) 
Heartbeat CPU 1 instructions: 550000003 cycles: 307941072 heartbeat IPC: 1.59214 cumulative IPC: 1.55581 (Simulation time: 1 hr 3 min 54 sec) 
Heartbeat CPU 0 instructions: 320000000 cycles: 312949845 heartbeat IPC: 0.5602 cumulative IPC: 0.559179 (Simulation time: 1 hr 4 min 39 sec) 
Heartbeat CPU 3 instructions: 350000003 cycles: 313208186 heartbeat IPC: 0.669924 cumulative IPC: 0.674864 (Simulation time: 1 hr 4 min 42 sec) 
Heartbeat CPU 1 instructions: 560000000 cycles: 314731132 heartbeat IPC: 1.47274 cumulative IPC: 1.5532 (Simulation time: 1 hr 4 min 57 sec) 
Heartbeat CPU 1 instructions: 570000003 cycles: 321021715 heartbeat IPC: 1.58968 cumulative IPC: 1.55423 (Simulation time: 1 hr 5 min 55 sec) 
Heartbeat CPU 1 instructions: 580000000 cycles: 327244879 heartbeat IPC: 1.6069 cumulative IPC: 1.55566 (Simulation time: 1 hr 6 min 54 sec) 
Heartbeat CPU 3 instructions: 360000000 cycles: 328154212 heartbeat IPC: 0.669074 cumulative IPC: 0.674487 (Simulation time: 1 hr 7 min 2 sec) 
Heartbeat CPU 0 instructions: 330000003 cycles: 330628939 heartbeat IPC: 0.56564 cumulative IPC: 0.559671 (Simulation time: 1 hr 7 min 25 sec) 
Heartbeat CPU 1 instructions: 590000000 cycles: 333743427 heartbeat IPC: 1.53881 cumulative IPC: 1.5552 (Simulation time: 1 hr 7 min 53 sec) 
Heartbeat CPU 2 instructions: 250000000 cycles: 336873821 heartbeat IPC: 0.203203 cumulative IPC: 0.205204 (Simulation time: 1 hr 8 min 23 sec) 
Heartbeat CPU 1 instructions: 600000000 cycles: 340285850 heartbeat IPC: 1.52849 cumulative IPC: 1.55447 (Simulation time: 1 hr 8 min 54 sec) 
Heartbeat CPU 3 instructions: 370000001 cycles: 343213110 heartbeat IPC: 0.664059 cumulative IPC: 0.673846 (Simulation time: 1 hr 9 min 20 sec) 
Heartbeat CPU 1 instructions: 610000000 cycles: 346741606 heartbeat IPC: 1.54901 cumulative IPC: 1.55433 (Simulation time: 1 hr 9 min 54 sec) 
Heartbeat CPU 0 instructions: 340000000 cycles: 348006783 heartbeat IPC: 0.575445 cumulative IPC: 0.560769 (Simulation time: 1 hr 10 min 7 sec) 
Heartbeat CPU 1 instructions: 620000000 cycles: 353073289 heartbeat IPC: 1.57936 cumulative IPC: 1.55495 (Simulation time: 1 hr 10 min 55 sec) 
Heartbeat CPU 3 instructions: 380000000 cycles: 358473604 heartbeat IPC: 0.655287 cumulative IPC: 0.672757 (Simulation time: 1 hr 11 min 43 sec) 
Heartbeat CPU 1 instructions: 630000002 cycles: 359983868 heartbeat IPC: 1.44706 cumulative IPC: 1.5521 (Simulation time: 1 hr 11 min 57 sec) 
Heartbeat CPU 0 instructions: 350000002 cycles: 365508745 heartbeat IPC: 0.571365 cumulative IPC: 0.561463 (Simulation time: 1 hr 12 min 48 sec) 
Heartbeat CPU 1 instructions: 640000000 cycles: 366194594 heartbeat IPC: 1.61012 cumulative IPC: 1.55345 (Simulation time: 1 hr 12 min 55 sec) 
Heartbeat CPU 1 instructions: 650000003 cycles: 372471240 heartbeat IPC: 1.59321 cumulative IPC: 1.55436 (Simulation time: 1 hr 13 min 54 sec) 
Heartbeat CPU 3 instructions: 390000000 cycles: 373484789 heartbeat IPC: 0.66617 cumulative IPC: 0.672398 (Simulation time: 1 hr 14 min 3 sec) 
Heartbeat CPU 1 instructions: 660000000 cycles: 378969708 heartbeat IPC: 1.53882 cumulative IPC: 1.554 (Simulation time: 1 hr 14 min 53 sec) 
Heartbeat CPU 2 instructions: 260000000 cycles: 381757944 heartbeat IPC: 0.222796 cumulative IPC: 0.20799 (Simulation time: 1 hr 15 min 19 sec) 
Heartbeat CPU 0 instructions: 360000000 cycles: 383018408 heartbeat IPC: 0.571113 cumulative IPC: 0.562056 (Simulation time: 1 hr 15 min 31 sec) 
Heartbeat CPU 1 instructions: 670000002 cycles: 385357642 heartbeat IPC: 1.56545 cumulative IPC: 1.55426 (Simulation time: 1 hr 15 min 53 sec) 
Heartbeat CPU 3 instructions: 400000000 cycles: 388636332 heartbeat IPC: 0.659999 cumulative IPC: 0.671751 (Simulation time: 1 hr 16 min 23 sec) 
Heartbeat CPU 1 instructions: 680000000 cycles: 391830877 heartbeat IPC: 1.54482 cumulative IPC: 1.55405 (Simulation time: 1 hr 16 min 52 sec) 
Heartbeat CPU 1 instructions: 690000002 cycles: 398415130 heartbeat IPC: 1.51878 cumulative IPC: 1.55327 (Simulation time: 1 hr 17 min 52 sec) 
Heartbeat CPU 0 instructions: 370000001 cycles: 400198549 heartbeat IPC: 0.582067 cumulative IPC: 0.563195 (Simulation time: 1 hr 18 min 9 sec) 
Heartbeat CPU 3 instructions: 410000001 cycles: 403817161 heartbeat IPC: 0.658726 cumulative IPC: 0.671103 (Simulation time: 1 hr 18 min 43 sec) 
Heartbeat CPU 1 instructions: 700000000 cycles: 404657750 heartbeat IPC: 1.60189 cumulative IPC: 1.55426 (Simulation time: 1 hr 18 min 51 sec) 
Heartbeat CPU 1 instructions: 710000000 cycles: 411027606 heartbeat IPC: 1.56989 cumulative IPC: 1.55458 (Simulation time: 1 hr 19 min 50 sec) 
Heartbeat CPU 0 instructions: 380000000 cycles: 417429618 heartbeat IPC: 0.580347 cumulative IPC: 0.564122 (Simulation time: 1 hr 20 min 49 sec) 
Heartbeat CPU 1 instructions: 720000000 cycles: 417521268 heartbeat IPC: 1.53996 cumulative IPC: 1.55429 (Simulation time: 1 hr 20 min 50 sec) 
Heartbeat CPU 3 instructions: 420000000 cycles: 418822044 heartbeat IPC: 0.66645 cumulative IPC: 0.670886 (Simulation time: 1 hr 21 min 2 sec) 
Heartbeat CPU 1 instructions: 730000000 cycles: 423851371 heartbeat IPC: 1.57975 cumulative IPC: 1.55478 (Simulation time: 1 hr 21 min 48 sec) 
Heartbeat CPU 1 instructions: 740000000 cycles: 430524466 heartbeat IPC: 1.49856 cumulative IPC: 1.55365 (Simulation time: 1 hr 22 min 50 sec) 
Heartbeat CPU 2 instructions: 270000000 cycles: 430761369 heartbeat IPC: 0.204067 cumulative IPC: 0.207412 (Simulation time: 1 hr 22 min 53 sec) 
Heartbeat CPU 3 instructions: 430000001 cycles: 433838031 heartbeat IPC: 0.665957 cumulative IPC: 0.670665 (Simulation time: 1 hr 23 min 21 sec) 
Heartbeat CPU 0 instructions: 390000000 cycles: 434683170 heartbeat IPC: 0.579591 cumulative IPC: 0.564915 (Simulation time: 1 hr 23 min 29 sec) 
Heartbeat CPU 1 instructions: 750000001 cycles: 437393253 heartbeat IPC: 1.45586 cumulative IPC: 1.55167 (Simulation time: 1 hr 23 min 52 sec) 
Heartbeat CPU 1 instructions: 760000000 cycles: 443714568 heartbeat IPC: 1.58195 cumulative IPC: 1.55222 (Simulation time: 1 hr 24 min 50 sec) 
Heartbeat CPU 3 instructions: 440000000 cycles: 449009285 heartbeat IPC: 0.659141 cumulative IPC: 0.670166 (Simulation time: 1 hr 25 min 38 sec) 
Heartbeat CPU 1 instructions: 770000002 cycles: 450194069 heartbeat IPC: 1.54333 cumulative IPC: 1.55206 (Simulation time: 1 hr 25 min 49 sec) 
Heartbeat CPU 0 instructions: 400000000 cycles: 451948040 heartbeat IPC: 0.579211 cumulative IPC: 0.565613 (Simulation time: 1 hr 26 min 6 sec) 
Heartbeat CPU 1 instructions: 780000000 cycles: 458062790 heartbeat IPC: 1.27085 cumulative IPC: 1.54591 (Simulation time: 1 hr 26 min 59 sec) 
Heartbeat CPU 3 instructions: 450000002 cycles: 463770730 heartbeat IPC: 0.677441 cumulative IPC: 0.67046 (Simulation time: 1 hr 27 min 53 sec) 
Heartbeat CPU 1 instructions: 790000002 cycles: 464214196 heartbeat IPC: 1.62564 cumulative IPC: 1.54725 (Simulation time: 1 hr 27 min 58 sec) 
Heartbeat CPU 0 instructions: 410000001 cycles: 469724846 heartbeat IPC: 0.562531 cumulative IPC: 0.565466 (Simulation time: 1 hr 28 min 47 sec) 
Heartbeat CPU 1 instructions: 800000000 cycles: 470726679 heartbeat IPC: 1.53551 cumulative IPC: 1.54704 (Simulation time: 1 hr 28 min 57 sec) 
Heartbeat CPU 1 instructions: 810000001 cycles: 477058794 heartbeat IPC: 1.57925 cumulative IPC: 1.54758 (Simulation time: 1 hr 29 min 56 sec) 
Heartbeat CPU 3 instructions: 460000000 cycles: 478443394 heartbeat IPC: 0.681539 cumulative IPC: 0.670888 (Simulation time: 1 hr 30 min 9 sec) 
Heartbeat CPU 2 instructions: 280000000 cycles: 479679916 heartbeat IPC: 0.204421 cumulative IPC: 0.207028 (Simulation time: 1 hr 30 min 20 sec) 
Heartbeat CPU 1 instructions: 820000000 cycles: 483321473 heartbeat IPC: 1.59676 cumulative IPC: 1.54838 (Simulation time: 1 hr 30 min 55 sec) 
Heartbeat CPU 0 instructions: 420000000 cycles: 486972373 heartbeat IPC: 0.579793 cumulative IPC: 0.566101 (Simulation time: 1 hr 31 min 28 sec) 
Heartbeat CPU 1 instructions: 830000003 cycles: 489742427 heartbeat IPC: 1.5574 cumulative IPC: 1.54853 (Simulation time: 1 hr 31 min 53 sec) 
Heartbeat CPU 3 instructions: 470000002 cycles: 493252954 heartbeat IPC: 0.67524 cumulative IPC: 0.671051 (Simulation time: 1 hr 32 min 27 sec) 
Heartbeat CPU 1 instructions: 840000000 cycles: 496097681 heartbeat IPC: 1.5735 cumulative IPC: 1.54893 (Simulation time: 1 hr 32 min 53 sec) 
Heartbeat CPU 1 instructions: 850000002 cycles: 502481514 heartbeat IPC: 1.56646 cumulative IPC: 1.54921 (Simulation time: 1 hr 33 min 52 sec) 
Heartbeat CPU 0 instructions: 430000003 cycles: 504869885 heartbeat IPC: 0.558737 cumulative IPC: 0.565777 (Simulation time: 1 hr 34 min 14 sec) 
Heartbeat CPU 3 instructions: 480000000 cycles: 508044152 heartbeat IPC: 0.676078 cumulative IPC: 0.671233 (Simulation time: 1 hr 34 min 43 sec) 
Heartbeat CPU 1 instructions: 860000000 cycles: 508934400 heartbeat IPC: 1.54969 cumulative IPC: 1.54921 (Simulation time: 1 hr 34 min 51 sec) 
Heartbeat CPU 1 instructions: 870000003 cycles: 515266173 heartbeat IPC: 1.57934 cumulative IPC: 1.54967 (Simulation time: 1 hr 35 min 51 sec) 
Heartbeat CPU 1 instructions: 880000000 cycles: 521504303 heartbeat IPC: 1.60304 cumulative IPC: 1.55046 (Simulation time: 1 hr 36 min 48 sec) 
Heartbeat CPU 3 instructions: 490000000 cycles: 522560264 heartbeat IPC: 0.68889 cumulative IPC: 0.671837 (Simulation time: 1 hr 36 min 58 sec) 
Heartbeat CPU 0 instructions: 440000000 cycles: 522598264 heartbeat IPC: 0.564067 cumulative IPC: 0.565706 (Simulation time: 1 hr 36 min 58 sec) 
Heartbeat CPU 2 instructions: 290000002 cycles: 525208291 heartbeat IPC: 0.219643 cumulative IPC: 0.208374 (Simulation time: 1 hr 37 min 25 sec) 
Heartbeat CPU 1 instructions: 890000001 cycles: 527809441 heartbeat IPC: 1.58601 cumulative IPC: 1.55098 (Simulation time: 1 hr 37 min 50 sec) 
Heartbeat CPU 1 instructions: 900000000 cycles: 534176002 heartbeat IPC: 1.57071 cumulative IPC: 1.55127 (Simulation time: 1 hr 38 min 49 sec) 
Heartbeat CPU 3 instructions: 500000000 cycles: 537275640 heartbeat IPC: 0.679561 cumulative IPC: 0.672096 (Simulation time: 1 hr 39 min 18 sec) 
Heartbeat CPU 0 instructions: 450000002 cycles: 539750425 heartbeat IPC: 0.583017 cumulative IPC: 0.566378 (Simulation time: 1 hr 39 min 43 sec) 
Heartbeat CPU 1 instructions: 910000001 cycles: 540420793 heartbeat IPC: 1.60133 cumulative IPC: 1.55198 (Simulation time: 1 hr 39 min 51 sec) 
Heartbeat CPU 1 instructions: 920000000 cycles: 546663376 heartbeat IPC: 1.6019 cumulative IPC: 1.55267 (Simulation time: 1 hr 40 min 48 sec) 
Heartbeat CPU 3 instructions: 510000002 cycles: 551917362 heartbeat IPC: 0.68298 cumulative IPC: 0.672447 (Simulation time: 1 hr 41 min 38 sec) 
Heartbeat CPU 1 instructions: 930000003 cycles: 552956700 heartbeat IPC: 1.58899 cumulative IPC: 1.55317 (Simulation time: 1 hr 41 min 47 sec) 
Heartbeat CPU 0 instructions: 460000000 cycles: 556696314 heartbeat IPC: 0.590114 cumulative IPC: 0.567256 (Simulation time: 1 hr 42 min 22 sec) 
Heartbeat CPU 1 instructions: 940000000 cycles: 559332508 heartbeat IPC: 1.56843 cumulative IPC: 1.55338 (Simulation time: 1 hr 42 min 46 sec) 
Heartbeat CPU 1 instructions: 950000001 cycles: 566294738 heartbeat IPC: 1.43632 cumulative IPC: 1.55164 (Simulation time: 1 hr 43 min 49 sec) 
Heartbeat CPU 3 instructions: 520000000 cycles: 566349104 heartbeat IPC: 0.692917 cumulative IPC: 0.673078 (Simulation time: 1 hr 43 min 50 sec) 
Heartbeat CPU 2 instructions: 300000000 cycles: 570767066 heartbeat IPC: 0.219497 cumulative IPC: 0.209446 (Simulation time: 1 hr 44 min 32 sec) 
Heartbeat CPU 1 instructions: 960000000 cycles: 572609340 heartbeat IPC: 1.58363 cumulative IPC: 1.55207 (Simulation time: 1 hr 44 min 49 sec) 
Heartbeat CPU 0 instructions: 470000000 cycles: 573303475 heartbeat IPC: 0.60215 cumulative IPC: 0.568476 (Simulation time: 1 hr 44 min 55 sec) 
Heartbeat CPU 1 instructions: 970000002 cycles: 578997071 heartbeat IPC: 1.5655 cumulative IPC: 1.55225 (Simulation time: 1 hr 45 min 48 sec) 
Heartbeat CPU 3 instructions: 530000000 cycles: 580871901 heartbeat IPC: 0.688573 cumulative IPC: 0.673545 (Simulation time: 1 hr 46 min 7 sec) 
Heartbeat CPU 1 instructions: 980000000 cycles: 586547033 heartbeat IPC: 1.32451 cumulative IPC: 1.54873 (Simulation time: 1 hr 46 min 57 sec) 
Heartbeat CPU 0 instructions: 480000000 cycles: 589499963 heartbeat IPC: 0.617418 cumulative IPC: 0.57009 (Simulation time: 1 hr 47 min 24 sec) 
Heartbeat CPU 1 instructions: 990000000 cycles: 592879182 heartbeat IPC: 1.57924 cumulative IPC: 1.54912 (Simulation time: 1 hr 47 min 58 sec) 
Heartbeat CPU 3 instructions: 540000000 cycles: 595609504 heartbeat IPC: 0.678536 cumulative IPC: 0.673693 (Simulation time: 1 hr 48 min 23 sec) 
Heartbeat CPU 1 instructions: 1000000000 cycles: 599222401 heartbeat IPC: 1.57649 cumulative IPC: 1.54946 (Simulation time: 1 hr 48 min 57 sec) 
Heartbeat CPU 0 instructions: 490000000 cycles: 604936324 heartbeat IPC: 0.647821 cumulative IPC: 0.572459 (Simulation time: 1 hr 49 min 52 sec) 
Heartbeat CPU 1 instructions: 1010000000 cycles: 605488546 heartbeat IPC: 1.59588 cumulative IPC: 1.55004 (Simulation time: 1 hr 49 min 57 sec) 
Heartbeat CPU 3 instructions: 550000002 cycles: 610336702 heartbeat IPC: 0.679016 cumulative IPC: 0.673846 (Simulation time: 1 hr 50 min 44 sec) 
Heartbeat CPU 1 instructions: 1020000000 cycles: 611810210 heartbeat IPC: 1.58186 cumulative IPC: 1.55043 (Simulation time: 1 hr 50 min 58 sec) 
Heartbeat CPU 1 instructions: 1030000003 cycles: 618342065 heartbeat IPC: 1.53096 cumulative IPC: 1.55018 (Simulation time: 1 hr 51 min 58 sec) 
Heartbeat CPU 2 instructions: 310000003 cycles: 618967181 heartbeat IPC: 0.207468 cumulative IPC: 0.209263 (Simulation time: 1 hr 52 min 4 sec) 
Heartbeat CPU 0 instructions: 500000000 cycles: 619546533 heartbeat IPC: 0.684453 cumulative IPC: 0.575598 (Simulation time: 1 hr 52 min 9 sec) 
Heartbeat CPU 3 instructions: 560000000 cycles: 625085485 heartbeat IPC: 0.678022 cumulative IPC: 0.673963 (Simulation time: 1 hr 53 min 2 sec) 
Heartbeat CPU 1 instructions: 1040000000 cycles: 625495384 heartbeat IPC: 1.39795 cumulative IPC: 1.54812 (Simulation time: 1 hr 53 min 5 sec) 
Heartbeat CPU 1 instructions: 1050000002 cycles: 631881631 heartbeat IPC: 1.56587 cumulative IPC: 1.54833 (Simulation time: 1 hr 54 min 6 sec) 
Heartbeat CPU 0 instructions: 510000000 cycles: 634016162 heartbeat IPC: 0.691103 cumulative IPC: 0.578718 (Simulation time: 1 hr 54 min 26 sec) 
Heartbeat CPU 1 instructions: 1060000000 cycles: 638132907 heartbeat IPC: 1.59967 cumulative IPC: 1.54892 (Simulation time: 1 hr 55 min 6 sec) 
Heartbeat CPU 3 instructions: 570000001 cycles: 640101647 heartbeat IPC: 0.665949 cumulative IPC: 0.673741 (Simulation time: 1 hr 55 min 25 sec) 
Heartbeat CPU 1 instructions: 1070000001 cycles: 644586744 heartbeat IPC: 1.54947 cumulative IPC: 1.54893 (Simulation time: 1 hr 56 min 7 sec) 
Heartbeat CPU 0 instructions: 520000000 cycles: 647527410 heartbeat IPC: 0.740124 cumulative IPC: 0.582689 (Simulation time: 1 hr 56 min 35 sec) 
Heartbeat CPU 1 instructions: 1080000000 cycles: 651741615 heartbeat IPC: 1.39765 cumulative IPC: 1.54698 (Simulation time: 1 hr 57 min 14 sec) 
Heartbeat CPU 3 instructions: 580000000 cycles: 654890120 heartbeat IPC: 0.676202 cumulative IPC: 0.673806 (Simulation time: 1 hr 57 min 45 sec) 
Heartbeat CPU 1 instructions: 1090000001 cycles: 657983155 heartbeat IPC: 1.60217 cumulative IPC: 1.54759 (Simulation time: 1 hr 58 min 15 sec) 
Heartbeat CPU 0 instructions: 530000000 cycles: 660472300 heartbeat IPC: 0.772506 cumulative IPC: 0.58706 (Simulation time: 1 hr 58 min 40 sec) 
Heartbeat CPU 2 instructions: 320000000 cycles: 662847676 heartbeat IPC: 0.227892 cumulative IPC: 0.210711 (Simulation time: 1 hr 59 min 4 sec) 
Heartbeat CPU 1 instructions: 1100000000 cycles: 664194871 heartbeat IPC: 1.60986 cumulative IPC: 1.54827 (Simulation time: 1 hr 59 min 19 sec) 
Heartbeat CPU 3 instructions: 590000000 cycles: 669681452 heartbeat IPC: 0.676072 cumulative IPC: 0.673865 (Simulation time: 2 hr 0 min 12 sec) 
Heartbeat CPU 1 instructions: 1110000000 cycles: 670554285 heartbeat IPC: 1.57247 cumulative IPC: 1.54854 (Simulation time: 2 hr 0 min 20 sec) 
Heartbeat CPU 0 instructions: 540000000 cycles: 673013297 heartbeat IPC: 0.797385 cumulative IPC: 0.59165 (Simulation time: 2 hr 0 min 45 sec) 
Heartbeat CPU 1 instructions: 1120000000 cycles: 676976112 heartbeat IPC: 1.55719 cumulative IPC: 1.54864 (Simulation time: 2 hr 1 min 23 sec) 
Heartbeat CPU 1 instructions: 1130000002 cycles: 683402311 heartbeat IPC: 1.55613 cumulative IPC: 1.54872 (Simulation time: 2 hr 2 min 25 sec) 
Heartbeat CPU 3 instructions: 600000000 cycles: 684519972 heartbeat IPC: 0.673922 cumulative IPC: 0.673866 (Simulation time: 2 hr 2 min 36 sec) 
Heartbeat CPU 0 instructions: 550000000 cycles: 684995684 heartbeat IPC: 0.834558 cumulative IPC: 0.596612 (Simulation time: 2 hr 2 min 41 sec) 
Heartbeat CPU 1 instructions: 1140000000 cycles: 690894471 heartbeat IPC: 1.33473 cumulative IPC: 1.54602 (Simulation time: 2 hr 3 min 35 sec) 
Heartbeat CPU 0 instructions: 560000000 cycles: 696980406 heartbeat IPC: 0.834396 cumulative IPC: 0.601372 (Simulation time: 2 hr 4 min 35 sec) 
Heartbeat CPU 1 instructions: 1150000002 cycles: 697206041 heartbeat IPC: 1.58439 cumulative IPC: 1.54642 (Simulation time: 2 hr 4 min 37 sec) 
Heartbeat CPU 3 instructions: 610000000 cycles: 699133260 heartbeat IPC: 0.684309 cumulative IPC: 0.67412 (Simulation time: 2 hr 4 min 56 sec) 
Heartbeat CPU 1 instructions: 1160000000 cycles: 703510548 heartbeat IPC: 1.58617 cumulative IPC: 1.54683 (Simulation time: 2 hr 5 min 41 sec) 
Heartbeat CPU 0 instructions: 570000001 cycles: 708270448 heartbeat IPC: 0.885736 cumulative IPC: 0.606636 (Simulation time: 2 hr 6 min 28 sec) 
Heartbeat CPU 1 instructions: 1170000002 cycles: 709860332 heartbeat IPC: 1.57486 cumulative IPC: 1.54713 (Simulation time: 2 hr 6 min 44 sec) 
Heartbeat CPU 2 instructions: 330000001 cycles: 710918849 heartbeat IPC: 0.208025 cumulative IPC: 0.210501 (Simulation time: 2 hr 6 min 54 sec) 
Heartbeat CPU 3 instructions: 620000000 cycles: 713726126 heartbeat IPC: 0.685266 cumulative IPC: 0.674384 (Simulation time: 2 hr 7 min 23 sec) 
Heartbeat CPU 1 instructions: 1180000000 cycles: 716210046 heartbeat IPC: 1.57487 cumulative IPC: 1.54741 (Simulation time: 2 hr 7 min 48 sec) 
Heartbeat CPU 0 instructions: 580000000 cycles: 719431398 heartbeat IPC: 0.895981 cumulative IPC: 0.611836 (Simulation time: 2 hr 8 min 19 sec) 
Heartbeat CPU 1 instructions: 1190000000 cycles: 722557741 heartbeat IPC: 1.57537 cumulative IPC: 1.5477 (Simulation time: 2 hr 8 min 52 sec) 
Heartbeat CPU 3 instructions: 630000003 cycles: 728243741 heartbeat IPC: 0.688819 cumulative IPC: 0.674717 (Simulation time: 2 hr 9 min 50 sec) 
Heartbeat CPU 1 instructions: 1200000000 cycles: 729188955 heartbeat IPC: 1.50802 cumulative IPC: 1.54728 (Simulation time: 2 hr 9 min 59 sec) 
Heartbeat CPU 0 instructions: 590000003 cycles: 730506227 heartbeat IPC: 0.902949 cumulative IPC: 0.616936 (Simulation time: 2 hr 10 min 12 sec) 
Heartbeat CPU 1 instructions: 1210000002 cycles: 735762765 heartbeat IPC: 1.52119 cumulative IPC: 1.54701 (Simulation time: 2 hr 11 min 5 sec) 
Heartbeat CPU 0 instructions: 600000000 cycles: 740961771 heartbeat IPC: 0.95643 cumulative IPC: 0.622459 (Simulation time: 2 hr 11 min 56 sec) 
Heartbeat CPU 1 instructions: 1220000000 cycles: 742266792 heartbeat IPC: 1.53751 cumulative IPC: 1.54691 (Simulation time: 2 hr 12 min 9 sec) 
Heartbeat CPU 3 instructions: 640000000 cycles: 743256201 heartbeat IPC: 0.666113 cumulative IPC: 0.674517 (Simulation time: 2 hr 12 min 19 sec) 
Finished CPU 1 instructions: 1000000000 cycles: 646375732 cumulative IPC: 1.54709 (Simulation time: 2 hr 12 min 34 sec) 
Heartbeat CPU 1 instructions: 1230000002 cycles: 748574119 heartbeat IPC: 1.58546 cumulative IPC: 1.54729 (Simulation time: 2 hr 13 min 14 sec) 
Heartbeat CPU 0 instructions: 610000001 cycles: 751206893 heartbeat IPC: 0.976074 cumulative IPC: 0.628008 (Simulation time: 2 hr 13 min 40 sec) 
Heartbeat CPU 2 instructions: 340000000 cycles: 753036366 heartbeat IPC: 0.237431 cumulative IPC: 0.212233 (Simulation time: 2 hr 13 min 58 sec) 
Heartbeat CPU 1 instructions: 1240000000 cycles: 755120218 heartbeat IPC: 1.52763 cumulative IPC: 1.54709 (Simulation time: 2 hr 14 min 19 sec) 
Heartbeat CPU 3 instructions: 650000002 cycles: 757975491 heartbeat IPC: 0.679381 cumulative IPC: 0.674625 (Simulation time: 2 hr 14 min 48 sec) 
Heartbeat CPU 0 instructions: 620000000 cycles: 761506230 heartbeat IPC: 0.970936 cumulative IPC: 0.633334 (Simulation time: 2 hr 15 min 23 sec) 
Heartbeat CPU 1 instructions: 1250000002 cycles: 761605024 heartbeat IPC: 1.54207 cumulative IPC: 1.54704 (Simulation time: 2 hr 15 min 24 sec) 
Heartbeat CPU 1 instructions: 1260000000 cycles: 768016293 heartbeat IPC: 1.55975 cumulative IPC: 1.54716 (Simulation time: 2 hr 16 min 29 sec) 
Heartbeat CPU 0 instructions: 630000002 cycles: 771753984 heartbeat IPC: 0.975824 cumulative IPC: 0.638546 (Simulation time: 2 hr 17 min 7 sec) 
Heartbeat CPU 3 instructions: 660000000 cycles: 772685104 heartbeat IPC: 0.679827 cumulative IPC: 0.674739 (Simulation time: 2 hr 17 min 16 sec) 
Heartbeat CPU 1 instructions: 1270000001 cycles: 774497799 heartbeat IPC: 1.54285 cumulative IPC: 1.54712 (Simulation time: 2 hr 17 min 34 sec) 
Heartbeat CPU 1 instructions: 1280000000 cycles: 780994831 heartbeat IPC: 1.53916 cumulative IPC: 1.54705 (Simulation time: 2 hr 18 min 39 sec) 
Heartbeat CPU 0 instructions: 640000000 cycles: 781633193 heartbeat IPC: 1.01223 cumulative IPC: 0.643949 (Simulation time: 2 hr 18 min 46 sec) 
Heartbeat CPU 1 instructions: 1290000001 cycles: 787394553 heartbeat IPC: 1.56257 cumulative IPC: 1.54719 (Simulation time: 2 hr 19 min 44 sec) 
Heartbeat CPU 3 instructions: 670000003 cycles: 787508352 heartbeat IPC: 0.674616 cumulative IPC: 0.674736 (Simulation time: 2 hr 19 min 46 sec) 
Heartbeat CPU 0 instructions: 650000002 cycles: 791468405 heartbeat IPC: 1.01676 cumulative IPC: 0.649239 (Simulation time: 2 hr 20 min 27 sec) 
Heartbeat CPU 1 instructions: 1300000000 cycles: 793600873 heartbeat IPC: 1.61126 cumulative IPC: 1.54776 (Simulation time: 2 hr 20 min 50 sec) 
Heartbeat CPU 1 instructions: 1310000003 cycles: 800087315 heartbeat IPC: 1.54168 cumulative IPC: 1.54771 (Simulation time: 2 hr 21 min 56 sec) 
Heartbeat CPU 2 instructions: 350000002 cycles: 800459092 heartbeat IPC: 0.210869 cumulative IPC: 0.212141 (Simulation time: 2 hr 22 min 0 sec) 
Heartbeat CPU 0 instructions: 660000000 cycles: 801077222 heartbeat IPC: 1.04071 cumulative IPC: 0.654592 (Simulation time: 2 hr 22 min 6 sec) 
Heartbeat CPU 3 instructions: 680000000 cycles: 802175837 heartbeat IPC: 0.68178 cumulative IPC: 0.674883 (Simulation time: 2 hr 22 min 17 sec) 
Heartbeat CPU 1 instructions: 1320000000 cycles: 806544163 heartbeat IPC: 1.54874 cumulative IPC: 1.54772 (Simulation time: 2 hr 23 min 3 sec) 
Heartbeat CPU 0 instructions: 670000001 cycles: 810791531 heartbeat IPC: 1.02941 cumulative IPC: 0.659703 (Simulation time: 2 hr 23 min 47 sec) 
Heartbeat CPU 1 instructions: 1330000001 cycles: 812855527 heartbeat IPC: 1.58444 cumulative IPC: 1.54804 (Simulation time: 2 hr 24 min 8 sec) 
Heartbeat CPU 3 instructions: 690000000 cycles: 817318701 heartbeat IPC: 0.660377 cumulative IPC: 0.674577 (Simulation time: 2 hr 24 min 56 sec) 
Heartbeat CPU 1 instructions: 1340000000 cycles: 819420829 heartbeat IPC: 1.52316 cumulative IPC: 1.54781 (Simulation time: 2 hr 25 min 17 sec) 
Heartbeat CPU 0 instructions: 680000000 cycles: 820367511 heartbeat IPC: 1.04428 cumulative IPC: 0.664803 (Simulation time: 2 hr 25 min 27 sec) 
Heartbeat CPU 1 instructions: 1350000001 cycles: 825964279 heartbeat IPC: 1.52825 cumulative IPC: 1.54764 (Simulation time: 2 hr 26 min 23 sec) 
Heartbeat CPU 0 instructions: 690000000 cycles: 829859110 heartbeat IPC: 1.05356 cumulative IPC: 0.669848 (Simulation time: 2 hr 27 min 4 sec) 
Heartbeat CPU 3 instructions: 700000000 cycles: 832415129 heartbeat IPC: 0.662408 cumulative IPC: 0.674327 (Simulation time: 2 hr 27 min 29 sec) 
Heartbeat CPU 1 instructions: 1360000000 cycles: 832498102 heartbeat IPC: 1.5305 cumulative IPC: 1.54748 (Simulation time: 2 hr 27 min 30 sec) 
Heartbeat CPU 1 instructions: 1370000001 cycles: 839015583 heartbeat IPC: 1.53434 cumulative IPC: 1.54737 (Simulation time: 2 hr 28 min 37 sec) 
Heartbeat CPU 0 instructions: 700000000 cycles: 839500705 heartbeat IPC: 1.03717 cumulative IPC: 0.674626 (Simulation time: 2 hr 28 min 42 sec) 
Heartbeat CPU 2 instructions: 360000000 cycles: 840502650 heartbeat IPC: 0.249728 cumulative IPC: 0.214169 (Simulation time: 2 hr 28 min 52 sec) 
Heartbeat CPU 1 instructions: 1380000000 cycles: 845493550 heartbeat IPC: 1.54369 cumulative IPC: 1.54734 (Simulation time: 2 hr 29 min 42 sec) 
Heartbeat CPU 3 instructions: 710000000 cycles: 847346493 heartbeat IPC: 0.669731 cumulative IPC: 0.674236 (Simulation time: 2 hr 30 min 2 sec) 
Heartbeat CPU 0 instructions: 710000002 cycles: 848974380 heartbeat IPC: 1.05556 cumulative IPC: 0.679434 (Simulation time: 2 hr 30 min 20 sec) 
Heartbeat CPU 1 instructions: 1390000001 cycles: 851773432 heartbeat IPC: 1.59239 cumulative IPC: 1.54771 (Simulation time: 2 hr 30 min 48 sec) 
Heartbeat CPU 1 instructions: 1400000000 cycles: 858227772 heartbeat IPC: 1.54934 cumulative IPC: 1.54773 (Simulation time: 2 hr 31 min 54 sec) 
Heartbeat CPU 0 instructions: 720000000 cycles: 858561974 heartbeat IPC: 1.04301 cumulative IPC: 0.684019 (Simulation time: 2 hr 31 min 58 sec) 
Heartbeat CPU 3 instructions: 720000000 cycles: 862143449 heartbeat IPC: 0.675815 cumulative IPC: 0.674266 (Simulation time: 2 hr 32 min 34 sec) 
Heartbeat CPU 1 instructions: 1410000002 cycles: 864690094 heartbeat IPC: 1.54743 cumulative IPC: 1.54772 (Simulation time: 2 hr 33 min 0 sec) 
Heartbeat CPU 0 instructions: 730000000 cycles: 868106571 heartbeat IPC: 1.04771 cumulative IPC: 0.688529 (Simulation time: 2 hr 33 min 36 sec) 
Heartbeat CPU 1 instructions: 1420000000 cycles: 871058589 heartbeat IPC: 1.57023 cumulative IPC: 1.54791 (Simulation time: 2 hr 34 min 7 sec) 
Heartbeat CPU 1 instructions: 1430000000 cycles: 877482185 heartbeat IPC: 1.55676 cumulative IPC: 1.54798 (Simulation time: 2 hr 35 min 13 sec) 
Heartbeat CPU 0 instructions: 740000000 cycles: 877519265 heartbeat IPC: 1.0624 cumulative IPC: 0.693045 (Simulation time: 2 hr 35 min 13 sec) 
Heartbeat CPU 3 instructions: 730000003 cycles: 877720565 heartbeat IPC: 0.641968 cumulative IPC: 0.673621 (Simulation time: 2 hr 35 min 15 sec) 
Heartbeat CPU 1 instructions: 1440000000 cycles: 883871680 heartbeat IPC: 1.56507 cumulative IPC: 1.54812 (Simulation time: 2 hr 36 min 19 sec) 
Heartbeat CPU 2 instructions: 370000002 cycles: 885197397 heartbeat IPC: 0.22374 cumulative IPC: 0.214713 (Simulation time: 2 hr 36 min 32 sec) 
Heartbeat CPU 0 instructions: 750000001 cycles: 887019154 heartbeat IPC: 1.05264 cumulative IPC: 0.697377 (Simulation time: 2 hr 36 min 51 sec) 
Heartbeat CPU 1 instructions: 1450000000 cycles: 890165847 heartbeat IPC: 1.58877 cumulative IPC: 1.54844 (Simulation time: 2 hr 37 min 25 sec) 
Heartbeat CPU 3 instructions: 740000000 cycles: 893595697 heartbeat IPC: 0.629916 cumulative IPC: 0.672748 (Simulation time: 2 hr 37 min 59 sec) 
Heartbeat CPU 0 instructions: 760000000 cycles: 896380801 heartbeat IPC: 1.06819 cumulative IPC: 0.701727 (Simulation time: 2 hr 38 min 27 sec) 
Heartbeat CPU 1 instructions: 1460000000 cycles: 897101149 heartbeat IPC: 1.4419 cumulative IPC: 1.54752 (Simulation time: 2 hr 38 min 34 sec) 
Heartbeat CPU 1 instructions: 1470000001 cycles: 903339610 heartbeat IPC: 1.60296 cumulative IPC: 1.54795 (Simulation time: 2 hr 39 min 40 sec) 
Heartbeat CPU 0 instructions: 770000001 cycles: 905789280 heartbeat IPC: 1.06287 cumulative IPC: 0.705935 (Simulation time: 2 hr 40 min 5 sec) 
Heartbeat CPU 3 instructions: 750000003 cycles: 909224492 heartbeat IPC: 0.639845 cumulative IPC: 0.672114 (Simulation time: 2 hr 40 min 42 sec) 
Heartbeat CPU 1 instructions: 1480000000 cycles: 909531027 heartbeat IPC: 1.61514 cumulative IPC: 1.54846 (Simulation time: 2 hr 40 min 46 sec) 
Heartbeat CPU 0 instructions: 780000000 cycles: 915052999 heartbeat IPC: 1.07948 cumulative IPC: 0.710172 (Simulation time: 2 hr 41 min 44 sec) 
Heartbeat CPU 1 instructions: 1490000003 cycles: 915711490 heartbeat IPC: 1.618 cumulative IPC: 1.54899 (Simulation time: 2 hr 41 min 51 sec) 
Heartbeat CPU 1 instructions: 1500000000 cycles: 921969178 heartbeat IPC: 1.59803 cumulative IPC: 1.54936 (Simulation time: 2 hr 42 min 59 sec) 
Heartbeat CPU 3 instructions: 760000000 cycles: 924418429 heartbeat IPC: 0.658157 cumulative IPC: 0.671857 (Simulation time: 2 hr 43 min 25 sec) 
Heartbeat CPU 0 instructions: 790000002 cycles: 924479399 heartbeat IPC: 1.06085 cumulative IPC: 0.714173 (Simulation time: 2 hr 43 min 25 sec) 
Heartbeat CPU 1 instructions: 1510000001 cycles: 928131949 heartbeat IPC: 1.62265 cumulative IPC: 1.54991 (Simulation time: 2 hr 44 min 4 sec) 
Heartbeat CPU 2 instructions: 380000000 cycles: 929505721 heartbeat IPC: 0.225691 cumulative IPC: 0.215298 (Simulation time: 2 hr 44 min 18 sec) 
Heartbeat CPU 0 instructions: 800000000 cycles: 933769205 heartbeat IPC: 1.07645 cumulative IPC: 0.718202 (Simulation time: 2 hr 45 min 3 sec) 
Heartbeat CPU 1 instructions: 1520000000 cycles: 934310591 heartbeat IPC: 1.61848 cumulative IPC: 1.55041 (Simulation time: 2 hr 45 min 8 sec) 
Heartbeat CPU 3 instructions: 770000000 cycles: 939776244 heartbeat IPC: 0.651134 cumulative IPC: 0.671479 (Simulation time: 2 hr 46 min 7 sec) 
Heartbeat CPU 1 instructions: 1530000000 cycles: 940587744 heartbeat IPC: 1.59308 cumulative IPC: 1.55073 (Simulation time: 2 hr 46 min 16 sec) 
Heartbeat CPU 0 instructions: 810000001 cycles: 943100255 heartbeat IPC: 1.07169 cumulative IPC: 0.722106 (Simulation time: 2 hr 46 min 41 sec) 
Heartbeat CPU 1 instructions: 1540000000 cycles: 946797391 heartbeat IPC: 1.6104 cumulative IPC: 1.55117 (Simulation time: 2 hr 47 min 20 sec) 
Heartbeat CPU 0 instructions: 820000000 cycles: 952583868 heartbeat IPC: 1.05445 cumulative IPC: 0.725796 (Simulation time: 2 hr 48 min 21 sec) 
Heartbeat CPU 1 instructions: 1550000000 cycles: 953015150 heartbeat IPC: 1.6083 cumulative IPC: 1.55158 (Simulation time: 2 hr 48 min 25 sec) 
Heartbeat CPU 3 instructions: 780000000 cycles: 955927882 heartbeat IPC: 0.619132 cumulative IPC: 0.670493 (Simulation time: 2 hr 48 min 55 sec) 
Heartbeat CPU 1 instructions: 1560000000 cycles: 959281978 heartbeat IPC: 1.5957 cumulative IPC: 1.5519 (Simulation time: 2 hr 49 min 30 sec) 
Heartbeat CPU 0 instructions: 830000002 cycles: 961898335 heartbeat IPC: 1.0736 cumulative IPC: 0.729548 (Simulation time: 2 hr 49 min 59 sec) 
Heartbeat CPU 1 instructions: 1570000003 cycles: 965510787 heartbeat IPC: 1.60544 cumulative IPC: 1.55229 (Simulation time: 2 hr 50 min 37 sec) 
Heartbeat CPU 0 instructions: 840000000 cycles: 971277437 heartbeat IPC: 1.0662 cumulative IPC: 0.733165 (Simulation time: 2 hr 51 min 37 sec) 
Heartbeat CPU 3 instructions: 790000000 cycles: 971447471 heartbeat IPC: 0.644347 cumulative IPC: 0.670028 (Simulation time: 2 hr 51 min 39 sec) 
Heartbeat CPU 1 instructions: 1580000000 cycles: 971717818 heartbeat IPC: 1.61108 cumulative IPC: 1.55271 (Simulation time: 2 hr 51 min 41 sec) 
Heartbeat CPU 2 instructions: 390000000 cycles: 977401102 heartbeat IPC: 0.208788 cumulative IPC: 0.214943 (Simulation time: 2 hr 52 min 41 sec) 
Heartbeat CPU 1 instructions: 1590000000 cycles: 977969320 heartbeat IPC: 1.59962 cumulative IPC: 1.55304 (Simulation time: 2 hr 52 min 47 sec) 
Heartbeat CPU 0 instructions: 850000000 cycles: 980594579 heartbeat IPC: 1.07329 cumulative IPC: 0.736757 (Simulation time: 2 hr 53 min 14 sec) 
Heartbeat CPU 1 instructions: 1600000000 cycles: 984635273 heartbeat IPC: 1.50016 cumulative IPC: 1.55264 (Simulation time: 2 hr 53 min 54 sec) 
Heartbeat CPU 3 instructions: 800000000 cycles: 987027861 heartbeat IPC: 0.641832 cumulative IPC: 0.669534 (Simulation time: 2 hr 54 min 18 sec) 
Heartbeat CPU 0 instructions: 860000000 cycles: 990065809 heartbeat IPC: 1.05583 cumulative IPC: 0.740146 (Simulation time: 2 hr 54 min 49 sec) 
Heartbeat CPU 1 instructions: 1610000001 cycles: 991323209 heartbeat IPC: 1.49523 cumulative IPC: 1.55221 (Simulation time: 2 hr 55 min 2 sec) 
Heartbeat CPU 1 instructions: 1620000000 cycles: 997844934 heartbeat IPC: 1.53334 cumulative IPC: 1.55207 (Simulation time: 2 hr 56 min 9 sec) 
Heartbeat CPU 0 instructions: 870000003 cycles: 999314991 heartbeat IPC: 1.08118 cumulative IPC: 0.743647 (Simulation time: 2 hr 56 min 24 sec) 
Heartbeat CPU 3 instructions: 810000001 cycles: 1002374233 heartbeat IPC: 0.65162 cumulative IPC: 0.66923 (Simulation time: 2 hr 56 min 55 sec) 
Heartbeat CPU 1 instructions: 1630000002 cycles: 1004558931 heartbeat IPC: 1.48943 cumulative IPC: 1.55161 (Simulation time: 2 hr 57 min 16 sec) 
Heartbeat CPU 0 instructions: 880000000 cycles: 1008802278 heartbeat IPC: 1.05404 cumulative IPC: 0.746881 (Simulation time: 2 hr 58 min 0 sec) 
Heartbeat CPU 1 instructions: 1640000000 cycles: 1011633413 heartbeat IPC: 1.41353 cumulative IPC: 1.55054 (Simulation time: 2 hr 58 min 28 sec) 
Heartbeat CPU 1 instructions: 1650000001 cycles: 1017890532 heartbeat IPC: 1.59818 cumulative IPC: 1.55086 (Simulation time: 2 hr 59 min 34 sec) 
Heartbeat CPU 0 instructions: 890000003 cycles: 1018115969 heartbeat IPC: 1.07369 cumulative IPC: 0.75019 (Simulation time: 2 hr 59 min 36 sec) 
Heartbeat CPU 3 instructions: 820000000 cycles: 1018118798 heartbeat IPC: 0.63514 cumulative IPC: 0.668646 (Simulation time: 2 hr 59 min 36 sec) 
Heartbeat CPU 1 instructions: 1660000000 cycles: 1024092561 heartbeat IPC: 1.61238 cumulative IPC: 1.55128 (Simulation time: 3 hr 0 min 38 sec) 
Heartbeat CPU 2 instructions: 400000000 cycles: 1025167291 heartbeat IPC: 0.209353 cumulative IPC: 0.214655 (Simulation time: 3 hr 0 min 49 sec) 
Heartbeat CPU 0 instructions: 900000000 cycles: 1027601492 heartbeat IPC: 1.05424 cumulative IPC: 0.753294 (Simulation time: 3 hr 1 min 16 sec) 
Heartbeat CPU 1 instructions: 1670000000 cycles: 1030305440 heartbeat IPC: 1.60956 cumulative IPC: 1.55167 (Simulation time: 3 hr 1 min 45 sec) 
Heartbeat CPU 3 instructions: 830000001 cycles: 1033973829 heartbeat IPC: 0.630715 cumulative IPC: 0.668004 (Simulation time: 3 hr 2 min 23 sec) 
Heartbeat CPU 1 instructions: 1680000000 cycles: 1036599142 heartbeat IPC: 1.58889 cumulative IPC: 1.55192 (Simulation time: 3 hr 2 min 50 sec) 
Heartbeat CPU 0 instructions: 910000002 cycles: 1037071282 heartbeat IPC: 1.05599 cumulative IPC: 0.756348 (Simulation time: 3 hr 2 min 55 sec) 
Heartbeat CPU 1 instructions: 1690000000 cycles: 1042890886 heartbeat IPC: 1.58938 cumulative IPC: 1.55216 (Simulation time: 3 hr 3 min 56 sec) 
Heartbeat CPU 0 instructions: 920000000 cycles: 1046666442 heartbeat IPC: 1.04219 cumulative IPC: 0.75924 (Simulation time: 3 hr 4 min 35 sec) 
Heartbeat CPU 1 instructions: 1700000000 cycles: 1049127044 heartbeat IPC: 1.60355 cumulative IPC: 1.5525 (Simulation time: 3 hr 5 min 1 sec) 
Heartbeat CPU 3 instructions: 840000000 cycles: 1049658023 heartbeat IPC: 0.637585 cumulative IPC: 0.667502 (Simulation time: 3 hr 5 min 7 sec) 
Heartbeat CPU 1 instructions: 1710000001 cycles: 1055402875 heartbeat IPC: 1.59341 cumulative IPC: 1.55277 (Simulation time: 3 hr 6 min 7 sec) 
Heartbeat CPU 0 instructions: 930000001 cycles: 1055822752 heartbeat IPC: 1.09214 cumulative IPC: 0.762423 (Simulation time: 3 hr 6 min 12 sec) 
Heartbeat CPU 1 instructions: 1720000000 cycles: 1061637481 heartbeat IPC: 1.60395 cumulative IPC: 1.5531 (Simulation time: 3 hr 7 min 14 sec) 
Heartbeat CPU 0 instructions: 940000000 cycles: 1065194713 heartbeat IPC: 1.06701 cumulative IPC: 0.765376 (Simulation time: 3 hr 7 min 52 sec) 
Heartbeat CPU 3 instructions: 850000000 cycles: 1065535489 heartbeat IPC: 0.629823 cumulative IPC: 0.666884 (Simulation time: 3 hr 7 min 55 sec) 
Heartbeat CPU 1 instructions: 1730000003 cycles: 1067936013 heartbeat IPC: 1.58767 cumulative IPC: 1.55333 (Simulation time: 3 hr 8 min 20 sec) 
Heartbeat CPU 2 instructions: 410000001 cycles: 1070094893 heartbeat IPC: 0.22258 cumulative IPC: 0.215022 (Simulation time: 3 hr 8 min 42 sec) 
Heartbeat CPU 1 instructions: 1740000000 cycles: 1074467443 heartbeat IPC: 1.53106 cumulative IPC: 1.55318 (Simulation time: 3 hr 9 min 22 sec) 
Heartbeat CPU 1 instructions: 1750000000 cycles: 1080971009 heartbeat IPC: 1.53762 cumulative IPC: 1.55307 (Simulation time: 3 hr 10 min 17 sec) 
Heartbeat CPU 3 instructions: 860000000 cycles: 1081767786 heartbeat IPC: 0.616056 cumulative IPC: 0.666045 (Simulation time: 3 hr 10 min 24 sec) 
Heartbeat CPU 1 instructions: 1760000000 cycles: 1087375513 heartbeat IPC: 1.5614 cumulative IPC: 1.55313 (Simulation time: 3 hr 11 min 10 sec) 
Heartbeat CPU 0 instructions: 950000003 cycles: 1088556073 heartbeat IPC: 0.428057 cumulative IPC: 0.757418 (Simulation time: 3 hr 11 min 20 sec) 
Heartbeat CPU 1 instructions: 1770000002 cycles: 1093705126 heartbeat IPC: 1.57988 cumulative IPC: 1.5533 (Simulation time: 3 hr 12 min 4 sec) 
Heartbeat CPU 3 instructions: 870000001 cycles: 1097940222 heartbeat IPC: 0.618336 cumulative IPC: 0.665273 (Simulation time: 3 hr 12 min 39 sec) 
Heartbeat CPU 1 instructions: 1780000000 cycles: 1100118202 heartbeat IPC: 1.55931 cumulative IPC: 1.55334 (Simulation time: 3 hr 13 min 0 sec) 
Heartbeat CPU 1 instructions: 1790000003 cycles: 1106450723 heartbeat IPC: 1.57915 cumulative IPC: 1.5535 (Simulation time: 3 hr 14 min 5 sec) 
Heartbeat CPU 0 instructions: 960000000 cycles: 1107084041 heartbeat IPC: 0.539724 cumulative IPC: 0.753419 (Simulation time: 3 hr 14 min 12 sec) 
Heartbeat CPU 1 instructions: 1800000000 cycles: 1112840736 heartbeat IPC: 1.56494 cumulative IPC: 1.55357 (Simulation time: 3 hr 15 min 13 sec) 
Heartbeat CPU 3 instructions: 880000000 cycles: 1114308733 heartbeat IPC: 0.610929 cumulative IPC: 0.664397 (Simulation time: 3 hr 15 min 27 sec) 
Heartbeat CPU 0 instructions: 970000000 cycles: 1116458002 heartbeat IPC: 1.06678 cumulative IPC: 0.756304 (Simulation time: 3 hr 15 min 48 sec) 
Heartbeat CPU 1 instructions: 1810000003 cycles: 1119710586 heartbeat IPC: 1.45564 cumulative IPC: 1.55291 (Simulation time: 3 hr 16 min 22 sec) 
Heartbeat CPU 2 instructions: 420000000 cycles: 1120257857 heartbeat IPC: 0.19935 cumulative IPC: 0.214252 (Simulation time: 3 hr 16 min 28 sec) 
Heartbeat CPU 0 instructions: 980000000 cycles: 1125818468 heartbeat IPC: 1.06832 cumulative IPC: 0.759147 (Simulation time: 3 hr 17 min 27 sec) 
Heartbeat CPU 1 instructions: 1820000000 cycles: 1125874343 heartbeat IPC: 1.62239 cumulative IPC: 1.55333 (Simulation time: 3 hr 17 min 28 sec) 
Heartbeat CPU 3 instructions: 890000003 cycles: 1130010956 heartbeat IPC: 0.636853 cumulative IPC: 0.663978 (Simulation time: 3 hr 18 min 12 sec) 
Heartbeat CPU 1 instructions: 1830000000 cycles: 1132092291 heartbeat IPC: 1.60825 cumulative IPC: 1.55366 (Simulation time: 3 hr 18 min 34 sec) 
Heartbeat CPU 0 instructions: 990000001 cycles: 1135347673 heartbeat IPC: 1.04941 cumulative IPC: 0.761814 (Simulation time: 3 hr 19 min 7 sec) 
Heartbeat CPU 1 instructions: 1840000000 cycles: 1138282778 heartbeat IPC: 1.61538 cumulative IPC: 1.55403 (Simulation time: 3 hr 19 min 38 sec) 
Heartbeat CPU 1 instructions: 1850000003 cycles: 1144505236 heartbeat IPC: 1.60708 cumulative IPC: 1.55434 (Simulation time: 3 hr 20 min 44 sec) 
Heartbeat CPU 0 instructions: 1000000000 cycles: 1144542345 heartbeat IPC: 1.08759 cumulative IPC: 0.764677 (Simulation time: 3 hr 20 min 45 sec) 
Heartbeat CPU 3 instructions: 900000000 cycles: 1146044397 heartbeat IPC: 0.623696 cumulative IPC: 0.663361 (Simulation time: 3 hr 21 min 0 sec) 
Heartbeat CPU 1 instructions: 1860000000 cycles: 1150753744 heartbeat IPC: 1.60038 cumulative IPC: 1.55462 (Simulation time: 3 hr 21 min 50 sec) 
Heartbeat CPU 0 instructions: 1010000000 cycles: 1154004459 heartbeat IPC: 1.05685 cumulative IPC: 0.767296 (Simulation time: 3 hr 22 min 23 sec) 
Heartbeat CPU 1 instructions: 1870000001 cycles: 1157124233 heartbeat IPC: 1.56974 cumulative IPC: 1.55471 (Simulation time: 3 hr 22 min 55 sec) 
Heartbeat CPU 3 instructions: 910000001 cycles: 1161972216 heartbeat IPC: 0.627832 cumulative IPC: 0.662829 (Simulation time: 3 hr 23 min 46 sec) 
Heartbeat CPU 0 instructions: 1020000000 cycles: 1163194261 heartbeat IPC: 1.08816 cumulative IPC: 0.770065 (Simulation time: 3 hr 23 min 58 sec) 
Heartbeat CPU 1 instructions: 1880000000 cycles: 1163618751 heartbeat IPC: 1.53976 cumulative IPC: 1.55462 (Simulation time: 3 hr 24 min 3 sec) 
Heartbeat CPU 2 instructions: 430000002 cycles: 1167588619 heartbeat IPC: 0.211279 cumulative IPC: 0.214121 (Simulation time: 3 hr 24 min 43 sec) 
Heartbeat CPU 1 instructions: 1890000000 cycles: 1170084421 heartbeat IPC: 1.54663 cumulative IPC: 1.55457 (Simulation time: 3 hr 25 min 10 sec) 
Heartbeat CPU 0 instructions: 1030000000 cycles: 1172600253 heartbeat IPC: 1.06315 cumulative IPC: 0.772632 (Simulation time: 3 hr 25 min 35 sec) 
Heartbeat CPU 1 instructions: 1900000000 cycles: 1176599651 heartbeat IPC: 1.53487 cumulative IPC: 1.55445 (Simulation time: 3 hr 26 min 16 sec) 
Heartbeat CPU 3 instructions: 920000000 cycles: 1177465447 heartbeat IPC: 0.645443 cumulative IPC: 0.66258 (Simulation time: 3 hr 26 min 25 sec) 
Heartbeat CPU 0 instructions: 1040000000 cycles: 1181880772 heartbeat IPC: 1.07753 cumulative IPC: 0.775243 (Simulation time: 3 hr 27 min 10 sec) 
Heartbeat CPU 1 instructions: 1910000002 cycles: 1182963176 heartbeat IPC: 1.57146 cumulative IPC: 1.55455 (Simulation time: 3 hr 27 min 22 sec) 
Heartbeat CPU 1 instructions: 1920000000 cycles: 1189352288 heartbeat IPC: 1.56516 cumulative IPC: 1.55461 (Simulation time: 3 hr 28 min 30 sec) 
Heartbeat CPU 0 instructions: 1050000000 cycles: 1191064922 heartbeat IPC: 1.08883 cumulative IPC: 0.777879 (Simulation time: 3 hr 28 min 48 sec) 
Heartbeat CPU 3 instructions: 930000001 cycles: 1193195775 heartbeat IPC: 0.635715 cumulative IPC: 0.662194 (Simulation time: 3 hr 29 min 10 sec) 
Heartbeat CPU 1 instructions: 1930000003 cycles: 1195777530 heartbeat IPC: 1.55636 cumulative IPC: 1.55462 (Simulation time: 3 hr 29 min 36 sec) 
Heartbeat CPU 0 instructions: 1060000000 cycles: 1200413957 heartbeat IPC: 1.06963 cumulative IPC: 0.780354 (Simulation time: 3 hr 30 min 22 sec) 
Heartbeat CPU 1 instructions: 1940000000 cycles: 1202998274 heartbeat IPC: 1.3849 cumulative IPC: 1.55351 (Simulation time: 3 hr 30 min 47 sec) 
Heartbeat CPU 3 instructions: 940000000 cycles: 1209179023 heartbeat IPC: 0.625655 cumulative IPC: 0.661668 (Simulation time: 3 hr 31 min 50 sec) 
Heartbeat CPU 1 instructions: 1950000003 cycles: 1209653646 heartbeat IPC: 1.50255 cumulative IPC: 1.55321 (Simulation time: 3 hr 31 min 55 sec) 
Heartbeat CPU 0 instructions: 1070000002 cycles: 1209699371 heartbeat IPC: 1.07696 cumulative IPC: 0.782832 (Simulation time: 3 hr 31 min 56 sec) 
Heartbeat CPU 2 instructions: 440000000 cycles: 1210187115 heartbeat IPC: 0.23475 cumulative IPC: 0.214911 (Simulation time: 3 hr 32 min 1 sec) 
Heartbeat CPU 1 instructions: 1960000000 cycles: 1216253277 heartbeat IPC: 1.51524 cumulative IPC: 1.55298 (Simulation time: 3 hr 33 min 1 sec) 
Heartbeat CPU 0 instructions: 1080000000 cycles: 1219075391 heartbeat IPC: 1.06655 cumulative IPC: 0.785205 (Simulation time: 3 hr 33 min 30 sec) 
Heartbeat CPU 1 instructions: 1970000002 cycles: 1222808767 heartbeat IPC: 1.52544 cumulative IPC: 1.55282 (Simulation time: 3 hr 34 min 7 sec) 
Heartbeat CPU 3 instructions: 950000000 cycles: 1224466571 heartbeat IPC: 0.654127 cumulative IPC: 0.661566 (Simulation time: 3 hr 34 min 24 sec) 
Heartbeat CPU 0 instructions: 1090000001 cycles: 1228458175 heartbeat IPC: 1.06578 cumulative IPC: 0.787535 (Simulation time: 3 hr 35 min 5 sec) 
Heartbeat CPU 1 instructions: 1980000000 cycles: 1229326260 heartbeat IPC: 1.53433 cumulative IPC: 1.55271 (Simulation time: 3 hr 35 min 14 sec) 
Heartbeat CPU 1 instructions: 1990000002 cycles: 1235858518 heartbeat IPC: 1.53086 cumulative IPC: 1.55259 (Simulation time: 3 hr 36 min 20 sec) 
Heartbeat CPU 0 instructions: 1100000000 cycles: 1237902609 heartbeat IPC: 1.05882 cumulative IPC: 0.789783 (Simulation time: 3 hr 36 min 42 sec) 
Heartbeat CPU 3 instructions: 960000000 cycles: 1239929767 heartbeat IPC: 0.646697 cumulative IPC: 0.661364 (Simulation time: 3 hr 37 min 2 sec) 
*** Reached end of trace for Core: 1 Repeating trace: /scratch/user/djimenez/champsim-traces/speccpu2017/xz/648.exchange2_s/648.exchange2_s-210B.champsimtrace.xz
Heartbeat CPU 1 instructions: 2000000000 cycles: 1242425402 heartbeat IPC: 1.52279 cumulative IPC: 1.55242 (Simulation time: 3 hr 37 min 27 sec) 
Heartbeat CPU 0 instructions: 1110000001 cycles: 1247171447 heartbeat IPC: 1.07888 cumulative IPC: 0.792116 (Simulation time: 3 hr 38 min 18 sec) 
Heartbeat CPU 1 instructions: 2010000000 cycles: 1248695893 heartbeat IPC: 1.59477 cumulative IPC: 1.55265 (Simulation time: 3 hr 38 min 33 sec) 
Heartbeat CPU 1 instructions: 2020000000 cycles: 1255002672 heartbeat IPC: 1.5856 cumulative IPC: 1.55283 (Simulation time: 3 hr 39 min 38 sec) 
Heartbeat CPU 3 instructions: 970000001 cycles: 1255547563 heartbeat IPC: 0.640295 cumulative IPC: 0.66108 (Simulation time: 3 hr 39 min 43 sec) 
Heartbeat CPU 0 instructions: 1120000000 cycles: 1256887164 heartbeat IPC: 1.02926 cumulative IPC: 0.794105 (Simulation time: 3 hr 39 min 57 sec) 
Heartbeat CPU 2 instructions: 450000002 cycles: 1261144612 heartbeat IPC: 0.196242 cumulative IPC: 0.214093 (Simulation time: 3 hr 40 min 41 sec) 
Heartbeat CPU 1 instructions: 2030000001 cycles: 1261318797 heartbeat IPC: 1.58325 cumulative IPC: 1.55299 (Simulation time: 3 hr 40 min 42 sec) 
Heartbeat CPU 0 instructions: 1130000001 cycles: 1266818017 heartbeat IPC: 1.00696 cumulative IPC: 0.795914 (Simulation time: 3 hr 41 min 39 sec) 
Heartbeat CPU 1 instructions: 2040000000 cycles: 1267571303 heartbeat IPC: 1.59936 cumulative IPC: 1.55324 (Simulation time: 3 hr 41 min 47 sec) 
Heartbeat CPU 3 instructions: 980000000 cycles: 1271274045 heartbeat IPC: 0.63587 cumulative IPC: 0.660742 (Simulation time: 3 hr 42 min 25 sec) 
Heartbeat CPU 1 instructions: 2050000002 cycles: 1273877575 heartbeat IPC: 1.58572 cumulative IPC: 1.55342 (Simulation time: 3 hr 42 min 50 sec) 
Heartbeat CPU 0 instructions: 1140000000 cycles: 1277960826 heartbeat IPC: 0.89744 cumulative IPC: 0.796873 (Simulation time: 3 hr 43 min 31 sec) 
Heartbeat CPU 1 instructions: 2060000000 cycles: 1280118351 heartbeat IPC: 1.60236 cumulative IPC: 1.55367 (Simulation time: 3 hr 43 min 52 sec) 
Heartbeat CPU 1 instructions: 2070000001 cycles: 1286424058 heartbeat IPC: 1.58587 cumulative IPC: 1.55385 (Simulation time: 3 hr 44 min 55 sec) 
Heartbeat CPU 3 instructions: 990000000 cycles: 1286901640 heartbeat IPC: 0.639894 cumulative IPC: 0.660468 (Simulation time: 3 hr 45 min 0 sec) 
Heartbeat CPU 0 instructions: 1150000000 cycles: 1290020798 heartbeat IPC: 0.829189 cumulative IPC: 0.7972 (Simulation time: 3 hr 45 min 30 sec) 
Heartbeat CPU 1 instructions: 2080000000 cycles: 1292645426 heartbeat IPC: 1.60736 cumulative IPC: 1.55412 (Simulation time: 3 hr 45 min 55 sec) 
Heartbeat CPU 1 instructions: 2090000003 cycles: 1298845028 heartbeat IPC: 1.61301 cumulative IPC: 1.55443 (Simulation time: 3 hr 46 min 57 sec) 
Heartbeat CPU 3 instructions: 1000000000 cycles: 1302059023 heartbeat IPC: 0.659745 cumulative IPC: 0.660459 (Simulation time: 3 hr 47 min 27 sec) 
Heartbeat CPU 0 instructions: 1160000000 cycles: 1303849406 heartbeat IPC: 0.723139 cumulative IPC: 0.79635 (Simulation time: 3 hr 47 min 44 sec) 
Heartbeat CPU 1 instructions: 2100000000 cycles: 1305099294 heartbeat IPC: 1.59891 cumulative IPC: 1.55466 (Simulation time: 3 hr 47 min 56 sec) 
Heartbeat CPU 2 instructions: 460000000 cycles: 1308436011 heartbeat IPC: 0.211455 cumulative IPC: 0.21399 (Simulation time: 3 hr 48 min 28 sec) 
Heartbeat CPU 1 instructions: 2110000000 cycles: 1311489895 heartbeat IPC: 1.5648 cumulative IPC: 1.55471 (Simulation time: 3 hr 48 min 55 sec) 
Heartbeat CPU 3 instructions: 1010000001 cycles: 1317304187 heartbeat IPC: 0.655946 cumulative IPC: 0.660402 (Simulation time: 3 hr 49 min 48 sec) 
Heartbeat CPU 1 instructions: 2120000000 cycles: 1318065230 heartbeat IPC: 1.52084 cumulative IPC: 1.55453 (Simulation time: 3 hr 49 min 56 sec) 
Heartbeat CPU 0 instructions: 1170000000 cycles: 1320601649 heartbeat IPC: 0.596935 cumulative IPC: 0.793617 (Simulation time: 3 hr 50 min 18 sec) 
Heartbeat CPU 1 instructions: 2130000003 cycles: 1324635770 heartbeat IPC: 1.52195 cumulative IPC: 1.55435 (Simulation time: 3 hr 50 min 53 sec) 
Heartbeat CPU 1 instructions: 2140000000 cycles: 1331134367 heartbeat IPC: 1.53879 cumulative IPC: 1.55427 (Simulation time: 3 hr 51 min 51 sec) 
Heartbeat CPU 3 instructions: 1020000000 cycles: 1333135928 heartbeat IPC: 0.631642 cumulative IPC: 0.660033 (Simulation time: 3 hr 52 min 10 sec) 
Heartbeat CPU 1 instructions: 2150000003 cycles: 1337544900 heartbeat IPC: 1.55993 cumulative IPC: 1.5543 (Simulation time: 3 hr 52 min 49 sec) 
Heartbeat CPU 0 instructions: 1180000000 cycles: 1340626228 heartbeat IPC: 0.499386 cumulative IPC: 0.788874 (Simulation time: 3 hr 53 min 16 sec) 
Heartbeat CPU 1 instructions: 2160000000 cycles: 1344087418 heartbeat IPC: 1.52846 cumulative IPC: 1.55417 (Simulation time: 3 hr 53 min 46 sec) 
Heartbeat CPU 3 instructions: 1030000003 cycles: 1348859383 heartbeat IPC: 0.635993 cumulative IPC: 0.659731 (Simulation time: 3 hr 54 min 29 sec) 
Heartbeat CPU 1 instructions: 2170000000 cycles: 1350603760 heartbeat IPC: 1.5346 cumulative IPC: 1.55406 (Simulation time: 3 hr 54 min 45 sec) 
Heartbeat CPU 1 instructions: 2180000000 cycles: 1357079903 heartbeat IPC: 1.54413 cumulative IPC: 1.55401 (Simulation time: 3 hr 55 min 41 sec) 
Heartbeat CPU 2 instructions: 470000000 cycles: 1358089051 heartbeat IPC: 0.201398 cumulative IPC: 0.213493 (Simulation time: 3 hr 55 min 50 sec) 
Heartbeat CPU 0 instructions: 1190000000 cycles: 1362312753 heartbeat IPC: 0.461116 cumulative IPC: 0.783251 (Simulation time: 3 hr 56 min 28 sec) 
Heartbeat CPU 1 instructions: 2190000003 cycles: 1363643101 heartbeat IPC: 1.52365 cumulative IPC: 1.55386 (Simulation time: 3 hr 56 min 40 sec) 
Heartbeat CPU 3 instructions: 1040000000 cycles: 1364193369 heartbeat IPC: 0.652146 cumulative IPC: 0.659639 (Simulation time: 3 hr 56 min 45 sec) 
Heartbeat CPU 1 instructions: 2200000000 cycles: 1370064335 heartbeat IPC: 1.55733 cumulative IPC: 1.55387 (Simulation time: 3 hr 57 min 36 sec) 
Heartbeat CPU 1 instructions: 2210000001 cycles: 1376531560 heartbeat IPC: 1.54626 cumulative IPC: 1.55383 (Simulation time: 3 hr 58 min 33 sec) 
Heartbeat CPU 3 instructions: 1050000002 cycles: 1380112495 heartbeat IPC: 0.628175 cumulative IPC: 0.659249 (Simulation time: 3 hr 59 min 5 sec) 
Heartbeat CPU 1 instructions: 2220000000 cycles: 1382943510 heartbeat IPC: 1.55959 cumulative IPC: 1.55386 (Simulation time: 3 hr 59 min 30 sec) 
Heartbeat CPU 0 instructions: 1200000000 cycles: 1385963303 heartbeat IPC: 0.422823 cumulative IPC: 0.77663 (Simulation time: 3 hr 59 min 57 sec) 
Finished CPU 0 instructions: 1000000000 cycles: 1287613836 cumulative IPC: 0.77663 (Simulation time: 3 hr 59 min 57 sec) 
Heartbeat CPU 1 instructions: 2230000003 cycles: 1389248539 heartbeat IPC: 1.58604 cumulative IPC: 1.55402 (Simulation time: 4 hr 0 min 26 sec) 
Heartbeat CPU 3 instructions: 1060000000 cycles: 1395320646 heartbeat IPC: 0.657542 cumulative IPC: 0.659229 (Simulation time: 4 hr 1 min 25 sec) 
Heartbeat CPU 1 instructions: 2240000000 cycles: 1395573688 heartbeat IPC: 1.58099 cumulative IPC: 1.55415 (Simulation time: 4 hr 1 min 27 sec) 
Heartbeat CPU 1 instructions: 2250000003 cycles: 1402043296 heartbeat IPC: 1.54569 cumulative IPC: 1.55411 (Simulation time: 4 hr 2 min 24 sec) 
Heartbeat CPU 2 instructions: 480000000 cycles: 1403646827 heartbeat IPC: 0.219501 cumulative IPC: 0.213703 (Simulation time: 4 hr 2 min 38 sec) 
Heartbeat CPU 0 instructions: 1210000000 cycles: 1407727362 heartbeat IPC: 0.459473 cumulative IPC: 0.771359 (Simulation time: 4 hr 3 min 15 sec) 
Heartbeat CPU 1 instructions: 2260000000 cycles: 1408413444 heartbeat IPC: 1.56982 cumulative IPC: 1.55419 (Simulation time: 4 hr 3 min 21 sec) 
Heartbeat CPU 3 instructions: 1070000000 cycles: 1410459603 heartbeat IPC: 0.660547 cumulative IPC: 0.659244 (Simulation time: 4 hr 3 min 39 sec) 
Heartbeat CPU 1 instructions: 2270000003 cycles: 1414852572 heartbeat IPC: 1.55301 cumulative IPC: 1.55418 (Simulation time: 4 hr 4 min 18 sec) 
Heartbeat CPU 1 instructions: 2280000000 cycles: 1421506445 heartbeat IPC: 1.50288 cumulative IPC: 1.55392 (Simulation time: 4 hr 5 min 17 sec) 
Heartbeat CPU 3 instructions: 1080000000 cycles: 1425606627 heartbeat IPC: 0.660196 cumulative IPC: 0.659255 (Simulation time: 4 hr 5 min 55 sec) 
Heartbeat CPU 0 instructions: 1220000000 cycles: 1427739352 heartbeat IPC: 0.4997 cumulative IPC: 0.767269 (Simulation time: 4 hr 6 min 14 sec) 
Heartbeat CPU 1 instructions: 2290000001 cycles: 1427934409 heartbeat IPC: 1.5557 cumulative IPC: 1.55393 (Simulation time: 4 hr 6 min 15 sec) 
Heartbeat CPU 1 instructions: 2300000000 cycles: 1434391510 heartbeat IPC: 1.54868 cumulative IPC: 1.55391 (Simulation time: 4 hr 7 min 13 sec) 
Heartbeat CPU 1 instructions: 2310000000 cycles: 1440695547 heartbeat IPC: 1.58629 cumulative IPC: 1.55406 (Simulation time: 4 hr 8 min 10 sec) 
Heartbeat CPU 3 instructions: 1090000000 cycles: 1441566076 heartbeat IPC: 0.626588 cumulative IPC: 0.658867 (Simulation time: 4 hr 8 min 18 sec) 
Heartbeat CPU 0 instructions: 1230000003 cycles: 1447010437 heartbeat IPC: 0.518912 cumulative IPC: 0.763721 (Simulation time: 4 hr 9 min 6 sec) 
Heartbeat CPU 1 instructions: 2320000000 cycles: 1447258263 heartbeat IPC: 1.52376 cumulative IPC: 1.55391 (Simulation time: 4 hr 9 min 8 sec) 
Heartbeat CPU 1 instructions: 2330000002 cycles: 1453612428 heartbeat IPC: 1.57377 cumulative IPC: 1.554 (Simulation time: 4 hr 10 min 7 sec) 
Heartbeat CPU 3 instructions: 1100000000 cycles: 1457007403 heartbeat IPC: 0.647613 cumulative IPC: 0.658739 (Simulation time: 4 hr 10 min 38 sec) 
Heartbeat CPU 2 instructions: 490000000 cycles: 1457227006 heartbeat IPC: 0.186636 cumulative IPC: 0.212636 (Simulation time: 4 hr 10 min 40 sec) 
Heartbeat CPU 1 instructions: 2340000000 cycles: 1460085042 heartbeat IPC: 1.54497 cumulative IPC: 1.55396 (Simulation time: 4 hr 11 min 5 sec) 
Heartbeat CPU 0 instructions: 1240000000 cycles: 1464862413 heartbeat IPC: 0.560162 cumulative IPC: 0.761061 (Simulation time: 4 hr 11 min 48 sec) 
Heartbeat CPU 1 instructions: 2350000002 cycles: 1466858692 heartbeat IPC: 1.47631 cumulative IPC: 1.55358 (Simulation time: 4 hr 12 min 6 sec) 
Heartbeat CPU 3 instructions: 1110000000 cycles: 1472147999 heartbeat IPC: 0.660476 cumulative IPC: 0.658758 (Simulation time: 4 hr 12 min 57 sec) 
Heartbeat CPU 1 instructions: 2360000000 cycles: 1472988705 heartbeat IPC: 1.63132 cumulative IPC: 1.55392 (Simulation time: 4 hr 13 min 5 sec) 
Heartbeat CPU 1 instructions: 2370000003 cycles: 1479283697 heartbeat IPC: 1.58856 cumulative IPC: 1.55408 (Simulation time: 4 hr 14 min 3 sec) 
Heartbeat CPU 0 instructions: 1250000001 cycles: 1482466812 heartbeat IPC: 0.56804 cumulative IPC: 0.758606 (Simulation time: 4 hr 14 min 33 sec) 
Heartbeat CPU 1 instructions: 2380000000 cycles: 1485472754 heartbeat IPC: 1.61575 cumulative IPC: 1.55436 (Simulation time: 4 hr 15 min 1 sec) 
Heartbeat CPU 3 instructions: 1120000000 cycles: 1487092442 heartbeat IPC: 0.669145 cumulative IPC: 0.65887 (Simulation time: 4 hr 15 min 15 sec) 
Heartbeat CPU 1 instructions: 2390000003 cycles: 1491822432 heartbeat IPC: 1.57488 cumulative IPC: 1.55445 (Simulation time: 4 hr 15 min 59 sec) 
Heartbeat CPU 1 instructions: 2400000000 cycles: 1498112404 heartbeat IPC: 1.58983 cumulative IPC: 1.55461 (Simulation time: 4 hr 16 min 58 sec) 
Heartbeat CPU 0 instructions: 1260000000 cycles: 1499620956 heartbeat IPC: 0.582949 cumulative IPC: 0.756456 (Simulation time: 4 hr 17 min 12 sec) 
Heartbeat CPU 3 instructions: 1130000000 cycles: 1502209312 heartbeat IPC: 0.661513 cumulative IPC: 0.658898 (Simulation time: 4 hr 17 min 36 sec) 
Heartbeat CPU 1 instructions: 2410000000 cycles: 1504408971 heartbeat IPC: 1.58817 cumulative IPC: 1.55476 (Simulation time: 4 hr 17 min 56 sec) 
Heartbeat CPU 2 instructions: 500000000 cycles: 1508568610 heartbeat IPC: 0.194774 cumulative IPC: 0.211986 (Simulation time: 4 hr 18 min 32 sec) 
Heartbeat CPU 1 instructions: 2420000000 cycles: 1511275567 heartbeat IPC: 1.45633 cumulative IPC: 1.55428 (Simulation time: 4 hr 18 min 59 sec) 
Heartbeat CPU 0 instructions: 1270000003 cycles: 1517096923 heartbeat IPC: 0.572215 cumulative IPC: 0.754186 (Simulation time: 4 hr 19 min 54 sec) 
Heartbeat CPU 1 instructions: 2430000001 cycles: 1517299361 heartbeat IPC: 1.66008 cumulative IPC: 1.55473 (Simulation time: 4 hr 19 min 56 sec) 
Heartbeat CPU 3 instructions: 1140000000 cycles: 1517632726 heartbeat IPC: 0.648365 cumulative IPC: 0.658783 (Simulation time: 4 hr 19 min 59 sec) 
Heartbeat CPU 1 instructions: 2440000000 cycles: 1523477594 heartbeat IPC: 1.61859 cumulative IPC: 1.55501 (Simulation time: 4 hr 20 min 54 sec) 
Heartbeat CPU 1 instructions: 2450000000 cycles: 1529825384 heartbeat IPC: 1.57535 cumulative IPC: 1.5551 (Simulation time: 4 hr 21 min 53 sec) 
Heartbeat CPU 3 instructions: 1150000001 cycles: 1532738576 heartbeat IPC: 0.661995 cumulative IPC: 0.658817 (Simulation time: 4 hr 22 min 21 sec) 
Heartbeat CPU 0 instructions: 1280000000 cycles: 1534346073 heartbeat IPC: 0.579739 cumulative IPC: 0.752091 (Simulation time: 4 hr 22 min 35 sec) 
Heartbeat CPU 1 instructions: 2460000000 cycles: 1536079091 heartbeat IPC: 1.59905 cumulative IPC: 1.55529 (Simulation time: 4 hr 22 min 51 sec) 
Heartbeat CPU 1 instructions: 2470000000 cycles: 1542997083 heartbeat IPC: 1.44551 cumulative IPC: 1.55476 (Simulation time: 4 hr 23 min 55 sec) 
[...]
Heartbeat CPU 1 instructions: 7420000000 cycles: 4731774679 heartbeat IPC: 1.57015 cumulative IPC: 1.55308 (Simulation time: 12 hr 42 min 7 sec) 
Heartbeat CPU 2 instructions: 1180000000 cycles: 4733699621 heartbeat IPC: 0.206387 cumulative IPC: 0.211191 (Simulation time: 12 hr 42 min 24 sec) 
Heartbeat CPU 1 instructions: 7430000000 cycles: 4738199343 heartbeat IPC: 1.5565 cumulative IPC: 1.55309 (Simulation time: 12 hr 43 min 4 sec) 
Heartbeat CPU 0 instructions: 3360000000 cycles: 4739363670 heartbeat IPC: 0.568951 cumulative IPC: 0.680886 (Simulation time: 12 hr 43 min 15 sec) 
Heartbeat CPU 1 instructions: 7440000000 cycles: 4744587828 heartbeat IPC: 1.56532 cumulative IPC: 1.5531 (Simulation time: 12 hr 44 min 4 sec) 
Heartbeat CPU 3 instructions: 3290000001 cycles: 4747028110 heartbeat IPC: 0.641868 cumulative IPC: 0.66363 (Simulation time: 12 hr 44 min 26 sec) 
Heartbeat CPU 1 instructions: 7450000000 cycles: 4750881007 heartbeat IPC: 1.58902 cumulative IPC: 1.55315 (Simulation time: 12 hr 45 min 1 sec) 
Heartbeat CPU 0 instructions: 3370000003 cycles: 4757526798 heartbeat IPC: 0.550566 cumulative IPC: 0.680378 (Simulation time: 12 hr 46 min 1 sec) 
Heartbeat CPU 1 instructions: 7460000000 cycles: 4757813587 heartbeat IPC: 1.44246 cumulative IPC: 1.55299 (Simulation time: 12 hr 46 min 3 sec) 
Heartbeat CPU 3 instructions: 3300000000 cycles: 4762645237 heartbeat IPC: 0.640323 cumulative IPC: 0.663552 (Simulation time: 12 hr 46 min 47 sec) 
Heartbeat CPU 1 instructions: 7470000001 cycles: 4764054713 heartbeat IPC: 1.60228 cumulative IPC: 1.55305 (Simulation time: 12 hr 47 min 1 sec) 
Heartbeat CPU 1 instructions: 7480000000 cycles: 4770245748 heartbeat IPC: 1.61524 cumulative IPC: 1.55313 (Simulation time: 12 hr 47 min 58 sec) 
Heartbeat CPU 0 instructions: 3380000000 cycles: 4775187994 heartbeat IPC: 0.566213 cumulative IPC: 0.679946 (Simulation time: 12 hr 48 min 46 sec) 
Heartbeat CPU 1 instructions: 7490000003 cycles: 4776425854 heartbeat IPC: 1.6181 cumulative IPC: 1.55322 (Simulation time: 12 hr 48 min 58 sec) 
Heartbeat CPU 3 instructions: 3310000000 cycles: 4777785183 heartbeat IPC: 0.660504 cumulative IPC: 0.663542 (Simulation time: 12 hr 49 min 11 sec) 
Heartbeat CPU 2 instructions: 1190000001 cycles: 4781165516 heartbeat IPC: 0.210678 cumulative IPC: 0.211186 (Simulation time: 12 hr 49 min 41 sec) 
Heartbeat CPU 1 instructions: 7500000000 cycles: 4782683298 heartbeat IPC: 1.5981 cumulative IPC: 1.55328 (Simulation time: 12 hr 49 min 55 sec) 
Heartbeat CPU 1 instructions: 7510000003 cycles: 4788848824 heartbeat IPC: 1.62192 cumulative IPC: 1.55337 (Simulation time: 12 hr 50 min 55 sec) 
Heartbeat CPU 3 instructions: 3320000000 cycles: 4792677269 heartbeat IPC: 0.671498 cumulative IPC: 0.663567 (Simulation time: 12 hr 51 min 31 sec) 
Heartbeat CPU 0 instructions: 3390000002 cycles: 4792725661 heartbeat IPC: 0.570201 cumulative IPC: 0.679537 (Simulation time: 12 hr 51 min 31 sec) 
Heartbeat CPU 1 instructions: 7520000000 cycles: 4795026428 heartbeat IPC: 1.61875 cumulative IPC: 1.55346 (Simulation time: 12 hr 51 min 52 sec) 
Heartbeat CPU 1 instructions: 7530000000 cycles: 4801300837 heartbeat IPC: 1.59378 cumulative IPC: 1.55351 (Simulation time: 12 hr 52 min 51 sec) 
Heartbeat CPU 1 instructions: 7540000000 cycles: 4807511396 heartbeat IPC: 1.61016 cumulative IPC: 1.55359 (Simulation time: 12 hr 53 min 49 sec) 
Heartbeat CPU 3 instructions: 3330000000 cycles: 4807908443 heartbeat IPC: 0.656548 cumulative IPC: 0.663544 (Simulation time: 12 hr 53 min 52 sec) 
Heartbeat CPU 0 instructions: 3400000000 cycles: 4810086553 heartbeat IPC: 0.576007 cumulative IPC: 0.679155 (Simulation time: 12 hr 54 min 14 sec) 
Heartbeat CPU 1 instructions: 7550000000 cycles: 4813729245 heartbeat IPC: 1.60827 cumulative IPC: 1.55366 (Simulation time: 12 hr 54 min 49 sec) 
Heartbeat CPU 1 instructions: 7560000000 cycles: 4819998280 heartbeat IPC: 1.59514 cumulative IPC: 1.55371 (Simulation time: 12 hr 55 min 47 sec) 
Heartbeat CPU 3 instructions: 3340000000 cycles: 4822843158 heartbeat IPC: 0.669581 cumulative IPC: 0.663563 (Simulation time: 12 hr 56 min 13 sec) 
Heartbeat CPU 1 instructions: 7570000003 cycles: 4826229150 heartbeat IPC: 1.60491 cumulative IPC: 1.55378 (Simulation time: 12 hr 56 min 44 sec) 
Heartbeat CPU 0 instructions: 3410000000 cycles: 4827568393 heartbeat IPC: 0.572022 cumulative IPC: 0.678759 (Simulation time: 12 hr 56 min 56 sec) 
Heartbeat CPU 2 instructions: 1200000000 cycles: 4829107165 heartbeat IPC: 0.208587 cumulative IPC: 0.21116 (Simulation time: 12 hr 57 min 11 sec) 
Finished CPU 2 instructions: 1000000002 cycles: 4733284095 cumulative IPC: 0.21127 (Simulation time: 12 hr 57 min 36 sec) 

CPU 0 Branch Prediction Accuracy: 97.8578% MPKI: 0.331946

CPU 1 Branch Prediction Accuracy: 96.9706% MPKI: 4.10752

CPU 2 Branch Prediction Accuracy: 99.2785% MPKI: 1.69996

CPU 3 Branch Prediction Accuracy: 96.5873% MPKI: 4.4855

ChampSim completed all CPUs

Total Simulation Statistics (not including warmup)

CPU 0 cumulative IPC: 0.678685 instructions: 3212407527 cycles: 4733284094
L1D TOTAL     ACCESS:  879680195  HIT:  676923305  MISS:  202756890
L1D LOAD      ACCESS:  330931539  HIT:  300174227  MISS:   30757312
L1D RFO       ACCESS:  548748656  HIT:  376749078  MISS:  171999578
L1D PREFETCH  ACCESS:          0  HIT:          0  MISS:          0
L1D WRITEBACK ACCESS:          0  HIT:          0  MISS:          0
L1I TOTAL     ACCESS:  765735492  HIT:  765735489  MISS:          3
L1I LOAD      ACCESS:  765735492  HIT:  765735489  MISS:          3
L1I RFO       ACCESS:          0  HIT:          0  MISS:          0
L1I PREFETCH  ACCESS:          0  HIT:          0  MISS:          0
L1I WRITEBACK ACCESS:          0  HIT:          0  MISS:          0
L2C TOTAL     ACCESS:  403885524  HIT:  246304567  MISS:  157580957
L2C LOAD      ACCESS:   30757315  HIT:   27740181  MISS:    3017134
L2C RFO       ACCESS:  171998271  HIT:   45195893  MISS:  126802378
L2C PREFETCH  ACCESS:   29130356  HIT:    1406207  MISS:   27724149
L2C WRITEBACK ACCESS:  171999582  HIT:  171962286  MISS:      37296

Avg Lookahead Depth:	2.92739
TOTAL: 1.09067e+08	L2C: 7.95924e+07	LLC: 2.94744e+07	GOOD_L2C: 5.69526e+07
Printing all the perceptron weights to: perc_weights_0.csv
LLC TOTAL     ACCESS:  284399862  HIT:  161577997  MISS:  122821865
LLC LOAD      ACCESS:    1423669  HIT:      26984  MISS:    1396685
LLC RFO       ACCESS:  126762571  HIT:   34651571  MISS:   92111000
LLC PREFETCH  ACCESS:   29375821  HIT:      66270  MISS:   29309551
LLC WRITEBACK ACCESS:  126837801  HIT:  126833172  MISS:       4629

CPU 1 cumulative IPC: 1.55385 instructions: 7354792716 cycles: 4733284095
L1D TOTAL     ACCESS: 2166404402  HIT: 2166404285  MISS:        117
L1D LOAD      ACCESS:  943165791  HIT:  943165745  MISS:         46
L1D RFO       ACCESS: 1223238611  HIT: 1223238540  MISS:         71
L1D PREFETCH  ACCESS:          0  HIT:          0  MISS:          0
L1D WRITEBACK ACCESS:          0  HIT:          0  MISS:          0
L1I TOTAL     ACCESS: 1616530466  HIT: 1616424451  MISS:     106015
L1I LOAD      ACCESS: 1616530466  HIT: 1616424451  MISS:     106015
L1I RFO       ACCESS:          0  HIT:          0  MISS:          0
L1I PREFETCH  ACCESS:          0  HIT:          0  MISS:          0
L1I WRITEBACK ACCESS:          0  HIT:          0  MISS:          0
L2C TOTAL     ACCESS:     245201  HIT:     243780  MISS:       1421
L2C LOAD      ACCESS:     106061  HIT:     105596  MISS:        465
L2C RFO       ACCESS:         71  HIT:          6  MISS:         65
L2C PREFETCH  ACCESS:     139069  HIT:     138178  MISS:        891
L2C WRITEBACK ACCESS:          0  HIT:          0  MISS:          0

Avg Lookahead Depth:	2.92739
TOTAL: 1.09067e+08	L2C: 7.95924e+07	LLC: 2.94744e+07	GOOD_L2C: 5.69526e+07
Printing all the perceptron weights to: perc_weights_0.csv
LLC TOTAL     ACCESS:       1787  HIT:        139  MISS:       1648
LLC LOAD      ACCESS:        378  HIT:         49  MISS:        329
LLC RFO       ACCESS:         65  HIT:          3  MISS:         62
LLC PREFETCH  ACCESS:       1344  HIT:         87  MISS:       1257
LLC WRITEBACK ACCESS:          0  HIT:          0  MISS:          0

CPU 2 cumulative IPC: 0.21127 instructions: 1000000002 cycles: 4733284095
L1D TOTAL     ACCESS:  233546735  HIT:  205404868  MISS:   28141867
L1D LOAD      ACCESS:  187492206  HIT:  159935891  MISS:   27556315
L1D RFO       ACCESS:   46054529  HIT:   45468977  MISS:     585552
L1D PREFETCH  ACCESS:          0  HIT:          0  MISS:          0
L1D WRITEBACK ACCESS:          0  HIT:          0  MISS:          0
L1I TOTAL     ACCESS:  320515700  HIT:  317086837  MISS:    3428863
L1I LOAD      ACCESS:  320515700  HIT:  317086837  MISS:    3428863
L1I RFO       ACCESS:          0  HIT:          0  MISS:          0
L1I PREFETCH  ACCESS:          0  HIT:          0  MISS:          0
L1I WRITEBACK ACCESS:          0  HIT:          0  MISS:          0
L2C TOTAL     ACCESS:   48787600  HIT:   15603923  MISS:   33183677
L2C LOAD      ACCESS:   30984526  HIT:    8764044  MISS:   22220482
L2C RFO       ACCESS:     585475  HIT:     280541  MISS:     304934
L2C PREFETCH  ACCESS:   15999950  HIT:    5356904  MISS:   10643046
L2C WRITEBACK ACCESS:    1217649  HIT:    1202434  MISS:      15215

Avg Lookahead Depth:	2.92739
TOTAL: 1.09067e+08	L2C: 7.95924e+07	LLC: 2.94744e+07	GOOD_L2C: 5.69526e+07
Printing all the perceptron weights to: perc_weights_0.csv
LLC TOTAL     ACCESS:   43223076  HIT:    8531924  MISS:   34691152
LLC LOAD      ACCESS:   19920022  HIT:    3248161  MISS:   16671861
LLC RFO       ACCESS:     304519  HIT:      84311  MISS:     220208
LLC PREFETCH  ACCESS:   22440230  HIT:    4643327  MISS:   17796903
LLC WRITEBACK ACCESS:     558305  HIT:     556125  MISS:       2180

CPU 3 cumulative IPC: 0.663586 instructions: 3140939896 cycles: 4733284095
L1D TOTAL     ACCESS:  825379089  HIT:  802585977  MISS:   22793112
L1D LOAD      ACCESS:  496009495  HIT:  474180349  MISS:   21829146
L1D RFO       ACCESS:  329369594  HIT:  328405628  MISS:     963966
L1D PREFETCH  ACCESS:          0  HIT:          0  MISS:          0
L1D WRITEBACK ACCESS:          0  HIT:          0  MISS:          0
L1I TOTAL     ACCESS:  697250603  HIT:  697250600  MISS:          3
L1I LOAD      ACCESS:  697250603  HIT:  697250600  MISS:          3
L1I RFO       ACCESS:          0  HIT:          0  MISS:          0
L1I PREFETCH  ACCESS:          0  HIT:          0  MISS:          0
L1I WRITEBACK ACCESS:          0  HIT:          0  MISS:          0
L2C TOTAL     ACCESS:   49637802  HIT:   29508236  MISS:   20129566
L2C LOAD      ACCESS:   21829149  HIT:   14274769  MISS:    7554380
L2C RFO       ACCESS:     963926  HIT:     405222  MISS:     558704
L2C PREFETCH  ACCESS:   25312916  HIT:   13314897  MISS:   11998019
L2C WRITEBACK ACCESS:    1531811  HIT:    1513348  MISS:      18463

Avg Lookahead Depth:	2.92739
TOTAL: 1.09067e+08	L2C: 7.95924e+07	LLC: 2.94744e+07	GOOD_L2C: 5.69526e+07
Printing all the perceptron weights to: perc_weights_0.csv
LLC TOTAL     ACCESS:   26429946  HIT:   24492017  MISS:    1937929
LLC LOAD      ACCESS:    7296506  HIT:    7066457  MISS:     230049
LLC RFO       ACCESS:     558537  HIT:     123068  MISS:     435469
LLC PREFETCH  ACCESS:   17728304  HIT:   16497346  MISS:    1230958
LLC WRITEBACK ACCESS:     846599  HIT:     805146  MISS:      41453

Region of Interest Statistics

CPU 0 cumulative IPC: 0.77663 instructions: 1000000000 cycles: 1287613836
L1D TOTAL     ACCESS:  267703534  HIT:  214070861  MISS:   53632673
L1D LOAD      ACCESS:  104383822  HIT:   96251051  MISS:    8132771
L1D RFO       ACCESS:  163319712  HIT:  117819810  MISS:   45499902
L1D PREFETCH  ACCESS:          0  HIT:          0  MISS:          0
L1D WRITEBACK ACCESS:          0  HIT:          0  MISS:          0
L1D PREFETCH  REQUESTED:          0  ISSUED:          0  USEFUL:          0  USELESS:          0
L1I TOTAL     ACCESS:  237110067  HIT:  237110064  MISS:          3
L1I LOAD      ACCESS:  237110067  HIT:  237110064  MISS:          3
L1I RFO       ACCESS:          0  HIT:          0  MISS:          0
L1I PREFETCH  ACCESS:          0  HIT:          0  MISS:          0
L1I WRITEBACK ACCESS:          0  HIT:          0  MISS:          0
L1I PREFETCH  REQUESTED:          0  ISSUED:          0  USEFUL:          0  USELESS:          0
L2C TOTAL     ACCESS:  106933487  HIT:   65209331  MISS:   41724156
L2C LOAD      ACCESS:    8132774  HIT:    7430773  MISS:     702001
L2C RFO       ACCESS:   45499649  HIT:   11912275  MISS:   33587374
L2C PREFETCH  ACCESS:    7801160  HIT:     373202  MISS:    7427958
L2C WRITEBACK ACCESS:   45499904  HIT:   45493081  MISS:       6823
L2C PREFETCH  REQUESTED:   34581767  ISSUED:   34581767  USEFUL:   30030971  USELESS:      14511
LLC TOTAL     ACCESS:   75314659  HIT:   42819890  MISS:   32494769
LLC LOAD      ACCESS:     348368  HIT:       5129  MISS:     343239
LLC RFO       ACCESS:   33576792  HIT:    9206798  MISS:   24369994
LLC PREFETCH  ACCESS:    7796030  HIT:      15512  MISS:    7780518
LLC WRITEBACK ACCESS:   33593469  HIT:   33592451  MISS:       1018
LLC PREFETCH  REQUESTED:          0  ISSUED:          0  USEFUL:    1526551  USELESS:   52686858
Major fault: 0 Minor fault: 631850

CPU 1 cumulative IPC: 1.54709 instructions: 1000000000 cycles: 646375732
L1D TOTAL     ACCESS:  290728710  HIT:  290728594  MISS:        116
L1D LOAD      ACCESS:  126672788  HIT:  126672743  MISS:         45
L1D RFO       ACCESS:  164055922  HIT:  164055851  MISS:         71
L1D PREFETCH  ACCESS:          0  HIT:          0  MISS:          0
L1D WRITEBACK ACCESS:          0  HIT:          0  MISS:          0
L1D PREFETCH  REQUESTED:          0  ISSUED:          0  USEFUL:          0  USELESS:          0
L1I TOTAL     ACCESS:  220195726  HIT:  220173054  MISS:      22672
L1I LOAD      ACCESS:  220195726  HIT:  220173054  MISS:      22672
L1I RFO       ACCESS:          0  HIT:          0  MISS:          0
L1I PREFETCH  ACCESS:          0  HIT:          0  MISS:          0
L1I WRITEBACK ACCESS:          0  HIT:          0  MISS:          0
L1I PREFETCH  REQUESTED:          0  ISSUED:          0  USEFUL:          0  USELESS:          0
L2C TOTAL     ACCESS:      52099  HIT:      50761  MISS:       1338
L2C LOAD      ACCESS:      22717  HIT:      22253  MISS:        464
L2C RFO       ACCESS:         71  HIT:          6  MISS:         65
L2C PREFETCH  ACCESS:      29311  HIT:      28502  MISS:        809
L2C WRITEBACK ACCESS:          0  HIT:          0  MISS:          0
L2C PREFETCH  REQUESTED:     154654  ISSUED:     154654  USEFUL:        745  USELESS:          0
LLC TOTAL     ACCESS:       1614  HIT:        134  MISS:       1480
LLC LOAD      ACCESS:        377  HIT:         49  MISS:        328
LLC RFO       ACCESS:         65  HIT:          3  MISS:         62
LLC PREFETCH  ACCESS:       1172  HIT:         82  MISS:       1090
LLC WRITEBACK ACCESS:          0  HIT:          0  MISS:          0
LLC PREFETCH  REQUESTED:          0  ISSUED:          0  USEFUL:    1526551  USELESS:   52686858
Major fault: 0 Minor fault: 48

CPU 2 cumulative IPC: 0.21127 instructions: 1000000002 cycles: 4733284095
L1D TOTAL     ACCESS:  233546735  HIT:  205404868  MISS:   28141867
L1D LOAD      ACCESS:  187492206  HIT:  159935891  MISS:   27556315
L1D RFO       ACCESS:   46054529  HIT:   45468977  MISS:     585552
L1D PREFETCH  ACCESS:          0  HIT:          0  MISS:          0
L1D WRITEBACK ACCESS:          0  HIT:          0  MISS:          0
L1D PREFETCH  REQUESTED:          0  ISSUED:          0  USEFUL:          0  USELESS:          0
L1I TOTAL     ACCESS:  320515700  HIT:  317086837  MISS:    3428863
L1I LOAD      ACCESS:  320515700  HIT:  317086837  MISS:    3428863
L1I RFO       ACCESS:          0  HIT:          0  MISS:          0
L1I PREFETCH  ACCESS:          0  HIT:          0  MISS:          0
L1I WRITEBACK ACCESS:          0  HIT:          0  MISS:          0
L1I PREFETCH  REQUESTED:          0  ISSUED:          0  USEFUL:          0  USELESS:          0
L2C TOTAL     ACCESS:   48787600  HIT:   15603923  MISS:   33183677
L2C LOAD      ACCESS:   30984526  HIT:    8764044  MISS:   22220482
L2C RFO       ACCESS:     585475  HIT:     280541  MISS:     304934
L2C PREFETCH  ACCESS:   15999950  HIT:    5356904  MISS:   10643046
L2C WRITEBACK ACCESS:    1217649  HIT:    1202434  MISS:      15215
L2C PREFETCH  REQUESTED:   40247170  ISSUED:   40233639  USEFUL:    6100798  USELESS:    7276174
LLC TOTAL     ACCESS:   43223076  HIT:    8531924  MISS:   34691152
LLC LOAD      ACCESS:   19920022  HIT:    3248161  MISS:   16671861
LLC RFO       ACCESS:     304519  HIT:      84311  MISS:     220208
LLC PREFETCH  ACCESS:   22440230  HIT:    4643327  MISS:   17796903
LLC WRITEBACK ACCESS:     558305  HIT:     556125  MISS:       2180
LLC PREFETCH  REQUESTED:          0  ISSUED:          0  USEFUL:    1526551  USELESS:   52686858
Major fault: 0 Minor fault: 13320

CPU 3 cumulative IPC: 0.659136 instructions: 1000000002 cycles: 1517138296
L1D TOTAL     ACCESS:  263970422  HIT:  256644140  MISS:    7326282
L1D LOAD      ACCESS:  158285165  HIT:  151256232  MISS:    7028933
L1D RFO       ACCESS:  105685257  HIT:  105387908  MISS:     297349
L1D PREFETCH  ACCESS:          0  HIT:          0  MISS:          0
L1D WRITEBACK ACCESS:          0  HIT:          0  MISS:          0
L1D PREFETCH  REQUESTED:          0  ISSUED:          0  USEFUL:          0  USELESS:          0
L1I TOTAL     ACCESS:  222380950  HIT:  222380947  MISS:          3
L1I LOAD      ACCESS:  222380950  HIT:  222380947  MISS:          3
L1I RFO       ACCESS:          0  HIT:          0  MISS:          0
L1I PREFETCH  ACCESS:          0  HIT:          0  MISS:          0
L1I WRITEBACK ACCESS:          0  HIT:          0  MISS:          0
L1I PREFETCH  REQUESTED:          0  ISSUED:          0  USEFUL:          0  USELESS:          0
L2C TOTAL     ACCESS:   15747477  HIT:    8655333  MISS:    7092144
L2C LOAD      ACCESS:    7028936  HIT:    4343054  MISS:    2685882
L2C RFO       ACCESS:     297330  HIT:     116813  MISS:     180517
L2C PREFETCH  ACCESS:    7946390  HIT:    3727729  MISS:    4218661
L2C WRITEBACK ACCESS:     474821  HIT:     467737  MISS:       7084
L2C PREFETCH  REQUESTED:   34083207  ISSUED:   34083207  USEFUL:    9888810  USELESS:    2737858
LLC TOTAL     ACCESS:    9278333  HIT:    8674168  MISS:     604165
LLC LOAD      ACCESS:    2596807  HIT:    2529002  MISS:      67805
LLC RFO       ACCESS:     180481  HIT:      45365  MISS:     135116
LLC PREFETCH  ACCESS:    6214660  HIT:    5820940  MISS:     393720
LLC WRITEBACK ACCESS:     286385  HIT:     278861  MISS:       7524
LLC PREFETCH  REQUESTED:          0  ISSUED:          0  USEFUL:    1526551  USELESS:   52686858
Major fault: 0 Minor fault: 4854

Avg Lookahead Depth:	2.92739
TOTAL: 1.09067e+08	L2C: 7.95924e+07	LLC: 2.94744e+07	GOOD_L2C: 5.69526e+07
Printing all the perceptron weights to: perc_weights_0.csv

Avg Lookahead Depth:	2.92739
TOTAL: 1.09067e+08	L2C: 7.95924e+07	LLC: 2.94744e+07	GOOD_L2C: 5.69526e+07
Printing all the perceptron weights to: perc_weights_0.csv

Avg Lookahead Depth:	2.92739
TOTAL: 1.09067e+08	L2C: 7.95924e+07	LLC: 2.94744e+07	GOOD_L2C: 5.69526e+07
Printing all the perceptron weights to: perc_weights_0.csv

Avg Lookahead Depth:	2.92739
TOTAL: 1.09067e+08	L2C: 7.95924e+07	LLC: 2.94744e+07	GOOD_L2C: 5.69526e+07
Printing all the perceptron weights to: perc_weights_0.csv

DRAM Statistics
 CHANNEL 0
 RQ ROW_BUFFER_HIT:   20441826  ROW_BUFFER_MISS:   59218892
 DBUS_CONGESTED:  161445978
 WQ ROW_BUFFER_HIT:    4239946  ROW_BUFFER_MISS:   42215442  FULL:          0

 CHANNEL 1
 RQ ROW_BUFFER_HIT:   20471770  ROW_BUFFER_MISS:   59271814
 DBUS_CONGESTED:  161445978
 WQ ROW_BUFFER_HIT:    4232047  ROW_BUFFER_MISS:   42215981  FULL:          0

 AVG_CONGESTED_CYCLE: 13
