Initialize SIGNATURE TABLE
ST_SET: 1
ST_WAY: 256
ST_TAG_BIT: 16
ST_TAG_MASK: ffff

Initialize PATTERN TABLE
PT_SET: 512
PT_WAY: 4
SIG_DELTA_BIT: 7
C_SIG_BIT: 4
C_DELTA_BIT: 4

Initialize PREFETCH FILTER
FILTER_SET: 1024

*** ChampSim Multicore Out-of-Order Simulator ***

Warmup Instructions: 200000000
Simulation Instructions: 1000000000
Number of CPUs: 4
LLC sets: 8192
LLC ways: 16
Off-chip DRAM Size: 8192 MB Channels: 2 Width: 64-bit Data Rate: 1600 MT/s

CPU 0 runs /scratch/user/djimenez/champsim-traces/speccpu2017/xz/644.nab_s/644.nab_s-9322B.champsimtrace.xz
CPU 1 runs /scratch/user/djimenez/champsim-traces/speccpu2017/xz/607.cactuBSSN_s/607.cactuBSSN_s-4248B.champsimtrace.xz
CPU 2 runs /scratch/user/djimenez/champsim-traces/speccpu2017/xz/620.omnetpp_s/620.omnetpp_s-874B.champsimtrace.xz
CPU 3 runs /scratch/user/djimenez/champsim-traces/speccpu2017/xz/619.lbm_s/619.lbm_s-4268B.champsimtrace.xz
Heartbeat CPU 1 instructions: 10000002 cycles: 4524536 heartbeat IPC: 2.21017 cumulative IPC: 2.21017 (Simulation time: 0 hr 2 min 50 sec) 
Heartbeat CPU 3 instructions: 10000001 cycles: 4898553 heartbeat IPC: 2.04142 cumulative IPC: 2.04142 (Simulation time: 0 hr 3 min 3 sec) 
Heartbeat CPU 0 instructions: 10000001 cycles: 5496504 heartbeat IPC: 1.81934 cumulative IPC: 1.81934 (Simulation time: 0 hr 3 min 23 sec) 
Heartbeat CPU 2 instructions: 10000000 cycles: 7366279 heartbeat IPC: 1.35754 cumulative IPC: 1.35754 (Simulation time: 0 hr 4 min 26 sec) 
Heartbeat CPU 1 instructions: 20000000 cycles: 9050985 heartbeat IPC: 2.20924 cumulative IPC: 2.2097 (Simulation time: 0 hr 5 min 30 sec) 
Heartbeat CPU 3 instructions: 20000000 cycles: 9790436 heartbeat IPC: 2.0442 cumulative IPC: 2.04281 (Simulation time: 0 hr 5 min 59 sec) 
Heartbeat CPU 0 instructions: 20000000 cycles: 10992610 heartbeat IPC: 1.81947 cumulative IPC: 1.8194 (Simulation time: 0 hr 6 min 40 sec) 
Heartbeat CPU 1 instructions: 30000003 cycles: 13575317 heartbeat IPC: 2.21027 cumulative IPC: 2.20989 (Simulation time: 0 hr 8 min 46 sec) 
Heartbeat CPU 3 instructions: 30000000 cycles: 14670494 heartbeat IPC: 2.04916 cumulative IPC: 2.04492 (Simulation time: 0 hr 9 min 23 sec) 
Heartbeat CPU 2 instructions: 20000000 cycles: 14715163 heartbeat IPC: 1.36075 cumulative IPC: 1.35914 (Simulation time: 0 hr 9 min 25 sec) 
Heartbeat CPU 0 instructions: 30000003 cycles: 16490104 heartbeat IPC: 1.81901 cumulative IPC: 1.81927 (Simulation time: 0 hr 10 min 30 sec) 
Heartbeat CPU 1 instructions: 40000000 cycles: 18099742 heartbeat IPC: 2.21022 cumulative IPC: 2.20998 (Simulation time: 0 hr 11 min 24 sec) 
Heartbeat CPU 3 instructions: 40000000 cycles: 19576210 heartbeat IPC: 2.03844 cumulative IPC: 2.0433 (Simulation time: 0 hr 12 min 18 sec) 
Heartbeat CPU 0 instructions: 40000000 cycles: 21982304 heartbeat IPC: 1.82076 cumulative IPC: 1.81965 (Simulation time: 0 hr 14 min 2 sec) 
Heartbeat CPU 2 instructions: 30000001 cycles: 22065598 heartbeat IPC: 1.36046 cumulative IPC: 1.35958 (Simulation time: 0 hr 14 min 5 sec) 
Heartbeat CPU 1 instructions: 50000000 cycles: 22624286 heartbeat IPC: 2.21017 cumulative IPC: 2.21001 (Simulation time: 0 hr 14 min 27 sec) 
Heartbeat CPU 3 instructions: 50000001 cycles: 24488483 heartbeat IPC: 2.03572 cumulative IPC: 2.04178 (Simulation time: 0 hr 15 min 34 sec) 
Heartbeat CPU 1 instructions: 60000000 cycles: 26648977 heartbeat IPC: 2.48466 cumulative IPC: 2.25149 (Simulation time: 0 hr 16 min 57 sec) 
Heartbeat CPU 0 instructions: 50000002 cycles: 27472783 heartbeat IPC: 1.82134 cumulative IPC: 1.81998 (Simulation time: 0 hr 17 min 29 sec) 
Heartbeat CPU 3 instructions: 60000000 cycles: 29420055 heartbeat IPC: 2.02775 cumulative IPC: 2.03943 (Simulation time: 0 hr 18 min 42 sec) 
Heartbeat CPU 2 instructions: 40000000 cycles: 29425701 heartbeat IPC: 1.35868 cumulative IPC: 1.35936 (Simulation time: 0 hr 18 min 42 sec) 
Heartbeat CPU 1 instructions: 70000001 cycles: 30468326 heartbeat IPC: 2.61825 cumulative IPC: 2.29747 (Simulation time: 0 hr 19 min 20 sec) 
Heartbeat CPU 0 instructions: 60000000 cycles: 32963122 heartbeat IPC: 1.82138 cumulative IPC: 1.82022 (Simulation time: 0 hr 20 min 51 sec) 
Heartbeat CPU 1 instructions: 80000000 cycles: 34289118 heartbeat IPC: 2.61726 cumulative IPC: 2.3331 (Simulation time: 0 hr 21 min 39 sec) 
Heartbeat CPU 3 instructions: 70000003 cycles: 34340884 heartbeat IPC: 2.03218 cumulative IPC: 2.03839 (Simulation time: 0 hr 21 min 41 sec) 
Heartbeat CPU 2 instructions: 50000000 cycles: 36785946 heartbeat IPC: 1.35865 cumulative IPC: 1.35921 (Simulation time: 0 hr 23 min 27 sec) 
Heartbeat CPU 1 instructions: 90000003 cycles: 38108810 heartbeat IPC: 2.61801 cumulative IPC: 2.36166 (Simulation time: 0 hr 24 min 19 sec) 
Heartbeat CPU 0 instructions: 70000000 cycles: 38453685 heartbeat IPC: 1.82131 cumulative IPC: 1.82037 (Simulation time: 0 hr 24 min 32 sec) 
Heartbeat CPU 3 instructions: 80000000 cycles: 39236642 heartbeat IPC: 2.04258 cumulative IPC: 2.03891 (Simulation time: 0 hr 25 min 1 sec) 
Heartbeat CPU 1 instructions: 100000000 cycles: 41928814 heartbeat IPC: 2.6178 cumulative IPC: 2.38499 (Simulation time: 0 hr 26 min 46 sec) 
Heartbeat CPU 0 instructions: 80000000 cycles: 43940348 heartbeat IPC: 1.8226 cumulative IPC: 1.82065 (Simulation time: 0 hr 29 min 4 sec) 
Heartbeat CPU 3 instructions: 90000000 cycles: 44150006 heartbeat IPC: 2.03527 cumulative IPC: 2.0385 (Simulation time: 0 hr 29 min 12 sec) 
Heartbeat CPU 2 instructions: 60000000 cycles: 44152854 heartbeat IPC: 1.35742 cumulative IPC: 1.35892 (Simulation time: 0 hr 29 min 12 sec) 
Heartbeat CPU 1 instructions: 110000000 cycles: 45749135 heartbeat IPC: 2.61758 cumulative IPC: 2.40442 (Simulation time: 0 hr 30 min 10 sec) 
Heartbeat CPU 3 instructions: 100000000 cycles: 49045118 heartbeat IPC: 2.04285 cumulative IPC: 2.03894 (Simulation time: 0 hr 32 min 11 sec) 
Heartbeat CPU 0 instructions: 90000003 cycles: 49433021 heartbeat IPC: 1.82061 cumulative IPC: 1.82065 (Simulation time: 0 hr 32 min 26 sec) 
Heartbeat CPU 1 instructions: 120000000 cycles: 49569541 heartbeat IPC: 2.61752 cumulative IPC: 2.42084 (Simulation time: 0 hr 32 min 31 sec) 
Heartbeat CPU 2 instructions: 70000000 cycles: 51508600 heartbeat IPC: 1.35948 cumulative IPC: 1.359 (Simulation time: 0 hr 33 min 42 sec) 
Heartbeat CPU 1 instructions: 130000002 cycles: 53389438 heartbeat IPC: 2.61787 cumulative IPC: 2.43494 (Simulation time: 0 hr 34 min 51 sec) 
Heartbeat CPU 3 instructions: 110000002 cycles: 53959011 heartbeat IPC: 2.03505 cumulative IPC: 2.03858 (Simulation time: 0 hr 35 min 12 sec) 
Heartbeat CPU 0 instructions: 100000000 cycles: 54926361 heartbeat IPC: 1.82039 cumulative IPC: 1.82062 (Simulation time: 0 hr 35 min 47 sec) 
Heartbeat CPU 1 instructions: 140000000 cycles: 57209917 heartbeat IPC: 2.61747 cumulative IPC: 2.44713 (Simulation time: 0 hr 37 min 11 sec) 
Heartbeat CPU 2 instructions: 80000000 cycles: 58858498 heartbeat IPC: 1.36056 cumulative IPC: 1.35919 (Simulation time: 0 hr 38 min 12 sec) 
Heartbeat CPU 3 instructions: 120000000 cycles: 58889498 heartbeat IPC: 2.0282 cumulative IPC: 2.03771 (Simulation time: 0 hr 38 min 13 sec) 
Heartbeat CPU 0 instructions: 110000002 cycles: 60413868 heartbeat IPC: 1.82232 cumulative IPC: 1.82077 (Simulation time: 0 hr 39 min 9 sec) 
Heartbeat CPU 1 instructions: 150000003 cycles: 61030129 heartbeat IPC: 2.61766 cumulative IPC: 2.4578 (Simulation time: 0 hr 39 min 31 sec) 
Heartbeat CPU 3 instructions: 130000003 cycles: 63785256 heartbeat IPC: 2.04259 cumulative IPC: 2.03809 (Simulation time: 0 hr 41 min 12 sec) 
Heartbeat CPU 1 instructions: 160000000 cycles: 64850549 heartbeat IPC: 2.61751 cumulative IPC: 2.46721 (Simulation time: 0 hr 41 min 51 sec) 
Heartbeat CPU 0 instructions: 120000000 cycles: 65905934 heartbeat IPC: 1.82081 cumulative IPC: 1.82078 (Simulation time: 0 hr 42 min 29 sec) 
Heartbeat CPU 2 instructions: 90000000 cycles: 66211297 heartbeat IPC: 1.36003 cumulative IPC: 1.35928 (Simulation time: 0 hr 42 min 40 sec) 
Heartbeat CPU 1 instructions: 170000002 cycles: 68670899 heartbeat IPC: 2.61756 cumulative IPC: 2.47558 (Simulation time: 0 hr 44 min 10 sec) 
Heartbeat CPU 3 instructions: 140000000 cycles: 68691169 heartbeat IPC: 2.03836 cumulative IPC: 2.03811 (Simulation time: 0 hr 44 min 11 sec) 
Heartbeat CPU 0 instructions: 130000001 cycles: 71393976 heartbeat IPC: 1.82214 cumulative IPC: 1.82088 (Simulation time: 0 hr 45 min 50 sec) 
Heartbeat CPU 1 instructions: 180000000 cycles: 72491228 heartbeat IPC: 2.61758 cumulative IPC: 2.48306 (Simulation time: 0 hr 46 min 30 sec) 
Heartbeat CPU 2 instructions: 100000000 cycles: 73583711 heartbeat IPC: 1.35641 cumulative IPC: 1.359 (Simulation time: 0 hr 47 min 10 sec) 
Heartbeat CPU 3 instructions: 150000000 cycles: 73618279 heartbeat IPC: 2.02959 cumulative IPC: 2.03754 (Simulation time: 0 hr 47 min 12 sec) 
Heartbeat CPU 1 instructions: 190000001 cycles: 76311945 heartbeat IPC: 2.61731 cumulative IPC: 2.48978 (Simulation time: 0 hr 48 min 51 sec) 
Heartbeat CPU 0 instructions: 140000000 cycles: 76883344 heartbeat IPC: 1.8217 cumulative IPC: 1.82094 (Simulation time: 0 hr 49 min 12 sec) 
Heartbeat CPU 3 instructions: 160000000 cycles: 78558854 heartbeat IPC: 2.02406 cumulative IPC: 2.03669 (Simulation time: 0 hr 50 min 14 sec) 
Heartbeat CPU 1 instructions: 200000000 cycles: 80132411 heartbeat IPC: 2.61748 cumulative IPC: 2.49587 (Simulation time: 0 hr 51 min 12 sec) 
Heartbeat CPU 2 instructions: 110000003 cycles: 80919484 heartbeat IPC: 1.36318 cumulative IPC: 1.35938 (Simulation time: 0 hr 51 min 41 sec) 
Heartbeat CPU 0 instructions: 150000000 cycles: 82382531 heartbeat IPC: 1.81845 cumulative IPC: 1.82077 (Simulation time: 0 hr 52 min 34 sec) 
Heartbeat CPU 3 instructions: 170000000 cycles: 83489700 heartbeat IPC: 2.02805 cumulative IPC: 2.03618 (Simulation time: 0 hr 53 min 15 sec) 
Heartbeat CPU 1 instructions: 210000000 cycles: 83952224 heartbeat IPC: 2.61793 cumulative IPC: 0.119115 (Simulation time: 0 hr 53 min 32 sec) 
Heartbeat CPU 1 instructions: 220000000 cycles: 87772134 heartbeat IPC: 2.61786 cumulative IPC: 0.227863 (Simulation time: 0 hr 55 min 52 sec) 
Heartbeat CPU 0 instructions: 160000000 cycles: 87873935 heartbeat IPC: 1.82103 cumulative IPC: 1.82079 (Simulation time: 0 hr 55 min 56 sec) 
Heartbeat CPU 2 instructions: 120000000 cycles: 88275205 heartbeat IPC: 1.35949 cumulative IPC: 1.35939 (Simulation time: 0 hr 56 min 10 sec) 
Heartbeat CPU 3 instructions: 180000000 cycles: 88415133 heartbeat IPC: 2.03028 cumulative IPC: 2.03585 (Simulation time: 0 hr 56 min 15 sec) 
Heartbeat CPU 1 instructions: 230000000 cycles: 91593148 heartbeat IPC: 2.61711 cumulative IPC: 0.327535 (Simulation time: 0 hr 58 min 8 sec) 
Heartbeat CPU 3 instructions: 190000001 cycles: 93349985 heartbeat IPC: 2.0264 cumulative IPC: 2.03535 (Simulation time: 0 hr 59 min 12 sec) 
Heartbeat CPU 0 instructions: 170000002 cycles: 93367896 heartbeat IPC: 1.82018 cumulative IPC: 1.82075 (Simulation time: 0 hr 59 min 13 sec) 
Heartbeat CPU 1 instructions: 240000000 cycles: 95412722 heartbeat IPC: 2.61809 cumulative IPC: 0.419231 (Simulation time: 1 hr 0 min 27 sec) 
Heartbeat CPU 2 instructions: 130000000 cycles: 95614602 heartbeat IPC: 1.36251 cumulative IPC: 1.35962 (Simulation time: 1 hr 0 min 35 sec) 
Heartbeat CPU 3 instructions: 200000000 cycles: 98275395 heartbeat IPC: 2.03029 cumulative IPC: 2.0351 (Simulation time: 1 hr 2 min 12 sec) 
Heartbeat CPU 0 instructions: 180000000 cycles: 98863955 heartbeat IPC: 1.81949 cumulative IPC: 1.82068 (Simulation time: 1 hr 2 min 33 sec) 
Heartbeat CPU 1 instructions: 250000003 cycles: 99232722 heartbeat IPC: 2.6178 cumulative IPC: 0.503866 (Simulation time: 1 hr 2 min 47 sec) 
Heartbeat CPU 2 instructions: 140000000 cycles: 102979243 heartbeat IPC: 1.35784 cumulative IPC: 1.3595 (Simulation time: 1 hr 4 min 55 sec) 
Heartbeat CPU 1 instructions: 260000000 cycles: 103052925 heartbeat IPC: 2.61766 cumulative IPC: 0.582225 (Simulation time: 1 hr 4 min 58 sec) 
Heartbeat CPU 3 instructions: 210000001 cycles: 103225811 heartbeat IPC: 2.02003 cumulative IPC: 0.096875 (Simulation time: 1 hr 5 min 3 sec) 
Heartbeat CPU 0 instructions: 190000000 cycles: 104357850 heartbeat IPC: 1.8202 cumulative IPC: 1.82066 (Simulation time: 1 hr 5 min 41 sec) 
Heartbeat CPU 1 instructions: 270000002 cycles: 106873152 heartbeat IPC: 2.61765 cumulative IPC: 0.654982 (Simulation time: 1 hr 7 min 4 sec) 
Heartbeat CPU 3 instructions: 220000000 cycles: 108173289 heartbeat IPC: 2.02123 cumulative IPC: 0.184889 (Simulation time: 1 hr 7 min 47 sec) 
Heartbeat CPU 0 instructions: 200000000 cycles: 109854961 heartbeat IPC: 1.81914 cumulative IPC: 1.82058 (Simulation time: 1 hr 8 min 43 sec) 
Heartbeat CPU 2 instructions: 150000001 cycles: 110351472 heartbeat IPC: 1.35644 cumulative IPC: 1.35929 (Simulation time: 1 hr 8 min 59 sec) 
Heartbeat CPU 1 instructions: 280000000 cycles: 110693440 heartbeat IPC: 2.6176 cumulative IPC: 0.722717 (Simulation time: 1 hr 9 min 11 sec) 
Heartbeat CPU 3 instructions: 230000003 cycles: 113105280 heartbeat IPC: 2.02758 cumulative IPC: 0.26524 (Simulation time: 1 hr 10 min 30 sec) 
Heartbeat CPU 1 instructions: 290000002 cycles: 114513689 heartbeat IPC: 2.61763 cumulative IPC: 0.785932 (Simulation time: 1 hr 11 min 17 sec) 
Heartbeat CPU 0 instructions: 210000000 cycles: 115348280 heartbeat IPC: 1.82039 cumulative IPC: 0.086694 (Simulation time: 1 hr 11 min 45 sec) 
Heartbeat CPU 2 instructions: 160000000 cycles: 117728289 heartbeat IPC: 1.3556 cumulative IPC: 1.35906 (Simulation time: 1 hr 13 min 3 sec) 
Heartbeat CPU 3 instructions: 240000000 cycles: 118044520 heartbeat IPC: 2.0246 cumulative IPC: 0.338855 (Simulation time: 1 hr 13 min 14 sec) 
Heartbeat CPU 1 instructions: 300000000 cycles: 118333856 heartbeat IPC: 2.61769 cumulative IPC: 0.845067 (Simulation time: 1 hr 13 min 23 sec) 
Heartbeat CPU 0 instructions: 220000000 cycles: 120838152 heartbeat IPC: 1.82154 cumulative IPC: 0.165511 (Simulation time: 1 hr 14 min 46 sec) 
Heartbeat CPU 1 instructions: 310000000 cycles: 122153999 heartbeat IPC: 2.6177 cumulative IPC: 0.900503 (Simulation time: 1 hr 15 min 29 sec) 
Heartbeat CPU 3 instructions: 250000000 cycles: 122949615 heartbeat IPC: 2.0387 cumulative IPC: 0.406671 (Simulation time: 1 hr 15 min 55 sec) 
Heartbeat CPU 2 instructions: 170000003 cycles: 125082609 heartbeat IPC: 1.35975 cumulative IPC: 1.3591 (Simulation time: 1 hr 17 min 5 sec) 
Heartbeat CPU 1 instructions: 320000000 cycles: 125974327 heartbeat IPC: 2.61758 cumulative IPC: 0.952575 (Simulation time: 1 hr 17 min 35 sec) 
Heartbeat CPU 0 instructions: 230000002 cycles: 126325804 heartbeat IPC: 1.82227 cumulative IPC: 0.237481 (Simulation time: 1 hr 17 min 47 sec) 
Heartbeat CPU 3 instructions: 260000000 cycles: 127860965 heartbeat IPC: 2.0361 cumulative IPC: 0.46926 (Simulation time: 1 hr 18 min 41 sec) 
Heartbeat CPU 1 instructions: 330000001 cycles: 129795395 heartbeat IPC: 2.61707 cumulative IPC: 1.00158 (Simulation time: 1 hr 19 min 52 sec) 
Heartbeat CPU 0 instructions: 240000000 cycles: 131807376 heartbeat IPC: 1.82429 cumulative IPC: 0.303473 (Simulation time: 1 hr 21 min 5 sec) 
Heartbeat CPU 2 instructions: 180000000 cycles: 132446851 heartbeat IPC: 1.35791 cumulative IPC: 1.35904 (Simulation time: 1 hr 21 min 28 sec) 
Heartbeat CPU 3 instructions: 270000001 cycles: 132768046 heartbeat IPC: 2.03787 cumulative IPC: 0.527235 (Simulation time: 1 hr 21 min 40 sec) 
Heartbeat CPU 1 instructions: 340000000 cycles: 133615947 heartbeat IPC: 2.61742 cumulative IPC: 1.04778 (Simulation time: 1 hr 22 min 11 sec) 
Heartbeat CPU 0 instructions: 250000000 cycles: 137302214 heartbeat IPC: 1.81989 cumulative IPC: 0.36416 (Simulation time: 1 hr 24 min 25 sec) 
Heartbeat CPU 1 instructions: 350000002 cycles: 137436045 heartbeat IPC: 2.61773 cumulative IPC: 1.09142 (Simulation time: 1 hr 24 min 30 sec) 
Heartbeat CPU 3 instructions: 280000000 cycles: 137656687 heartbeat IPC: 2.04556 cumulative IPC: 0.581156 (Simulation time: 1 hr 24 min 38 sec) 
Heartbeat CPU 2 instructions: 190000002 cycles: 139796307 heartbeat IPC: 1.36065 cumulative IPC: 1.35912 (Simulation time: 1 hr 25 min 56 sec) 
Heartbeat CPU 1 instructions: 360000000 cycles: 141256302 heartbeat IPC: 2.61762 cumulative IPC: 1.13269 (Simulation time: 1 hr 26 min 49 sec) 
Heartbeat CPU 3 instructions: 290000001 cycles: 142565967 heartbeat IPC: 2.03696 cumulative IPC: 0.631287 (Simulation time: 1 hr 27 min 33 sec) 
Heartbeat CPU 0 instructions: 260000000 cycles: 142801286 heartbeat IPC: 1.81849 cumulative IPC: 0.420164 (Simulation time: 1 hr 27 min 40 sec) 
Heartbeat CPU 1 instructions: 370000001 cycles: 145076728 heartbeat IPC: 2.61751 cumulative IPC: 1.17179 (Simulation time: 1 hr 28 min 59 sec) 
Heartbeat CPU 2 instructions: 200000000 cycles: 147148706 heartbeat IPC: 1.3601 cumulative IPC: 1.35917 (Simulation time: 1 hr 30 min 12 sec) 

Warmup complete CPU 0 instructions: 267918610 cycles: 147148708 (Simulation time: 1 hr 30 min 12 sec) 
Warmup complete CPU 1 instructions: 375422683 cycles: 147148708 (Simulation time: 1 hr 30 min 12 sec) 
Warmup complete CPU 2 instructions: 200000001 cycles: 147148708 (Simulation time: 1 hr 30 min 12 sec) 
Warmup complete CPU 3 instructions: 299296800 cycles: 147148707 (Simulation time: 1 hr 30 min 12 sec) 

Heartbeat CPU 3 instructions: 300000000 cycles: 148368875 heartbeat IPC: 1.72327 cumulative IPC: 0.576314 (Simulation time: 1 hr 30 min 32 sec) 
Heartbeat CPU 1 instructions: 380000000 cycles: 150292235 heartbeat IPC: 1.91736 cumulative IPC: 1.45611 (Simulation time: 1 hr 31 min 4 sec) 
Heartbeat CPU 0 instructions: 270000003 cycles: 150808740 heartbeat IPC: 1.24884 cumulative IPC: 0.568682 (Simulation time: 1 hr 31 min 13 sec) 
Heartbeat CPU 1 instructions: 390000002 cycles: 157161143 heartbeat IPC: 1.45584 cumulative IPC: 1.45592 (Simulation time: 1 hr 33 min 5 sec) 
Heartbeat CPU 1 instructions: 400000000 cycles: 164028555 heartbeat IPC: 1.45615 cumulative IPC: 1.45602 (Simulation time: 1 hr 35 min 9 sec) 
Heartbeat CPU 3 instructions: 310000002 cycles: 166714849 heartbeat IPC: 0.545079 cumulative IPC: 0.547027 (Simulation time: 1 hr 35 min 58 sec) 
Heartbeat CPU 0 instructions: 280000000 cycles: 168170110 heartbeat IPC: 0.575991 cumulative IPC: 0.574719 (Simulation time: 1 hr 36 min 24 sec) 
Heartbeat CPU 1 instructions: 410000000 cycles: 170891133 heartbeat IPC: 1.45718 cumulative IPC: 1.45635 (Simulation time: 1 hr 37 min 14 sec) 
Heartbeat CPU 1 instructions: 420000000 cycles: 177751761 heartbeat IPC: 1.45759 cumulative IPC: 1.45663 (Simulation time: 1 hr 39 min 17 sec) 
Heartbeat CPU 1 instructions: 430000000 cycles: 184617105 heartbeat IPC: 1.45659 cumulative IPC: 1.45662 (Simulation time: 1 hr 41 min 21 sec) 
Heartbeat CPU 3 instructions: 320000000 cycles: 185013961 heartbeat IPC: 0.546475 cumulative IPC: 0.54676 (Simulation time: 1 hr 41 min 28 sec) 
Heartbeat CPU 0 instructions: 290000002 cycles: 185576366 heartbeat IPC: 0.574506 cumulative IPC: 0.574622 (Simulation time: 1 hr 41 min 38 sec) 
Heartbeat CPU 1 instructions: 440000000 cycles: 191474088 heartbeat IPC: 1.45837 cumulative IPC: 1.45689 (Simulation time: 1 hr 43 min 25 sec) 
Heartbeat CPU 2 instructions: 210000003 cycles: 195707468 heartbeat IPC: 0.205936 cumulative IPC: 0.205936 (Simulation time: 1 hr 44 min 41 sec) 
Heartbeat CPU 1 instructions: 450000002 cycles: 198330540 heartbeat IPC: 1.45848 cumulative IPC: 1.45711 (Simulation time: 1 hr 45 min 28 sec) 
Heartbeat CPU 0 instructions: 300000000 cycles: 203038228 heartbeat IPC: 0.572676 cumulative IPC: 0.574014 (Simulation time: 1 hr 46 min 53 sec) 
Heartbeat CPU 3 instructions: 330000003 cycles: 203102766 heartbeat IPC: 0.552828 cumulative IPC: 0.548722 (Simulation time: 1 hr 46 min 54 sec) 
Heartbeat CPU 1 instructions: 460000000 cycles: 205194038 heartbeat IPC: 1.45698 cumulative IPC: 1.45709 (Simulation time: 1 hr 47 min 32 sec) 
Heartbeat CPU 1 instructions: 470000003 cycles: 212058836 heartbeat IPC: 1.45671 cumulative IPC: 1.45705 (Simulation time: 1 hr 49 min 36 sec) 
Heartbeat CPU 1 instructions: 480000000 cycles: 218920086 heartbeat IPC: 1.45746 cumulative IPC: 1.45709 (Simulation time: 1 hr 51 min 36 sec) 
Heartbeat CPU 0 instructions: 310000003 cycles: 220468064 heartbeat IPC: 0.573729 cumulative IPC: 0.573947 (Simulation time: 1 hr 52 min 4 sec) 
Heartbeat CPU 3 instructions: 340000000 cycles: 220927462 heartbeat IPC: 0.561019 cumulative IPC: 0.551693 (Simulation time: 1 hr 52 min 12 sec) 
Heartbeat CPU 1 instructions: 490000000 cycles: 225784284 heartbeat IPC: 1.45683 cumulative IPC: 1.45707 (Simulation time: 1 hr 53 min 41 sec) 
Heartbeat CPU 1 instructions: 500000000 cycles: 232645298 heartbeat IPC: 1.45751 cumulative IPC: 1.4571 (Simulation time: 1 hr 55 min 45 sec) 
Heartbeat CPU 0 instructions: 320000000 cycles: 237961468 heartbeat IPC: 0.571644 cumulative IPC: 0.573503 (Simulation time: 1 hr 57 min 22 sec) 
Heartbeat CPU 3 instructions: 350000001 cycles: 238654542 heartbeat IPC: 0.564109 cumulative IPC: 0.554098 (Simulation time: 1 hr 57 min 35 sec) 
Heartbeat CPU 1 instructions: 510000003 cycles: 239514814 heartbeat IPC: 1.45571 cumulative IPC: 1.457 (Simulation time: 1 hr 57 min 50 sec) 
Heartbeat CPU 2 instructions: 220000000 cycles: 244390098 heartbeat IPC: 0.205412 cumulative IPC: 0.205674 (Simulation time: 1 hr 59 min 19 sec) 
Heartbeat CPU 1 instructions: 520000000 cycles: 246368333 heartbeat IPC: 1.4591 cumulative IPC: 1.45714 (Simulation time: 1 hr 59 min 55 sec) 
Heartbeat CPU 1 instructions: 530000000 cycles: 253226678 heartbeat IPC: 1.45808 cumulative IPC: 1.4572 (Simulation time: 2 hr 2 min 1 sec) 
Heartbeat CPU 0 instructions: 330000001 cycles: 255462055 heartbeat IPC: 0.571409 cumulative IPC: 0.573165 (Simulation time: 2 hr 2 min 41 sec) 
Heartbeat CPU 3 instructions: 360000000 cycles: 256775017 heartbeat IPC: 0.551862 cumulative IPC: 0.553728 (Simulation time: 2 hr 3 min 4 sec) 
Heartbeat CPU 1 instructions: 540000000 cycles: 260091383 heartbeat IPC: 1.45673 cumulative IPC: 1.45718 (Simulation time: 2 hr 4 min 5 sec) 
Heartbeat CPU 1 instructions: 550000003 cycles: 266948885 heartbeat IPC: 1.45826 cumulative IPC: 1.45724 (Simulation time: 2 hr 6 min 9 sec) 
Heartbeat CPU 0 instructions: 340000000 cycles: 272910020 heartbeat IPC: 0.573133 cumulative IPC: 0.57316 (Simulation time: 2 hr 7 min 56 sec) 
Heartbeat CPU 1 instructions: 560000000 cycles: 273808284 heartbeat IPC: 1.45785 cumulative IPC: 1.45727 (Simulation time: 2 hr 8 min 12 sec) 
Heartbeat CPU 3 instructions: 370000001 cycles: 274377440 heartbeat IPC: 0.568104 cumulative IPC: 0.555717 (Simulation time: 2 hr 8 min 23 sec) 
Heartbeat CPU 1 instructions: 570000001 cycles: 280663239 heartbeat IPC: 1.4588 cumulative IPC: 1.45735 (Simulation time: 2 hr 10 min 18 sec) 
Heartbeat CPU 1 instructions: 580000000 cycles: 287528092 heartbeat IPC: 1.4567 cumulative IPC: 1.45732 (Simulation time: 2 hr 12 min 15 sec) 
Heartbeat CPU 0 instructions: 350000003 cycles: 290356948 heartbeat IPC: 0.573167 cumulative IPC: 0.573161 (Simulation time: 2 hr 13 min 2 sec) 
Heartbeat CPU 2 instructions: 230000002 cycles: 291936194 heartbeat IPC: 0.210322 cumulative IPC: 0.2072 (Simulation time: 2 hr 13 min 29 sec) 
Heartbeat CPU 3 instructions: 380000000 cycles: 292214685 heartbeat IPC: 0.560625 cumulative IPC: 0.556321 (Simulation time: 2 hr 13 min 33 sec) 
Heartbeat CPU 1 instructions: 590000001 cycles: 294383754 heartbeat IPC: 1.45865 cumulative IPC: 1.45738 (Simulation time: 2 hr 14 min 9 sec) 
Heartbeat CPU 1 instructions: 600000000 cycles: 301242588 heartbeat IPC: 1.45797 cumulative IPC: 1.45741 (Simulation time: 2 hr 16 min 3 sec) 
Heartbeat CPU 0 instructions: 360000000 cycles: 307838229 heartbeat IPC: 0.57204 cumulative IPC: 0.573039 (Simulation time: 2 hr 17 min 53 sec) 
Heartbeat CPU 1 instructions: 610000001 cycles: 308100180 heartbeat IPC: 1.45824 cumulative IPC: 1.45744 (Simulation time: 2 hr 17 min 58 sec) 
Heartbeat CPU 3 instructions: 390000000 cycles: 310142375 heartbeat IPC: 0.557796 cumulative IPC: 0.556483 (Simulation time: 2 hr 18 min 34 sec) 
Heartbeat CPU 1 instructions: 620000000 cycles: 314971066 heartbeat IPC: 1.45542 cumulative IPC: 1.45736 (Simulation time: 2 hr 19 min 57 sec) 
Heartbeat CPU 1 instructions: 630000001 cycles: 321837179 heartbeat IPC: 1.45643 cumulative IPC: 1.45732 (Simulation time: 2 hr 21 min 50 sec) 
Heartbeat CPU 0 instructions: 370000000 cycles: 325242336 heartbeat IPC: 0.574577 cumulative IPC: 0.573189 (Simulation time: 2 hr 22 min 49 sec) 
Heartbeat CPU 3 instructions: 400000000 cycles: 327811147 heartbeat IPC: 0.56597 cumulative IPC: 0.557411 (Simulation time: 2 hr 23 min 33 sec) 
Heartbeat CPU 1 instructions: 640000000 cycles: 328694023 heartbeat IPC: 1.4584 cumulative IPC: 1.45736 (Simulation time: 2 hr 23 min 48 sec) 
Heartbeat CPU 1 instructions: 650000001 cycles: 335554215 heartbeat IPC: 1.45769 cumulative IPC: 1.45737 (Simulation time: 2 hr 25 min 50 sec) 
Heartbeat CPU 2 instructions: 240000000 cycles: 340262696 heartbeat IPC: 0.206926 cumulative IPC: 0.207132 (Simulation time: 2 hr 27 min 15 sec) 
Heartbeat CPU 1 instructions: 660000000 cycles: 342414448 heartbeat IPC: 1.45768 cumulative IPC: 1.45738 (Simulation time: 2 hr 27 min 54 sec) 
Heartbeat CPU 0 instructions: 380000000 cycles: 342688589 heartbeat IPC: 0.573189 cumulative IPC: 0.573189 (Simulation time: 2 hr 27 min 59 sec) 
Heartbeat CPU 3 instructions: 410000001 cycles: 345782545 heartbeat IPC: 0.55644 cumulative IPC: 0.557323 (Simulation time: 2 hr 28 min 54 sec) 
Heartbeat CPU 1 instructions: 670000002 cycles: 349288713 heartbeat IPC: 1.4547 cumulative IPC: 1.45729 (Simulation time: 2 hr 29 min 57 sec) 
Heartbeat CPU 1 instructions: 680000000 cycles: 356164115 heartbeat IPC: 1.45446 cumulative IPC: 1.4572 (Simulation time: 2 hr 32 min 1 sec) 
Heartbeat CPU 0 instructions: 390000003 cycles: 360152221 heartbeat IPC: 0.572619 cumulative IPC: 0.573143 (Simulation time: 2 hr 33 min 14 sec) 
Heartbeat CPU 1 instructions: 690000001 cycles: 363031634 heartbeat IPC: 1.45613 cumulative IPC: 1.45717 (Simulation time: 2 hr 34 min 6 sec) 
Heartbeat CPU 3 instructions: 420000000 cycles: 363803816 heartbeat IPC: 0.5549 cumulative IPC: 0.557121 (Simulation time: 2 hr 34 min 19 sec) 
Heartbeat CPU 1 instructions: 700000000 cycles: 369897385 heartbeat IPC: 1.4565 cumulative IPC: 1.45715 (Simulation time: 2 hr 36 min 9 sec) 
Heartbeat CPU 1 instructions: 710000003 cycles: 376879403 heartbeat IPC: 1.43225 cumulative IPC: 1.45639 (Simulation time: 2 hr 38 min 16 sec) 
Heartbeat CPU 0 instructions: 400000000 cycles: 377647571 heartbeat IPC: 0.57158 cumulative IPC: 0.573024 (Simulation time: 2 hr 38 min 29 sec) 
Heartbeat CPU 3 instructions: 430000003 cycles: 382234461 heartbeat IPC: 0.542575 cumulative IPC: 0.555981 (Simulation time: 2 hr 39 min 51 sec) 
Heartbeat CPU 1 instructions: 720000000 cycles: 383973589 heartbeat IPC: 1.4096 cumulative IPC: 1.45499 (Simulation time: 2 hr 40 min 22 sec) 
Heartbeat CPU 2 instructions: 250000000 cycles: 388495627 heartbeat IPC: 0.207327 cumulative IPC: 0.207171 (Simulation time: 2 hr 41 min 43 sec) 
Heartbeat CPU 1 instructions: 730000000 cycles: 391073647 heartbeat IPC: 1.40844 cumulative IPC: 1.45363 (Simulation time: 2 hr 42 min 29 sec) 
Heartbeat CPU 0 instructions: 410000000 cycles: 395099300 heartbeat IPC: 0.573009 cumulative IPC: 0.573023 (Simulation time: 2 hr 43 min 40 sec) 
Heartbeat CPU 1 instructions: 740000000 cycles: 398179304 heartbeat IPC: 1.40733 cumulative IPC: 1.45232 (Simulation time: 2 hr 44 min 35 sec) 
Heartbeat CPU 3 instructions: 440000000 cycles: 400563910 heartbeat IPC: 0.54557 cumulative IPC: 0.555228 (Simulation time: 2 hr 45 min 18 sec) 
Heartbeat CPU 1 instructions: 750000001 cycles: 405286064 heartbeat IPC: 1.40711 cumulative IPC: 1.45108 (Simulation time: 2 hr 46 min 42 sec) 
Heartbeat CPU 1 instructions: 760000000 cycles: 412387868 heartbeat IPC: 1.40809 cumulative IPC: 1.44993 (Simulation time: 2 hr 48 min 48 sec) 
Heartbeat CPU 0 instructions: 420000000 cycles: 412590860 heartbeat IPC: 0.571704 cumulative IPC: 0.572936 (Simulation time: 2 hr 48 min 51 sec) 
Heartbeat CPU 3 instructions: 450000002 cycles: 418512553 heartbeat IPC: 0.557145 cumulative IPC: 0.555355 (Simulation time: 2 hr 50 min 37 sec) 
Heartbeat CPU 1 instructions: 770000000 cycles: 419486284 heartbeat IPC: 1.40876 cumulative IPC: 1.44885 (Simulation time: 2 hr 50 min 56 sec) 
Heartbeat CPU 1 instructions: 780000000 cycles: 426586132 heartbeat IPC: 1.40848 cumulative IPC: 1.44783 (Simulation time: 2 hr 53 min 1 sec) 
Heartbeat CPU 0 instructions: 430000001 cycles: 430074130 heartbeat IPC: 0.571975 cumulative IPC: 0.572877 (Simulation time: 2 hr 53 min 58 sec) 
Heartbeat CPU 1 instructions: 790000003 cycles: 433689136 heartbeat IPC: 1.40786 cumulative IPC: 1.44684 (Simulation time: 2 hr 54 min 57 sec) 
Heartbeat CPU 3 instructions: 460000000 cycles: 435851071 heartbeat IPC: 0.57675 cumulative IPC: 0.55664 (Simulation time: 2 hr 55 min 34 sec) 
Heartbeat CPU 2 instructions: 260000000 cycles: 436884653 heartbeat IPC: 0.206658 cumulative IPC: 0.207085 (Simulation time: 2 hr 55 min 51 sec) 
Heartbeat CPU 1 instructions: 800000000 cycles: 440802314 heartbeat IPC: 1.40584 cumulative IPC: 1.44584 (Simulation time: 2 hr 56 min 55 sec) 
Heartbeat CPU 0 instructions: 440000000 cycles: 447555410 heartbeat IPC: 0.57204 cumulative IPC: 0.572828 (Simulation time: 2 hr 58 min 48 sec) 
Heartbeat CPU 1 instructions: 810000000 cycles: 447906642 heartbeat IPC: 1.40759 cumulative IPC: 1.44494 (Simulation time: 2 hr 58 min 54 sec) 
Heartbeat CPU 3 instructions: 470000000 cycles: 453028329 heartbeat IPC: 0.582165 cumulative IPC: 0.558073 (Simulation time: 3 hr 0 min 25 sec) 
Heartbeat CPU 1 instructions: 820000000 cycles: 455001604 heartbeat IPC: 1.40945 cumulative IPC: 1.44412 (Simulation time: 3 hr 0 min 58 sec) 
Heartbeat CPU 1 instructions: 830000000 cycles: 462105103 heartbeat IPC: 1.40776 cumulative IPC: 1.4433 (Simulation time: 3 hr 2 min 56 sec) 
Heartbeat CPU 0 instructions: 450000003 cycles: 465056055 heartbeat IPC: 0.571408 cumulative IPC: 0.57275 (Simulation time: 3 hr 3 min 45 sec) 
Heartbeat CPU 1 instructions: 840000000 cycles: 469210620 heartbeat IPC: 1.40736 cumulative IPC: 1.44251 (Simulation time: 3 hr 5 min 0 sec) 
Heartbeat CPU 3 instructions: 480000000 cycles: 469723827 heartbeat IPC: 0.598964 cumulative IPC: 0.560189 (Simulation time: 3 hr 5 min 9 sec) 
Heartbeat CPU 1 instructions: 850000000 cycles: 476314149 heartbeat IPC: 1.40775 cumulative IPC: 1.44176 (Simulation time: 3 hr 7 min 2 sec) 
Heartbeat CPU 0 instructions: 460000000 cycles: 482566707 heartbeat IPC: 0.571081 cumulative IPC: 0.572663 (Simulation time: 3 hr 8 min 47 sec) 
Heartbeat CPU 1 instructions: 860000000 cycles: 483420393 heartbeat IPC: 1.40721 cumulative IPC: 1.44103 (Simulation time: 3 hr 9 min 2 sec) 
Heartbeat CPU 3 instructions: 490000000 cycles: 485682479 heartbeat IPC: 0.626619 cumulative IPC: 0.563321 (Simulation time: 3 hr 9 min 40 sec) 
Heartbeat CPU 2 instructions: 270000000 cycles: 485839887 heartbeat IPC: 0.204268 cumulative IPC: 0.206678 (Simulation time: 3 hr 9 min 43 sec) 
Heartbeat CPU 1 instructions: 870000000 cycles: 490531966 heartbeat IPC: 1.40616 cumulative IPC: 1.44031 (Simulation time: 3 hr 11 min 3 sec) 
Heartbeat CPU 1 instructions: 880000000 cycles: 497633578 heartbeat IPC: 1.40813 cumulative IPC: 1.43966 (Simulation time: 3 hr 13 min 3 sec) 
Heartbeat CPU 0 instructions: 470000000 cycles: 500067493 heartbeat IPC: 0.571403 cumulative IPC: 0.5726 (Simulation time: 3 hr 13 min 47 sec) 
Heartbeat CPU 3 instructions: 500000000 cycles: 500750013 heartbeat IPC: 0.663679 cumulative IPC: 0.567597 (Simulation time: 3 hr 13 min 59 sec) 
Heartbeat CPU 1 instructions: 890000002 cycles: 504737602 heartbeat IPC: 1.40765 cumulative IPC: 1.43902 (Simulation time: 3 hr 15 min 6 sec) 
Heartbeat CPU 1 instructions: 900000000 cycles: 511841681 heartbeat IPC: 1.40764 cumulative IPC: 1.43841 (Simulation time: 3 hr 17 min 6 sec) 
Heartbeat CPU 3 instructions: 510000000 cycles: 515481030 heartbeat IPC: 0.67884 cumulative IPC: 0.572046 (Simulation time: 3 hr 18 min 9 sec) 
Heartbeat CPU 0 instructions: 480000000 cycles: 517584411 heartbeat IPC: 0.570877 cumulative IPC: 0.572519 (Simulation time: 3 hr 18 min 45 sec) 
Heartbeat CPU 1 instructions: 910000000 cycles: 518942888 heartbeat IPC: 1.40821 cumulative IPC: 1.43783 (Simulation time: 3 hr 19 min 8 sec) 
Heartbeat CPU 1 instructions: 920000000 cycles: 526042348 heartbeat IPC: 1.40856 cumulative IPC: 1.43728 (Simulation time: 3 hr 21 min 10 sec) 
Heartbeat CPU 3 instructions: 520000000 cycles: 529597285 heartbeat IPC: 0.708403 cumulative IPC: 0.577079 (Simulation time: 3 hr 22 min 11 sec) 
Heartbeat CPU 1 instructions: 930000002 cycles: 533148904 heartbeat IPC: 1.40715 cumulative IPC: 1.43673 (Simulation time: 3 hr 23 min 12 sec) 
Heartbeat CPU 2 instructions: 280000000 cycles: 534074541 heartbeat IPC: 0.20732 cumulative IPC: 0.206758 (Simulation time: 3 hr 23 min 28 sec) 
Heartbeat CPU 0 instructions: 490000003 cycles: 535064368 heartbeat IPC: 0.572084 cumulative IPC: 0.572499 (Simulation time: 3 hr 23 min 45 sec) 
Heartbeat CPU 1 instructions: 940000000 cycles: 540247998 heartbeat IPC: 1.40863 cumulative IPC: 1.43622 (Simulation time: 3 hr 25 min 15 sec) 
Heartbeat CPU 3 instructions: 530000000 cycles: 542875825 heartbeat IPC: 0.753095 cumulative IPC: 0.582986 (Simulation time: 3 hr 26 min 0 sec) 
Heartbeat CPU 1 instructions: 950000002 cycles: 547354930 heartbeat IPC: 1.40708 cumulative IPC: 1.4357 (Simulation time: 3 hr 27 min 24 sec) 
Heartbeat CPU 0 instructions: 500000000 cycles: 552531390 heartbeat IPC: 0.572507 cumulative IPC: 0.5725 (Simulation time: 3 hr 29 min 1 sec) 
Heartbeat CPU 1 instructions: 960000000 cycles: 554459524 heartbeat IPC: 1.40754 cumulative IPC: 1.43521 (Simulation time: 3 hr 29 min 37 sec) 
Heartbeat CPU 3 instructions: 540000000 cycles: 555885732 heartbeat IPC: 0.768645 cumulative IPC: 0.588895 (Simulation time: 3 hr 30 min 4 sec) 
Heartbeat CPU 1 instructions: 970000001 cycles: 561565193 heartbeat IPC: 1.40733 cumulative IPC: 1.43473 (Simulation time: 3 hr 31 min 51 sec) 
Heartbeat CPU 3 instructions: 550000000 cycles: 568216771 heartbeat IPC: 0.810962 cumulative IPC: 0.595398 (Simulation time: 3 hr 33 min 57 sec) 
Heartbeat CPU 1 instructions: 980000000 cycles: 568668849 heartbeat IPC: 1.40773 cumulative IPC: 1.43428 (Simulation time: 3 hr 34 min 6 sec) 
Heartbeat CPU 0 instructions: 510000001 cycles: 570012602 heartbeat IPC: 0.572043 cumulative IPC: 0.572481 (Simulation time: 3 hr 34 min 31 sec) 
Heartbeat CPU 1 instructions: 990000002 cycles: 575772059 heartbeat IPC: 1.40781 cumulative IPC: 1.43384 (Simulation time: 3 hr 36 min 20 sec) 
Heartbeat CPU 3 instructions: 560000000 cycles: 580512243 heartbeat IPC: 0.813308 cumulative IPC: 0.601581 (Simulation time: 3 hr 37 min 48 sec) 
Heartbeat CPU 2 instructions: 290000000 cycles: 581816315 heartbeat IPC: 0.20946 cumulative IPC: 0.207055 (Simulation time: 3 hr 38 min 13 sec) 
Heartbeat CPU 1 instructions: 1000000000 cycles: 582874249 heartbeat IPC: 1.40802 cumulative IPC: 1.43342 (Simulation time: 3 hr 38 min 33 sec) 
Heartbeat CPU 0 instructions: 520000000 cycles: 587507840 heartbeat IPC: 0.571584 cumulative IPC: 0.572445 (Simulation time: 3 hr 40 min 0 sec) 
Heartbeat CPU 1 instructions: 1010000000 cycles: 589982375 heartbeat IPC: 1.40684 cumulative IPC: 1.43299 (Simulation time: 3 hr 40 min 47 sec) 
Heartbeat CPU 3 instructions: 570000001 cycles: 592182454 heartbeat IPC: 0.856883 cumulative IPC: 0.608276 (Simulation time: 3 hr 41 min 29 sec) 
Heartbeat CPU 1 instructions: 1020000000 cycles: 597082466 heartbeat IPC: 1.40843 cumulative IPC: 1.4326 (Simulation time: 3 hr 43 min 0 sec) 
Heartbeat CPU 3 instructions: 580000000 cycles: 603797545 heartbeat IPC: 0.860949 cumulative IPC: 0.614703 (Simulation time: 3 hr 45 min 5 sec) 
Heartbeat CPU 1 instructions: 1030000001 cycles: 604182450 heartbeat IPC: 1.40845 cumulative IPC: 1.43223 (Simulation time: 3 hr 45 min 12 sec) 
Heartbeat CPU 0 instructions: 530000000 cycles: 605005967 heartbeat IPC: 0.57149 cumulative IPC: 0.572408 (Simulation time: 3 hr 45 min 29 sec) 
Heartbeat CPU 1 instructions: 1040000000 cycles: 611284109 heartbeat IPC: 1.40812 cumulative IPC: 1.43186 (Simulation time: 3 hr 47 min 27 sec) 
Heartbeat CPU 3 instructions: 590000003 cycles: 615092063 heartbeat IPC: 0.885386 cumulative IPC: 0.621236 (Simulation time: 3 hr 48 min 35 sec) 
Heartbeat CPU 1 instructions: 1050000000 cycles: 618381743 heartbeat IPC: 1.40892 cumulative IPC: 1.43152 (Simulation time: 3 hr 49 min 39 sec) 
Heartbeat CPU 0 instructions: 540000000 cycles: 622476709 heartbeat IPC: 0.572386 cumulative IPC: 0.572408 (Simulation time: 3 hr 50 min 52 sec) 
Heartbeat CPU 1 instructions: 1060000000 cycles: 625483766 heartbeat IPC: 1.40805 cumulative IPC: 1.43117 (Simulation time: 3 hr 51 min 47 sec) 
Heartbeat CPU 3 instructions: 600000000 cycles: 626077491 heartbeat IPC: 0.910297 cumulative IPC: 0.627866 (Simulation time: 3 hr 51 min 59 sec) 
Heartbeat CPU 2 instructions: 300000000 cycles: 629054396 heartbeat IPC: 0.211694 cumulative IPC: 0.207509 (Simulation time: 3 hr 52 min 57 sec) 
Heartbeat CPU 1 instructions: 1070000003 cycles: 632583525 heartbeat IPC: 1.4085 cumulative IPC: 1.43084 (Simulation time: 3 hr 54 min 5 sec) 
Heartbeat CPU 3 instructions: 610000001 cycles: 636679462 heartbeat IPC: 0.943221 cumulative IPC: 0.634696 (Simulation time: 3 hr 55 min 26 sec) 
Heartbeat CPU 1 instructions: 1080000000 cycles: 639683901 heartbeat IPC: 1.40838 cumulative IPC: 1.43051 (Simulation time: 3 hr 56 min 24 sec) 
Heartbeat CPU 0 instructions: 550000000 cycles: 639937092 heartbeat IPC: 0.572725 cumulative IPC: 0.572419 (Simulation time: 3 hr 56 min 29 sec) 
Heartbeat CPU 1 instructions: 1090000003 cycles: 646786164 heartbeat IPC: 1.408 cumulative IPC: 1.43019 (Simulation time: 3 hr 58 min 43 sec) 
Heartbeat CPU 3 instructions: 620000000 cycles: 647306926 heartbeat IPC: 0.940958 cumulative IPC: 0.641204 (Simulation time: 3 hr 58 min 54 sec) 
Heartbeat CPU 1 instructions: 1100000000 cycles: 653888956 heartbeat IPC: 1.4079 cumulative IPC: 1.42988 (Simulation time: 4 hr 1 min 3 sec) 
Heartbeat CPU 0 instructions: 560000000 cycles: 657351198 heartbeat IPC: 0.574247 cumulative IPC: 0.572481 (Simulation time: 4 hr 2 min 5 sec) 
Heartbeat CPU 3 instructions: 630000002 cycles: 657843340 heartbeat IPC: 0.94909 cumulative IPC: 0.647556 (Simulation time: 4 hr 2 min 14 sec) 
Heartbeat CPU 1 instructions: 1110000002 cycles: 660986416 heartbeat IPC: 1.40895 cumulative IPC: 1.42959 (Simulation time: 4 hr 3 min 13 sec) 
Heartbeat CPU 1 instructions: 1120000000 cycles: 668083223 heartbeat IPC: 1.40908 cumulative IPC: 1.42931 (Simulation time: 4 hr 5 min 29 sec) 
Heartbeat CPU 3 instructions: 640000000 cycles: 668098030 heartbeat IPC: 0.975163 cumulative IPC: 0.654005 (Simulation time: 4 hr 5 min 30 sec) 
Heartbeat CPU 0 instructions: 570000000 cycles: 674746556 heartbeat IPC: 0.574866 cumulative IPC: 0.57256 (Simulation time: 4 hr 7 min 30 sec) 
Heartbeat CPU 1 instructions: 1130000001 cycles: 675188435 heartbeat IPC: 1.40742 cumulative IPC: 1.42902 (Simulation time: 4 hr 7 min 38 sec) 
Heartbeat CPU 2 instructions: 310000000 cycles: 675856912 heartbeat IPC: 0.213664 cumulative IPC: 0.208054 (Simulation time: 4 hr 7 min 51 sec) 
Heartbeat CPU 3 instructions: 650000002 cycles: 678495626 heartbeat IPC: 0.961761 cumulative IPC: 0.660027 (Simulation time: 4 hr 8 min 43 sec) 
Heartbeat CPU 1 instructions: 1140000000 cycles: 682288621 heartbeat IPC: 1.40841 cumulative IPC: 1.42874 (Simulation time: 4 hr 9 min 57 sec) 
Heartbeat CPU 3 instructions: 660000000 cycles: 688545365 heartbeat IPC: 0.99505 cumulative IPC: 0.666246 (Simulation time: 4 hr 12 min 0 sec) 
Heartbeat CPU 1 instructions: 1150000002 cycles: 689387547 heartbeat IPC: 1.40866 cumulative IPC: 1.42848 (Simulation time: 4 hr 12 min 17 sec) 
Heartbeat CPU 0 instructions: 580000000 cycles: 692134414 heartbeat IPC: 0.575114 cumulative IPC: 0.572641 (Simulation time: 4 hr 13 min 11 sec) 
Heartbeat CPU 1 instructions: 1160000000 cycles: 696493683 heartbeat IPC: 1.40723 cumulative IPC: 1.42821 (Simulation time: 4 hr 14 min 36 sec) 
Heartbeat CPU 3 instructions: 670000002 cycles: 698657678 heartbeat IPC: 0.988894 cumulative IPC: 0.672162 (Simulation time: 4 hr 15 min 19 sec) 
Heartbeat CPU 1 instructions: 1170000002 cycles: 703595168 heartbeat IPC: 1.40816 cumulative IPC: 1.42795 (Simulation time: 4 hr 16 min 56 sec) 
Heartbeat CPU 3 instructions: 680000000 cycles: 708728237 heartbeat IPC: 0.992993 cumulative IPC: 0.677915 (Simulation time: 4 hr 18 min 38 sec) 
Heartbeat CPU 0 instructions: 590000001 cycles: 709483697 heartbeat IPC: 0.576393 cumulative IPC: 0.572757 (Simulation time: 4 hr 18 min 52 sec) 
Heartbeat CPU 1 instructions: 1180000000 cycles: 710710485 heartbeat IPC: 1.40542 cumulative IPC: 1.42766 (Simulation time: 4 hr 19 min 16 sec) 
Heartbeat CPU 1 instructions: 1190000000 cycles: 717816161 heartbeat IPC: 1.40733 cumulative IPC: 1.42741 (Simulation time: 4 hr 21 min 36 sec) 
Heartbeat CPU 3 instructions: 690000000 cycles: 718803013 heartbeat IPC: 0.992578 cumulative IPC: 0.683461 (Simulation time: 4 hr 21 min 56 sec) 
Heartbeat CPU 2 instructions: 320000000 cycles: 722958657 heartbeat IPC: 0.212306 cumulative IPC: 0.208402 (Simulation time: 4 hr 23 min 17 sec) 
Heartbeat CPU 1 instructions: 1200000000 cycles: 724913926 heartbeat IPC: 1.40889 cumulative IPC: 1.42718 (Simulation time: 4 hr 23 min 57 sec) 
Heartbeat CPU 0 instructions: 600000000 cycles: 726864257 heartbeat IPC: 0.575355 cumulative IPC: 0.572835 (Simulation time: 4 hr 24 min 36 sec) 
Heartbeat CPU 3 instructions: 700000000 cycles: 728860253 heartbeat IPC: 0.994309 cumulative IPC: 0.688835 (Simulation time: 4 hr 25 min 14 sec) 
Heartbeat CPU 1 instructions: 1210000000 cycles: 732004644 heartbeat IPC: 1.41029 cumulative IPC: 1.42698 (Simulation time: 4 hr 26 min 17 sec) 
Heartbeat CPU 3 instructions: 710000001 cycles: 738786849 heartbeat IPC: 1.00739 cumulative IPC: 0.69418 (Simulation time: 4 hr 28 min 31 sec) 
Heartbeat CPU 1 instructions: 1220000000 cycles: 739115660 heartbeat IPC: 1.40627 cumulative IPC: 1.42673 (Simulation time: 4 hr 28 min 38 sec) 
Heartbeat CPU 0 instructions: 610000000 cycles: 744253598 heartbeat IPC: 0.575065 cumulative IPC: 0.5729 (Simulation time: 4 hr 30 min 19 sec) 
Heartbeat CPU 1 instructions: 1230000002 cycles: 746235791 heartbeat IPC: 1.40447 cumulative IPC: 1.42647 (Simulation time: 4 hr 30 min 57 sec) 
Heartbeat CPU 3 instructions: 720000000 cycles: 748594883 heartbeat IPC: 1.01957 cumulative IPC: 0.699486 (Simulation time: 4 hr 31 min 40 sec) 
Heartbeat CPU 1 instructions: 1240000000 cycles: 753330270 heartbeat IPC: 1.40955 cumulative IPC: 1.42627 (Simulation time: 4 hr 33 min 7 sec) 
Heartbeat CPU 3 instructions: 730000000 cycles: 758556785 heartbeat IPC: 1.00382 cumulative IPC: 0.704445 (Simulation time: 4 hr 34 min 46 sec) 
Heartbeat CPU 1 instructions: 1250000000 cycles: 760449980 heartbeat IPC: 1.40455 cumulative IPC: 1.42602 (Simulation time: 4 hr 35 min 23 sec) 
Heartbeat CPU 0 instructions: 620000000 cycles: 761645203 heartbeat IPC: 0.57499 cumulative IPC: 0.572959 (Simulation time: 4 hr 35 min 47 sec) 
Heartbeat CPU 1 instructions: 1260000000 cycles: 767551449 heartbeat IPC: 1.40816 cumulative IPC: 1.42581 (Simulation time: 4 hr 37 min 37 sec) 
Heartbeat CPU 3 instructions: 740000000 cycles: 768422252 heartbeat IPC: 1.01364 cumulative IPC: 0.709355 (Simulation time: 4 hr 37 min 52 sec) 
Heartbeat CPU 2 instructions: 330000003 cycles: 770129829 heartbeat IPC: 0.211994 cumulative IPC: 0.208674 (Simulation time: 4 hr 38 min 23 sec) 
Heartbeat CPU 1 instructions: 1270000000 cycles: 774666625 heartbeat IPC: 1.40545 cumulative IPC: 1.42558 (Simulation time: 4 hr 39 min 46 sec) 
Heartbeat CPU 3 instructions: 750000001 cycles: 778362309 heartbeat IPC: 1.00603 cumulative IPC: 0.714026 (Simulation time: 4 hr 40 min 57 sec) 
Heartbeat CPU 0 instructions: 630000000 cycles: 778972706 heartbeat IPC: 0.577117 cumulative IPC: 0.573073 (Simulation time: 4 hr 41 min 10 sec) 
Heartbeat CPU 1 instructions: 1280000000 cycles: 781804005 heartbeat IPC: 1.40107 cumulative IPC: 1.4253 (Simulation time: 4 hr 42 min 6 sec) 
Heartbeat CPU 3 instructions: 760000000 cycles: 788345170 heartbeat IPC: 1.00172 cumulative IPC: 0.718506 (Simulation time: 4 hr 44 min 15 sec) 
Heartbeat CPU 1 instructions: 1290000000 cycles: 788936306 heartbeat IPC: 1.40207 cumulative IPC: 1.42505 (Simulation time: 4 hr 44 min 27 sec) 
Heartbeat CPU 1 instructions: 1300000000 cycles: 796040674 heartbeat IPC: 1.40758 cumulative IPC: 1.42486 (Simulation time: 4 hr 46 min 48 sec) 
Heartbeat CPU 0 instructions: 640000000 cycles: 796302517 heartbeat IPC: 0.57704 cumulative IPC: 0.573179 (Simulation time: 4 hr 46 min 53 sec) 
Heartbeat CPU 3 instructions: 770000001 cycles: 798247335 heartbeat IPC: 1.00988 cumulative IPC: 0.722937 (Simulation time: 4 hr 47 min 31 sec) 
Heartbeat CPU 1 instructions: 1310000000 cycles: 803149106 heartbeat IPC: 1.40678 cumulative IPC: 1.42466 (Simulation time: 4 hr 49 min 9 sec) 
Heartbeat CPU 3 instructions: 780000000 cycles: 807983102 heartbeat IPC: 1.02714 cumulative IPC: 0.727419 (Simulation time: 4 hr 50 min 46 sec) 
Heartbeat CPU 1 instructions: 1320000000 cycles: 810256246 heartbeat IPC: 1.40704 cumulative IPC: 1.42447 (Simulation time: 4 hr 51 min 30 sec) 
Heartbeat CPU 0 instructions: 650000002 cycles: 813673408 heartbeat IPC: 0.575676 cumulative IPC: 0.573244 (Simulation time: 4 hr 52 min 38 sec) 
Heartbeat CPU 2 instructions: 340000000 cycles: 817068926 heartbeat IPC: 0.213042 cumulative IPC: 0.20898 (Simulation time: 4 hr 53 min 46 sec) 
Heartbeat CPU 1 instructions: 1330000002 cycles: 817351165 heartbeat IPC: 1.40946 cumulative IPC: 1.42431 (Simulation time: 4 hr 53 min 51 sec) 
Heartbeat CPU 3 instructions: 790000002 cycles: 817864753 heartbeat IPC: 1.01198 cumulative IPC: 0.731611 (Simulation time: 4 hr 54 min 1 sec) 
Heartbeat CPU 1 instructions: 1340000000 cycles: 824458392 heartbeat IPC: 1.40702 cumulative IPC: 1.42413 (Simulation time: 4 hr 56 min 13 sec) 
Heartbeat CPU 3 instructions: 800000000 cycles: 827597325 heartbeat IPC: 1.02748 cumulative IPC: 0.735843 (Simulation time: 4 hr 57 min 15 sec) 
Heartbeat CPU 0 instructions: 660000000 cycles: 831070658 heartbeat IPC: 0.574803 cumulative IPC: 0.573284 (Simulation time: 4 hr 58 min 22 sec) 
Heartbeat CPU 1 instructions: 1350000002 cycles: 831561247 heartbeat IPC: 1.40788 cumulative IPC: 1.42396 (Simulation time: 4 hr 58 min 31 sec) 
Heartbeat CPU 3 instructions: 810000001 cycles: 837520019 heartbeat IPC: 1.00779 cumulative IPC: 0.739751 (Simulation time: 5 hr 0 min 29 sec) 
Heartbeat CPU 1 instructions: 1360000000 cycles: 838659626 heartbeat IPC: 1.40877 cumulative IPC: 1.42381 (Simulation time: 5 hr 0 min 52 sec) 
Heartbeat CPU 1 instructions: 1370000000 cycles: 845763261 heartbeat IPC: 1.40773 cumulative IPC: 1.42364 (Simulation time: 5 hr 3 min 14 sec) 
Heartbeat CPU 3 instructions: 820000000 cycles: 847322774 heartbeat IPC: 1.02012 cumulative IPC: 0.743677 (Simulation time: 5 hr 3 min 44 sec) 
Heartbeat CPU 0 instructions: 670000002 cycles: 848463114 heartbeat IPC: 0.574962 cumulative IPC: 0.573325 (Simulation time: 5 hr 4 min 6 sec) 
Finished CPU 1 instructions: 1000000001 cycles: 702462158 cumulative IPC: 1.42356 (Simulation time: 5 hr 4 min 29 sec) 
Heartbeat CPU 1 instructions: 1380000000 cycles: 852857381 heartbeat IPC: 1.40962 cumulative IPC: 1.4235 (Simulation time: 5 hr 5 min 34 sec) 
Heartbeat CPU 3 instructions: 830000002 cycles: 857113558 heartbeat IPC: 1.02137 cumulative IPC: 0.747506 (Simulation time: 5 hr 6 min 58 sec) 
Heartbeat CPU 1 instructions: 1390000000 cycles: 859964498 heartbeat IPC: 1.40704 cumulative IPC: 1.42334 (Simulation time: 5 hr 7 min 52 sec) 
Heartbeat CPU 2 instructions: 350000001 cycles: 864700452 heartbeat IPC: 0.209945 cumulative IPC: 0.209044 (Simulation time: 5 hr 9 min 28 sec) 
Heartbeat CPU 0 instructions: 680000000 cycles: 865885231 heartbeat IPC: 0.573983 cumulative IPC: 0.573341 (Simulation time: 5 hr 9 min 53 sec) 
Heartbeat CPU 3 instructions: 840000000 cycles: 866945285 heartbeat IPC: 1.01712 cumulative IPC: 0.751189 (Simulation time: 5 hr 10 min 15 sec) 
Heartbeat CPU 1 instructions: 1400000000 cycles: 867072736 heartbeat IPC: 1.40682 cumulative IPC: 1.42317 (Simulation time: 5 hr 10 min 18 sec) 
Heartbeat CPU 1 instructions: 1410000001 cycles: 874038176 heartbeat IPC: 1.43566 cumulative IPC: 1.42329 (Simulation time: 5 hr 12 min 48 sec) 
Heartbeat CPU 3 instructions: 850000000 cycles: 876802072 heartbeat IPC: 1.01453 cumulative IPC: 0.754746 (Simulation time: 5 hr 13 min 45 sec) 
Heartbeat CPU 1 instructions: 1420000000 cycles: 880904507 heartbeat IPC: 1.45638 cumulative IPC: 1.4236 (Simulation time: 5 hr 15 min 3 sec) 
Heartbeat CPU 0 instructions: 690000002 cycles: 883353033 heartbeat IPC: 0.572482 cumulative IPC: 0.573321 (Simulation time: 5 hr 15 min 49 sec) 
Heartbeat CPU 3 instructions: 860000000 cycles: 886632971 heartbeat IPC: 1.0172 cumulative IPC: 0.758235 (Simulation time: 5 hr 16 min 51 sec) 
Heartbeat CPU 1 instructions: 1430000001 cycles: 887778172 heartbeat IPC: 1.45483 cumulative IPC: 1.42389 (Simulation time: 5 hr 17 min 13 sec) 
Heartbeat CPU 1 instructions: 1440000000 cycles: 894651669 heartbeat IPC: 1.45486 cumulative IPC: 1.42418 (Simulation time: 5 hr 19 min 14 sec) 
Heartbeat CPU 3 instructions: 870000003 cycles: 896420146 heartbeat IPC: 1.02175 cumulative IPC: 0.761678 (Simulation time: 5 hr 19 min 45 sec) 
Heartbeat CPU 0 instructions: 700000000 cycles: 900788247 heartbeat IPC: 0.573552 cumulative IPC: 0.573326 (Simulation time: 5 hr 21 min 1 sec) 
Heartbeat CPU 1 instructions: 1450000000 cycles: 901520203 heartbeat IPC: 1.45591 cumulative IPC: 1.42447 (Simulation time: 5 hr 21 min 13 sec) 
Heartbeat CPU 3 instructions: 880000000 cycles: 906272145 heartbeat IPC: 1.01502 cumulative IPC: 0.764965 (Simulation time: 5 hr 22 min 36 sec) 
Heartbeat CPU 1 instructions: 1460000000 cycles: 908388145 heartbeat IPC: 1.45604 cumulative IPC: 1.42475 (Simulation time: 5 hr 23 min 12 sec) 
Heartbeat CPU 2 instructions: 360000000 cycles: 911561180 heartbeat IPC: 0.213398 cumulative IPC: 0.209311 (Simulation time: 5 hr 24 min 8 sec) 
Heartbeat CPU 1 instructions: 1470000003 cycles: 915257624 heartbeat IPC: 1.45571 cumulative IPC: 1.42503 (Simulation time: 5 hr 25 min 12 sec) 
Heartbeat CPU 3 instructions: 890000003 cycles: 916056586 heartbeat IPC: 1.02203 cumulative IPC: 0.768237 (Simulation time: 5 hr 25 min 27 sec) 
Heartbeat CPU 0 instructions: 710000002 cycles: 918186639 heartbeat IPC: 0.574766 cumulative IPC: 0.573359 (Simulation time: 5 hr 26 min 7 sec) 
Heartbeat CPU 1 instructions: 1480000000 cycles: 922115669 heartbeat IPC: 1.45814 cumulative IPC: 1.42532 (Simulation time: 5 hr 27 min 21 sec) 
Heartbeat CPU 3 instructions: 900000000 cycles: 925963044 heartbeat IPC: 1.00944 cumulative IPC: 0.771305 (Simulation time: 5 hr 28 min 36 sec) 
Heartbeat CPU 1 instructions: 1490000003 cycles: 928985040 heartbeat IPC: 1.45574 cumulative IPC: 1.42559 (Simulation time: 5 hr 29 min 37 sec) 
Heartbeat CPU 0 instructions: 720000000 cycles: 935609747 heartbeat IPC: 0.57395 cumulative IPC: 0.573372 (Simulation time: 5 hr 31 min 48 sec) 
Heartbeat CPU 3 instructions: 910000002 cycles: 935719377 heartbeat IPC: 1.02498 cumulative IPC: 0.774443 (Simulation time: 5 hr 31 min 50 sec) 
Heartbeat CPU 1 instructions: 1500000000 cycles: 935858710 heartbeat IPC: 1.45483 cumulative IPC: 1.42584 (Simulation time: 5 hr 31 min 52 sec) 
Heartbeat CPU 1 instructions: 1510000003 cycles: 942730540 heartbeat IPC: 1.45522 cumulative IPC: 1.4261 (Simulation time: 5 hr 34 min 2 sec) 
Heartbeat CPU 3 instructions: 920000000 cycles: 945601835 heartbeat IPC: 1.01189 cumulative IPC: 0.777382 (Simulation time: 5 hr 34 min 58 sec) 
Heartbeat CPU 1 instructions: 1520000000 cycles: 949608541 heartbeat IPC: 1.45391 cumulative IPC: 1.42634 (Simulation time: 5 hr 36 min 20 sec) 
Heartbeat CPU 0 instructions: 730000000 cycles: 953033815 heartbeat IPC: 0.573919 cumulative IPC: 0.573384 (Simulation time: 5 hr 37 min 30 sec) 
Heartbeat CPU 3 instructions: 930000001 cycles: 955372160 heartbeat IPC: 1.02351 cumulative IPC: 0.780357 (Simulation time: 5 hr 38 min 19 sec) 
Heartbeat CPU 1 instructions: 1530000002 cycles: 956477753 heartbeat IPC: 1.45577 cumulative IPC: 1.42659 (Simulation time: 5 hr 38 min 41 sec) 
Heartbeat CPU 2 instructions: 370000001 cycles: 958363915 heartbeat IPC: 0.213663 cumulative IPC: 0.209562 (Simulation time: 5 hr 39 min 22 sec) 
Heartbeat CPU 1 instructions: 1540000000 cycles: 963346114 heartbeat IPC: 1.45595 cumulative IPC: 1.42683 (Simulation time: 5 hr 41 min 8 sec) 
Heartbeat CPU 3 instructions: 940000000 cycles: 965045501 heartbeat IPC: 1.03377 cumulative IPC: 0.783355 (Simulation time: 5 hr 41 min 48 sec) 
Heartbeat CPU 1 instructions: 1550000002 cycles: 970211534 heartbeat IPC: 1.45658 cumulative IPC: 1.42708 (Simulation time: 5 hr 43 min 34 sec) 
Heartbeat CPU 0 instructions: 740000000 cycles: 970450286 heartbeat IPC: 0.574169 cumulative IPC: 0.5734 (Simulation time: 5 hr 43 min 38 sec) 
Heartbeat CPU 1 instructions: 1560000000 cycles: 977078451 heartbeat IPC: 1.45626 cumulative IPC: 1.42732 (Simulation time: 5 hr 45 min 28 sec) 
Heartbeat CPU 1 instructions: 1570000003 cycles: 983958373 heartbeat IPC: 1.45351 cumulative IPC: 1.42754 (Simulation time: 5 hr 47 min 10 sec) 
Heartbeat CPU 0 instructions: 750000003 cycles: 987869139 heartbeat IPC: 0.574091 cumulative IPC: 0.573415 (Simulation time: 5 hr 48 min 11 sec) 
Heartbeat CPU 3 instructions: 950000002 cycles: 988876623 heartbeat IPC: 0.419619 cumulative IPC: 0.773056 (Simulation time: 5 hr 48 min 27 sec) 
Heartbeat CPU 1 instructions: 1580000000 cycles: 990841311 heartbeat IPC: 1.45287 cumulative IPC: 1.42774 (Simulation time: 5 hr 48 min 58 sec) 
Heartbeat CPU 1 instructions: 1590000003 cycles: 997725496 heartbeat IPC: 1.45261 cumulative IPC: 1.42795 (Simulation time: 5 hr 50 min 47 sec) 
Heartbeat CPU 1 instructions: 1600000000 cycles: 1004593171 heartbeat IPC: 1.4561 cumulative IPC: 1.42817 (Simulation time: 5 hr 53 min 5 sec) 
Heartbeat CPU 0 instructions: 760000000 cycles: 1005227051 heartbeat IPC: 0.576106 cumulative IPC: 0.573469 (Simulation time: 5 hr 53 min 18 sec) 
Heartbeat CPU 2 instructions: 380000000 cycles: 1007013185 heartbeat IPC: 0.205553 cumulative IPC: 0.209335 (Simulation time: 5 hr 53 min 54 sec) 
Heartbeat CPU 3 instructions: 960000000 cycles: 1007946542 heartbeat IPC: 0.524386 cumulative IPC: 0.767547 (Simulation time: 5 hr 54 min 12 sec) 
Heartbeat CPU 1 instructions: 1610000000 cycles: 1011464105 heartbeat IPC: 1.45541 cumulative IPC: 1.42839 (Simulation time: 5 hr 55 min 19 sec) 
Heartbeat CPU 3 instructions: 970000000 cycles: 1017743954 heartbeat IPC: 1.02068 cumulative IPC: 0.770396 (Simulation time: 5 hr 57 min 18 sec) 
Heartbeat CPU 1 instructions: 1620000000 cycles: 1018331260 heartbeat IPC: 1.45621 cumulative IPC: 1.42861 (Simulation time: 5 hr 57 min 29 sec) 
Heartbeat CPU 0 instructions: 770000002 cycles: 1022546811 heartbeat IPC: 0.577375 cumulative IPC: 0.573546 (Simulation time: 5 hr 58 min 43 sec) 
Heartbeat CPU 1 instructions: 1630000001 cycles: 1025203519 heartbeat IPC: 1.45513 cumulative IPC: 1.42881 (Simulation time: 5 hr 59 min 28 sec) 
Heartbeat CPU 3 instructions: 980000000 cycles: 1027630232 heartbeat IPC: 1.0115 cumulative IPC: 0.773103 (Simulation time: 6 hr 0 min 11 sec) 
Heartbeat CPU 1 instructions: 1640000000 cycles: 1032074695 heartbeat IPC: 1.45535 cumulative IPC: 1.42902 (Simulation time: 6 hr 1 min 27 sec) 
Heartbeat CPU 3 instructions: 990000001 cycles: 1037582807 heartbeat IPC: 1.00477 cumulative IPC: 0.775693 (Simulation time: 6 hr 3 min 2 sec) 
Heartbeat CPU 1 instructions: 1650000001 cycles: 1038935522 heartbeat IPC: 1.45755 cumulative IPC: 1.42924 (Simulation time: 6 hr 3 min 25 sec) 
Heartbeat CPU 0 instructions: 780000000 cycles: 1039880026 heartbeat IPC: 0.576927 cumulative IPC: 0.573612 (Simulation time: 6 hr 3 min 42 sec) 
Heartbeat CPU 1 instructions: 1660000000 cycles: 1045791604 heartbeat IPC: 1.45856 cumulative IPC: 1.42946 (Simulation time: 6 hr 5 min 24 sec) 
Heartbeat CPU 3 instructions: 1000000000 cycles: 1047392621 heartbeat IPC: 1.01939 cumulative IPC: 0.778348 (Simulation time: 6 hr 5 min 51 sec) 
Heartbeat CPU 1 instructions: 1670000003 cycles: 1052661685 heartbeat IPC: 1.45559 cumulative IPC: 1.42966 (Simulation time: 6 hr 7 min 22 sec) 
Heartbeat CPU 2 instructions: 390000002 cycles: 1053548697 heartbeat IPC: 0.21489 cumulative IPC: 0.20962 (Simulation time: 6 hr 7 min 37 sec) 
Heartbeat CPU 3 instructions: 1010000000 cycles: 1057243924 heartbeat IPC: 1.01509 cumulative IPC: 0.780911 (Simulation time: 6 hr 8 min 41 sec) 
Heartbeat CPU 0 instructions: 790000003 cycles: 1057250073 heartbeat IPC: 0.575704 cumulative IPC: 0.573652 (Simulation time: 6 hr 8 min 41 sec) 
Heartbeat CPU 1 instructions: 1680000000 cycles: 1059522606 heartbeat IPC: 1.45753 cumulative IPC: 1.42987 (Simulation time: 6 hr 9 min 24 sec) 
Heartbeat CPU 1 instructions: 1690000001 cycles: 1066376472 heartbeat IPC: 1.45903 cumulative IPC: 1.43009 (Simulation time: 6 hr 11 min 39 sec) 
Heartbeat CPU 3 instructions: 1020000000 cycles: 1066933948 heartbeat IPC: 1.03199 cumulative IPC: 0.783556 (Simulation time: 6 hr 11 min 52 sec) 
Heartbeat CPU 1 instructions: 1700000000 cycles: 1073230719 heartbeat IPC: 1.45895 cumulative IPC: 1.4303 (Simulation time: 6 hr 14 min 10 sec) 
Heartbeat CPU 0 instructions: 800000000 cycles: 1074627294 heartbeat IPC: 0.575466 cumulative IPC: 0.573686 (Simulation time: 6 hr 14 min 39 sec) 
Heartbeat CPU 3 instructions: 1030000000 cycles: 1076850163 heartbeat IPC: 1.00845 cumulative IPC: 0.785955 (Simulation time: 6 hr 15 min 23 sec) 
Heartbeat CPU 1 instructions: 1710000000 cycles: 1080091087 heartbeat IPC: 1.45765 cumulative IPC: 1.4305 (Simulation time: 6 hr 16 min 34 sec) 
Heartbeat CPU 3 instructions: 1040000000 cycles: 1086652060 heartbeat IPC: 1.02021 cumulative IPC: 0.788399 (Simulation time: 6 hr 18 min 57 sec) 
Heartbeat CPU 1 instructions: 1720000000 cycles: 1086968129 heartbeat IPC: 1.45411 cumulative IPC: 1.43068 (Simulation time: 6 hr 19 min 3 sec) 
Heartbeat CPU 0 instructions: 810000001 cycles: 1092042421 heartbeat IPC: 0.574214 cumulative IPC: 0.573696 (Simulation time: 6 hr 20 min 37 sec) 
Heartbeat CPU 1 instructions: 1730000000 cycles: 1093828621 heartbeat IPC: 1.45762 cumulative IPC: 1.43087 (Simulation time: 6 hr 21 min 10 sec) 
Heartbeat CPU 3 instructions: 1050000002 cycles: 1096504547 heartbeat IPC: 1.01497 cumulative IPC: 0.79075 (Simulation time: 6 hr 22 min 1 sec) 
Heartbeat CPU 2 instructions: 400000000 cycles: 1100662651 heartbeat IPC: 0.212251 cumulative IPC: 0.20975 (Simulation time: 6 hr 23 min 24 sec) 
Heartbeat CPU 1 instructions: 1740000000 cycles: 1100698864 heartbeat IPC: 1.45555 cumulative IPC: 1.43105 (Simulation time: 6 hr 23 min 25 sec) 
Heartbeat CPU 3 instructions: 1060000000 cycles: 1106271298 heartbeat IPC: 1.02388 cumulative IPC: 0.793124 (Simulation time: 6 hr 25 min 15 sec) 
Heartbeat CPU 1 instructions: 1750000001 cycles: 1107559647 heartbeat IPC: 1.45756 cumulative IPC: 1.43124 (Simulation time: 6 hr 25 min 39 sec) 
Heartbeat CPU 0 instructions: 820000000 cycles: 1109388819 heartbeat IPC: 0.576488 cumulative IPC: 0.573746 (Simulation time: 6 hr 26 min 12 sec) 
Heartbeat CPU 1 instructions: 1760000000 cycles: 1114429745 heartbeat IPC: 1.45558 cumulative IPC: 1.43141 (Simulation time: 6 hr 27 min 45 sec) 
Heartbeat CPU 3 instructions: 1070000002 cycles: 1116178399 heartbeat IPC: 1.00938 cumulative IPC: 0.795335 (Simulation time: 6 hr 28 min 18 sec) 
Heartbeat CPU 1 instructions: 1770000000 cycles: 1121294756 heartbeat IPC: 1.45666 cumulative IPC: 1.43159 (Simulation time: 6 hr 29 min 52 sec) 
Heartbeat CPU 3 instructions: 1080000000 cycles: 1126003805 heartbeat IPC: 1.01777 cumulative IPC: 0.797568 (Simulation time: 6 hr 31 min 19 sec) 
Heartbeat CPU 0 instructions: 830000003 cycles: 1126740052 heartbeat IPC: 0.576328 cumulative IPC: 0.573792 (Simulation time: 6 hr 31 min 33 sec) 
Heartbeat CPU 1 instructions: 1780000000 cycles: 1128158530 heartbeat IPC: 1.45692 cumulative IPC: 1.43177 (Simulation time: 6 hr 31 min 59 sec) 
Heartbeat CPU 1 instructions: 1790000003 cycles: 1135019943 heartbeat IPC: 1.45743 cumulative IPC: 1.43195 (Simulation time: 6 hr 34 min 6 sec) 
Heartbeat CPU 3 instructions: 1090000001 cycles: 1135918528 heartbeat IPC: 1.0086 cumulative IPC: 0.799684 (Simulation time: 6 hr 34 min 23 sec) 
Heartbeat CPU 1 instructions: 1800000000 cycles: 1141881696 heartbeat IPC: 1.45735 cumulative IPC: 1.43212 (Simulation time: 6 hr 36 min 13 sec) 
Heartbeat CPU 0 instructions: 840000000 cycles: 1144115285 heartbeat IPC: 0.575532 cumulative IPC: 0.573822 (Simulation time: 6 hr 36 min 54 sec) 
Heartbeat CPU 3 instructions: 1100000000 cycles: 1145857517 heartbeat IPC: 1.00614 cumulative IPC: 0.801738 (Simulation time: 6 hr 37 min 27 sec) 
Heartbeat CPU 2 instructions: 410000000 cycles: 1147508380 heartbeat IPC: 0.213467 cumulative IPC: 0.209924 (Simulation time: 6 hr 37 min 57 sec) 
Heartbeat CPU 1 instructions: 1810000001 cycles: 1148740101 heartbeat IPC: 1.45807 cumulative IPC: 1.4323 (Simulation time: 6 hr 38 min 20 sec) 
Heartbeat CPU 1 instructions: 1820000000 cycles: 1155604171 heartbeat IPC: 1.45686 cumulative IPC: 1.43247 (Simulation time: 6 hr 40 min 27 sec) 
Heartbeat CPU 3 instructions: 1110000000 cycles: 1155675381 heartbeat IPC: 1.01855 cumulative IPC: 0.803849 (Simulation time: 6 hr 40 min 28 sec) 
Heartbeat CPU 0 instructions: 850000002 cycles: 1161555204 heartbeat IPC: 0.573397 cumulative IPC: 0.573815 (Simulation time: 6 hr 42 min 28 sec) 
Heartbeat CPU 1 instructions: 1830000000 cycles: 1162466072 heartbeat IPC: 1.45732 cumulative IPC: 1.43263 (Simulation time: 6 hr 42 min 46 sec) 
Heartbeat CPU 3 instructions: 1120000000 cycles: 1165746213 heartbeat IPC: 0.992967 cumulative IPC: 0.805719 (Simulation time: 6 hr 43 min 53 sec) 
Heartbeat CPU 1 instructions: 1840000000 cycles: 1169330412 heartbeat IPC: 1.4568 cumulative IPC: 1.4328 (Simulation time: 6 hr 45 min 4 sec) 
Heartbeat CPU 3 instructions: 1130000001 cycles: 1176100419 heartbeat IPC: 0.965791 cumulative IPC: 0.80733 (Simulation time: 6 hr 47 min 17 sec) 
Heartbeat CPU 1 instructions: 1850000003 cycles: 1176188515 heartbeat IPC: 1.45813 cumulative IPC: 1.43296 (Simulation time: 6 hr 47 min 18 sec) 
Heartbeat CPU 0 instructions: 860000000 cycles: 1178938373 heartbeat IPC: 0.575269 cumulative IPC: 0.573839 (Simulation time: 6 hr 48 min 13 sec) 
Heartbeat CPU 1 instructions: 1860000000 cycles: 1183047525 heartbeat IPC: 1.45794 cumulative IPC: 1.43313 (Simulation time: 6 hr 49 min 33 sec) 
Heartbeat CPU 3 instructions: 1140000000 cycles: 1187628222 heartbeat IPC: 0.867468 cumulative IPC: 0.807996 (Simulation time: 6 hr 51 min 8 sec) 
Heartbeat CPU 1 instructions: 1870000003 cycles: 1189925483 heartbeat IPC: 1.45392 cumulative IPC: 1.43327 (Simulation time: 6 hr 51 min 57 sec) 
Heartbeat CPU 2 instructions: 420000000 cycles: 1194313741 heartbeat IPC: 0.213651 cumulative IPC: 0.210091 (Simulation time: 6 hr 53 min 21 sec) 
Heartbeat CPU 0 instructions: 870000000 cycles: 1196315423 heartbeat IPC: 0.575472 cumulative IPC: 0.573866 (Simulation time: 6 hr 53 min 59 sec) 
Heartbeat CPU 1 instructions: 1880000000 cycles: 1196794488 heartbeat IPC: 1.45581 cumulative IPC: 1.43341 (Simulation time: 6 hr 54 min 9 sec) 
Heartbeat CPU 3 instructions: 1150000000 cycles: 1200274217 heartbeat IPC: 0.790764 cumulative IPC: 0.807789 (Simulation time: 6 hr 55 min 14 sec) 
Heartbeat CPU 1 instructions: 1890000001 cycles: 1203663833 heartbeat IPC: 1.45574 cumulative IPC: 1.43356 (Simulation time: 6 hr 56 min 22 sec) 
Heartbeat CPU 1 instructions: 1900000000 cycles: 1210534397 heartbeat IPC: 1.45548 cumulative IPC: 1.4337 (Simulation time: 6 hr 58 min 30 sec) 
Heartbeat CPU 0 instructions: 880000000 cycles: 1213716921 heartbeat IPC: 0.574663 cumulative IPC: 0.573879 (Simulation time: 6 hr 59 min 32 sec) 
Heartbeat CPU 3 instructions: 1160000000 cycles: 1214518027 heartbeat IPC: 0.702059 cumulative IPC: 0.806378 (Simulation time: 6 hr 59 min 46 sec) 
Heartbeat CPU 1 instructions: 1910000001 cycles: 1217413202 heartbeat IPC: 1.45374 cumulative IPC: 1.43383 (Simulation time: 7 hr 0 min 39 sec) 
Heartbeat CPU 1 instructions: 1920000000 cycles: 1224283578 heartbeat IPC: 1.45552 cumulative IPC: 1.43397 (Simulation time: 7 hr 2 min 43 sec) 
Heartbeat CPU 0 instructions: 890000001 cycles: 1231133235 heartbeat IPC: 0.574174 cumulative IPC: 0.573884 (Simulation time: 7 hr 4 min 47 sec) 
Heartbeat CPU 1 instructions: 1930000002 cycles: 1231157620 heartbeat IPC: 1.45475 cumulative IPC: 1.4341 (Simulation time: 7 hr 4 min 48 sec) 
Heartbeat CPU 3 instructions: 1170000000 cycles: 1231538182 heartbeat IPC: 0.587539 cumulative IPC: 0.802943 (Simulation time: 7 hr 4 min 54 sec) 
Heartbeat CPU 1 instructions: 1940000000 cycles: 1238039234 heartbeat IPC: 1.45315 cumulative IPC: 1.43422 (Simulation time: 7 hr 6 min 46 sec) 
Heartbeat CPU 2 instructions: 430000000 cycles: 1242665979 heartbeat IPC: 0.206816 cumulative IPC: 0.209946 (Simulation time: 7 hr 8 min 3 sec) 
Heartbeat CPU 1 instructions: 1950000000 cycles: 1244909983 heartbeat IPC: 1.45545 cumulative IPC: 1.43435 (Simulation time: 7 hr 8 min 41 sec) 
Heartbeat CPU 0 instructions: 900000000 cycles: 1248574564 heartbeat IPC: 0.573351 cumulative IPC: 0.573876 (Simulation time: 7 hr 9 min 40 sec) 
Heartbeat CPU 1 instructions: 1960000000 cycles: 1251769821 heartbeat IPC: 1.45776 cumulative IPC: 1.4345 (Simulation time: 7 hr 10 min 31 sec) 
Heartbeat CPU 3 instructions: 1180000000 cycles: 1252429433 heartbeat IPC: 0.478669 cumulative IPC: 0.796814 (Simulation time: 7 hr 10 min 42 sec) 
Heartbeat CPU 1 instructions: 1970000001 cycles: 1258635964 heartbeat IPC: 1.45642 cumulative IPC: 1.43463 (Simulation time: 7 hr 12 min 23 sec) 
Heartbeat CPU 1 instructions: 1980000000 cycles: 1265503009 heartbeat IPC: 1.45623 cumulative IPC: 1.43477 (Simulation time: 7 hr 14 min 16 sec) 
Heartbeat CPU 0 instructions: 910000002 cycles: 1266030407 heartbeat IPC: 0.572874 cumulative IPC: 0.57386 (Simulation time: 7 hr 14 min 24 sec) 
Heartbeat CPU 1 instructions: 1990000001 cycles: 1272367964 heartbeat IPC: 1.45667 cumulative IPC: 1.4349 (Simulation time: 7 hr 16 min 7 sec) 
Heartbeat CPU 3 instructions: 1190000003 cycles: 1274370186 heartbeat IPC: 0.455773 cumulative IPC: 0.790176 (Simulation time: 7 hr 16 min 40 sec) 
*** Reached end of trace for Core: 1 Repeating trace: /scratch/user/djimenez/champsim-traces/speccpu2017/xz/607.cactuBSSN_s/607.cactuBSSN_s-4248B.champsimtrace.xz
Heartbeat CPU 1 instructions: 2000000000 cycles: 1279225547 heartbeat IPC: 1.45824 cumulative IPC: 1.43504 (Simulation time: 7 hr 17 min 59 sec) 
Heartbeat CPU 0 instructions: 920000000 cycles: 1283491238 heartbeat IPC: 0.57271 cumulative IPC: 0.573842 (Simulation time: 7 hr 19 min 9 sec) 
Heartbeat CPU 1 instructions: 2010000003 cycles: 1286209877 heartbeat IPC: 1.43178 cumulative IPC: 1.43502 (Simulation time: 7 hr 19 min 56 sec) 
Heartbeat CPU 2 instructions: 440000000 cycles: 1290968603 heartbeat IPC: 0.207028 cumulative IPC: 0.209823 (Simulation time: 7 hr 21 min 20 sec) 
Heartbeat CPU 1 instructions: 2020000000 cycles: 1293195280 heartbeat IPC: 1.43156 cumulative IPC: 1.435 (Simulation time: 7 hr 21 min 58 sec) 
Heartbeat CPU 3 instructions: 1200000000 cycles: 1298585867 heartbeat IPC: 0.412955 cumulative IPC: 0.782243 (Simulation time: 7 hr 23 min 32 sec) 
Heartbeat CPU 1 instructions: 2030000001 cycles: 1300184772 heartbeat IPC: 1.43072 cumulative IPC: 1.43497 (Simulation time: 7 hr 23 min 59 sec) 
Heartbeat CPU 0 instructions: 930000001 cycles: 1300921280 heartbeat IPC: 0.573722 cumulative IPC: 0.57384 (Simulation time: 7 hr 24 min 12 sec) 
Heartbeat CPU 1 instructions: 2040000000 cycles: 1307174165 heartbeat IPC: 1.43074 cumulative IPC: 1.43495 (Simulation time: 7 hr 26 min 2 sec) 
Heartbeat CPU 1 instructions: 2050000000 cycles: 1314162652 heartbeat IPC: 1.43092 cumulative IPC: 1.43492 (Simulation time: 7 hr 28 min 2 sec) 
Heartbeat CPU 0 instructions: 940000000 cycles: 1318287790 heartbeat IPC: 0.575821 cumulative IPC: 0.57387 (Simulation time: 7 hr 29 min 13 sec) 
Heartbeat CPU 3 instructions: 1210000000 cycles: 1320700032 heartbeat IPC: 0.452199 cumulative IPC: 0.776023 (Simulation time: 7 hr 29 min 56 sec) 
Heartbeat CPU 1 instructions: 2060000000 cycles: 1321122328 heartbeat IPC: 1.43685 cumulative IPC: 1.43494 (Simulation time: 7 hr 30 min 4 sec) 
Heartbeat CPU 1 instructions: 2070000000 cycles: 1327987576 heartbeat IPC: 1.45661 cumulative IPC: 1.43506 (Simulation time: 7 hr 32 min 5 sec) 
Heartbeat CPU 1 instructions: 2080000000 cycles: 1334853222 heartbeat IPC: 1.45653 cumulative IPC: 1.43519 (Simulation time: 7 hr 34 min 6 sec) 
Heartbeat CPU 0 instructions: 950000002 cycles: 1335684623 heartbeat IPC: 0.574817 cumulative IPC: 0.573884 (Simulation time: 7 hr 34 min 20 sec) 
Heartbeat CPU 2 instructions: 450000002 cycles: 1340156895 heartbeat IPC: 0.2033 cumulative IPC: 0.209554 (Simulation time: 7 hr 35 min 39 sec) 
Heartbeat CPU 3 instructions: 1220000000 cycles: 1341585431 heartbeat IPC: 0.478803 cumulative IPC: 0.770826 (Simulation time: 7 hr 36 min 5 sec) 
Heartbeat CPU 1 instructions: 2090000000 cycles: 1341727931 heartbeat IPC: 1.45461 cumulative IPC: 1.4353 (Simulation time: 7 hr 36 min 8 sec) 
Heartbeat CPU 1 instructions: 2100000000 cycles: 1348599993 heartbeat IPC: 1.45517 cumulative IPC: 1.43541 (Simulation time: 7 hr 38 min 4 sec) 
Heartbeat CPU 0 instructions: 960000000 cycles: 1353105227 heartbeat IPC: 0.574033 cumulative IPC: 0.573886 (Simulation time: 7 hr 39 min 24 sec) 
Heartbeat CPU 1 instructions: 2110000000 cycles: 1355453895 heartbeat IPC: 1.45902 cumulative IPC: 1.43555 (Simulation time: 7 hr 40 min 6 sec) 
Heartbeat CPU 3 instructions: 1230000000 cycles: 1361379740 heartbeat IPC: 0.505196 cumulative IPC: 0.766496 (Simulation time: 7 hr 41 min 52 sec) 
Heartbeat CPU 1 instructions: 2120000000 cycles: 1362335294 heartbeat IPC: 1.45319 cumulative IPC: 1.43565 (Simulation time: 7 hr 42 min 9 sec) 
Heartbeat CPU 1 instructions: 2130000001 cycles: 1369200438 heartbeat IPC: 1.45663 cumulative IPC: 1.43576 (Simulation time: 7 hr 44 min 12 sec) 
Heartbeat CPU 0 instructions: 970000003 cycles: 1370508712 heartbeat IPC: 0.574598 cumulative IPC: 0.573896 (Simulation time: 7 hr 44 min 35 sec) 
Heartbeat CPU 1 instructions: 2140000000 cycles: 1376064837 heartbeat IPC: 1.45679 cumulative IPC: 1.43588 (Simulation time: 7 hr 46 min 15 sec) 
Heartbeat CPU 3 instructions: 1240000000 cycles: 1379853917 heartbeat IPC: 0.541296 cumulative IPC: 0.763121 (Simulation time: 7 hr 47 min 23 sec) 
Heartbeat CPU 1 instructions: 2150000001 cycles: 1382933843 heartbeat IPC: 1.45581 cumulative IPC: 1.43599 (Simulation time: 7 hr 48 min 17 sec) 
Heartbeat CPU 0 instructions: 980000000 cycles: 1387942627 heartbeat IPC: 0.573594 cumulative IPC: 0.573892 (Simulation time: 7 hr 49 min 47 sec) 
Heartbeat CPU 2 instructions: 460000000 cycles: 1388017037 heartbeat IPC: 0.208942 cumulative IPC: 0.209531 (Simulation time: 7 hr 49 min 48 sec) 
Heartbeat CPU 1 instructions: 2160000000 cycles: 1389804504 heartbeat IPC: 1.45546 cumulative IPC: 1.4361 (Simulation time: 7 hr 50 min 18 sec) 
Heartbeat CPU 1 instructions: 2170000001 cycles: 1396663770 heartbeat IPC: 1.45788 cumulative IPC: 1.43622 (Simulation time: 7 hr 52 min 20 sec) 
Heartbeat CPU 3 instructions: 1250000002 cycles: 1398263635 heartbeat IPC: 0.543191 cumulative IPC: 0.759885 (Simulation time: 7 hr 52 min 47 sec) 
Heartbeat CPU 1 instructions: 2180000000 cycles: 1403527805 heartbeat IPC: 1.45687 cumulative IPC: 1.43633 (Simulation time: 7 hr 54 min 15 sec) 
Heartbeat CPU 0 instructions: 990000002 cycles: 1405358219 heartbeat IPC: 0.574198 cumulative IPC: 0.573896 (Simulation time: 7 hr 54 min 46 sec) 
Heartbeat CPU 1 instructions: 2190000002 cycles: 1410398868 heartbeat IPC: 1.45538 cumulative IPC: 1.43644 (Simulation time: 7 hr 56 min 17 sec) 
Heartbeat CPU 3 instructions: 1260000000 cycles: 1416124070 heartbeat IPC: 0.559897 cumulative IPC: 0.75707 (Simulation time: 7 hr 57 min 57 sec) 
Heartbeat CPU 1 instructions: 2200000000 cycles: 1417262964 heartbeat IPC: 1.45686 cumulative IPC: 1.43655 (Simulation time: 7 hr 58 min 16 sec) 
Heartbeat CPU 0 instructions: 1000000000 cycles: 1422756578 heartbeat IPC: 0.574767 cumulative IPC: 0.573908 (Simulation time: 7 hr 59 min 48 sec) 
Heartbeat CPU 1 instructions: 2210000000 cycles: 1424130788 heartbeat IPC: 1.45607 cumulative IPC: 1.43665 (Simulation time: 8 hr 0 min 10 sec) 
Heartbeat CPU 1 instructions: 2220000000 cycles: 1430999048 heartbeat IPC: 1.45597 cumulative IPC: 1.43675 (Simulation time: 8 hr 2 min 7 sec) 
Heartbeat CPU 3 instructions: 1270000003 cycles: 1434235623 heartbeat IPC: 0.552134 cumulative IPC: 0.754186 (Simulation time: 8 hr 3 min 5 sec) 
Heartbeat CPU 2 instructions: 470000001 cycles: 1436321714 heartbeat IPC: 0.207019 cumulative IPC: 0.209437 (Simulation time: 8 hr 3 min 42 sec) 
Heartbeat CPU 1 instructions: 2230000001 cycles: 1437861501 heartbeat IPC: 1.45721 cumulative IPC: 1.43686 (Simulation time: 8 hr 4 min 10 sec) 
Heartbeat CPU 0 instructions: 1010000001 cycles: 1440214316 heartbeat IPC: 0.572812 cumulative IPC: 0.573893 (Simulation time: 8 hr 4 min 53 sec) 
Heartbeat CPU 1 instructions: 2240000000 cycles: 1444731427 heartbeat IPC: 1.45562 cumulative IPC: 1.43696 (Simulation time: 8 hr 6 min 13 sec) 
Heartbeat CPU 1 instructions: 2250000000 cycles: 1451600874 heartbeat IPC: 1.45572 cumulative IPC: 1.43706 (Simulation time: 8 hr 8 min 18 sec) 
Heartbeat CPU 3 instructions: 1280000000 cycles: 1452054311 heartbeat IPC: 0.561208 cumulative IPC: 0.751551 (Simulation time: 8 hr 8 min 26 sec) 
Heartbeat CPU 0 instructions: 1020000000 cycles: 1457662507 heartbeat IPC: 0.573125 cumulative IPC: 0.573883 (Simulation time: 8 hr 10 min 8 sec) 
Heartbeat CPU 1 instructions: 2260000000 cycles: 1458468400 heartbeat IPC: 1.45613 cumulative IPC: 1.43716 (Simulation time: 8 hr 10 min 22 sec) 
Heartbeat CPU 1 instructions: 2270000002 cycles: 1465335678 heartbeat IPC: 1.45618 cumulative IPC: 1.43726 (Simulation time: 8 hr 12 min 25 sec) 
Heartbeat CPU 3 instructions: 1290000000 cycles: 1469321964 heartbeat IPC: 0.579117 cumulative IPC: 0.749299 (Simulation time: 8 hr 13 min 36 sec) 
Heartbeat CPU 1 instructions: 2280000000 cycles: 1472208043 heartbeat IPC: 1.4551 cumulative IPC: 1.43735 (Simulation time: 8 hr 14 min 27 sec) 
Heartbeat CPU 0 instructions: 1030000000 cycles: 1475080805 heartbeat IPC: 0.574109 cumulative IPC: 0.573886 (Simulation time: 8 hr 15 min 20 sec) 
Heartbeat CPU 1 instructions: 2290000000 cycles: 1479085919 heartbeat IPC: 1.45394 cumulative IPC: 1.43744 (Simulation time: 8 hr 16 min 30 sec) 
Heartbeat CPU 2 instructions: 480000000 cycles: 1484521228 heartbeat IPC: 0.207471 cumulative IPC: 0.209366 (Simulation time: 8 hr 18 min 7 sec) 
Finished CPU 3 instructions: 1000000002 cycles: 1338609890 cumulative IPC: 0.747044 (Simulation time: 8 hr 18 min 32 sec) 
Heartbeat CPU 1 instructions: 2300000000 cycles: 1485958892 heartbeat IPC: 1.45497 cumulative IPC: 1.43753 (Simulation time: 8 hr 18 min 36 sec) 
Heartbeat CPU 3 instructions: 1300000000 cycles: 1487017212 heartbeat IPC: 0.565123 cumulative IPC: 0.746867 (Simulation time: 8 hr 18 min 55 sec) 
Heartbeat CPU 0 instructions: 1040000000 cycles: 1492522972 heartbeat IPC: 0.573323 cumulative IPC: 0.573879 (Simulation time: 8 hr 20 min 34 sec) 
Heartbeat CPU 1 instructions: 2310000000 cycles: 1492826826 heartbeat IPC: 1.45604 cumulative IPC: 1.43762 (Simulation time: 8 hr 20 min 39 sec) 
Heartbeat CPU 1 instructions: 2320000000 cycles: 1499689968 heartbeat IPC: 1.45706 cumulative IPC: 1.43772 (Simulation time: 8 hr 22 min 42 sec) 
Heartbeat CPU 3 instructions: 1310000002 cycles: 1504972951 heartbeat IPC: 0.556925 cumulative IPC: 0.744355 (Simulation time: 8 hr 24 min 16 sec) 
Heartbeat CPU 1 instructions: 2330000001 cycles: 1506553993 heartbeat IPC: 1.45687 cumulative IPC: 1.43782 (Simulation time: 8 hr 24 min 45 sec) 
Heartbeat CPU 0 instructions: 1050000000 cycles: 1510016173 heartbeat IPC: 0.571651 cumulative IPC: 0.57385 (Simulation time: 8 hr 25 min 42 sec) 
Heartbeat CPU 1 instructions: 2340000000 cycles: 1513427837 heartbeat IPC: 1.45479 cumulative IPC: 1.4379 (Simulation time: 8 hr 26 min 43 sec) 
Heartbeat CPU 1 instructions: 2350000002 cycles: 1520290287 heartbeat IPC: 1.45721 cumulative IPC: 1.438 (Simulation time: 8 hr 28 min 45 sec) 
Heartbeat CPU 3 instructions: 1320000000 cycles: 1523634978 heartbeat IPC: 0.535847 cumulative IPC: 0.741528 (Simulation time: 8 hr 29 min 45 sec) 
Heartbeat CPU 1 instructions: 2360000000 cycles: 1527160006 heartbeat IPC: 1.45566 cumulative IPC: 1.43809 (Simulation time: 8 hr 30 min 48 sec) 
Heartbeat CPU 0 instructions: 1060000000 cycles: 1527523874 heartbeat IPC: 0.571177 cumulative IPC: 0.573816 (Simulation time: 8 hr 30 min 55 sec) 
Heartbeat CPU 2 instructions: 490000002 cycles: 1532631645 heartbeat IPC: 0.207855 cumulative IPC: 0.209313 (Simulation time: 8 hr 32 min 23 sec) 
Heartbeat CPU 1 instructions: 2370000001 cycles: 1534028084 heartbeat IPC: 1.45601 cumulative IPC: 1.43818 (Simulation time: 8 hr 32 min 47 sec) 
Heartbeat CPU 1 instructions: 2380000000 cycles: 1540907220 heartbeat IPC: 1.45367 cumulative IPC: 1.43825 (Simulation time: 8 hr 34 min 50 sec) 
Heartbeat CPU 3 instructions: 1330000001 cycles: 1542366141 heartbeat IPC: 0.53387 cumulative IPC: 0.73874 (Simulation time: 8 hr 35 min 16 sec) 
Heartbeat CPU 0 instructions: 1070000002 cycles: 1545030729 heartbeat IPC: 0.571205 cumulative IPC: 0.573783 (Simulation time: 8 hr 36 min 4 sec) 
Heartbeat CPU 1 instructions: 2390000002 cycles: 1547783882 heartbeat IPC: 1.45419 cumulative IPC: 1.43833 (Simulation time: 8 hr 36 min 53 sec) 
Heartbeat CPU 1 instructions: 2400000000 cycles: 1554654759 heartbeat IPC: 1.45542 cumulative IPC: 1.43841 (Simulation time: 8 hr 38 min 51 sec) 
Heartbeat CPU 3 instructions: 1340000000 cycles: 1561165304 heartbeat IPC: 0.531938 cumulative IPC: 0.735991 (Simulation time: 8 hr 40 min 46 sec) 
Heartbeat CPU 1 instructions: 2410000000 cycles: 1561526422 heartbeat IPC: 1.45525 cumulative IPC: 1.4385 (Simulation time: 8 hr 40 min 52 sec) 
Heartbeat CPU 0 instructions: 1080000000 cycles: 1562515738 heartbeat IPC: 0.571918 cumulative IPC: 0.57376 (Simulation time: 8 hr 41 min 10 sec) 
Heartbeat CPU 1 instructions: 2420000000 cycles: 1568400196 heartbeat IPC: 1.4548 cumulative IPC: 1.43858 (Simulation time: 8 hr 42 min 55 sec) 
Heartbeat CPU 1 instructions: 2430000000 cycles: 1575269538 heartbeat IPC: 1.45574 cumulative IPC: 1.43866 (Simulation time: 8 hr 44 min 58 sec) 
Heartbeat CPU 3 instructions: 1350000001 cycles: 1579750351 heartbeat IPC: 0.538067 cumulative IPC: 0.733423 (Simulation time: 8 hr 46 min 18 sec) 
Heartbeat CPU 0 instructions: 1090000003 cycles: 1580035085 heartbeat IPC: 0.570798 cumulative IPC: 0.573724 (Simulation time: 8 hr 46 min 23 sec) 
Heartbeat CPU 2 instructions: 500000000 cycles: 1580336148 heartbeat IPC: 0.209624 cumulative IPC: 0.209324 (Simulation time: 8 hr 46 min 29 sec) 
Heartbeat CPU 1 instructions: 2440000000 cycles: 1582131031 heartbeat IPC: 1.45741 cumulative IPC: 1.43875 (Simulation time: 8 hr 47 min 2 sec) 
Heartbeat CPU 1 instructions: 2450000002 cycles: 1588998982 heartbeat IPC: 1.45604 cumulative IPC: 1.43883 (Simulation time: 8 hr 49 min 8 sec) 
Heartbeat CPU 1 instructions: 2460000000 cycles: 1595873217 heartbeat IPC: 1.45471 cumulative IPC: 1.43891 (Simulation time: 8 hr 51 min 14 sec) 
[...]
Heartbeat CPU 2 instructions: 1170000000 cycles: 4815415192 heartbeat IPC: 0.207494 cumulative IPC: 0.207786 (Simulation time: 22 hr 2 min 41 sec) 
Heartbeat CPU 1 instructions: 7090000003 cycles: 4821542209 heartbeat IPC: 1.40868 cumulative IPC: 1.43646 (Simulation time: 22 hr 3 min 40 sec) 
Heartbeat CPU 0 instructions: 2950000002 cycles: 4823728066 heartbeat IPC: 0.574729 cumulative IPC: 0.573514 (Simulation time: 22 hr 4 min 1 sec) 
Heartbeat CPU 3 instructions: 3390000002 cycles: 4825547593 heartbeat IPC: 0.55991 cumulative IPC: 0.660633 (Simulation time: 22 hr 4 min 18 sec) 
Heartbeat CPU 1 instructions: 7100000000 cycles: 4828652517 heartbeat IPC: 1.40641 cumulative IPC: 1.43641 (Simulation time: 22 hr 4 min 48 sec) 
Heartbeat CPU 1 instructions: 7110000002 cycles: 4835768652 heartbeat IPC: 1.40526 cumulative IPC: 1.43637 (Simulation time: 22 hr 5 min 56 sec) 
Heartbeat CPU 0 instructions: 2960000000 cycles: 4841146665 heartbeat IPC: 0.574099 cumulative IPC: 0.573516 (Simulation time: 22 hr 6 min 47 sec) 
Heartbeat CPU 1 instructions: 7120000000 cycles: 4842865979 heartbeat IPC: 1.40898 cumulative IPC: 1.43633 (Simulation time: 22 hr 7 min 3 sec) 
Heartbeat CPU 3 instructions: 3400000000 cycles: 4843695228 heartbeat IPC: 0.551036 cumulative IPC: 0.660209 (Simulation time: 22 hr 7 min 11 sec) 
Heartbeat CPU 1 instructions: 7130000001 cycles: 4850003425 heartbeat IPC: 1.40106 cumulative IPC: 1.43627 (Simulation time: 22 hr 8 min 11 sec) 
Heartbeat CPU 1 instructions: 7140000000 cycles: 4857119045 heartbeat IPC: 1.40536 cumulative IPC: 1.43623 (Simulation time: 22 hr 9 min 18 sec) 
Heartbeat CPU 0 instructions: 2970000003 cycles: 4858552904 heartbeat IPC: 0.574507 cumulative IPC: 0.573519 (Simulation time: 22 hr 9 min 32 sec) 
Heartbeat CPU 3 instructions: 3410000000 cycles: 4861757600 heartbeat IPC: 0.553637 cumulative IPC: 0.659801 (Simulation time: 22 hr 10 min 2 sec) 
Heartbeat CPU 2 instructions: 1180000000 cycles: 4864098538 heartbeat IPC: 0.205409 cumulative IPC: 0.207761 (Simulation time: 22 hr 10 min 24 sec) 
Heartbeat CPU 1 instructions: 7150000002 cycles: 4864220604 heartbeat IPC: 1.40814 cumulative IPC: 1.43618 (Simulation time: 22 hr 10 min 26 sec) 
Heartbeat CPU 1 instructions: 7160000000 cycles: 4871325795 heartbeat IPC: 1.40742 cumulative IPC: 1.43614 (Simulation time: 22 hr 11 min 33 sec) 
Heartbeat CPU 0 instructions: 2980000000 cycles: 4875994919 heartbeat IPC: 0.573328 cumulative IPC: 0.573519 (Simulation time: 22 hr 12 min 17 sec) 
Heartbeat CPU 1 instructions: 7170000002 cycles: 4878442770 heartbeat IPC: 1.40509 cumulative IPC: 1.43609 (Simulation time: 22 hr 12 min 41 sec) 
Heartbeat CPU 3 instructions: 3420000000 cycles: 4879977065 heartbeat IPC: 0.548864 cumulative IPC: 0.659374 (Simulation time: 22 hr 12 min 55 sec) 
Heartbeat CPU 1 instructions: 7180000000 cycles: 4885546830 heartbeat IPC: 1.40765 cumulative IPC: 1.43605 (Simulation time: 22 hr 13 min 48 sec) 
Heartbeat CPU 1 instructions: 7190000000 cycles: 4892655182 heartbeat IPC: 1.4068 cumulative IPC: 1.43601 (Simulation time: 22 hr 14 min 56 sec) 
Heartbeat CPU 0 instructions: 2990000002 cycles: 4893400783 heartbeat IPC: 0.574519 cumulative IPC: 0.573522 (Simulation time: 22 hr 15 min 3 sec) 
Heartbeat CPU 3 instructions: 3430000000 cycles: 4898278542 heartbeat IPC: 0.546404 cumulative IPC: 0.658939 (Simulation time: 22 hr 15 min 49 sec) 
Heartbeat CPU 1 instructions: 7200000000 cycles: 4899772065 heartbeat IPC: 1.40511 cumulative IPC: 1.43596 (Simulation time: 22 hr 16 min 3 sec) 
Heartbeat CPU 1 instructions: 7210000000 cycles: 4906879948 heartbeat IPC: 1.40689 cumulative IPC: 1.43592 (Simulation time: 22 hr 17 min 10 sec) 
Heartbeat CPU 0 instructions: 3000000000 cycles: 4910793656 heartbeat IPC: 0.574948 cumulative IPC: 0.573528 (Simulation time: 22 hr 17 min 48 sec) 
Heartbeat CPU 2 instructions: 1190000003 cycles: 4912204999 heartbeat IPC: 0.207872 cumulative IPC: 0.207762 (Simulation time: 22 hr 18 min 1 sec) 
Heartbeat CPU 1 instructions: 7220000000 cycles: 4913987514 heartbeat IPC: 1.40695 cumulative IPC: 1.43587 (Simulation time: 22 hr 18 min 18 sec) 
Heartbeat CPU 3 instructions: 3440000000 cycles: 4916880460 heartbeat IPC: 0.537579 cumulative IPC: 0.658465 (Simulation time: 22 hr 18 min 45 sec) 
Heartbeat CPU 1 instructions: 7230000002 cycles: 4921094475 heartbeat IPC: 1.40707 cumulative IPC: 1.43583 (Simulation time: 22 hr 19 min 25 sec) 
Heartbeat CPU 1 instructions: 7240000000 cycles: 4928202723 heartbeat IPC: 1.40682 cumulative IPC: 1.43579 (Simulation time: 22 hr 20 min 33 sec) 
Heartbeat CPU 0 instructions: 3010000001 cycles: 4928258676 heartbeat IPC: 0.572573 cumulative IPC: 0.573524 (Simulation time: 22 hr 20 min 33 sec) 
Heartbeat CPU 1 instructions: 7250000000 cycles: 4935310226 heartbeat IPC: 1.40696 cumulative IPC: 1.43574 (Simulation time: 22 hr 21 min 40 sec) 
Heartbeat CPU 3 instructions: 3450000001 cycles: 4935461723 heartbeat IPC: 0.538177 cumulative IPC: 0.657999 (Simulation time: 22 hr 21 min 41 sec) 
Heartbeat CPU 1 instructions: 7260000000 cycles: 4942418943 heartbeat IPC: 1.40672 cumulative IPC: 1.4357 (Simulation time: 22 hr 22 min 48 sec) 
Heartbeat CPU 0 instructions: 3020000000 cycles: 4945705560 heartbeat IPC: 0.573168 cumulative IPC: 0.573523 (Simulation time: 22 hr 23 min 19 sec) 
Heartbeat CPU 1 instructions: 7270000000 cycles: 4949520315 heartbeat IPC: 1.40818 cumulative IPC: 1.43566 (Simulation time: 22 hr 23 min 55 sec) 
Heartbeat CPU 3 instructions: 3460000000 cycles: 4953764309 heartbeat IPC: 0.546371 cumulative IPC: 0.657574 (Simulation time: 22 hr 24 min 35 sec) 
Heartbeat CPU 1 instructions: 7280000000 cycles: 4956623149 heartbeat IPC: 1.40789 cumulative IPC: 1.43562 (Simulation time: 22 hr 25 min 3 sec) 
Heartbeat CPU 2 instructions: 1200000000 cycles: 4961160846 heartbeat IPC: 0.204266 cumulative IPC: 0.207727 (Simulation time: 22 hr 25 min 45 sec) 
Finished CPU 2 instructions: 1000000000 cycles: 4814012152 cumulative IPC: 0.207727 (Simulation time: 22 hr 25 min 45 sec) 

CPU 0 Branch Prediction Accuracy: 98.2468% MPKI: 2.14588

CPU 1 Branch Prediction Accuracy: 99.9632% MPKI: 0.0435738

CPU 2 Branch Prediction Accuracy: 96.7197% MPKI: 4.86726

CPU 3 Branch Prediction Accuracy: 97.8735% MPKI: 0.318667

ChampSim completed all CPUs

Total Simulation Statistics (not including warmup)

CPU 0 cumulative IPC: 0.573523 instructions: 2760946415 cycles: 4814012152
L1D TOTAL     ACCESS:  819661302  HIT:  794165094  MISS:   25496208
L1D LOAD      ACCESS:  769737169  HIT:  744255911  MISS:   25481258
L1D RFO       ACCESS:   49924133  HIT:   49909183  MISS:      14950
L1D PREFETCH  ACCESS:          0  HIT:          0  MISS:          0
L1D WRITEBACK ACCESS:          0  HIT:          0  MISS:          0
L1I TOTAL     ACCESS:  933964158  HIT:  933964158  MISS:          0
L1I LOAD      ACCESS:  933964158  HIT:  933964158  MISS:          0
L1I RFO       ACCESS:          0  HIT:          0  MISS:          0
L1I PREFETCH  ACCESS:          0  HIT:          0  MISS:          0
L1I WRITEBACK ACCESS:          0  HIT:          0  MISS:          0
L2C TOTAL     ACCESS:  121371178  HIT:  118235652  MISS:    3135526
L2C LOAD      ACCESS:   25481258  HIT:   23831245  MISS:    1650013
L2C RFO       ACCESS:      14950  HIT:      12713  MISS:       2237
L2C PREFETCH  ACCESS:   95860020  HIT:   94376749  MISS:    1483271
L2C WRITEBACK ACCESS:      14950  HIT:      14945  MISS:          5
LLC TOTAL     ACCESS:   20493704  HIT:   18038814  MISS:    2454890
LLC LOAD      ACCESS:    1649415  HIT:    1432899  MISS:     216516
LLC RFO       ACCESS:       2237  HIT:        363  MISS:       1874
LLC PREFETCH  ACCESS:   18839810  HIT:   16604832  MISS:    2234978
LLC WRITEBACK ACCESS:       2242  HIT:        720  MISS:       1522

CPU 1 cumulative IPC: 1.43559 instructions: 6910950017 cycles: 4814012152
L1D TOTAL     ACCESS: 1078432380  HIT: 1071878276  MISS:    6554104
L1D LOAD      ACCESS:  868123028  HIT:  861569127  MISS:    6553901
L1D RFO       ACCESS:  210309352  HIT:  210309149  MISS:        203
L1D PREFETCH  ACCESS:          0  HIT:          0  MISS:          0
L1D WRITEBACK ACCESS:          0  HIT:          0  MISS:          0
L1I TOTAL     ACCESS: 1852186360  HIT: 1852185813  MISS:        547
L1I LOAD      ACCESS: 1852186360  HIT: 1852185813  MISS:        547
L1I RFO       ACCESS:          0  HIT:          0  MISS:          0
L1I PREFETCH  ACCESS:          0  HIT:          0  MISS:          0
L1I WRITEBACK ACCESS:          0  HIT:          0  MISS:          0
L2C TOTAL     ACCESS:   10033778  HIT:    3479050  MISS:    6554728
L2C LOAD      ACCESS:    6554448  HIT:    3477540  MISS:    3076908
L2C RFO       ACCESS:        203  HIT:         17  MISS:        186
L2C PREFETCH  ACCESS:    3478505  HIT:        924  MISS:    3477581
L2C WRITEBACK ACCESS:        622  HIT:        569  MISS:         53
LLC TOTAL     ACCESS:   39380455  HIT:   32824552  MISS:    6555903
LLC LOAD      ACCESS:    3076410  HIT:    2949082  MISS:     127328
LLC RFO       ACCESS:        186  HIT:         22  MISS:        164
LLC PREFETCH  ACCESS:   36303251  HIT:   29874980  MISS:    6428271
LLC WRITEBACK ACCESS:        608  HIT:        468  MISS:        140

CPU 2 cumulative IPC: 0.207727 instructions: 1000000000 cycles: 4814012152
L1D TOTAL     ACCESS:  442355162  HIT:  422339513  MISS:   20015649
L1D LOAD      ACCESS:  261657785  HIT:  244157130  MISS:   17500655
L1D RFO       ACCESS:  180697377  HIT:  178182383  MISS:    2514994
L1D PREFETCH  ACCESS:          0  HIT:          0  MISS:          0
L1D WRITEBACK ACCESS:          0  HIT:          0  MISS:          0
L1I TOTAL     ACCESS:  353691773  HIT:  353311249  MISS:     380524
L1I LOAD      ACCESS:  353691773  HIT:  353311249  MISS:     380524
L1I RFO       ACCESS:          0  HIT:          0  MISS:          0
L1I PREFETCH  ACCESS:          0  HIT:          0  MISS:          0
L1I WRITEBACK ACCESS:          0  HIT:          0  MISS:          0
L2C TOTAL     ACCESS:   33026190  HIT:   18101365  MISS:   14924825
L2C LOAD      ACCESS:   17880589  HIT:    5496274  MISS:   12384315
L2C RFO       ACCESS:    2514863  HIT:     510456  MISS:    2004407
L2C PREFETCH  ACCESS:    2957893  HIT:    2449808  MISS:     508085
L2C WRITEBACK ACCESS:    9672845  HIT:    9644827  MISS:      28018
LLC TOTAL     ACCESS:   34256828  HIT:   17330043  MISS:   16926785
LLC LOAD      ACCESS:   12379261  HIT:    4518811  MISS:    7860450
LLC RFO       ACCESS:    2001808  HIT:     831105  MISS:    1170703
LLC PREFETCH  ACCESS:   12613836  HIT:    4852503  MISS:    7761333
LLC WRITEBACK ACCESS:    7261923  HIT:    7127624  MISS:     134299

CPU 3 cumulative IPC: 0.657435 instructions: 3164901046 cycles: 4814012153
L1D TOTAL     ACCESS:  865287484  HIT:  666324659  MISS:  198962825
L1D LOAD      ACCESS:  324508006  HIT:  294326209  MISS:   30181797
L1D RFO       ACCESS:  540779478  HIT:  371998450  MISS:  168781028
L1D PREFETCH  ACCESS:          0  HIT:          0  MISS:          0
L1D WRITEBACK ACCESS:          0  HIT:          0  MISS:          0
L1I TOTAL     ACCESS:  765037045  HIT:  765037042  MISS:          3
L1I LOAD      ACCESS:  765037045  HIT:  765037042  MISS:          3
L1I RFO       ACCESS:          0  HIT:          0  MISS:          0
L1I PREFETCH  ACCESS:          0  HIT:          0  MISS:          0
L1I WRITEBACK ACCESS:          0  HIT:          0  MISS:          0
L2C TOTAL     ACCESS:  375390775  HIT:  229964072  MISS:  145426703
L2C LOAD      ACCESS:   30181800  HIT:    7542362  MISS:   22639438
L2C RFO       ACCESS:  168779875  HIT:   53548392  MISS:  115231483
L2C PREFETCH  ACCESS:    7648066  HIT:     130491  MISS:    7517575
L2C WRITEBACK ACCESS:  168781034  HIT:  168742827  MISS:      38207
LLC TOTAL     ACCESS:  325727007  HIT:  205204754  MISS:  120522253
LLC LOAD      ACCESS:   20346689  HIT:   18357782  MISS:    1988907
LLC RFO       ACCESS:  115167595  HIT:   24780082  MISS:   90387513
LLC PREFETCH  ACCESS:   74945353  HIT:   46803770  MISS:   28141583
LLC WRITEBACK ACCESS:  115267370  HIT:  115263120  MISS:       4250

Region of Interest Statistics

CPU 0 cumulative IPC: 0.573733 instructions: 1000000000 cycles: 1742970904
L1D TOTAL     ACCESS:  296868572  HIT:  287638004  MISS:    9230568
L1D LOAD      ACCESS:  278755467  HIT:  269530185  MISS:    9225282
L1D RFO       ACCESS:   18113105  HIT:   18107819  MISS:       5286
L1D PREFETCH  ACCESS:          0  HIT:          0  MISS:          0
L1D WRITEBACK ACCESS:          0  HIT:          0  MISS:          0
L1D PREFETCH  REQUESTED:          0  ISSUED:          0  USEFUL:          0  USELESS:          0
L1I TOTAL     ACCESS:  338119626  HIT:  338119626  MISS:          0
L1I LOAD      ACCESS:  338119626  HIT:  338119626  MISS:          0
L1I RFO       ACCESS:          0  HIT:          0  MISS:          0
L1I PREFETCH  ACCESS:          0  HIT:          0  MISS:          0
L1I WRITEBACK ACCESS:          0  HIT:          0  MISS:          0
L1I PREFETCH  REQUESTED:          0  ISSUED:          0  USEFUL:          0  USELESS:          0
L2C TOTAL     ACCESS:   44134684  HIT:   43035971  MISS:    1098713
L2C LOAD      ACCESS:    9225282  HIT:    8646821  MISS:     578461
L2C RFO       ACCESS:       5286  HIT:       4529  MISS:        757
L2C PREFETCH  ACCESS:   34898831  HIT:   34379336  MISS:     519495
L2C WRITEBACK ACCESS:       5285  HIT:       5285  MISS:          0
L2C PREFETCH  REQUESTED:  123154028  ISSUED:  123154028  USEFUL:    1583074  USELESS:      48839
LLC TOTAL     ACCESS:    7228642  HIT:    6336330  MISS:     892312
LLC LOAD      ACCESS:     578255  HIT:     498844  MISS:      79411
LLC RFO       ACCESS:        757  HIT:         94  MISS:        663
LLC PREFETCH  ACCESS:    6648874  HIT:    5837170  MISS:     811704
LLC WRITEBACK ACCESS:        756  HIT:        222  MISS:        534
LLC PREFETCH  REQUESTED:          0  ISSUED:          0  USEFUL:   26511982  USELESS:   23484956
Major fault: 0 Minor fault: 24582

CPU 1 cumulative IPC: 1.42356 instructions: 1000000001 cycles: 702462158
L1D TOTAL     ACCESS:  155733658  HIT:  154798236  MISS:     935422
L1D LOAD      ACCESS:  125716771  HIT:  124781384  MISS:     935387
L1D RFO       ACCESS:   30016887  HIT:   30016852  MISS:         35
L1D PREFETCH  ACCESS:          0  HIT:          0  MISS:          0
L1D WRITEBACK ACCESS:          0  HIT:          0  MISS:          0
L1D PREFETCH  REQUESTED:          0  ISSUED:          0  USEFUL:          0  USELESS:          0
L1I TOTAL     ACCESS:  268337476  HIT:  268337264  MISS:        212
L1I LOAD      ACCESS:  268337476  HIT:  268337264  MISS:        212
L1I RFO       ACCESS:          0  HIT:          0  MISS:          0
L1I PREFETCH  ACCESS:          0  HIT:          0  MISS:          0
L1I WRITEBACK ACCESS:          0  HIT:          0  MISS:          0
L1I PREFETCH  REQUESTED:          0  ISSUED:          0  USEFUL:          0  USELESS:          0
L2C TOTAL     ACCESS:    1427632  HIT:     491991  MISS:     935641
L2C LOAD      ACCESS:     935599  HIT:     491789  MISS:     443810
L2C RFO       ACCESS:         35  HIT:          3  MISS:         32
L2C PREFETCH  ACCESS:     491925  HIT:        128  MISS:     491797
L2C WRITEBACK ACCESS:         73  HIT:         71  MISS:          2
L2C PREFETCH  REQUESTED:   38401401  ISSUED:   38401401  USEFUL:    3642086  USELESS:         43
LLC TOTAL     ACCESS:    5606809  HIT:    4670963  MISS:     935846
LLC LOAD      ACCESS:     443723  HIT:     425396  MISS:      18327
LLC RFO       ACCESS:         32  HIT:          2  MISS:         30
LLC PREFETCH  ACCESS:    5162983  HIT:    4245511  MISS:     917472
LLC WRITEBACK ACCESS:         71  HIT:         54  MISS:         17
LLC PREFETCH  REQUESTED:          0  ISSUED:          0  USEFUL:   26511982  USELESS:   23484956
Major fault: 0 Minor fault: 19986

CPU 2 cumulative IPC: 0.207727 instructions: 1000000000 cycles: 4814012152
L1D TOTAL     ACCESS:  442355162  HIT:  422339513  MISS:   20015649
L1D LOAD      ACCESS:  261657785  HIT:  244157130  MISS:   17500655
L1D RFO       ACCESS:  180697377  HIT:  178182383  MISS:    2514994
L1D PREFETCH  ACCESS:          0  HIT:          0  MISS:          0
L1D WRITEBACK ACCESS:          0  HIT:          0  MISS:          0
L1D PREFETCH  REQUESTED:          0  ISSUED:          0  USEFUL:          0  USELESS:          0
L1I TOTAL     ACCESS:  353691773  HIT:  353311249  MISS:     380524
L1I LOAD      ACCESS:  353691773  HIT:  353311249  MISS:     380524
L1I RFO       ACCESS:          0  HIT:          0  MISS:          0
L1I PREFETCH  ACCESS:          0  HIT:          0  MISS:          0
L1I WRITEBACK ACCESS:          0  HIT:          0  MISS:          0
L1I PREFETCH  REQUESTED:          0  ISSUED:          0  USEFUL:          0  USELESS:          0
L2C TOTAL     ACCESS:   33026190  HIT:   18101365  MISS:   14924825
L2C LOAD      ACCESS:   17880589  HIT:    5496274  MISS:   12384315
L2C RFO       ACCESS:    2514863  HIT:     510456  MISS:    2004407
L2C PREFETCH  ACCESS:    2957893  HIT:    2449808  MISS:     508085
L2C WRITEBACK ACCESS:    9672845  HIT:    9644827  MISS:      28018
L2C PREFETCH  REQUESTED:   21188265  ISSUED:   21188265  USEFUL:     136031  USELESS:     459686
LLC TOTAL     ACCESS:   34256828  HIT:   17330043  MISS:   16926785
LLC LOAD      ACCESS:   12379261  HIT:    4518811  MISS:    7860450
LLC RFO       ACCESS:    2001808  HIT:     831105  MISS:    1170703
LLC PREFETCH  ACCESS:   12613836  HIT:    4852503  MISS:    7761333
LLC WRITEBACK ACCESS:    7261923  HIT:    7127624  MISS:     134299
LLC PREFETCH  REQUESTED:          0  ISSUED:          0  USEFUL:   26511982  USELESS:   23484956
Major fault: 0 Minor fault: 52120

CPU 3 cumulative IPC: 0.747044 instructions: 1000000002 cycles: 1338609890
L1D TOTAL     ACCESS:  267464794  HIT:  213640558  MISS:   53824236
L1D LOAD      ACCESS:  103803095  HIT:   95641124  MISS:    8161971
L1D RFO       ACCESS:  163661699  HIT:  117999434  MISS:   45662265
L1D PREFETCH  ACCESS:          0  HIT:          0  MISS:          0
L1D WRITEBACK ACCESS:          0  HIT:          0  MISS:          0
L1D PREFETCH  REQUESTED:          0  ISSUED:          0  USEFUL:          0  USELESS:          0
L1I TOTAL     ACCESS:  240494690  HIT:  240494687  MISS:          3
L1I LOAD      ACCESS:  240494690  HIT:  240494687  MISS:          3
L1I RFO       ACCESS:          0  HIT:          0  MISS:          0
L1I PREFETCH  ACCESS:          0  HIT:          0  MISS:          0
L1I WRITEBACK ACCESS:          0  HIT:          0  MISS:          0
L1I PREFETCH  REQUESTED:          0  ISSUED:          0  USEFUL:          0  USELESS:          0
L2C TOTAL     ACCESS:  101643432  HIT:   62571396  MISS:   39072036
L2C LOAD      ACCESS:    8161974  HIT:    2130003  MISS:    6031971
L2C RFO       ACCESS:   45662054  HIT:   14754159  MISS:   30907895
L2C PREFETCH  ACCESS:    2157141  HIT:      31939  MISS:    2125202
L2C WRITEBACK ACCESS:   45662263  HIT:   45655295  MISS:       6968
L2C PREFETCH  REQUESTED:  189656281  ISSUED:  189656281  USEFUL:    9330812  USELESS:        754
LLC TOTAL     ACCESS:   88393597  HIT:   55783425  MISS:   32610172
LLC LOAD      ACCESS:    5440484  HIT:    4957023  MISS:     483461
LLC RFO       ACCESS:   30890837  HIT:    6434091  MISS:   24456746
LLC PREFETCH  ACCESS:   21147931  HIT:   13478939  MISS:    7668992
LLC WRITEBACK ACCESS:   30914345  HIT:   30913372  MISS:        973
LLC PREFETCH  REQUESTED:          0  ISSUED:          0  USEFUL:   26511982  USELESS:   23484956
Major fault: 0 Minor fault: 631850

DRAM Statistics
 CHANNEL 0
 RQ ROW_BUFFER_HIT:   14620848  ROW_BUFFER_MISS:   58517788
 DBUS_CONGESTED:  154527025
 WQ ROW_BUFFER_HIT:    4454939  ROW_BUFFER_MISS:   43471304  FULL:          0

 CHANNEL 1
 RQ ROW_BUFFER_HIT:   14580276  ROW_BUFFER_MISS:   58599494
 DBUS_CONGESTED:  154527025
 WQ ROW_BUFFER_HIT:    4448562  ROW_BUFFER_MISS:   43471832  FULL:          0

 AVG_CONGESTED_CYCLE: 14
