Initialize SIGNATURE TABLE
ST_SET: 1
ST_WAY: 256
ST_TAG_BIT: 16
ST_TAG_MASK: ffff

Initialize PATTERN TABLE
PT_SET: 512
PT_WAY: 4
SIG_DELTA_BIT: 7
C_SIG_BIT: 4
C_DELTA_BIT: 4

Initialize PREFETCH FILTER
FILTER_SET: 1024

*** ChampSim Multicore Out-of-Order Simulator ***

Warmup Instructions: 200000000
Simulation Instructions: 1000000000
Number of CPUs: 4
LLC sets: 8192
LLC ways: 16
Off-chip DRAM Size: 8192 MB Channels: 2 Width: 64-bit Data Rate: 1600 MT/s

CPU 0 runs /scratch/user/djimenez/champsim-traces/speccpu2017/xz/619.lbm_s/619.lbm_s-3766B.champsimtrace.xz
CPU 1 runs /scratch/user/djimenez/champsim-traces/speccpu2017/xz/641.leela_s/641.leela_s-1083B.champsimtrace.xz
CPU 2 runs /scratch/user/djimenez/champsim-traces/speccpu2017/xz/649.fotonik3d_s/649.fotonik3d_s-10881B.champsimtrace.xz
CPU 3 runs /scratch/user/djimenez/champsim-traces/speccpu2017/xz/628.pop2_s/628.pop2_s-17B.champsimtrace.xz
Heartbeat CPU 3 instructions: 10000002 cycles: 4122361 heartbeat IPC: 2.42579 cumulative IPC: 2.42579 (Simulation time: 0 hr 2 min 35 sec) 
Heartbeat CPU 0 instructions: 10000000 cycles: 4275128 heartbeat IPC: 2.33911 cumulative IPC: 2.33911 (Simulation time: 0 hr 2 min 40 sec) 
Heartbeat CPU 1 instructions: 10000000 cycles: 6307191 heartbeat IPC: 1.58549 cumulative IPC: 1.58549 (Simulation time: 0 hr 3 min 50 sec) 
Heartbeat CPU 3 instructions: 20000000 cycles: 8235758 heartbeat IPC: 2.43108 cumulative IPC: 2.42843 (Simulation time: 0 hr 4 min 56 sec) 
Heartbeat CPU 2 instructions: 10000001 cycles: 8410827 heartbeat IPC: 1.18894 cumulative IPC: 1.18894 (Simulation time: 0 hr 5 min 3 sec) 
Heartbeat CPU 0 instructions: 20000000 cycles: 8559082 heartbeat IPC: 2.33429 cumulative IPC: 2.3367 (Simulation time: 0 hr 5 min 8 sec) 
Heartbeat CPU 3 instructions: 30000002 cycles: 12347703 heartbeat IPC: 2.43194 cumulative IPC: 2.4296 (Simulation time: 0 hr 7 min 18 sec) 
Heartbeat CPU 1 instructions: 20000000 cycles: 12630872 heartbeat IPC: 1.58136 cumulative IPC: 1.58342 (Simulation time: 0 hr 7 min 27 sec) 
Heartbeat CPU 0 instructions: 30000001 cycles: 12833878 heartbeat IPC: 2.33929 cumulative IPC: 2.33756 (Simulation time: 0 hr 7 min 34 sec) 
Heartbeat CPU 3 instructions: 40000000 cycles: 16458817 heartbeat IPC: 2.43243 cumulative IPC: 2.43031 (Simulation time: 0 hr 9 min 42 sec) 
Heartbeat CPU 2 instructions: 20000000 cycles: 16792294 heartbeat IPC: 1.19311 cumulative IPC: 1.19102 (Simulation time: 0 hr 9 min 52 sec) 
Heartbeat CPU 0 instructions: 40000000 cycles: 17117908 heartbeat IPC: 2.33425 cumulative IPC: 2.33673 (Simulation time: 0 hr 10 min 3 sec) 
Heartbeat CPU 1 instructions: 30000002 cycles: 18978992 heartbeat IPC: 1.57527 cumulative IPC: 1.5807 (Simulation time: 0 hr 11 min 8 sec) 
Heartbeat CPU 3 instructions: 50000003 cycles: 20558736 heartbeat IPC: 2.43907 cumulative IPC: 2.43206 (Simulation time: 0 hr 12 min 2 sec) 
Heartbeat CPU 0 instructions: 50000001 cycles: 21402226 heartbeat IPC: 2.33409 cumulative IPC: 2.33621 (Simulation time: 0 hr 12 min 30 sec) 
Heartbeat CPU 3 instructions: 60000000 cycles: 24645362 heartbeat IPC: 2.44701 cumulative IPC: 2.43454 (Simulation time: 0 hr 14 min 20 sec) 
Heartbeat CPU 2 instructions: 30000000 cycles: 25167779 heartbeat IPC: 1.19396 cumulative IPC: 1.192 (Simulation time: 0 hr 14 min 37 sec) 
Heartbeat CPU 1 instructions: 40000000 cycles: 25305837 heartbeat IPC: 1.58057 cumulative IPC: 1.58066 (Simulation time: 0 hr 14 min 41 sec) 
Heartbeat CPU 0 instructions: 60000000 cycles: 25677321 heartbeat IPC: 2.33913 cumulative IPC: 2.33669 (Simulation time: 0 hr 14 min 54 sec) 
Heartbeat CPU 3 instructions: 70000001 cycles: 28712930 heartbeat IPC: 2.45847 cumulative IPC: 2.43793 (Simulation time: 0 hr 16 min 33 sec) 
Heartbeat CPU 0 instructions: 70000003 cycles: 29961299 heartbeat IPC: 2.33428 cumulative IPC: 2.33635 (Simulation time: 0 hr 17 min 16 sec) 
Heartbeat CPU 1 instructions: 50000001 cycles: 31636448 heartbeat IPC: 1.57963 cumulative IPC: 1.58046 (Simulation time: 0 hr 18 min 7 sec) 
Heartbeat CPU 3 instructions: 80000000 cycles: 32443487 heartbeat IPC: 2.68056 cumulative IPC: 2.46583 (Simulation time: 0 hr 18 min 31 sec) 
Heartbeat CPU 2 instructions: 40000000 cycles: 33552502 heartbeat IPC: 1.19265 cumulative IPC: 1.19216 (Simulation time: 0 hr 19 min 3 sec) 
Heartbeat CPU 0 instructions: 80000000 cycles: 34236205 heartbeat IPC: 2.33923 cumulative IPC: 2.33671 (Simulation time: 0 hr 19 min 23 sec) 
Heartbeat CPU 3 instructions: 90000002 cycles: 36444839 heartbeat IPC: 2.49916 cumulative IPC: 2.46949 (Simulation time: 0 hr 20 min 28 sec) 
Heartbeat CPU 1 instructions: 60000000 cycles: 37962381 heartbeat IPC: 1.58079 cumulative IPC: 1.58051 (Simulation time: 0 hr 21 min 14 sec) 
Heartbeat CPU 0 instructions: 90000001 cycles: 38520080 heartbeat IPC: 2.33434 cumulative IPC: 2.33644 (Simulation time: 0 hr 21 min 29 sec) 
Heartbeat CPU 3 instructions: 100000000 cycles: 40557128 heartbeat IPC: 2.43174 cumulative IPC: 2.46566 (Simulation time: 0 hr 22 min 31 sec) 
Heartbeat CPU 2 instructions: 50000001 cycles: 41972341 heartbeat IPC: 1.18767 cumulative IPC: 1.19126 (Simulation time: 0 hr 23 min 12 sec) 
Heartbeat CPU 0 instructions: 100000000 cycles: 42795218 heartbeat IPC: 2.33911 cumulative IPC: 2.33671 (Simulation time: 0 hr 23 min 37 sec) 
Heartbeat CPU 1 instructions: 70000003 cycles: 44297284 heartbeat IPC: 1.57856 cumulative IPC: 1.58023 (Simulation time: 0 hr 24 min 22 sec) 
Heartbeat CPU 3 instructions: 110000003 cycles: 44444560 heartbeat IPC: 2.57239 cumulative IPC: 2.47499 (Simulation time: 0 hr 24 min 26 sec) 
Heartbeat CPU 0 instructions: 110000001 cycles: 47105508 heartbeat IPC: 2.32003 cumulative IPC: 2.33518 (Simulation time: 0 hr 25 min 44 sec) 
Heartbeat CPU 3 instructions: 120000000 cycles: 48432363 heartbeat IPC: 2.50765 cumulative IPC: 2.47768 (Simulation time: 0 hr 26 min 19 sec) 
Heartbeat CPU 2 instructions: 60000000 cycles: 50359873 heartbeat IPC: 1.19225 cumulative IPC: 1.19142 (Simulation time: 0 hr 27 min 14 sec) 
Heartbeat CPU 1 instructions: 80000000 cycles: 50613792 heartbeat IPC: 1.58315 cumulative IPC: 1.5806 (Simulation time: 0 hr 27 min 21 sec) 
Heartbeat CPU 0 instructions: 120000000 cycles: 51433981 heartbeat IPC: 2.31028 cumulative IPC: 2.33309 (Simulation time: 0 hr 27 min 44 sec) 
Heartbeat CPU 3 instructions: 130000003 cycles: 52722831 heartbeat IPC: 2.33075 cumulative IPC: 2.46572 (Simulation time: 0 hr 28 min 20 sec) 
Heartbeat CPU 0 instructions: 130000003 cycles: 55882428 heartbeat IPC: 2.24798 cumulative IPC: 2.32631 (Simulation time: 0 hr 29 min 43 sec) 
Heartbeat CPU 3 instructions: 140000000 cycles: 56955511 heartbeat IPC: 2.36257 cumulative IPC: 2.45806 (Simulation time: 0 hr 30 min 11 sec) 
Heartbeat CPU 1 instructions: 90000001 cycles: 56996825 heartbeat IPC: 1.56665 cumulative IPC: 1.57904 (Simulation time: 0 hr 30 min 12 sec) 
Heartbeat CPU 2 instructions: 70000003 cycles: 58731933 heartbeat IPC: 1.19445 cumulative IPC: 1.19186 (Simulation time: 0 hr 30 min 57 sec) 
Heartbeat CPU 0 instructions: 140000000 cycles: 60411786 heartbeat IPC: 2.20782 cumulative IPC: 2.31743 (Simulation time: 0 hr 31 min 41 sec) 
Heartbeat CPU 3 instructions: 150000001 cycles: 60797480 heartbeat IPC: 2.60283 cumulative IPC: 2.46721 (Simulation time: 0 hr 31 min 52 sec) 
Heartbeat CPU 1 instructions: 100000000 cycles: 63354983 heartbeat IPC: 1.57278 cumulative IPC: 1.57841 (Simulation time: 0 hr 33 min 7 sec) 
Heartbeat CPU 0 instructions: 150000001 cycles: 65070568 heartbeat IPC: 2.14648 cumulative IPC: 2.30519 (Simulation time: 0 hr 33 min 55 sec) 
Heartbeat CPU 3 instructions: 160000000 cycles: 65078455 heartbeat IPC: 2.33592 cumulative IPC: 2.45857 (Simulation time: 0 hr 33 min 56 sec) 
Heartbeat CPU 2 instructions: 80000000 cycles: 67120957 heartbeat IPC: 1.19203 cumulative IPC: 1.19188 (Simulation time: 0 hr 34 min 57 sec) 
Heartbeat CPU 3 instructions: 170000002 cycles: 69176341 heartbeat IPC: 2.44028 cumulative IPC: 2.45749 (Simulation time: 0 hr 36 min 0 sec) 
Heartbeat CPU 1 instructions: 110000000 cycles: 69643597 heartbeat IPC: 1.59018 cumulative IPC: 1.57947 (Simulation time: 0 hr 36 min 15 sec) 
Heartbeat CPU 0 instructions: 160000000 cycles: 69954106 heartbeat IPC: 2.0477 cumulative IPC: 2.28721 (Simulation time: 0 hr 36 min 24 sec) 
Heartbeat CPU 3 instructions: 180000000 cycles: 73271688 heartbeat IPC: 2.4418 cumulative IPC: 2.45661 (Simulation time: 0 hr 38 min 10 sec) 
Heartbeat CPU 0 instructions: 170000002 cycles: 75089172 heartbeat IPC: 1.9474 cumulative IPC: 2.26397 (Simulation time: 0 hr 39 min 9 sec) 
Heartbeat CPU 2 instructions: 90000001 cycles: 75527378 heartbeat IPC: 1.18957 cumulative IPC: 1.19162 (Simulation time: 0 hr 39 min 24 sec) 
Heartbeat CPU 1 instructions: 120000000 cycles: 75940472 heartbeat IPC: 1.58809 cumulative IPC: 1.58019 (Simulation time: 0 hr 39 min 37 sec) 
Heartbeat CPU 3 instructions: 190000002 cycles: 77382900 heartbeat IPC: 2.43237 cumulative IPC: 2.45532 (Simulation time: 0 hr 40 min 25 sec) 
Heartbeat CPU 0 instructions: 180000000 cycles: 80340163 heartbeat IPC: 1.9044 cumulative IPC: 2.24047 (Simulation time: 0 hr 42 min 1 sec) 
Heartbeat CPU 3 instructions: 200000000 cycles: 81491414 heartbeat IPC: 2.43397 cumulative IPC: 2.45425 (Simulation time: 0 hr 42 min 39 sec) 
Heartbeat CPU 1 instructions: 130000002 cycles: 82266098 heartbeat IPC: 1.58087 cumulative IPC: 1.58024 (Simulation time: 0 hr 43 min 4 sec) 
Heartbeat CPU 2 instructions: 100000000 cycles: 83908969 heartbeat IPC: 1.19309 cumulative IPC: 1.19177 (Simulation time: 0 hr 43 min 58 sec) 
Heartbeat CPU 3 instructions: 210000001 cycles: 85597684 heartbeat IPC: 2.4353 cumulative IPC: 0.116826 (Simulation time: 0 hr 44 min 54 sec) 
Heartbeat CPU 0 instructions: 190000001 cycles: 85670842 heartbeat IPC: 1.87593 cumulative IPC: 2.21779 (Simulation time: 0 hr 44 min 56 sec) 
Heartbeat CPU 1 instructions: 140000000 cycles: 88605600 heartbeat IPC: 1.57741 cumulative IPC: 1.58004 (Simulation time: 0 hr 46 min 32 sec) 
Heartbeat CPU 3 instructions: 220000000 cycles: 89698326 heartbeat IPC: 2.43864 cumulative IPC: 0.22297 (Simulation time: 0 hr 47 min 8 sec) 
Heartbeat CPU 0 instructions: 200000000 cycles: 90864949 heartbeat IPC: 1.92526 cumulative IPC: 2.20107 (Simulation time: 0 hr 47 min 47 sec) 
Heartbeat CPU 2 instructions: 110000002 cycles: 92295242 heartbeat IPC: 1.19243 cumulative IPC: 1.19183 (Simulation time: 0 hr 48 min 34 sec) 
Heartbeat CPU 3 instructions: 230000001 cycles: 93808088 heartbeat IPC: 2.43323 cumulative IPC: 0.319802 (Simulation time: 0 hr 49 min 23 sec) 
Heartbeat CPU 1 instructions: 150000000 cycles: 94918215 heartbeat IPC: 1.58413 cumulative IPC: 1.58031 (Simulation time: 0 hr 50 min 0 sec) 
Heartbeat CPU 0 instructions: 210000001 cycles: 95963484 heartbeat IPC: 1.96135 cumulative IPC: 0.104206 (Simulation time: 0 hr 50 min 34 sec) 
Heartbeat CPU 3 instructions: 240000000 cycles: 97906254 heartbeat IPC: 2.44012 cumulative IPC: 0.408554 (Simulation time: 0 hr 51 min 38 sec) 
Heartbeat CPU 2 instructions: 120000000 cycles: 100690331 heartbeat IPC: 1.19117 cumulative IPC: 1.19177 (Simulation time: 0 hr 53 min 9 sec) 
Heartbeat CPU 0 instructions: 220000000 cycles: 100936915 heartbeat IPC: 2.01068 cumulative IPC: 0.198144 (Simulation time: 0 hr 53 min 17 sec) 
Heartbeat CPU 1 instructions: 160000000 cycles: 101208465 heartbeat IPC: 1.58976 cumulative IPC: 1.5809 (Simulation time: 0 hr 53 min 26 sec) 
Heartbeat CPU 3 instructions: 250000003 cycles: 101967002 heartbeat IPC: 2.4626 cumulative IPC: 0.490355 (Simulation time: 0 hr 53 min 50 sec) 
Heartbeat CPU 3 instructions: 260000000 cycles: 105736234 heartbeat IPC: 2.65306 cumulative IPC: 0.56745 (Simulation time: 0 hr 55 min 52 sec) 
Heartbeat CPU 0 instructions: 230000003 cycles: 105889323 heartbeat IPC: 2.01922 cumulative IPC: 0.283315 (Simulation time: 0 hr 55 min 57 sec) 
Heartbeat CPU 1 instructions: 170000002 cycles: 107508577 heartbeat IPC: 1.58727 cumulative IPC: 1.58127 (Simulation time: 0 hr 56 min 49 sec) 
Heartbeat CPU 2 instructions: 130000001 cycles: 109094875 heartbeat IPC: 1.18983 cumulative IPC: 1.19162 (Simulation time: 0 hr 57 min 38 sec) 
Heartbeat CPU 3 instructions: 270000001 cycles: 109804081 heartbeat IPC: 2.4583 cumulative IPC: 0.637499 (Simulation time: 0 hr 57 min 59 sec) 
Heartbeat CPU 0 instructions: 240000000 cycles: 110783587 heartbeat IPC: 2.04321 cumulative IPC: 0.361064 (Simulation time: 0 hr 58 min 32 sec) 
Heartbeat CPU 1 instructions: 180000000 cycles: 113831781 heartbeat IPC: 1.58148 cumulative IPC: 1.58128 (Simulation time: 1 hr 0 min 10 sec) 
Heartbeat CPU 3 instructions: 280000000 cycles: 113934634 heartbeat IPC: 2.42098 cumulative IPC: 0.702157 (Simulation time: 1 hr 0 min 14 sec) 
Heartbeat CPU 0 instructions: 250000003 cycles: 115679472 heartbeat IPC: 2.04253 cumulative IPC: 0.432229 (Simulation time: 1 hr 1 min 7 sec) 
Heartbeat CPU 2 instructions: 140000000 cycles: 117476304 heartbeat IPC: 1.19311 cumulative IPC: 1.19173 (Simulation time: 1 hr 2 min 6 sec) 
Heartbeat CPU 3 instructions: 290000002 cycles: 117823264 heartbeat IPC: 2.5716 cumulative IPC: 0.763856 (Simulation time: 1 hr 2 min 17 sec) 
Heartbeat CPU 1 instructions: 190000001 cycles: 120133075 heartbeat IPC: 1.58698 cumulative IPC: 1.58158 (Simulation time: 1 hr 3 min 32 sec) 
Heartbeat CPU 0 instructions: 260000000 cycles: 120571615 heartbeat IPC: 2.04409 cumulative IPC: 0.49763 (Simulation time: 1 hr 3 min 44 sec) 
Heartbeat CPU 3 instructions: 300000000 cycles: 121852467 heartbeat IPC: 2.48188 cumulative IPC: 0.820665 (Simulation time: 1 hr 4 min 28 sec) 
Heartbeat CPU 0 instructions: 270000003 cycles: 125425217 heartbeat IPC: 2.06033 cumulative IPC: 0.558102 (Simulation time: 1 hr 6 min 33 sec) 
Heartbeat CPU 2 instructions: 150000002 cycles: 125848917 heartbeat IPC: 1.19437 cumulative IPC: 1.19191 (Simulation time: 1 hr 6 min 49 sec) 
Heartbeat CPU 3 instructions: 310000000 cycles: 126195231 heartbeat IPC: 2.30268 cumulative IPC: 0.871665 (Simulation time: 1 hr 6 min 59 sec) 
Heartbeat CPU 1 instructions: 200000000 cycles: 126453995 heartbeat IPC: 1.58205 cumulative IPC: 1.5816 (Simulation time: 1 hr 7 min 7 sec) 
Heartbeat CPU 0 instructions: 280000000 cycles: 130282353 heartbeat IPC: 2.05883 cumulative IPC: 0.614051 (Simulation time: 1 hr 9 min 4 sec) 
Heartbeat CPU 3 instructions: 320000000 cycles: 130486412 heartbeat IPC: 2.33036 cumulative IPC: 0.919636 (Simulation time: 1 hr 9 min 10 sec) 
Heartbeat CPU 1 instructions: 210000002 cycles: 132804505 heartbeat IPC: 1.57468 cumulative IPC: 0.0752987 (Simulation time: 1 hr 10 min 24 sec) 
Heartbeat CPU 2 instructions: 160000000 cycles: 134246138 heartbeat IPC: 1.19087 cumulative IPC: 1.19184 (Simulation time: 1 hr 11 min 10 sec) 
Heartbeat CPU 3 instructions: 330000000 cycles: 134370802 heartbeat IPC: 2.57441 cumulative IPC: 0.967472 (Simulation time: 1 hr 11 min 13 sec) 
Heartbeat CPU 0 instructions: 290000002 cycles: 135154572 heartbeat IPC: 2.05245 cumulative IPC: 0.665904 (Simulation time: 1 hr 11 min 36 sec) 
Heartbeat CPU 3 instructions: 340000000 cycles: 138636020 heartbeat IPC: 2.34455 cumulative IPC: 1.00984 (Simulation time: 1 hr 13 min 23 sec) 
Heartbeat CPU 1 instructions: 220000000 cycles: 139163261 heartbeat IPC: 1.57263 cumulative IPC: 0.143716 (Simulation time: 1 hr 13 min 40 sec) 
Heartbeat CPU 0 instructions: 300000000 cycles: 140055614 heartbeat IPC: 2.04038 cumulative IPC: 0.714002 (Simulation time: 1 hr 14 min 7 sec) 
Heartbeat CPU 2 instructions: 170000000 cycles: 142652653 heartbeat IPC: 1.18955 cumulative IPC: 1.19171 (Simulation time: 1 hr 15 min 36 sec) 
Heartbeat CPU 3 instructions: 350000003 cycles: 142813106 heartbeat IPC: 2.39401 cumulative IPC: 1.05032 (Simulation time: 1 hr 15 min 43 sec) 
Heartbeat CPU 0 instructions: 310000003 cycles: 144998895 heartbeat IPC: 2.02295 cumulative IPC: 0.758627 (Simulation time: 1 hr 16 min 53 sec) 
Heartbeat CPU 1 instructions: 230000000 cycles: 145533769 heartbeat IPC: 1.56973 cumulative IPC: 0.206138 (Simulation time: 1 hr 17 min 10 sec) 
Heartbeat CPU 3 instructions: 360000000 cycles: 146950143 heartbeat IPC: 2.41719 cumulative IPC: 1.0888 (Simulation time: 1 hr 17 min 56 sec) 
Heartbeat CPU 0 instructions: 320000000 cycles: 149952024 heartbeat IPC: 2.01893 cumulative IPC: 0.800256 (Simulation time: 1 hr 19 min 34 sec) 
Heartbeat CPU 2 instructions: 180000000 cycles: 151029185 heartbeat IPC: 1.19381 cumulative IPC: 1.19182 (Simulation time: 1 hr 20 min 10 sec) 
Heartbeat CPU 3 instructions: 370000001 cycles: 151106266 heartbeat IPC: 2.40609 cumulative IPC: 1.12504 (Simulation time: 1 hr 20 min 12 sec) 
Heartbeat CPU 1 instructions: 240000000 cycles: 151850967 heartbeat IPC: 1.58298 cumulative IPC: 0.263416 (Simulation time: 1 hr 20 min 36 sec) 
Heartbeat CPU 0 instructions: 330000000 cycles: 154901466 heartbeat IPC: 2.02043 cumulative IPC: 0.839243 (Simulation time: 1 hr 22 min 17 sec) 
Heartbeat CPU 3 instructions: 380000000 cycles: 155266516 heartbeat IPC: 2.4037 cumulative IPC: 1.1593 (Simulation time: 1 hr 22 min 29 sec) 
Heartbeat CPU 2 instructions: 190000001 cycles: 159415727 heartbeat IPC: 1.19239 cumulative IPC: 1.19185 (Simulation time: 1 hr 24 min 48 sec) 
Heartbeat CPU 3 instructions: 390000003 cycles: 159424276 heartbeat IPC: 2.40514 cumulative IPC: 1.19179 (Simulation time: 1 hr 24 min 49 sec) 
Heartbeat CPU 0 instructions: 340000000 cycles: 159803454 heartbeat IPC: 2.03999 cumulative IPC: 0.876076 (Simulation time: 1 hr 25 min 1 sec) 
Heartbeat CPU 3 instructions: 400000000 cycles: 163570955 heartbeat IPC: 2.41157 cumulative IPC: 1.22271 (Simulation time: 1 hr 27 min 8 sec) 
Heartbeat CPU 1 instructions: 250000000 cycles: 164016091 heartbeat IPC: 0.822022 cumulative IPC: 0.304848 (Simulation time: 1 hr 27 min 22 sec) 
Heartbeat CPU 0 instructions: 350000001 cycles: 164731941 heartbeat IPC: 2.02902 cumulative IPC: 0.91057 (Simulation time: 1 hr 27 min 48 sec) 
Heartbeat CPU 3 instructions: 410000001 cycles: 167719496 heartbeat IPC: 2.41049 cumulative IPC: 1.25209 (Simulation time: 1 hr 29 min 32 sec) 
Heartbeat CPU 2 instructions: 200000000 cycles: 167811090 heartbeat IPC: 1.19113 cumulative IPC: 1.19182 (Simulation time: 1 hr 29 min 35 sec) 

Warmup complete CPU 0 instructions: 356273589 cycles: 167811109 (Simulation time: 1 hr 29 min 35 sec) 
Warmup complete CPU 1 instructions: 252545097 cycles: 167811109 (Simulation time: 1 hr 29 min 35 sec) 
Warmup complete CPU 2 instructions: 200000001 cycles: 167811109 (Simulation time: 1 hr 29 min 35 sec) 
Warmup complete CPU 3 instructions: 410213125 cycles: 167811108 (Simulation time: 1 hr 29 min 35 sec) 

Heartbeat CPU 0 instructions: 360000000 cycles: 175683846 heartbeat IPC: 0.913083 cumulative IPC: 0.473331 (Simulation time: 1 hr 31 min 46 sec) 
Heartbeat CPU 3 instructions: 420000000 cycles: 176917682 heartbeat IPC: 1.08717 cumulative IPC: 1.0747 (Simulation time: 1 hr 32 min 6 sec) 
Heartbeat CPU 3 instructions: 430000001 cycles: 185977876 heartbeat IPC: 1.10373 cumulative IPC: 1.08918 (Simulation time: 1 hr 34 min 28 sec) 
Heartbeat CPU 1 instructions: 260000000 cycles: 186714984 heartbeat IPC: 0.44055 cumulative IPC: 0.394358 (Simulation time: 1 hr 34 min 39 sec) 
Heartbeat CPU 2 instructions: 210000002 cycles: 187675408 heartbeat IPC: 0.503415 cumulative IPC: 0.503416 (Simulation time: 1 hr 34 min 55 sec) 
Heartbeat CPU 3 instructions: 440000000 cycles: 193802854 heartbeat IPC: 1.27796 cumulative IPC: 1.14601 (Simulation time: 1 hr 36 min 33 sec) 
Heartbeat CPU 0 instructions: 370000001 cycles: 195591536 heartbeat IPC: 0.502319 cumulative IPC: 0.494104 (Simulation time: 1 hr 36 min 59 sec) 
Heartbeat CPU 3 instructions: 450000000 cycles: 204723811 heartbeat IPC: 0.915671 cumulative IPC: 1.07786 (Simulation time: 1 hr 39 min 12 sec) 
Heartbeat CPU 2 instructions: 220000000 cycles: 208975005 heartbeat IPC: 0.469492 cumulative IPC: 0.485863 (Simulation time: 1 hr 40 min 14 sec) 
Heartbeat CPU 1 instructions: 270000002 cycles: 210413516 heartbeat IPC: 0.421967 cumulative IPC: 0.409716 (Simulation time: 1 hr 40 min 35 sec) 
Heartbeat CPU 3 instructions: 460000000 cycles: 214031156 heartbeat IPC: 1.07442 cumulative IPC: 1.07717 (Simulation time: 1 hr 41 min 32 sec) 
Heartbeat CPU 0 instructions: 380000000 cycles: 215296597 heartbeat IPC: 0.507484 cumulative IPC: 0.499656 (Simulation time: 1 hr 41 min 51 sec) 
Heartbeat CPU 3 instructions: 470000003 cycles: 223108156 heartbeat IPC: 1.10169 cumulative IPC: 1.08119 (Simulation time: 1 hr 43 min 51 sec) 
Heartbeat CPU 2 instructions: 230000002 cycles: 229780262 heartbeat IPC: 0.480648 cumulative IPC: 0.484112 (Simulation time: 1 hr 45 min 32 sec) 
Heartbeat CPU 3 instructions: 480000000 cycles: 232188086 heartbeat IPC: 1.10133 cumulative IPC: 1.08403 (Simulation time: 1 hr 46 min 8 sec) 
Heartbeat CPU 1 instructions: 280000000 cycles: 233925321 heartbeat IPC: 0.425318 cumulative IPC: 0.415265 (Simulation time: 1 hr 46 min 33 sec) 
Heartbeat CPU 0 instructions: 390000000 cycles: 235386690 heartbeat IPC: 0.497758 cumulative IPC: 0.499092 (Simulation time: 1 hr 46 min 56 sec) 
Heartbeat CPU 3 instructions: 490000000 cycles: 241811071 heartbeat IPC: 1.03918 cumulative IPC: 1.0782 (Simulation time: 1 hr 48 min 31 sec) 
Heartbeat CPU 2 instructions: 240000000 cycles: 249659207 heartbeat IPC: 0.503045 cumulative IPC: 0.48871 (Simulation time: 1 hr 50 min 42 sec) 
Heartbeat CPU 3 instructions: 500000000 cycles: 252197345 heartbeat IPC: 0.962809 cumulative IPC: 1.064 (Simulation time: 1 hr 51 min 22 sec) 
Heartbeat CPU 0 instructions: 400000000 cycles: 255835897 heartbeat IPC: 0.489017 cumulative IPC: 0.496751 (Simulation time: 1 hr 52 min 18 sec) 
Heartbeat CPU 1 instructions: 290000000 cycles: 257559359 heartbeat IPC: 0.423119 cumulative IPC: 0.417333 (Simulation time: 1 hr 52 min 44 sec) 
Heartbeat CPU 3 instructions: 510000001 cycles: 259728180 heartbeat IPC: 1.32787 cumulative IPC: 1.08562 (Simulation time: 1 hr 53 min 16 sec) 
Heartbeat CPU 3 instructions: 520000000 cycles: 269349630 heartbeat IPC: 1.03934 cumulative IPC: 1.08123 (Simulation time: 1 hr 55 min 39 sec) 
Heartbeat CPU 2 instructions: 250000001 cycles: 269457563 heartbeat IPC: 0.505093 cumulative IPC: 0.491901 (Simulation time: 1 hr 55 min 40 sec) 
Heartbeat CPU 0 instructions: 410000003 cycles: 277003190 heartbeat IPC: 0.472427 cumulative IPC: 0.492036 (Simulation time: 1 hr 57 min 30 sec) 
Heartbeat CPU 3 instructions: 530000001 cycles: 278738632 heartbeat IPC: 1.06508 cumulative IPC: 1.07987 (Simulation time: 1 hr 57 min 56 sec) 
Heartbeat CPU 1 instructions: 300000000 cycles: 286742510 heartbeat IPC: 0.342663 cumulative IPC: 0.399011 (Simulation time: 1 hr 59 min 58 sec) 
Heartbeat CPU 3 instructions: 540000000 cycles: 289250522 heartbeat IPC: 0.951304 cumulative IPC: 1.06874 (Simulation time: 2 hr 0 min 34 sec) 
Heartbeat CPU 2 instructions: 260000000 cycles: 289426488 heartbeat IPC: 0.500778 cumulative IPC: 0.493359 (Simulation time: 2 hr 0 min 37 sec) 
Heartbeat CPU 0 instructions: 420000000 cycles: 297121570 heartbeat IPC: 0.497058 cumulative IPC: 0.492817 (Simulation time: 2 hr 2 min 35 sec) 
Heartbeat CPU 3 instructions: 550000003 cycles: 298427794 heartbeat IPC: 1.08965 cumulative IPC: 1.07021 (Simulation time: 2 hr 2 min 56 sec) 
Heartbeat CPU 3 instructions: 560000000 cycles: 307555649 heartbeat IPC: 1.09555 cumulative IPC: 1.07186 (Simulation time: 2 hr 5 min 21 sec) 
Heartbeat CPU 2 instructions: 270000001 cycles: 309112178 heartbeat IPC: 0.507983 cumulative IPC: 0.495396 (Simulation time: 2 hr 5 min 46 sec) 
Heartbeat CPU 1 instructions: 310000003 cycles: 310292094 heartbeat IPC: 0.424636 cumulative IPC: 0.403246 (Simulation time: 2 hr 6 min 3 sec) 
Heartbeat CPU 3 instructions: 570000000 cycles: 316688441 heartbeat IPC: 1.09496 cumulative IPC: 1.07328 (Simulation time: 2 hr 7 min 40 sec) 
Heartbeat CPU 0 instructions: 430000003 cycles: 317377294 heartbeat IPC: 0.493688 cumulative IPC: 0.492935 (Simulation time: 2 hr 7 min 51 sec) 
Heartbeat CPU 3 instructions: 580000000 cycles: 325856734 heartbeat IPC: 1.09072 cumulative IPC: 1.07429 (Simulation time: 2 hr 9 min 51 sec) 
Heartbeat CPU 1 instructions: 320000000 cycles: 333968964 heartbeat IPC: 0.422353 cumulative IPC: 0.405969 (Simulation time: 2 hr 11 min 35 sec) 
Heartbeat CPU 3 instructions: 590000002 cycles: 335072760 heartbeat IPC: 1.08507 cumulative IPC: 1.07488 (Simulation time: 2 hr 11 min 49 sec) 
Heartbeat CPU 0 instructions: 440000000 cycles: 337577164 heartbeat IPC: 0.495053 cumulative IPC: 0.493187 (Simulation time: 2 hr 12 min 22 sec) 
Heartbeat CPU 3 instructions: 600000000 cycles: 344343748 heartbeat IPC: 1.07863 cumulative IPC: 1.07508 (Simulation time: 2 hr 13 min 58 sec) 
Heartbeat CPU 3 instructions: 610000002 cycles: 353722985 heartbeat IPC: 1.06618 cumulative IPC: 1.07463 (Simulation time: 2 hr 16 min 6 sec) 
Heartbeat CPU 1 instructions: 330000002 cycles: 357497240 heartbeat IPC: 0.425021 cumulative IPC: 0.408332 (Simulation time: 2 hr 17 min 0 sec) 
Heartbeat CPU 0 instructions: 450000001 cycles: 357773833 heartbeat IPC: 0.495131 cumulative IPC: 0.493394 (Simulation time: 2 hr 17 min 3 sec) 
Heartbeat CPU 3 instructions: 620000000 cycles: 361326102 heartbeat IPC: 1.31525 cumulative IPC: 1.08409 (Simulation time: 2 hr 17 min 55 sec) 
Heartbeat CPU 2 instructions: 280000000 cycles: 362976044 heartbeat IPC: 0.185653 cumulative IPC: 0.40991 (Simulation time: 2 hr 18 min 17 sec) 
Heartbeat CPU 3 instructions: 630000001 cycles: 372523982 heartbeat IPC: 0.893026 cumulative IPC: 1.07363 (Simulation time: 2 hr 20 min 18 sec) 
Heartbeat CPU 0 instructions: 460000000 cycles: 377534240 heartbeat IPC: 0.506062 cumulative IPC: 0.494587 (Simulation time: 2 hr 21 min 25 sec) 
Heartbeat CPU 1 instructions: 340000000 cycles: 381206037 heartbeat IPC: 0.421784 cumulative IPC: 0.409827 (Simulation time: 2 hr 22 min 14 sec) 
Heartbeat CPU 3 instructions: 640000000 cycles: 382574252 heartbeat IPC: 0.994998 cumulative IPC: 1.06995 (Simulation time: 2 hr 22 min 31 sec) 
Heartbeat CPU 3 instructions: 650000000 cycles: 391865932 heartbeat IPC: 1.07623 cumulative IPC: 1.07022 (Simulation time: 2 hr 24 min 32 sec) 
Heartbeat CPU 0 instructions: 470000002 cycles: 398570975 heartbeat IPC: 0.475359 cumulative IPC: 0.492834 (Simulation time: 2 hr 26 min 2 sec) 
Heartbeat CPU 3 instructions: 660000000 cycles: 400902179 heartbeat IPC: 1.10665 cumulative IPC: 1.07163 (Simulation time: 2 hr 26 min 31 sec) 
Heartbeat CPU 1 instructions: 350000002 cycles: 404735128 heartbeat IPC: 0.425006 cumulative IPC: 0.411334 (Simulation time: 2 hr 27 min 16 sec) 
Heartbeat CPU 3 instructions: 670000001 cycles: 410463398 heartbeat IPC: 1.04589 cumulative IPC: 1.07061 (Simulation time: 2 hr 28 min 26 sec) 
Heartbeat CPU 0 instructions: 480000000 cycles: 418607535 heartbeat IPC: 0.499088 cumulative IPC: 0.493334 (Simulation time: 2 hr 30 min 3 sec) 
Heartbeat CPU 3 instructions: 680000000 cycles: 422182949 heartbeat IPC: 0.853275 cumulative IPC: 1.0606 (Simulation time: 2 hr 30 min 50 sec) 
Heartbeat CPU 2 instructions: 290000000 cycles: 427534703 heartbeat IPC: 0.154898 cumulative IPC: 0.346522 (Simulation time: 2 hr 32 min 14 sec) 
Heartbeat CPU 1 instructions: 360000000 cycles: 428217674 heartbeat IPC: 0.425848 cumulative IPC: 0.412643 (Simulation time: 2 hr 32 min 25 sec) 
Heartbeat CPU 3 instructions: 690000000 cycles: 429252741 heartbeat IPC: 1.41447 cumulative IPC: 1.07017 (Simulation time: 2 hr 32 min 40 sec) 
Heartbeat CPU 3 instructions: 700000000 cycles: 437596409 heartbeat IPC: 1.19851 cumulative IPC: 1.07414 (Simulation time: 2 hr 34 min 43 sec) 
Heartbeat CPU 0 instructions: 490000000 cycles: 438660458 heartbeat IPC: 0.49868 cumulative IPC: 0.49373 (Simulation time: 2 hr 34 min 58 sec) 
Heartbeat CPU 3 instructions: 710000001 cycles: 447708668 heartbeat IPC: 0.988899 cumulative IPC: 1.07106 (Simulation time: 2 hr 37 min 5 sec) 
Heartbeat CPU 2 instructions: 300000000 cycles: 450593173 heartbeat IPC: 0.43368 cumulative IPC: 0.353629 (Simulation time: 2 hr 37 min 47 sec) 
Heartbeat CPU 1 instructions: 370000000 cycles: 451551303 heartbeat IPC: 0.428566 cumulative IPC: 0.413952 (Simulation time: 2 hr 38 min 1 sec) 
Heartbeat CPU 3 instructions: 720000000 cycles: 457940528 heartbeat IPC: 0.977339 cumulative IPC: 1.06775 (Simulation time: 2 hr 39 min 35 sec) 
Heartbeat CPU 0 instructions: 500000000 cycles: 458392904 heartbeat IPC: 0.50678 cumulative IPC: 0.494616 (Simulation time: 2 hr 39 min 41 sec) 
Heartbeat CPU 3 instructions: 730000000 cycles: 467837713 heartbeat IPC: 1.01039 cumulative IPC: 1.06586 (Simulation time: 2 hr 42 min 3 sec) 
Heartbeat CPU 2 instructions: 310000002 cycles: 473485758 heartbeat IPC: 0.436823 cumulative IPC: 0.35986 (Simulation time: 2 hr 43 min 32 sec) 
Heartbeat CPU 1 instructions: 380000000 cycles: 475083777 heartbeat IPC: 0.424945 cumulative IPC: 0.414794 (Simulation time: 2 hr 43 min 57 sec) 
Heartbeat CPU 3 instructions: 740000000 cycles: 476968439 heartbeat IPC: 1.0952 cumulative IPC: 1.06673 (Simulation time: 2 hr 44 min 27 sec) 
Heartbeat CPU 0 instructions: 510000003 cycles: 478581870 heartbeat IPC: 0.49532 cumulative IPC: 0.494662 (Simulation time: 2 hr 44 min 52 sec) 
Heartbeat CPU 3 instructions: 750000001 cycles: 486151595 heartbeat IPC: 1.08895 cumulative IPC: 1.06737 (Simulation time: 2 hr 46 min 52 sec) 
Heartbeat CPU 2 instructions: 320000000 cycles: 493578717 heartbeat IPC: 0.497687 cumulative IPC: 0.368361 (Simulation time: 2 hr 48 min 51 sec) 
Heartbeat CPU 3 instructions: 760000000 cycles: 495346345 heartbeat IPC: 1.08758 cumulative IPC: 1.06794 (Simulation time: 2 hr 49 min 19 sec) 
Heartbeat CPU 1 instructions: 390000002 cycles: 498511664 heartbeat IPC: 0.426842 cumulative IPC: 0.415648 (Simulation time: 2 hr 50 min 9 sec) 
Heartbeat CPU 0 instructions: 520000000 cycles: 498519813 heartbeat IPC: 0.501556 cumulative IPC: 0.495077 (Simulation time: 2 hr 50 min 9 sec) 
Heartbeat CPU 3 instructions: 770000003 cycles: 504543699 heartbeat IPC: 1.08727 cumulative IPC: 1.06846 (Simulation time: 2 hr 51 min 45 sec) 
Heartbeat CPU 2 instructions: 330000000 cycles: 513251936 heartbeat IPC: 0.508305 cumulative IPC: 0.376331 (Simulation time: 2 hr 54 min 6 sec) 
Heartbeat CPU 3 instructions: 780000000 cycles: 513797638 heartbeat IPC: 1.08062 cumulative IPC: 1.06879 (Simulation time: 2 hr 54 min 14 sec) 
Heartbeat CPU 0 instructions: 530000000 cycles: 518809287 heartbeat IPC: 0.492866 cumulative IPC: 0.49495 (Simulation time: 2 hr 55 min 36 sec) 
Heartbeat CPU 1 instructions: 400000000 cycles: 521787190 heartbeat IPC: 0.429636 cumulative IPC: 0.416567 (Simulation time: 2 hr 56 min 27 sec) 
Heartbeat CPU 3 instructions: 790000001 cycles: 523110112 heartbeat IPC: 1.07383 cumulative IPC: 1.06892 (Simulation time: 2 hr 56 min 50 sec) 
Heartbeat CPU 3 instructions: 800000000 cycles: 531527136 heartbeat IPC: 1.18807 cumulative IPC: 1.07168 (Simulation time: 2 hr 59 min 16 sec) 
Heartbeat CPU 2 instructions: 340000000 cycles: 532896859 heartbeat IPC: 0.509037 cumulative IPC: 0.383472 (Simulation time: 2 hr 59 min 41 sec) 
Heartbeat CPU 0 instructions: 540000000 cycles: 538660183 heartbeat IPC: 0.503756 cumulative IPC: 0.495421 (Simulation time: 3 hr 1 min 12 sec) 
Heartbeat CPU 3 instructions: 810000000 cycles: 540912730 heartbeat IPC: 1.06546 cumulative IPC: 1.07152 (Simulation time: 3 hr 1 min 47 sec) 
Heartbeat CPU 1 instructions: 410000003 cycles: 545106232 heartbeat IPC: 0.428834 cumulative IPC: 0.417326 (Simulation time: 3 hr 2 min 57 sec) 
Heartbeat CPU 3 instructions: 820000000 cycles: 551361452 heartbeat IPC: 0.957055 cumulative IPC: 1.0684 (Simulation time: 3 hr 4 min 36 sec) 
Heartbeat CPU 2 instructions: 350000003 cycles: 556829802 heartbeat IPC: 0.417834 cumulative IPC: 0.385586 (Simulation time: 3 hr 6 min 0 sec) 
Heartbeat CPU 0 instructions: 550000001 cycles: 558068316 heartbeat IPC: 0.515248 cumulative IPC: 0.496407 (Simulation time: 3 hr 6 min 21 sec) 
Heartbeat CPU 3 instructions: 830000001 cycles: 560754548 heartbeat IPC: 1.06461 cumulative IPC: 1.06831 (Simulation time: 3 hr 7 min 3 sec) 
Heartbeat CPU 1 instructions: 420000000 cycles: 568413950 heartbeat IPC: 0.429042 cumulative IPC: 0.418007 (Simulation time: 3 hr 9 min 8 sec) 
Heartbeat CPU 3 instructions: 840000000 cycles: 569386569 heartbeat IPC: 1.15848 cumulative IPC: 1.07025 (Simulation time: 3 hr 9 min 25 sec) 
Heartbeat CPU 0 instructions: 560000000 cycles: 578541443 heartbeat IPC: 0.488445 cumulative IPC: 0.49601 (Simulation time: 3 hr 11 min 43 sec) 
Heartbeat CPU 3 instructions: 850000001 cycles: 578972926 heartbeat IPC: 1.04315 cumulative IPC: 1.06962 (Simulation time: 3 hr 11 min 50 sec) 
Heartbeat CPU 2 instructions: 360000000 cycles: 581667325 heartbeat IPC: 0.402617 cumulative IPC: 0.386608 (Simulation time: 3 hr 12 min 34 sec) 
Heartbeat CPU 3 instructions: 860000000 cycles: 589574610 heartbeat IPC: 0.943246 cumulative IPC: 1.06644 (Simulation time: 3 hr 14 min 31 sec) 
Heartbeat CPU 1 instructions: 430000001 cycles: 591692040 heartbeat IPC: 0.429589 cumulative IPC: 0.418643 (Simulation time: 3 hr 14 min 58 sec) 
Heartbeat CPU 3 instructions: 870000001 cycles: 598640694 heartbeat IPC: 1.10301 cumulative IPC: 1.06721 (Simulation time: 3 hr 16 min 32 sec) 
Heartbeat CPU 0 instructions: 570000001 cycles: 598803890 heartbeat IPC: 0.493524 cumulative IPC: 0.495893 (Simulation time: 3 hr 16 min 35 sec) 
Heartbeat CPU 2 instructions: 370000000 cycles: 605078754 heartbeat IPC: 0.427142 cumulative IPC: 0.388778 (Simulation time: 3 hr 18 min 4 sec) 
Heartbeat CPU 3 instructions: 880000000 cycles: 606501306 heartbeat IPC: 1.27217 cumulative IPC: 1.07089 (Simulation time: 3 hr 18 min 24 sec) 
Heartbeat CPU 1 instructions: 440000000 cycles: 614996775 heartbeat IPC: 0.429097 cumulative IPC: 0.419188 (Simulation time: 3 hr 20 min 19 sec) 
Heartbeat CPU 3 instructions: 890000000 cycles: 616271567 heartbeat IPC: 1.02351 cumulative IPC: 1.06985 (Simulation time: 3 hr 20 min 36 sec) 
Heartbeat CPU 0 instructions: 580000000 cycles: 619010787 heartbeat IPC: 0.49488 cumulative IPC: 0.495848 (Simulation time: 3 hr 21 min 15 sec) 
Heartbeat CPU 3 instructions: 900000000 cycles: 626009729 heartbeat IPC: 1.02689 cumulative IPC: 1.06894 (Simulation time: 3 hr 22 min 56 sec) 
Heartbeat CPU 2 instructions: 380000000 cycles: 628166640 heartbeat IPC: 0.433128 cumulative IPC: 0.391002 (Simulation time: 3 hr 23 min 28 sec) 
Heartbeat CPU 3 instructions: 910000002 cycles: 636283671 heartbeat IPC: 0.973336 cumulative IPC: 1.06684 (Simulation time: 3 hr 25 min 27 sec) 
Heartbeat CPU 1 instructions: 450000003 cycles: 638112786 heartbeat IPC: 0.432601 cumulative IPC: 0.419847 (Simulation time: 3 hr 25 min 55 sec) 
Heartbeat CPU 0 instructions: 590000001 cycles: 638493830 heartbeat IPC: 0.513267 cumulative IPC: 0.496569 (Simulation time: 3 hr 26 min 2 sec) 
Heartbeat CPU 3 instructions: 920000000 cycles: 645323625 heartbeat IPC: 1.1062 cumulative IPC: 1.06759 (Simulation time: 3 hr 27 min 56 sec) 
Heartbeat CPU 2 instructions: 390000001 cycles: 647842873 heartbeat IPC: 0.508227 cumulative IPC: 0.395807 (Simulation time: 3 hr 28 min 38 sec) 
Heartbeat CPU 3 instructions: 930000002 cycles: 654391876 heartbeat IPC: 1.10275 cumulative IPC: 1.06824 (Simulation time: 3 hr 30 min 27 sec) 
Heartbeat CPU 0 instructions: 600000000 cycles: 657729368 heartbeat IPC: 0.519871 cumulative IPC: 0.497484 (Simulation time: 3 hr 31 min 22 sec) 
Heartbeat CPU 1 instructions: 460000000 cycles: 661471078 heartbeat IPC: 0.428113 cumulative IPC: 0.420238 (Simulation time: 3 hr 32 min 24 sec) 
Heartbeat CPU 3 instructions: 940000000 cycles: 663420394 heartbeat IPC: 1.1076 cumulative IPC: 1.06896 (Simulation time: 3 hr 32 min 56 sec) 
Heartbeat CPU 2 instructions: 400000000 cycles: 668363044 heartbeat IPC: 0.487325 cumulative IPC: 0.399559 (Simulation time: 3 hr 34 min 18 sec) 
Heartbeat CPU 3 instructions: 950000003 cycles: 672454875 heartbeat IPC: 1.10687 cumulative IPC: 1.06964 (Simulation time: 3 hr 35 min 28 sec) 
Heartbeat CPU 0 instructions: 610000001 cycles: 677353394 heartbeat IPC: 0.509579 cumulative IPC: 0.49795 (Simulation time: 3 hr 36 min 50 sec) 
Heartbeat CPU 3 instructions: 960000000 cycles: 681480953 heartbeat IPC: 1.1079 cumulative IPC: 1.07031 (Simulation time: 3 hr 37 min 58 sec) 
Heartbeat CPU 1 instructions: 470000001 cycles: 684718827 heartbeat IPC: 0.430149 cumulative IPC: 0.420684 (Simulation time: 3 hr 38 min 52 sec) 
Heartbeat CPU 2 instructions: 410000000 cycles: 688525755 heartbeat IPC: 0.495965 cumulative IPC: 0.403292 (Simulation time: 3 hr 39 min 54 sec) 
Heartbeat CPU 3 instructions: 970000000 cycles: 690699293 heartbeat IPC: 1.08479 cumulative IPC: 1.07057 (Simulation time: 3 hr 40 min 41 sec) 
Heartbeat CPU 0 instructions: 620000000 cycles: 696707569 heartbeat IPC: 0.516684 cumulative IPC: 0.498635 (Simulation time: 3 hr 42 min 41 sec) 
Heartbeat CPU 3 instructions: 980000000 cycles: 700041545 heartbeat IPC: 1.07041 cumulative IPC: 1.07056 (Simulation time: 3 hr 43 min 36 sec) 
Heartbeat CPU 3 instructions: 990000001 cycles: 707848083 heartbeat IPC: 1.28098 cumulative IPC: 1.07361 (Simulation time: 3 hr 46 min 5 sec) 
Heartbeat CPU 1 instructions: 480000000 cycles: 708014443 heartbeat IPC: 0.429265 cumulative IPC: 0.421054 (Simulation time: 3 hr 46 min 8 sec) 
Heartbeat CPU 2 instructions: 420000000 cycles: 708243890 heartbeat IPC: 0.507147 cumulative IPC: 0.407081 (Simulation time: 3 hr 46 min 11 sec) 
Heartbeat CPU 0 instructions: 630000000 cycles: 716104847 heartbeat IPC: 0.515536 cumulative IPC: 0.499233 (Simulation time: 3 hr 48 min 6 sec) 
Heartbeat CPU 3 instructions: 1000000000 cycles: 718993143 heartbeat IPC: 0.897258 cumulative IPC: 1.07004 (Simulation time: 3 hr 48 min 46 sec) 
Heartbeat CPU 3 instructions: 1010000002 cycles: 728530592 heartbeat IPC: 1.0485 cumulative IPC: 1.06967 (Simulation time: 3 hr 51 min 16 sec) 
Heartbeat CPU 2 instructions: 430000003 cycles: 730217243 heartbeat IPC: 0.455097 cumulative IPC: 0.408957 (Simulation time: 3 hr 51 min 44 sec) 
Heartbeat CPU 1 instructions: 490000000 cycles: 731443718 heartbeat IPC: 0.426816 cumulative IPC: 0.421294 (Simulation time: 3 hr 52 min 4 sec) 
Heartbeat CPU 0 instructions: 640000000 cycles: 735930466 heartbeat IPC: 0.504398 cumulative IPC: 0.499413 (Simulation time: 3 hr 53 min 16 sec) 
Heartbeat CPU 3 instructions: 1020000000 cycles: 737648047 heartbeat IPC: 1.0968 cumulative IPC: 1.07011 (Simulation time: 3 hr 53 min 45 sec) 
Heartbeat CPU 3 instructions: 1030000000 cycles: 746851055 heartbeat IPC: 1.0866 cumulative IPC: 1.07037 (Simulation time: 3 hr 56 min 13 sec) 
Heartbeat CPU 2 instructions: 440000000 cycles: 750300309 heartbeat IPC: 0.497932 cumulative IPC: 0.412025 (Simulation time: 3 hr 57 min 7 sec) 
Heartbeat CPU 1 instructions: 500000000 cycles: 754553663 heartbeat IPC: 0.432714 cumulative IPC: 0.421744 (Simulation time: 3 hr 58 min 15 sec) 
Heartbeat CPU 0 instructions: 650000000 cycles: 755943658 heartbeat IPC: 0.49967 cumulative IPC: 0.499422 (Simulation time: 3 hr 58 min 36 sec) 
Heartbeat CPU 3 instructions: 1040000000 cycles: 756720693 heartbeat IPC: 1.01321 cumulative IPC: 1.06941 (Simulation time: 3 hr 58 min 48 sec) 
Heartbeat CPU 3 instructions: 1050000001 cycles: 767645181 heartbeat IPC: 0.915375 cumulative IPC: 1.06661 (Simulation time: 4 hr 1 min 26 sec) 
Heartbeat CPU 2 instructions: 450000002 cycles: 771059590 heartbeat IPC: 0.481712 cumulative IPC: 0.414423 (Simulation time: 4 hr 2 min 17 sec) 
Heartbeat CPU 3 instructions: 1060000000 cycles: 775095203 heartbeat IPC: 1.34228 cumulative IPC: 1.06999 (Simulation time: 4 hr 3 min 19 sec) 
Heartbeat CPU 0 instructions: 660000000 cycles: 776130669 heartbeat IPC: 0.495368 cumulative IPC: 0.499288 (Simulation time: 4 hr 3 min 35 sec) 
Heartbeat CPU 1 instructions: 510000001 cycles: 777894524 heartbeat IPC: 0.428433 cumulative IPC: 0.422 (Simulation time: 4 hr 4 min 1 sec) 
Heartbeat CPU 3 instructions: 1070000001 cycles: 784870487 heartbeat IPC: 1.02299 cumulative IPC: 1.06924 (Simulation time: 4 hr 5 min 50 sec) 
Heartbeat CPU 2 instructions: 460000000 cycles: 790842760 heartbeat IPC: 0.50548 cumulative IPC: 0.417314 (Simulation time: 4 hr 7 min 27 sec) 
Heartbeat CPU 3 instructions: 1080000000 cycles: 794155687 heartbeat IPC: 1.07698 cumulative IPC: 1.06936 (Simulation time: 4 hr 8 min 17 sec) 
Heartbeat CPU 0 instructions: 670000000 cycles: 797054193 heartbeat IPC: 0.477931 cumulative IPC: 0.498577 (Simulation time: 4 hr 9 min 1 sec) 
Heartbeat CPU 1 instructions: 520000000 cycles: 801098759 heartbeat IPC: 0.430956 cumulative IPC: 0.422328 (Simulation time: 4 hr 10 min 2 sec) 
Heartbeat CPU 3 instructions: 1090000000 cycles: 804621900 heartbeat IPC: 0.955455 cumulative IPC: 1.06749 (Simulation time: 4 hr 10 min 54 sec) 
Heartbeat CPU 2 instructions: 470000003 cycles: 810430114 heartbeat IPC: 0.510534 cumulative IPC: 0.420156 (Simulation time: 4 hr 12 min 25 sec) 
Heartbeat CPU 3 instructions: 1100000000 cycles: 813912880 heartbeat IPC: 1.07631 cumulative IPC: 1.06761 (Simulation time: 4 hr 13 min 21 sec) 
Heartbeat CPU 0 instructions: 680000000 cycles: 817638359 heartbeat IPC: 0.48581 cumulative IPC: 0.498173 (Simulation time: 4 hr 14 min 19 sec) 
Heartbeat CPU 3 instructions: 1110000001 cycles: 823026230 heartbeat IPC: 1.09729 cumulative IPC: 1.06803 (Simulation time: 4 hr 15 min 45 sec) 
Heartbeat CPU 1 instructions: 530000001 cycles: 824119966 heartbeat IPC: 0.434382 cumulative IPC: 0.422751 (Simulation time: 4 hr 16 min 3 sec) 
Heartbeat CPU 2 instructions: 480000000 cycles: 830304226 heartbeat IPC: 0.503167 cumulative IPC: 0.422646 (Simulation time: 4 hr 17 min 41 sec) 
Heartbeat CPU 3 instructions: 1120000000 cycles: 832114795 heartbeat IPC: 1.10028 cumulative IPC: 1.06847 (Simulation time: 4 hr 18 min 10 sec) 
Heartbeat CPU 0 instructions: 690000002 cycles: 838209035 heartbeat IPC: 0.486129 cumulative IPC: 0.497803 (Simulation time: 4 hr 19 min 47 sec) 
Heartbeat CPU 3 instructions: 1130000000 cycles: 841157070 heartbeat IPC: 1.10592 cumulative IPC: 1.06897 (Simulation time: 4 hr 20 min 35 sec) 
Heartbeat CPU 1 instructions: 540000000 cycles: 846890416 heartbeat IPC: 0.439166 cumulative IPC: 0.423301 (Simulation time: 4 hr 22 min 6 sec) 
Heartbeat CPU 2 instructions: 490000000 cycles: 850080334 heartbeat IPC: 0.505661 cumulative IPC: 0.425052 (Simulation time: 4 hr 22 min 57 sec) 
Heartbeat CPU 3 instructions: 1140000000 cycles: 850242849 heartbeat IPC: 1.10062 cumulative IPC: 1.06939 (Simulation time: 4 hr 22 min 59 sec) 
Heartbeat CPU 0 instructions: 700000000 cycles: 858050495 heartbeat IPC: 0.503995 cumulative IPC: 0.497981 (Simulation time: 4 hr 25 min 4 sec) 
Heartbeat CPU 3 instructions: 1150000001 cycles: 859395889 heartbeat IPC: 1.09253 cumulative IPC: 1.0697 (Simulation time: 4 hr 25 min 25 sec) 
Heartbeat CPU 3 instructions: 1160000000 cycles: 868721290 heartbeat IPC: 1.07234 cumulative IPC: 1.06973 (Simulation time: 4 hr 27 min 51 sec) 
Heartbeat CPU 2 instructions: 500000000 cycles: 869923454 heartbeat IPC: 0.503953 cumulative IPC: 0.427282 (Simulation time: 4 hr 28 min 10 sec) 
Heartbeat CPU 1 instructions: 550000000 cycles: 870021017 heartbeat IPC: 0.432328 cumulative IPC: 0.423598 (Simulation time: 4 hr 28 min 11 sec) 
Heartbeat CPU 3 instructions: 1170000003 cycles: 876615221 heartbeat IPC: 1.2668 cumulative IPC: 1.07193 (Simulation time: 4 hr 29 min 59 sec) 
Heartbeat CPU 0 instructions: 710000000 cycles: 877993524 heartbeat IPC: 0.501428 cumulative IPC: 0.498078 (Simulation time: 4 hr 30 min 22 sec) 
Heartbeat CPU 3 instructions: 1180000000 cycles: 886992136 heartbeat IPC: 0.963677 cumulative IPC: 1.07037 (Simulation time: 4 hr 32 min 35 sec) 
Heartbeat CPU 2 instructions: 510000000 cycles: 889569242 heartbeat IPC: 0.509015 cumulative IPC: 0.429507 (Simulation time: 4 hr 33 min 14 sec) 
Heartbeat CPU 1 instructions: 560000000 cycles: 893229164 heartbeat IPC: 0.430883 cumulative IPC: 0.423831 (Simulation time: 4 hr 34 min 11 sec) 
Heartbeat CPU 3 instructions: 1190000000 cycles: 897212590 heartbeat IPC: 0.97843 cumulative IPC: 1.06908 (Simulation time: 4 hr 35 min 9 sec) 
Heartbeat CPU 0 instructions: 720000000 cycles: 897472216 heartbeat IPC: 0.513381 cumulative IPC: 0.498487 (Simulation time: 4 hr 35 min 12 sec) 
Heartbeat CPU 3 instructions: 1200000000 cycles: 906710015 heartbeat IPC: 1.05292 cumulative IPC: 1.06887 (Simulation time: 4 hr 37 min 45 sec) 
Heartbeat CPU 2 instructions: 520000000 cycles: 913813030 heartbeat IPC: 0.412477 cumulative IPC: 0.428953 (Simulation time: 4 hr 39 min 41 sec) 
Heartbeat CPU 3 instructions: 1210000001 cycles: 915096861 heartbeat IPC: 1.19234 cumulative IPC: 1.07026 (Simulation time: 4 hr 40 min 4 sec) 
Heartbeat CPU 1 instructions: 570000001 cycles: 916350720 heartbeat IPC: 0.432497 cumulative IPC: 0.424099 (Simulation time: 4 hr 40 min 24 sec) 
Heartbeat CPU 0 instructions: 730000003 cycles: 918034040 heartbeat IPC: 0.486338 cumulative IPC: 0.498154 (Simulation time: 4 hr 40 min 48 sec) 
Heartbeat CPU 3 instructions: 1220000000 cycles: 925010551 heartbeat IPC: 1.00871 cumulative IPC: 1.06945 (Simulation time: 4 hr 42 min 28 sec) 
Heartbeat CPU 2 instructions: 530000002 cycles: 935563086 heartbeat IPC: 0.459769 cumulative IPC: 0.429826 (Simulation time: 4 hr 45 min 0 sec) 
Heartbeat CPU 3 instructions: 1230000003 cycles: 937112692 heartbeat IPC: 0.8263 cumulative IPC: 1.06562 (Simulation time: 4 hr 45 min 21 sec) 
Heartbeat CPU 0 instructions: 740000000 cycles: 937420954 heartbeat IPC: 0.515812 cumulative IPC: 0.498599 (Simulation time: 4 hr 45 min 25 sec) 
Heartbeat CPU 1 instructions: 580000000 cycles: 939257165 heartbeat IPC: 0.436558 cumulative IPC: 0.424469 (Simulation time: 4 hr 45 min 54 sec) 
Heartbeat CPU 3 instructions: 1240000000 cycles: 944045415 heartbeat IPC: 1.44243 cumulative IPC: 1.06899 (Simulation time: 4 hr 47 min 8 sec) 
Heartbeat CPU 3 instructions: 1250000000 cycles: 952572637 heartbeat IPC: 1.17271 cumulative IPC: 1.07012 (Simulation time: 4 hr 49 min 16 sec) 
Heartbeat CPU 2 instructions: 540000000 cycles: 955182425 heartbeat IPC: 0.509701 cumulative IPC: 0.431817 (Simulation time: 4 hr 49 min 55 sec) 
Heartbeat CPU 0 instructions: 750000003 cycles: 956710585 heartbeat IPC: 0.518413 cumulative IPC: 0.499083 (Simulation time: 4 hr 50 min 15 sec) 
Heartbeat CPU 3 instructions: 1260000000 cycles: 962428629 heartbeat IPC: 1.01461 cumulative IPC: 1.06943 (Simulation time: 4 hr 51 min 40 sec) 
Heartbeat CPU 1 instructions: 590000003 cycles: 962596721 heartbeat IPC: 0.428457 cumulative IPC: 0.424586 (Simulation time: 4 hr 51 min 43 sec) 
Heartbeat CPU 3 instructions: 1270000002 cycles: 972601872 heartbeat IPC: 0.982971 cumulative IPC: 1.06834 (Simulation time: 4 hr 54 min 14 sec) 
Heartbeat CPU 2 instructions: 550000001 cycles: 974755626 heartbeat IPC: 0.510903 cumulative IPC: 0.433735 (Simulation time: 4 hr 54 min 47 sec) 
Heartbeat CPU 0 instructions: 760000000 cycles: 975688848 heartbeat IPC: 0.526918 cumulative IPC: 0.499737 (Simulation time: 4 hr 55 min 1 sec) 
Heartbeat CPU 3 instructions: 1280000000 cycles: 982648259 heartbeat IPC: 0.995383 cumulative IPC: 1.06744 (Simulation time: 4 hr 56 min 49 sec) 
Heartbeat CPU 1 instructions: 600000000 cycles: 985854199 heartbeat IPC: 0.429969 cumulative IPC: 0.424739 (Simulation time: 4 hr 57 min 39 sec) 
Heartbeat CPU 3 instructions: 1290000001 cycles: 991728339 heartbeat IPC: 1.10131 cumulative IPC: 1.06781 (Simulation time: 4 hr 59 min 17 sec) 
Heartbeat CPU 0 instructions: 770000003 cycles: 994935815 heartbeat IPC: 0.519563 cumulative IPC: 0.500198 (Simulation time: 5 hr 0 min 6 sec) 
Heartbeat CPU 2 instructions: 560000000 cycles: 995880734 heartbeat IPC: 0.47337 cumulative IPC: 0.434746 (Simulation time: 5 hr 0 min 21 sec) 
Heartbeat CPU 3 instructions: 1300000000 cycles: 1000803153 heartbeat IPC: 1.10195 cumulative IPC: 1.06818 (Simulation time: 5 hr 1 min 37 sec) 
Heartbeat CPU 1 instructions: 610000000 cycles: 1009203215 heartbeat IPC: 0.428284 cumulative IPC: 0.424837 (Simulation time: 5 hr 3 min 48 sec) 
Heartbeat CPU 3 instructions: 1310000003 cycles: 1009813354 heartbeat IPC: 1.10985 cumulative IPC: 1.06863 (Simulation time: 5 hr 3 min 58 sec) 
Heartbeat CPU 0 instructions: 780000000 cycles: 1013812092 heartbeat IPC: 0.529765 cumulative IPC: 0.500858 (Simulation time: 5 hr 5 min 0 sec) 
Heartbeat CPU 2 instructions: 570000001 cycles: 1018730757 heartbeat IPC: 0.437636 cumulative IPC: 0.434824 (Simulation time: 5 hr 6 min 17 sec) 
Heartbeat CPU 3 instructions: 1320000000 cycles: 1018853866 heartbeat IPC: 1.10613 cumulative IPC: 1.06903 (Simulation time: 5 hr 6 min 19 sec) 
Heartbeat CPU 3 instructions: 1330000000 cycles: 1027898852 heartbeat IPC: 1.10558 cumulative IPC: 1.06941 (Simulation time: 5 hr 8 min 41 sec) 
Heartbeat CPU 1 instructions: 620000000 cycles: 1032447685 heartbeat IPC: 0.43021 cumulative IPC: 0.424982 (Simulation time: 5 hr 9 min 56 sec) 
Heartbeat CPU 0 instructions: 790000001 cycles: 1033420728 heartbeat IPC: 0.509979 cumulative IPC: 0.501065 (Simulation time: 5 hr 10 min 12 sec) 
Heartbeat CPU 3 instructions: 1340000000 cycles: 1037238832 heartbeat IPC: 1.07067 cumulative IPC: 1.06942 (Simulation time: 5 hr 11 min 15 sec) 
Heartbeat CPU 2 instructions: 580000000 cycles: 1039196743 heartbeat IPC: 0.488616 cumulative IPC: 0.436087 (Simulation time: 5 hr 11 min 46 sec) 
Heartbeat CPU 3 instructions: 1350000001 cycles: 1046251618 heartbeat IPC: 1.10953 cumulative IPC: 1.06984 (Simulation time: 5 hr 13 min 46 sec) 
Heartbeat CPU 0 instructions: 800000000 cycles: 1053008291 heartbeat IPC: 0.510528 cumulative IPC: 0.501274 (Simulation time: 5 hr 15 min 39 sec) 
Heartbeat CPU 3 instructions: 1360000000 cycles: 1055088486 heartbeat IPC: 1.13162 cumulative IPC: 1.07045 (Simulation time: 5 hr 16 min 10 sec) 
Heartbeat CPU 1 instructions: 630000001 cycles: 1055517322 heartbeat IPC: 0.43347 cumulative IPC: 0.425202 (Simulation time: 5 hr 16 min 17 sec) 
Heartbeat CPU 2 instructions: 590000003 cycles: 1059013040 heartbeat IPC: 0.504635 cumulative IPC: 0.437611 (Simulation time: 5 hr 17 min 9 sec) 
Heartbeat CPU 3 instructions: 1370000000 cycles: 1065257025 heartbeat IPC: 0.983425 cumulative IPC: 1.06946 (Simulation time: 5 hr 18 min 46 sec) 
Heartbeat CPU 0 instructions: 810000000 cycles: 1072242085 heartbeat IPC: 0.519918 cumulative IPC: 0.501671 (Simulation time: 5 hr 20 min 38 sec) 
Heartbeat CPU 3 instructions: 1380000000 cycles: 1074869968 heartbeat IPC: 1.04026 cumulative IPC: 1.06916 (Simulation time: 5 hr 21 min 18 sec) 
Heartbeat CPU 1 instructions: 640000000 cycles: 1078535493 heartbeat IPC: 0.434439 cumulative IPC: 0.425436 (Simulation time: 5 hr 22 min 13 sec) 
Heartbeat CPU 2 instructions: 600000000 cycles: 1082703334 heartbeat IPC: 0.422114 cumulative IPC: 0.43721 (Simulation time: 5 hr 23 min 21 sec) 
Heartbeat CPU 3 instructions: 1390000003 cycles: 1083657549 heartbeat IPC: 1.13797 cumulative IPC: 1.06982 (Simulation time: 5 hr 23 min 35 sec) 
Heartbeat CPU 0 instructions: 820000000 cycles: 1092987349 heartbeat IPC: 0.482038 cumulative IPC: 0.50123 (Simulation time: 5 hr 26 min 3 sec) 
Heartbeat CPU 3 instructions: 1400000000 cycles: 1093300112 heartbeat IPC: 1.03707 cumulative IPC: 1.06947 (Simulation time: 5 hr 26 min 8 sec) 
Heartbeat CPU 1 instructions: 650000002 cycles: 1101661689 heartbeat IPC: 0.43241 cumulative IPC: 0.425609 (Simulation time: 5 hr 28 min 20 sec) 
Heartbeat CPU 2 instructions: 610000000 cycles: 1103299379 heartbeat IPC: 0.48553 cumulative IPC: 0.438274 (Simulation time: 5 hr 28 min 47 sec) 
Heartbeat CPU 3 instructions: 1410000003 cycles: 1103944292 heartbeat IPC: 0.939481 cumulative IPC: 1.068 (Simulation time: 5 hr 28 min 57 sec) 
Finished CPU 3 instructions: 1000000000 cycles: 936375897 cumulative IPC: 1.06795 (Simulation time: 5 hr 29 min 1 sec) 
Heartbeat CPU 3 instructions: 1420000000 cycles: 1113129653 heartbeat IPC: 1.08869 cumulative IPC: 1.0682 (Simulation time: 5 hr 31 min 33 sec) 
Heartbeat CPU 0 instructions: 830000002 cycles: 1113488760 heartbeat IPC: 0.487771 cumulative IPC: 0.500939 (Simulation time: 5 hr 31 min 40 sec) 
Heartbeat CPU 2 instructions: 620000000 cycles: 1115847559 heartbeat IPC: 0.796928 cumulative IPC: 0.443021 (Simulation time: 5 hr 32 min 23 sec) 
Heartbeat CPU 3 instructions: 1430000003 cycles: 1121020122 heartbeat IPC: 1.26735 cumulative IPC: 1.06985 (Simulation time: 5 hr 33 min 58 sec) 
Heartbeat CPU 1 instructions: 660000000 cycles: 1124914530 heartbeat IPC: 0.430055 cumulative IPC: 0.425717 (Simulation time: 5 hr 35 min 8 sec) 
Heartbeat CPU 2 instructions: 630000002 cycles: 1128415720 heartbeat IPC: 0.795662 cumulative IPC: 0.447635 (Simulation time: 5 hr 36 min 1 sec) 
Heartbeat CPU 3 instructions: 1440000000 cycles: 1130994772 heartbeat IPC: 1.00254 cumulative IPC: 1.06915 (Simulation time: 5 hr 36 min 43 sec) 
Heartbeat CPU 0 instructions: 840000000 cycles: 1133869790 heartbeat IPC: 0.490652 cumulative IPC: 0.500722 (Simulation time: 5 hr 37 min 31 sec) 
Heartbeat CPU 3 instructions: 1450000001 cycles: 1140766370 heartbeat IPC: 1.02337 cumulative IPC: 1.06869 (Simulation time: 5 hr 39 min 28 sec) 
Heartbeat CPU 2 instructions: 640000000 cycles: 1140925965 heartbeat IPC: 0.799345 cumulative IPC: 0.452156 (Simulation time: 5 hr 39 min 31 sec) 
Heartbeat CPU 1 instructions: 670000001 cycles: 1148217534 heartbeat IPC: 0.429129 cumulative IPC: 0.425798 (Simulation time: 5 hr 41 min 30 sec) 
Heartbeat CPU 3 instructions: 1460000000 cycles: 1151153328 heartbeat IPC: 0.962746 cumulative IPC: 1.06757 (Simulation time: 5 hr 42 min 21 sec) 
Heartbeat CPU 2 instructions: 650000002 cycles: 1153490397 heartbeat IPC: 0.795898 cumulative IPC: 0.456538 (Simulation time: 5 hr 43 min 4 sec) 
Heartbeat CPU 0 instructions: 850000000 cycles: 1153521960 heartbeat IPC: 0.50885 cumulative IPC: 0.500884 (Simulation time: 5 hr 43 min 4 sec) 
Heartbeat CPU 3 instructions: 1470000000 cycles: 1160366967 heartbeat IPC: 1.08535 cumulative IPC: 1.06774 (Simulation time: 5 hr 45 min 15 sec) 
Heartbeat CPU 2 instructions: 660000000 cycles: 1166038534 heartbeat IPC: 0.796931 cumulative IPC: 0.460817 (Simulation time: 5 hr 47 min 4 sec) 
Heartbeat CPU 3 instructions: 1480000000 cycles: 1169523502 heartbeat IPC: 1.09212 cumulative IPC: 1.06796 (Simulation time: 5 hr 48 min 11 sec) 
Heartbeat CPU 1 instructions: 680000000 cycles: 1171376836 heartbeat IPC: 0.431792 cumulative IPC: 0.425936 (Simulation time: 5 hr 48 min 47 sec) 
Heartbeat CPU 0 instructions: 860000000 cycles: 1172827862 heartbeat IPC: 0.517976 cumulative IPC: 0.501212 (Simulation time: 5 hr 49 min 14 sec) 
Heartbeat CPU 2 instructions: 670000000 cycles: 1178538775 heartbeat IPC: 0.799985 cumulative IPC: 0.465012 (Simulation time: 5 hr 51 min 4 sec) 
Heartbeat CPU 3 instructions: 1490000002 cycles: 1178674490 heartbeat IPC: 1.09278 cumulative IPC: 1.06818 (Simulation time: 5 hr 51 min 6 sec) 
Heartbeat CPU 3 instructions: 1500000000 cycles: 1187794688 heartbeat IPC: 1.09647 cumulative IPC: 1.06844 (Simulation time: 5 hr 53 min 47 sec) 
Heartbeat CPU 2 instructions: 680000000 cycles: 1191201276 heartbeat IPC: 0.789733 cumulative IPC: 0.469029 (Simulation time: 5 hr 54 min 52 sec) 
Heartbeat CPU 0 instructions: 870000003 cycles: 1191863634 heartbeat IPC: 0.525327 cumulative IPC: 0.50166 (Simulation time: 5 hr 55 min 4 sec) 
Heartbeat CPU 1 instructions: 690000000 cycles: 1194468991 heartbeat IPC: 0.433048 cumulative IPC: 0.426096 (Simulation time: 5 hr 55 min 50 sec) 
Heartbeat CPU 3 instructions: 1510000002 cycles: 1196947372 heartbeat IPC: 1.09258 cumulative IPC: 1.06865 (Simulation time: 5 hr 56 min 38 sec) 
Heartbeat CPU 2 instructions: 690000003 cycles: 1203945228 heartbeat IPC: 0.784686 cumulative IPC: 0.472912 (Simulation time: 5 hr 58 min 49 sec) 
Heartbeat CPU 3 instructions: 1520000000 cycles: 1206186210 heartbeat IPC: 1.08239 cumulative IPC: 1.06877 (Simulation time: 5 hr 59 min 37 sec) 
Heartbeat CPU 0 instructions: 880000000 cycles: 1210879074 heartbeat IPC: 0.525888 cumulative IPC: 0.502102 (Simulation time: 6 hr 1 min 2 sec) 
Heartbeat CPU 3 instructions: 1530000003 cycles: 1215542832 heartbeat IPC: 1.06876 cumulative IPC: 1.06877 (Simulation time: 6 hr 2 min 29 sec) 
Heartbeat CPU 2 instructions: 700000000 cycles: 1216019255 heartbeat IPC: 0.828224 cumulative IPC: 0.477004 (Simulation time: 6 hr 2 min 38 sec) 
Heartbeat CPU 1 instructions: 700000000 cycles: 1217630068 heartbeat IPC: 0.431759 cumulative IPC: 0.426221 (Simulation time: 6 hr 3 min 9 sec) 
Heartbeat CPU 3 instructions: 1540000000 cycles: 1223298574 heartbeat IPC: 1.28937 cumulative IPC: 1.07039 (Simulation time: 6 hr 4 min 59 sec) 
Heartbeat CPU 2 instructions: 710000003 cycles: 1227998797 heartbeat IPC: 0.834757 cumulative IPC: 0.481047 (Simulation time: 6 hr 6 min 21 sec) 
Heartbeat CPU 0 instructions: 890000001 cycles: 1229977855 heartbeat IPC: 0.523594 cumulative IPC: 0.502488 (Simulation time: 6 hr 6 min 56 sec) 
Heartbeat CPU 3 instructions: 1550000001 cycles: 1233478318 heartbeat IPC: 0.982343 cumulative IPC: 1.06955 (Simulation time: 6 hr 7 min 59 sec) 
Heartbeat CPU 2 instructions: 720000000 cycles: 1240059057 heartbeat IPC: 0.829169 cumulative IPC: 0.484962 (Simulation time: 6 hr 9 min 57 sec) 
Heartbeat CPU 1 instructions: 710000003 cycles: 1240787542 heartbeat IPC: 0.431826 cumulative IPC: 0.426342 (Simulation time: 6 hr 10 min 9 sec) 
Heartbeat CPU 3 instructions: 1560000000 cycles: 1243941801 heartbeat IPC: 0.955705 cumulative IPC: 1.06845 (Simulation time: 6 hr 11 min 3 sec) 
Heartbeat CPU 0 instructions: 900000000 cycles: 1249164550 heartbeat IPC: 0.521194 cumulative IPC: 0.50282 (Simulation time: 6 hr 12 min 31 sec) 
Heartbeat CPU 2 instructions: 730000001 cycles: 1252191886 heartbeat IPC: 0.82421 cumulative IPC: 0.488758 (Simulation time: 6 hr 13 min 20 sec) 
Heartbeat CPU 3 instructions: 1570000001 cycles: 1253257834 heartbeat IPC: 1.07342 cumulative IPC: 1.06849 (Simulation time: 6 hr 13 min 39 sec) 
Heartbeat CPU 3 instructions: 1580000000 cycles: 1262198256 heartbeat IPC: 1.11852 cumulative IPC: 1.0689 (Simulation time: 6 hr 16 min 10 sec) 
Heartbeat CPU 1 instructions: 720000000 cycles: 1263894526 heartbeat IPC: 0.432769 cumulative IPC: 0.426477 (Simulation time: 6 hr 16 min 37 sec) 
Heartbeat CPU 2 instructions: 740000000 cycles: 1264284202 heartbeat IPC: 0.826971 cumulative IPC: 0.492488 (Simulation time: 6 hr 16 min 43 sec) 
Heartbeat CPU 0 instructions: 910000002 cycles: 1269124921 heartbeat IPC: 0.500993 cumulative IPC: 0.502787 (Simulation time: 6 hr 18 min 2 sec) 
Heartbeat CPU 3 instructions: 1590000002 cycles: 1271696715 heartbeat IPC: 1.0528 cumulative IPC: 1.06876 (Simulation time: 6 hr 18 min 46 sec) 
Heartbeat CPU 2 instructions: 750000003 cycles: 1276303954 heartbeat IPC: 0.831964 cumulative IPC: 0.496169 (Simulation time: 6 hr 20 min 0 sec) 
Heartbeat CPU 3 instructions: 1600000000 cycles: 1283174038 heartbeat IPC: 0.871283 cumulative IPC: 1.06673 (Simulation time: 6 hr 21 min 46 sec) 
Heartbeat CPU 1 instructions: 730000001 cycles: 1286852851 heartbeat IPC: 0.435572 cumulative IPC: 0.426664 (Simulation time: 6 hr 22 min 54 sec) 
Heartbeat CPU 2 instructions: 760000000 cycles: 1288368319 heartbeat IPC: 0.828887 cumulative IPC: 0.499751 (Simulation time: 6 hr 23 min 22 sec) 
Heartbeat CPU 0 instructions: 920000000 cycles: 1288437348 heartbeat IPC: 0.517801 cumulative IPC: 0.503046 (Simulation time: 6 hr 23 min 23 sec) 
Heartbeat CPU 3 instructions: 1610000001 cycles: 1290436151 heartbeat IPC: 1.37701 cumulative IPC: 1.06873 (Simulation time: 6 hr 23 min 58 sec) 
Heartbeat CPU 3 instructions: 1620000000 cycles: 1299232551 heartbeat IPC: 1.13683 cumulative IPC: 1.06926 (Simulation time: 6 hr 26 min 28 sec) 
Heartbeat CPU 2 instructions: 770000000 cycles: 1300499329 heartbeat IPC: 0.824334 cumulative IPC: 0.503228 (Simulation time: 6 hr 26 min 46 sec) 
Heartbeat CPU 0 instructions: 930000002 cycles: 1308193328 heartbeat IPC: 0.506176 cumulative IPC: 0.5031 (Simulation time: 6 hr 28 min 52 sec) 
Heartbeat CPU 3 instructions: 1630000001 cycles: 1309270612 heartbeat IPC: 0.996208 cumulative IPC: 1.06862 (Simulation time: 6 hr 29 min 10 sec) 
Heartbeat CPU 1 instructions: 740000000 cycles: 1309978417 heartbeat IPC: 0.432422 cumulative IPC: 0.426781 (Simulation time: 6 hr 29 min 22 sec) 
Heartbeat CPU 2 instructions: 780000000 cycles: 1313184612 heartbeat IPC: 0.788315 cumulative IPC: 0.506385 (Simulation time: 6 hr 30 min 16 sec) 
Heartbeat CPU 3 instructions: 1640000000 cycles: 1319529371 heartbeat IPC: 0.974777 cumulative IPC: 1.06778 (Simulation time: 6 hr 32 min 2 sec) 
Heartbeat CPU 2 instructions: 790000000 cycles: 1325903989 heartbeat IPC: 0.786202 cumulative IPC: 0.509458 (Simulation time: 6 hr 33 min 51 sec) 
Heartbeat CPU 0 instructions: 940000000 cycles: 1327558281 heartbeat IPC: 0.516397 cumulative IPC: 0.503322 (Simulation time: 6 hr 34 min 20 sec) 
Heartbeat CPU 3 instructions: 1650000002 cycles: 1329159655 heartbeat IPC: 1.03839 cumulative IPC: 1.06754 (Simulation time: 6 hr 34 min 48 sec) 
Heartbeat CPU 1 instructions: 750000001 cycles: 1333104959 heartbeat IPC: 0.432404 cumulative IPC: 0.426892 (Simulation time: 6 hr 35 min 57 sec) 
Heartbeat CPU 3 instructions: 1660000000 cycles: 1338320619 heartbeat IPC: 1.09159 cumulative IPC: 1.06773 (Simulation time: 6 hr 37 min 29 sec) 
Heartbeat CPU 2 instructions: 800000000 cycles: 1338634498 heartbeat IPC: 0.785515 cumulative IPC: 0.51246 (Simulation time: 6 hr 37 min 34 sec) 
Heartbeat CPU 0 instructions: 950000003 cycles: 1347323522 heartbeat IPC: 0.505939 cumulative IPC: 0.503366 (Simulation time: 6 hr 40 min 6 sec) 
Heartbeat CPU 3 instructions: 1670000000 cycles: 1347436453 heartbeat IPC: 1.09699 cumulative IPC: 1.06796 (Simulation time: 6 hr 40 min 9 sec) 
Heartbeat CPU 2 instructions: 810000000 cycles: 1351360261 heartbeat IPC: 0.785807 cumulative IPC: 0.515399 (Simulation time: 6 hr 41 min 20 sec) 
Heartbeat CPU 1 instructions: 760000000 cycles: 1356134988 heartbeat IPC: 0.434216 cumulative IPC: 0.427034 (Simulation time: 6 hr 42 min 52 sec) 
Heartbeat CPU 3 instructions: 1680000000 cycles: 1356542184 heartbeat IPC: 1.09821 cumulative IPC: 1.06819 (Simulation time: 6 hr 42 min 59 sec) 
Heartbeat CPU 2 instructions: 820000000 cycles: 1364076437 heartbeat IPC: 0.7864 cumulative IPC: 0.51828 (Simulation time: 6 hr 45 min 20 sec) 
Heartbeat CPU 3 instructions: 1690000002 cycles: 1365660486 heartbeat IPC: 1.0967 cumulative IPC: 1.0684 (Simulation time: 6 hr 45 min 50 sec) 
Heartbeat CPU 0 instructions: 960000000 cycles: 1367072576 heartbeat IPC: 0.506353 cumulative IPC: 0.503415 (Simulation time: 6 hr 46 min 17 sec) 
Heartbeat CPU 3 instructions: 1700000000 cycles: 1374770315 heartbeat IPC: 1.09772 cumulative IPC: 1.06863 (Simulation time: 6 hr 48 min 41 sec) 
Heartbeat CPU 2 instructions: 830000003 cycles: 1376790850 heartbeat IPC: 0.786509 cumulative IPC: 0.521101 (Simulation time: 6 hr 49 min 21 sec) 
Heartbeat CPU 1 instructions: 770000002 cycles: 1379257369 heartbeat IPC: 0.432481 cumulative IPC: 0.427138 (Simulation time: 6 hr 50 min 8 sec) 
Heartbeat CPU 3 instructions: 1710000000 cycles: 1384156788 heartbeat IPC: 1.06536 cumulative IPC: 1.0686 (Simulation time: 6 hr 51 min 46 sec) 
Heartbeat CPU 0 instructions: 970000002 cycles: 1386898317 heartbeat IPC: 0.504395 cumulative IPC: 0.503431 (Simulation time: 6 hr 52 min 37 sec) 
Heartbeat CPU 2 instructions: 840000000 cycles: 1389519223 heartbeat IPC: 0.785646 cumulative IPC: 0.523857 (Simulation time: 6 hr 53 min 27 sec) 
Heartbeat CPU 3 instructions: 1720000000 cycles: 1392300535 heartbeat IPC: 1.22794 cumulative IPC: 1.06966 (Simulation time: 6 hr 54 min 22 sec) 
Heartbeat CPU 3 instructions: 1730000002 cycles: 1402209252 heartbeat IPC: 1.00921 cumulative IPC: 1.06917 (Simulation time: 6 hr 57 min 21 sec) 
Heartbeat CPU 1 instructions: 780000000 cycles: 1402240240 heartbeat IPC: 0.435107 cumulative IPC: 0.427287 (Simulation time: 6 hr 57 min 22 sec) 
Heartbeat CPU 2 instructions: 850000003 cycles: 1402244341 heartbeat IPC: 0.785848 cumulative IPC: 0.526557 (Simulation time: 6 hr 57 min 22 sec) 
Heartbeat CPU 0 instructions: 980000000 cycles: 1406779130 heartbeat IPC: 0.502997 cumulative IPC: 0.503424 (Simulation time: 6 hr 58 min 43 sec) 
Heartbeat CPU 3 instructions: 1740000000 cycles: 1412076675 heartbeat IPC: 1.01344 cumulative IPC: 1.06873 (Simulation time: 7 hr 0 min 18 sec) 
Heartbeat CPU 2 instructions: 860000000 cycles: 1414967626 heartbeat IPC: 0.78596 cumulative IPC: 0.529204 (Simulation time: 7 hr 1 min 13 sec) 
Heartbeat CPU 3 instructions: 1750000002 cycles: 1421790461 heartbeat IPC: 1.02946 cumulative IPC: 1.06843 (Simulation time: 7 hr 3 min 16 sec) 
Heartbeat CPU 1 instructions: 790000000 cycles: 1425007729 heartbeat IPC: 0.439223 cumulative IPC: 0.427503 (Simulation time: 7 hr 4 min 17 sec) 
Heartbeat CPU 0 instructions: 990000000 cycles: 1427235952 heartbeat IPC: 0.488834 cumulative IPC: 0.503187 (Simulation time: 7 hr 4 min 59 sec) 
Heartbeat CPU 2 instructions: 870000003 cycles: 1427795084 heartbeat IPC: 0.779578 cumulative IPC: 0.531753 (Simulation time: 7 hr 5 min 9 sec) 
Heartbeat CPU 3 instructions: 1760000000 cycles: 1430460854 heartbeat IPC: 1.15335 cumulative IPC: 1.06901 (Simulation time: 7 hr 5 min 56 sec) 
Heartbeat CPU 3 instructions: 1770000003 cycles: 1440130425 heartbeat IPC: 1.03417 cumulative IPC: 1.06875 (Simulation time: 7 hr 8 min 38 sec) 
Heartbeat CPU 2 instructions: 880000000 cycles: 1440522571 heartbeat IPC: 0.785701 cumulative IPC: 0.534292 (Simulation time: 7 hr 8 min 45 sec) 
Heartbeat CPU 0 instructions: 1000000000 cycles: 1447755527 heartbeat IPC: 0.48734 cumulative IPC: 0.502933 (Simulation time: 7 hr 10 min 42 sec) 
Heartbeat CPU 1 instructions: 800000000 cycles: 1447968983 heartbeat IPC: 0.435516 cumulative IPC: 0.427646 (Simulation time: 7 hr 10 min 45 sec) 
Heartbeat CPU 3 instructions: 1780000000 cycles: 1452150114 heartbeat IPC: 0.831968 cumulative IPC: 1.06653 (Simulation time: 7 hr 11 min 49 sec) 
Heartbeat CPU 2 instructions: 890000000 cycles: 1453248201 heartbeat IPC: 0.785816 cumulative IPC: 0.536782 (Simulation time: 7 hr 12 min 7 sec) 
Heartbeat CPU 3 instructions: 1790000002 cycles: 1458948129 heartbeat IPC: 1.47102 cumulative IPC: 1.06866 (Simulation time: 7 hr 13 min 44 sec) 
Heartbeat CPU 2 instructions: 900000000 cycles: 1465995791 heartbeat IPC: 0.784462 cumulative IPC: 0.539214 (Simulation time: 7 hr 15 min 41 sec) 
Heartbeat CPU 3 instructions: 1800000000 cycles: 1467496292 heartbeat IPC: 1.16984 cumulative IPC: 1.06933 (Simulation time: 7 hr 16 min 5 sec) 
Heartbeat CPU 0 instructions: 1010000001 cycles: 1468058543 heartbeat IPC: 0.492538 cumulative IPC: 0.502771 (Simulation time: 7 hr 16 min 15 sec) 
Heartbeat CPU 1 instructions: 810000000 cycles: 1470906058 heartbeat IPC: 0.435975 cumulative IPC: 0.427793 (Simulation time: 7 hr 16 min 59 sec) 
Heartbeat CPU 3 instructions: 1810000000 cycles: 1477445955 heartbeat IPC: 1.00506 cumulative IPC: 1.06884 (Simulation time: 7 hr 18 min 46 sec) 
Heartbeat CPU 2 instructions: 910000002 cycles: 1478700665 heartbeat IPC: 0.7871 cumulative IPC: 0.541617 (Simulation time: 7 hr 19 min 10 sec) 
Heartbeat CPU 3 instructions: 1820000000 cycles: 1487834534 heartbeat IPC: 0.962596 cumulative IPC: 1.068 (Simulation time: 7 hr 21 min 54 sec) 
Heartbeat CPU 0 instructions: 1020000000 cycles: 1487976718 heartbeat IPC: 0.502054 cumulative IPC: 0.50276 (Simulation time: 7 hr 21 min 57 sec) 
Heartbeat CPU 2 instructions: 920000000 cycles: 1491398212 heartbeat IPC: 0.787554 cumulative IPC: 0.543976 (Simulation time: 7 hr 22 min 57 sec) 
Heartbeat CPU 1 instructions: 820000000 cycles: 1493890247 heartbeat IPC: 0.435082 cumulative IPC: 0.427919 (Simulation time: 7 hr 23 min 43 sec) 
Heartbeat CPU 3 instructions: 1830000002 cycles: 1497895767 heartbeat IPC: 0.993914 cumulative IPC: 1.06744 (Simulation time: 7 hr 24 min 58 sec) 
Heartbeat CPU 2 instructions: 930000001 cycles: 1504122050 heartbeat IPC: 0.785926 cumulative IPC: 0.54628 (Simulation time: 7 hr 27 min 1 sec) 
Heartbeat CPU 3 instructions: 1840000000 cycles: 1507183619 heartbeat IPC: 1.07667 cumulative IPC: 1.06751 (Simulation time: 7 hr 28 min 8 sec) 
Heartbeat CPU 0 instructions: 1030000003 cycles: 1508053329 heartbeat IPC: 0.498092 cumulative IPC: 0.50269 (Simulation time: 7 hr 28 min 24 sec) 
Heartbeat CPU 3 instructions: 1850000002 cycles: 1516429790 heartbeat IPC: 1.08153 cumulative IPC: 1.0676 (Simulation time: 7 hr 31 min 1 sec) 
Heartbeat CPU 2 instructions: 940000000 cycles: 1516829306 heartbeat IPC: 0.786952 cumulative IPC: 0.548547 (Simulation time: 7 hr 31 min 9 sec) 
Heartbeat CPU 1 instructions: 830000003 cycles: 1517335226 heartbeat IPC: 0.426531 cumulative IPC: 0.427895 (Simulation time: 7 hr 31 min 19 sec) 
Heartbeat CPU 3 instructions: 1860000000 cycles: 1525681897 heartbeat IPC: 1.08083 cumulative IPC: 1.06769 (Simulation time: 7 hr 33 min 55 sec) 
Heartbeat CPU 0 instructions: 1040000000 cycles: 1528256536 heartbeat IPC: 0.494971 cumulative IPC: 0.502575 (Simulation time: 7 hr 34 min 43 sec) 
Heartbeat CPU 2 instructions: 950000003 cycles: 1529558868 heartbeat IPC: 0.785573 cumulative IPC: 0.550763 (Simulation time: 7 hr 35 min 9 sec) 
Heartbeat CPU 3 instructions: 1870000000 cycles: 1534964530 heartbeat IPC: 1.07728 cumulative IPC: 1.06776 (Simulation time: 7 hr 36 min 50 sec) 
Heartbeat CPU 1 instructions: 840000000 cycles: 1540374674 heartbeat IPC: 0.434038 cumulative IPC: 0.427998 (Simulation time: 7 hr 38 min 25 sec) 
Heartbeat CPU 2 instructions: 960000000 cycles: 1542278192 heartbeat IPC: 0.786205 cumulative IPC: 0.552942 (Simulation time: 7 hr 39 min 2 sec) 
Heartbeat CPU 3 instructions: 1880000000 cycles: 1544261748 heartbeat IPC: 1.07559 cumulative IPC: 1.06781 (Simulation time: 7 hr 39 min 39 sec) 
Heartbeat CPU 0 instructions: 1050000000 cycles: 1548362850 heartbeat IPC: 0.497356 cumulative IPC: 0.502499 (Simulation time: 7 hr 40 min 56 sec) 
Heartbeat CPU 3 instructions: 1890000001 cycles: 1553661332 heartbeat IPC: 1.06388 cumulative IPC: 1.06778 (Simulation time: 7 hr 42 min 34 sec) 
Heartbeat CPU 2 instructions: 970000000 cycles: 1555018934 heartbeat IPC: 0.784884 cumulative IPC: 0.555072 (Simulation time: 7 hr 42 min 59 sec) 
Heartbeat CPU 3 instructions: 1900000000 cycles: 1562435497 heartbeat IPC: 1.13971 cumulative IPC: 1.06824 (Simulation time: 7 hr 45 min 20 sec) 
Heartbeat CPU 1 instructions: 850000003 cycles: 1563477497 heartbeat IPC: 0.432848 cumulative IPC: 0.428079 (Simulation time: 7 hr 45 min 40 sec) 
Heartbeat CPU 2 instructions: 980000000 cycles: 1567829751 heartbeat IPC: 0.78059 cumulative IPC: 0.557135 (Simulation time: 7 hr 47 min 2 sec) 
Heartbeat CPU 0 instructions: 1060000000 cycles: 1569085756 heartbeat IPC: 0.482558 cumulative IPC: 0.502204 (Simulation time: 7 hr 47 min 24 sec) 
Heartbeat CPU 3 instructions: 1910000001 cycles: 1571706289 heartbeat IPC: 1.07866 cumulative IPC: 1.0683 (Simulation time: 7 hr 48 min 9 sec) 
Heartbeat CPU 2 instructions: 990000000 cycles: 1580554975 heartbeat IPC: 0.785841 cumulative IPC: 0.559196 (Simulation time: 7 hr 50 min 46 sec) 
Heartbeat CPU 3 instructions: 1920000000 cycles: 1581457849 heartbeat IPC: 1.02548 cumulative IPC: 1.06801 (Simulation time: 7 hr 51 min 2 sec) 
Heartbeat CPU 1 instructions: 860000000 cycles: 1586476329 heartbeat IPC: 0.434805 cumulative IPC: 0.428188 (Simulation time: 7 hr 52 min 31 sec) 
Heartbeat CPU 0 instructions: 1070000000 cycles: 1589813780 heartbeat IPC: 0.482439 cumulative IPC: 0.501916 (Simulation time: 7 hr 53 min 27 sec) 
Heartbeat CPU 3 instructions: 1930000002 cycles: 1592462836 heartbeat IPC: 0.908679 cumulative IPC: 1.06678 (Simulation time: 7 hr 54 min 12 sec) 
Heartbeat CPU 2 instructions: 1000000000 cycles: 1593355290 heartbeat IPC: 0.781231 cumulative IPC: 0.561189 (Simulation time: 7 hr 54 min 27 sec) 
Heartbeat CPU 3 instructions: 1940000000 cycles: 1601879184 heartbeat IPC: 1.06198 cumulative IPC: 1.06675 (Simulation time: 7 hr 57 min 1 sec) 
Heartbeat CPU 2 instructions: 1010000002 cycles: 1606277994 heartbeat IPC: 0.773832 cumulative IPC: 0.5631 (Simulation time: 7 hr 58 min 19 sec) 
Heartbeat CPU 1 instructions: 870000003 cycles: 1609568949 heartbeat IPC: 0.433039 cumulative IPC: 0.428265 (Simulation time: 7 hr 59 min 13 sec) 
Heartbeat CPU 3 instructions: 1950000000 cycles: 1611201104 heartbeat IPC: 1.07274 cumulative IPC: 1.06679 (Simulation time: 7 hr 59 min 39 sec) 
Heartbeat CPU 0 instructions: 1080000000 cycles: 1611528019 heartbeat IPC: 0.460527 cumulative IPC: 0.501294 (Simulation time: 7 hr 59 min 44 sec) 
Heartbeat CPU 2 instructions: 1020000000 cycles: 1619017107 heartbeat IPC: 0.784984 cumulative IPC: 0.565047 (Simulation time: 8 hr 1 min 50 sec) 
Heartbeat CPU 3 instructions: 1960000000 cycles: 1620940601 heartbeat IPC: 1.02675 cumulative IPC: 1.06652 (Simulation time: 8 hr 2 min 23 sec) 
Heartbeat CPU 3 instructions: 1970000003 cycles: 1631531431 heartbeat IPC: 0.944213 cumulative IPC: 1.06563 (Simulation time: 8 hr 5 min 19 sec) 
Heartbeat CPU 0 instructions: 1090000003 cycles: 1632231559 heartbeat IPC: 0.483009 cumulative IPC: 0.501035 (Simulation time: 8 hr 5 min 32 sec) 
Heartbeat CPU 1 instructions: 880000000 cycles: 1632569670 heartbeat IPC: 0.434769 cumulative IPC: 0.428367 (Simulation time: 8 hr 5 min 38 sec) 
Heartbeat CPU 2 instructions: 1030000001 cycles: 1632941483 heartbeat IPC: 0.718165 cumulative IPC: 0.566503 (Simulation time: 8 hr 5 min 44 sec) 
Heartbeat CPU 3 instructions: 1980000000 cycles: 1639156022 heartbeat IPC: 1.31155 cumulative IPC: 1.06691 (Simulation time: 8 hr 7 min 34 sec) 
Heartbeat CPU 2 instructions: 1040000000 cycles: 1646456107 heartbeat IPC: 0.739939 cumulative IPC: 0.568088 (Simulation time: 8 hr 9 min 40 sec) 
Heartbeat CPU 3 instructions: 1990000002 cycles: 1649038304 heartbeat IPC: 1.01191 cumulative IPC: 1.06654 (Simulation time: 8 hr 10 min 23 sec) 
Heartbeat CPU 0 instructions: 1100000000 cycles: 1652961342 heartbeat IPC: 0.482398 cumulative IPC: 0.500775 (Simulation time: 8 hr 11 min 32 sec) 
Heartbeat CPU 1 instructions: 890000001 cycles: 1655749203 heartbeat IPC: 0.431415 cumulative IPC: 0.428415 (Simulation time: 8 hr 12 min 21 sec) 
*** Reached end of trace for Core: 3 Repeating trace: /scratch/user/djimenez/champsim-traces/speccpu2017/xz/628.pop2_s/628.pop2_s-17B.champsimtrace.xz
Heartbeat CPU 3 instructions: 2000000000 cycles: 1658471079 heartbeat IPC: 1.06013 cumulative IPC: 1.0665 (Simulation time: 8 hr 13 min 11 sec) 
Heartbeat CPU 2 instructions: 1050000000 cycles: 1659773478 heartbeat IPC: 0.750899 cumulative IPC: 0.569719 (Simulation time: 8 hr 13 min 33 sec) 
Heartbeat CPU 3 instructions: 2010000002 cycles: 1668179269 heartbeat IPC: 1.03006 cumulative IPC: 1.06626 (Simulation time: 8 hr 16 min 9 sec) 
Heartbeat CPU 2 instructions: 1060000000 cycles: 1673088853 heartbeat IPC: 0.751011 cumulative IPC: 0.571323 (Simulation time: 8 hr 17 min 40 sec) 
Heartbeat CPU 0 instructions: 1110000002 cycles: 1673595680 heartbeat IPC: 0.484629 cumulative IPC: 0.500554 (Simulation time: 8 hr 17 min 49 sec) 
Heartbeat CPU 3 instructions: 2020000000 cycles: 1677387914 heartbeat IPC: 1.08594 cumulative IPC: 1.06638 (Simulation time: 8 hr 18 min 59 sec) 
Heartbeat CPU 1 instructions: 900000000 cycles: 1678846537 heartbeat IPC: 0.43295 cumulative IPC: 0.428484 (Simulation time: 8 hr 19 min 26 sec) 
Heartbeat CPU 2 instructions: 1070000001 cycles: 1686427885 heartbeat IPC: 0.74968 cumulative IPC: 0.57289 (Simulation time: 8 hr 21 min 47 sec) 
Heartbeat CPU 3 instructions: 2030000002 cycles: 1686570072 heartbeat IPC: 1.08907 cumulative IPC: 1.06652 (Simulation time: 8 hr 21 min 50 sec) 
Heartbeat CPU 0 instructions: 1120000000 cycles: 1693899015 heartbeat IPC: 0.49253 cumulative IPC: 0.500447 (Simulation time: 8 hr 24 min 6 sec) 
Heartbeat CPU 3 instructions: 2040000000 cycles: 1695785233 heartbeat IPC: 1.08517 cumulative IPC: 1.06663 (Simulation time: 8 hr 24 min 40 sec) 
Heartbeat CPU 2 instructions: 1080000000 cycles: 1699716234 heartbeat IPC: 0.752539 cumulative IPC: 0.574448 (Simulation time: 8 hr 25 min 50 sec) 
Heartbeat CPU 1 instructions: 910000001 cycles: 1701947511 heartbeat IPC: 0.432882 cumulative IPC: 0.42855 (Simulation time: 8 hr 26 min 31 sec) 
Heartbeat CPU 3 instructions: 2050000001 cycles: 1704944317 heartbeat IPC: 1.09181 cumulative IPC: 1.06678 (Simulation time: 8 hr 27 min 26 sec) 
Heartbeat CPU 2 instructions: 1090000002 cycles: 1713000038 heartbeat IPC: 0.752797 cumulative IPC: 0.575981 (Simulation time: 8 hr 29 min 51 sec) 
Heartbeat CPU 0 instructions: 1130000003 cycles: 1713946360 heartbeat IPC: 0.498819 cumulative IPC: 0.500426 (Simulation time: 8 hr 30 min 8 sec) 
Heartbeat CPU 3 instructions: 2060000000 cycles: 1714049055 heartbeat IPC: 1.09833 cumulative IPC: 1.06697 (Simulation time: 8 hr 30 min 10 sec) 
Heartbeat CPU 3 instructions: 2070000002 cycles: 1722998265 heartbeat IPC: 1.11742 cumulative IPC: 1.06726 (Simulation time: 8 hr 32 min 52 sec) 
Heartbeat CPU 1 instructions: 920000000 cycles: 1725175877 heartbeat IPC: 0.430508 cumulative IPC: 0.42858 (Simulation time: 8 hr 33 min 32 sec) 
Heartbeat CPU 2 instructions: 1100000000 cycles: 1726307168 heartbeat IPC: 0.751477 cumulative IPC: 0.57748 (Simulation time: 8 hr 33 min 53 sec) 
Heartbeat CPU 3 instructions: 2080000000 cycles: 1731091931 heartbeat IPC: 1.23553 cumulative IPC: 1.06813 (Simulation time: 8 hr 35 min 17 sec) 
Heartbeat CPU 0 instructions: 1140000000 cycles: 1734251267 heartbeat IPC: 0.492492 cumulative IPC: 0.500323 (Simulation time: 8 hr 36 min 8 sec) 
Heartbeat CPU 2 instructions: 1110000001 cycles: 1739658753 heartbeat IPC: 0.748975 cumulative IPC: 0.578937 (Simulation time: 8 hr 37 min 40 sec) 
Heartbeat CPU 3 instructions: 2090000002 cycles: 1741287818 heartbeat IPC: 0.980788 cumulative IPC: 1.06756 (Simulation time: 8 hr 38 min 9 sec) 
Heartbeat CPU 1 instructions: 930000002 cycles: 1748257111 heartbeat IPC: 0.433252 cumulative IPC: 0.428648 (Simulation time: 8 hr 40 min 17 sec) 
Heartbeat CPU 3 instructions: 2100000000 cycles: 1750618532 heartbeat IPC: 1.07173 cumulative IPC: 1.06759 (Simulation time: 8 hr 40 min 58 sec) 
Heartbeat CPU 2 instructions: 1120000000 cycles: 1753037020 heartbeat IPC: 0.747481 cumulative IPC: 0.580359 (Simulation time: 8 hr 41 min 38 sec) 
Heartbeat CPU 0 instructions: 1150000000 cycles: 1754380801 heartbeat IPC: 0.496782 cumulative IPC: 0.500278 (Simulation time: 8 hr 42 min 0 sec) 
Heartbeat CPU 3 instructions: 2110000001 cycles: 1759505385 heartbeat IPC: 1.12526 cumulative IPC: 1.06791 (Simulation time: 8 hr 43 min 30 sec) 
Heartbeat CPU 2 instructions: 1130000002 cycles: 1766476847 heartbeat IPC: 0.744057 cumulative IPC: 0.581735 (Simulation time: 8 hr 45 min 29 sec) 
Heartbeat CPU 3 instructions: 2120000000 cycles: 1768609989 heartbeat IPC: 1.09835 cumulative IPC: 1.06808 (Simulation time: 8 hr 46 min 4 sec) 
Heartbeat CPU 1 instructions: 940000000 cycles: 1771314485 heartbeat IPC: 0.433701 cumulative IPC: 0.428721 (Simulation time: 8 hr 46 min 48 sec) 
Heartbeat CPU 0 instructions: 1160000000 cycles: 1774019972 heartbeat IPC: 0.509186 cumulative IPC: 0.500387 (Simulation time: 8 hr 47 min 35 sec) 
Heartbeat CPU 3 instructions: 2130000003 cycles: 1778725303 heartbeat IPC: 0.9886 cumulative IPC: 1.06758 (Simulation time: 8 hr 48 min 52 sec) 
Heartbeat CPU 2 instructions: 1140000000 cycles: 1779726911 heartbeat IPC: 0.754713 cumulative IPC: 0.583157 (Simulation time: 8 hr 49 min 8 sec) 
Heartbeat CPU 3 instructions: 2140000000 cycles: 1787847047 heartbeat IPC: 1.09628 cumulative IPC: 1.06775 (Simulation time: 8 hr 51 min 19 sec) 
Heartbeat CPU 2 instructions: 1150000003 cycles: 1793163305 heartbeat IPC: 0.744248 cumulative IPC: 0.584489 (Simulation time: 8 hr 52 min 48 sec) 
Heartbeat CPU 0 instructions: 1170000001 cycles: 1794960759 heartbeat IPC: 0.477537 cumulative IPC: 0.500093 (Simulation time: 8 hr 53 min 18 sec) 
[...]
Heartbeat CPU 2 instructions: 1670000002 cycles: 2377013605 heartbeat IPC: 1.20403 cumulative IPC: 0.665398 (Simulation time: 11 hr 39 min 14 sec) 
Heartbeat CPU 1 instructions: 1200000000 cycles: 2380529746 heartbeat IPC: 0.43441 cumulative IPC: 0.428186 (Simulation time: 11 hr 40 min 19 sec) 
Heartbeat CPU 3 instructions: 2770000003 cycles: 2382491591 heartbeat IPC: 1.07074 cumulative IPC: 1.06552 (Simulation time: 11 hr 40 min 55 sec) 
Heartbeat CPU 0 instructions: 1460000000 cycles: 2385184263 heartbeat IPC: 0.477811 cumulative IPC: 0.497763 (Simulation time: 11 hr 41 min 45 sec) 
Heartbeat CPU 2 instructions: 1680000000 cycles: 2385300757 heartbeat IPC: 1.20669 cumulative IPC: 0.667421 (Simulation time: 11 hr 41 min 48 sec) 
Heartbeat CPU 3 instructions: 2780000000 cycles: 2391862056 heartbeat IPC: 1.06718 cumulative IPC: 1.06553 (Simulation time: 11 hr 43 min 49 sec) 
Heartbeat CPU 2 instructions: 1690000001 cycles: 2393612179 heartbeat IPC: 1.20316 cumulative IPC: 0.669422 (Simulation time: 11 hr 44 min 22 sec) 
Heartbeat CPU 3 instructions: 2790000001 cycles: 2401326315 heartbeat IPC: 1.05661 cumulative IPC: 1.06549 (Simulation time: 11 hr 46 min 43 sec) 
Heartbeat CPU 2 instructions: 1700000000 cycles: 2401950842 heartbeat IPC: 1.19923 cumulative IPC: 0.671399 (Simulation time: 11 hr 46 min 54 sec) 
Heartbeat CPU 1 instructions: 1210000002 cycles: 2403485409 heartbeat IPC: 0.435622 cumulative IPC: 0.428262 (Simulation time: 11 hr 47 min 23 sec) 
Heartbeat CPU 0 instructions: 1470000001 cycles: 2405506107 heartbeat IPC: 0.492081 cumulative IPC: 0.497711 (Simulation time: 11 hr 48 min 1 sec) 
Heartbeat CPU 3 instructions: 2800000000 cycles: 2409791048 heartbeat IPC: 1.18137 cumulative IPC: 1.06593 (Simulation time: 11 hr 49 min 22 sec) 
Heartbeat CPU 2 instructions: 1710000000 cycles: 2410266346 heartbeat IPC: 1.20257 cumulative IPC: 0.673369 (Simulation time: 11 hr 49 min 31 sec) 
Heartbeat CPU 2 instructions: 1720000000 cycles: 2418594072 heartbeat IPC: 1.20081 cumulative IPC: 0.675321 (Simulation time: 11 hr 52 min 6 sec) 
Heartbeat CPU 3 instructions: 2810000000 cycles: 2419510659 heartbeat IPC: 1.02885 cumulative IPC: 1.06577 (Simulation time: 11 hr 52 min 25 sec) 
Heartbeat CPU 1 instructions: 1220000000 cycles: 2426384587 heartbeat IPC: 0.436697 cumulative IPC: 0.428348 (Simulation time: 11 hr 54 min 33 sec) 
Heartbeat CPU 0 instructions: 1480000000 cycles: 2426622827 heartbeat IPC: 0.473558 cumulative IPC: 0.497486 (Simulation time: 11 hr 54 min 37 sec) 
Heartbeat CPU 2 instructions: 1730000000 cycles: 2426836643 heartbeat IPC: 1.21321 cumulative IPC: 0.677283 (Simulation time: 11 hr 54 min 41 sec) 
Heartbeat CPU 3 instructions: 2820000000 cycles: 2430012178 heartbeat IPC: 0.952243 cumulative IPC: 1.06524 (Simulation time: 11 hr 55 min 38 sec) 
Heartbeat CPU 2 instructions: 1740000000 cycles: 2435140925 heartbeat IPC: 1.2042 cumulative IPC: 0.679213 (Simulation time: 11 hr 57 min 12 sec) 
Heartbeat CPU 3 instructions: 2830000001 cycles: 2439648262 heartbeat IPC: 1.03777 cumulative IPC: 1.06512 (Simulation time: 11 hr 58 min 36 sec) 
Heartbeat CPU 2 instructions: 1750000000 cycles: 2443606161 heartbeat IPC: 1.1813 cumulative IPC: 0.681081 (Simulation time: 11 hr 59 min 51 sec) 
Heartbeat CPU 0 instructions: 1490000001 cycles: 2448051163 heartbeat IPC: 0.466672 cumulative IPC: 0.497196 (Simulation time: 12 hr 1 min 14 sec) 
Heartbeat CPU 3 instructions: 2840000000 cycles: 2448625289 heartbeat IPC: 1.11395 cumulative IPC: 1.06532 (Simulation time: 12 hr 1 min 25 sec) 
Heartbeat CPU 1 instructions: 1230000001 cycles: 2449777904 heartbeat IPC: 0.427473 cumulative IPC: 0.428339 (Simulation time: 12 hr 1 min 45 sec) 
Heartbeat CPU 2 instructions: 1760000000 cycles: 2452179590 heartbeat IPC: 1.16639 cumulative IPC: 0.682902 (Simulation time: 12 hr 2 min 29 sec) 
Heartbeat CPU 3 instructions: 2850000001 cycles: 2458339847 heartbeat IPC: 1.02938 cumulative IPC: 1.06516 (Simulation time: 12 hr 4 min 16 sec) 
Heartbeat CPU 2 instructions: 1770000000 cycles: 2460373662 heartbeat IPC: 1.22039 cumulative IPC: 0.684823 (Simulation time: 12 hr 4 min 52 sec) 
Heartbeat CPU 2 instructions: 1780000000 cycles: 2468669155 heartbeat IPC: 1.20547 cumulative IPC: 0.6867 (Simulation time: 12 hr 7 min 27 sec) 
Heartbeat CPU 0 instructions: 1500000000 cycles: 2468718331 heartbeat IPC: 0.483859 cumulative IPC: 0.497076 (Simulation time: 12 hr 7 min 28 sec) 
Heartbeat CPU 3 instructions: 2860000000 cycles: 2469160367 heartbeat IPC: 0.92417 cumulative IPC: 1.0645 (Simulation time: 12 hr 7 min 36 sec) 
Heartbeat CPU 1 instructions: 1240000000 cycles: 2473066449 heartbeat IPC: 0.429396 cumulative IPC: 0.428349 (Simulation time: 12 hr 8 min 38 sec) 
Heartbeat CPU 2 instructions: 1790000003 cycles: 2477064304 heartbeat IPC: 1.19116 cumulative IPC: 0.688534 (Simulation time: 12 hr 9 min 53 sec) 
Heartbeat CPU 3 instructions: 2870000001 cycles: 2478408142 heartbeat IPC: 1.08134 cumulative IPC: 1.06457 (Simulation time: 12 hr 10 min 17 sec) 
Heartbeat CPU 2 instructions: 1800000000 cycles: 2485362073 heartbeat IPC: 1.20514 cumulative IPC: 0.690384 (Simulation time: 12 hr 12 min 32 sec) 
Heartbeat CPU 3 instructions: 2880000000 cycles: 2486368042 heartbeat IPC: 1.2563 cumulative IPC: 1.06523 (Simulation time: 12 hr 12 min 50 sec) 
Heartbeat CPU 0 instructions: 1510000002 cycles: 2489568324 heartbeat IPC: 0.479617 cumulative IPC: 0.496919 (Simulation time: 12 hr 13 min 49 sec) 
Heartbeat CPU 2 instructions: 1810000002 cycles: 2493741391 heartbeat IPC: 1.19341 cumulative IPC: 0.692196 (Simulation time: 12 hr 15 min 2 sec) 
Heartbeat CPU 1 instructions: 1250000001 cycles: 2496097175 heartbeat IPC: 0.434203 cumulative IPC: 0.428407 (Simulation time: 12 hr 15 min 44 sec) 
Heartbeat CPU 3 instructions: 2890000000 cycles: 2496242114 heartbeat IPC: 1.01275 cumulative IPC: 1.065 (Simulation time: 12 hr 15 min 47 sec) 
Finished CPU 1 instructions: 1000000000 cycles: 2334113858 cumulative IPC: 0.428428 (Simulation time: 12 hr 17 min 27 sec) 

CPU 0 Branch Prediction Accuracy: 97.1023% MPKI: 0.457418

CPU 1 Branch Prediction Accuracy: 84.7665% MPKI: 15.7525

CPU 2 Branch Prediction Accuracy: 99.6192% MPKI: 0.0380674

CPU 3 Branch Prediction Accuracy: 97.6112% MPKI: 3.28275

ChampSim completed all CPUs

Total Simulation Statistics (not including warmup)

CPU 0 cumulative IPC: 0.496839 instructions: 1159678902 cycles: 2334113858
L1D TOTAL     ACCESS:  330005497  HIT:  239199581  MISS:   90805916
L1D LOAD      ACCESS:  117615956  HIT:  103847061  MISS:   13768895
L1D RFO       ACCESS:  212389541  HIT:  135352520  MISS:   77037021
L1D PREFETCH  ACCESS:          0  HIT:          0  MISS:          0
L1D WRITEBACK ACCESS:          0  HIT:          0  MISS:          0
L1I TOTAL     ACCESS:  283018690  HIT:  283018690  MISS:          0
L1I LOAD      ACCESS:  283018690  HIT:  283018690  MISS:          0
L1I RFO       ACCESS:          0  HIT:          0  MISS:          0
L1I PREFETCH  ACCESS:          0  HIT:          0  MISS:          0
L1I WRITEBACK ACCESS:          0  HIT:          0  MISS:          0
L2C TOTAL     ACCESS:  171138965  HIT:  103773206  MISS:   67365759
L2C LOAD      ACCESS:   13768895  HIT:    3230311  MISS:   10538584
L2C RFO       ACCESS:   77036918  HIT:   23452062  MISS:   53584856
L2C PREFETCH  ACCESS:    3296128  HIT:      73724  MISS:    3222404
L2C WRITEBACK ACCESS:   77037024  HIT:   77017109  MISS:      19915
LLC TOTAL     ACCESS:  146205599  HIT:   91198656  MISS:   55006943
LLC LOAD      ACCESS:    9221353  HIT:    7984281  MISS:    1237072
LLC RFO       ACCESS:   53558602  HIT:   12307751  MISS:   41250851
LLC PREFETCH  ACCESS:   29821207  HIT:   17305871  MISS:   12515336
LLC WRITEBACK ACCESS:   53604437  HIT:   53600753  MISS:       3684

CPU 1 cumulative IPC: 0.428428 instructions: 1000000000 cycles: 2334113858
L1D TOTAL     ACCESS:  332751787  HIT:  329676439  MISS:    3075348
L1D LOAD      ACCESS:  217262332  HIT:  214673503  MISS:    2588829
L1D RFO       ACCESS:  115489455  HIT:  115002936  MISS:     486519
L1D PREFETCH  ACCESS:          0  HIT:          0  MISS:          0
L1D WRITEBACK ACCESS:          0  HIT:          0  MISS:          0
L1I TOTAL     ACCESS:  229209920  HIT:  229139968  MISS:      69952
L1I LOAD      ACCESS:  229209920  HIT:  229139968  MISS:      69952
L1I RFO       ACCESS:          0  HIT:          0  MISS:          0
L1I PREFETCH  ACCESS:          0  HIT:          0  MISS:          0
L1I WRITEBACK ACCESS:          0  HIT:          0  MISS:          0
L2C TOTAL     ACCESS:    8745867  HIT:    8409050  MISS:     336817
L2C LOAD      ACCESS:    2658720  HIT:    2495424  MISS:     163296
L2C RFO       ACCESS:     486517  HIT:     377134  MISS:     109383
L2C PREFETCH  ACCESS:    4805201  HIT:    4741747  MISS:      63454
L2C WRITEBACK ACCESS:     795429  HIT:     794745  MISS:        684
LLC TOTAL     ACCESS:    1546075  HIT:     921983  MISS:     624092
LLC LOAD      ACCESS:     147189  HIT:      66349  MISS:      80840
LLC RFO       ACCESS:     109371  HIT:       6144  MISS:     103227
LLC PREFETCH  ACCESS:    1142913  HIT:     732686  MISS:     410227
LLC WRITEBACK ACCESS:     146602  HIT:     116804  MISS:      29798

CPU 2 cumulative IPC: 0.694007 instructions: 1619891403 cycles: 2334113858
L1D TOTAL     ACCESS:  767679244  HIT:  735170582  MISS:   32508662
L1D LOAD      ACCESS:  671721709  HIT:  639213384  MISS:   32508325
L1D RFO       ACCESS:   95957535  HIT:   95957198  MISS:        337
L1D PREFETCH  ACCESS:          0  HIT:          0  MISS:          0
L1D WRITEBACK ACCESS:          0  HIT:          0  MISS:          0
L1I TOTAL     ACCESS:  432004032  HIT:  432003520  MISS:        512
L1I LOAD      ACCESS:  432004032  HIT:  432003520  MISS:        512
L1I RFO       ACCESS:          0  HIT:          0  MISS:          0
L1I PREFETCH  ACCESS:          0  HIT:          0  MISS:          0
L1I WRITEBACK ACCESS:          0  HIT:          0  MISS:          0
L2C TOTAL     ACCESS:   73336858  HIT:   44317085  MISS:   29019773
L2C LOAD      ACCESS:   32508831  HIT:   17042271  MISS:   15466560
L2C RFO       ACCESS:        330  HIT:        296  MISS:         34
L2C PREFETCH  ACCESS:   28338691  HIT:   14786850  MISS:   13551841
L2C WRITEBACK ACCESS:   12489006  HIT:   12487668  MISS:       1338
LLC TOTAL     ACCESS:  145502448  HIT:  113692411  MISS:   31810037
LLC LOAD      ACCESS:   15350995  HIT:   11853880  MISS:    3497115
LLC RFO       ACCESS:         34  HIT:          8  MISS:         26
LLC PREFETCH  ACCESS:  117677049  HIT:   89364440  MISS:   28312609
LLC WRITEBACK ACCESS:   12474370  HIT:   12474083  MISS:        287

CPU 3 cumulative IPC: 1.06497 instructions: 2485765254 cycles: 2334113859
L1D TOTAL     ACCESS:  458474268  HIT:  416332843  MISS:   42141425
L1D LOAD      ACCESS:  328432457  HIT:  300561307  MISS:   27871150
L1D RFO       ACCESS:  130041811  HIT:  115771536  MISS:   14270275
L1D PREFETCH  ACCESS:          0  HIT:          0  MISS:          0
L1D WRITEBACK ACCESS:          0  HIT:          0  MISS:          0
L1I TOTAL     ACCESS:  600507066  HIT:  599308663  MISS:    1198403
L1I LOAD      ACCESS:  600507066  HIT:  599308663  MISS:    1198403
L1I RFO       ACCESS:          0  HIT:          0  MISS:          0
L1I PREFETCH  ACCESS:          0  HIT:          0  MISS:          0
L1I WRITEBACK ACCESS:          0  HIT:          0  MISS:          0
L2C TOTAL     ACCESS:  122217036  HIT:  102410714  MISS:   19806322
L2C LOAD      ACCESS:   29067495  HIT:   20088984  MISS:    8978511
L2C RFO       ACCESS:   14269756  HIT:    7542355  MISS:    6727401
L2C PREFETCH  ACCESS:   60769226  HIT:   56679668  MISS:    4089558
L2C WRITEBACK ACCESS:   18110559  HIT:   18099707  MISS:      10852
LLC TOTAL     ACCESS:   63432863  HIT:   53350783  MISS:   10082080
LLC LOAD      ACCESS:    7736878  HIT:    6960426  MISS:     776452
LLC RFO       ACCESS:    6727323  HIT:    3113498  MISS:    3613825
LLC PREFETCH  ACCESS:   39687868  HIT:   34174629  MISS:    5513239
LLC WRITEBACK ACCESS:    9280794  HIT:    9102230  MISS:     178564

Region of Interest Statistics

CPU 0 cumulative IPC: 0.498718 instructions: 1000000002 cycles: 2005142854
L1D TOTAL     ACCESS:  284675979  HIT:  206253693  MISS:   78422286
L1D LOAD      ACCESS:  101430135  HIT:   89538839  MISS:   11891296
L1D RFO       ACCESS:  183245844  HIT:  116714854  MISS:   66530990
L1D PREFETCH  ACCESS:          0  HIT:          0  MISS:          0
L1D WRITEBACK ACCESS:          0  HIT:          0  MISS:          0
L1D PREFETCH  REQUESTED:          0  ISSUED:          0  USEFUL:          0  USELESS:          0
L1I TOTAL     ACCESS:  244043705  HIT:  244043705  MISS:          0
L1I LOAD      ACCESS:  244043705  HIT:  244043705  MISS:          0
L1I RFO       ACCESS:          0  HIT:          0  MISS:          0
L1I PREFETCH  ACCESS:          0  HIT:          0  MISS:          0
L1I WRITEBACK ACCESS:          0  HIT:          0  MISS:          0
L1I PREFETCH  REQUESTED:          0  ISSUED:          0  USEFUL:          0  USELESS:          0
L2C TOTAL     ACCESS:  147808343  HIT:   90504761  MISS:   57303582
L2C LOAD      ACCESS:   11891296  HIT:    2800193  MISS:    9091103
L2C RFO       ACCESS:   66530897  HIT:   21128940  MISS:   45401957
L2C PREFETCH  ACCESS:    2855159  HIT:      61931  MISS:    2793228
L2C WRITEBACK ACCESS:   66530991  HIT:   66513697  MISS:      17294
L2C PREFETCH  REQUESTED:   93146412  ISSUED:   93146412  USEFUL:    5072290  USELESS:        550
LLC TOTAL     ACCESS:  124459545  HIT:   76954681  MISS:   47504864
LLC LOAD      ACCESS:    7976850  HIT:    6900314  MISS:    1076536
LLC RFO       ACCESS:   45378550  HIT:    9753530  MISS:   35625020
LLC PREFETCH  ACCESS:   25685488  HIT:   14885283  MISS:   10800205
LLC WRITEBACK ACCESS:   45418657  HIT:   45415554  MISS:       3103
LLC PREFETCH  REQUESTED:          0  ISSUED:          0  USEFUL:   25154307  USELESS:   30580285
Major fault: 0 Minor fault: 541448

CPU 1 cumulative IPC: 0.428428 instructions: 1000000000 cycles: 2334113858
L1D TOTAL     ACCESS:  332751787  HIT:  329676439  MISS:    3075348
L1D LOAD      ACCESS:  217262332  HIT:  214673503  MISS:    2588829
L1D RFO       ACCESS:  115489455  HIT:  115002936  MISS:     486519
L1D PREFETCH  ACCESS:          0  HIT:          0  MISS:          0
L1D WRITEBACK ACCESS:          0  HIT:          0  MISS:          0
L1D PREFETCH  REQUESTED:          0  ISSUED:          0  USEFUL:          0  USELESS:          0
L1I TOTAL     ACCESS:  229209920  HIT:  229139968  MISS:      69952
L1I LOAD      ACCESS:  229209920  HIT:  229139968  MISS:      69952
L1I RFO       ACCESS:          0  HIT:          0  MISS:          0
L1I PREFETCH  ACCESS:          0  HIT:          0  MISS:          0
L1I WRITEBACK ACCESS:          0  HIT:          0  MISS:          0
L1I PREFETCH  REQUESTED:          0  ISSUED:          0  USEFUL:          0  USELESS:          0
L2C TOTAL     ACCESS:    8745867  HIT:    8409050  MISS:     336817
L2C LOAD      ACCESS:    2658720  HIT:    2495424  MISS:     163296
L2C RFO       ACCESS:     486517  HIT:     377134  MISS:     109383
L2C PREFETCH  ACCESS:    4805201  HIT:    4741747  MISS:      63454
L2C WRITEBACK ACCESS:     795429  HIT:     794745  MISS:        684
L2C PREFETCH  REQUESTED:   10591985  ISSUED:   10591985  USEFUL:     321059  USELESS:      12453
LLC TOTAL     ACCESS:    1546075  HIT:     921983  MISS:     624092
LLC LOAD      ACCESS:     147189  HIT:      66349  MISS:      80840
LLC RFO       ACCESS:     109371  HIT:       6144  MISS:     103227
LLC PREFETCH  ACCESS:    1142913  HIT:     732686  MISS:     410227
LLC WRITEBACK ACCESS:     146602  HIT:     116804  MISS:      29798
LLC PREFETCH  REQUESTED:          0  ISSUED:          0  USEFUL:   25154307  USELESS:   30580285
Major fault: 0 Minor fault: 2663

CPU 2 cumulative IPC: 0.591019 instructions: 1000000000 cycles: 1691991850
L1D TOTAL     ACCESS:  563095339  HIT:  542367655  MISS:   20727684
L1D LOAD      ACCESS:  498750917  HIT:  478023558  MISS:   20727359
L1D RFO       ACCESS:   64344422  HIT:   64344097  MISS:        325
L1D PREFETCH  ACCESS:          0  HIT:          0  MISS:          0
L1D WRITEBACK ACCESS:          0  HIT:          0  MISS:          0
L1D PREFETCH  REQUESTED:          0  ISSUED:          0  USEFUL:          0  USELESS:          0
L1I TOTAL     ACCESS:  290871543  HIT:  290871209  MISS:        334
L1I LOAD      ACCESS:  290871543  HIT:  290871209  MISS:        334
L1I RFO       ACCESS:          0  HIT:          0  MISS:          0
L1I PREFETCH  ACCESS:          0  HIT:          0  MISS:          0
L1I WRITEBACK ACCESS:          0  HIT:          0  MISS:          0
L1I PREFETCH  REQUESTED:          0  ISSUED:          0  USEFUL:          0  USELESS:          0
L2C TOTAL     ACCESS:   49326216  HIT:   31509955  MISS:   17816261
L2C LOAD      ACCESS:   20727689  HIT:   10395281  MISS:   10332408
L2C RFO       ACCESS:        318  HIT:        295  MISS:         23
L2C PREFETCH  ACCESS:   19800756  HIT:   12316937  MISS:    7483819
L2C WRITEBACK ACCESS:    8797453  HIT:    8797442  MISS:         11
L2C PREFETCH  REQUESTED:  147810846  ISSUED:  146990448  USEFUL:   14091342  USELESS:     540907
LLC TOTAL     ACCESS:   84985012  HIT:   65629290  MISS:   19355722
LLC LOAD      ACCESS:   10265481  HIT:    7835991  MISS:    2429490
LLC RFO       ACCESS:         23  HIT:          7  MISS:         16
LLC PREFETCH  ACCESS:   65926063  HIT:   48999866  MISS:   16926197
LLC WRITEBACK ACCESS:    8793445  HIT:    8793426  MISS:         19
LLC PREFETCH  REQUESTED:          0  ISSUED:          0  USEFUL:   25154307  USELESS:   30580285
Major fault: 0 Minor fault: 936854

CPU 3 cumulative IPC: 1.06795 instructions: 1000000000 cycles: 936375897
L1D TOTAL     ACCESS:  186363405  HIT:  169190477  MISS:   17172928
L1D LOAD      ACCESS:  133801590  HIT:  122462204  MISS:   11339386
L1D RFO       ACCESS:   52561815  HIT:   46728273  MISS:    5833542
L1D PREFETCH  ACCESS:          0  HIT:          0  MISS:          0
L1D WRITEBACK ACCESS:          0  HIT:          0  MISS:          0
L1D PREFETCH  REQUESTED:          0  ISSUED:          0  USEFUL:          0  USELESS:          0
L1I TOTAL     ACCESS:  240852159  HIT:  240374092  MISS:     478067
L1I LOAD      ACCESS:  240852159  HIT:  240374092  MISS:     478067
L1I RFO       ACCESS:          0  HIT:          0  MISS:          0
L1I PREFETCH  ACCESS:          0  HIT:          0  MISS:          0
L1I WRITEBACK ACCESS:          0  HIT:          0  MISS:          0
L1I PREFETCH  REQUESTED:          0  ISSUED:          0  USEFUL:          0  USELESS:          0
L2C TOTAL     ACCESS:   49145429  HIT:   41120981  MISS:    8024448
L2C LOAD      ACCESS:   11816704  HIT:    8217381  MISS:    3599323
L2C RFO       ACCESS:    5833314  HIT:    3117065  MISS:    2716249
L2C PREFETCH  ACCESS:   24101318  HIT:   22396969  MISS:    1704349
L2C WRITEBACK ACCESS:    7394093  HIT:    7389566  MISS:       4527
L2C PREFETCH  REQUESTED:  157453874  ISSUED:  154975706  USEFUL:    4971182  USELESS:     191210
LLC TOTAL     ACCESS:   25703344  HIT:   21634960  MISS:    4068384
LLC LOAD      ACCESS:    3103496  HIT:    2791953  MISS:     311543
LLC RFO       ACCESS:    2716201  HIT:    1248632  MISS:    1467569
LLC PREFETCH  ACCESS:   16128012  HIT:   13905292  MISS:    2222720
LLC WRITEBACK ACCESS:    3755635  HIT:    3689083  MISS:      66552
LLC PREFETCH  REQUESTED:          0  ISSUED:          0  USEFUL:   25154307  USELESS:   30580285
Major fault: 0 Minor fault: 54915

DRAM Statistics
 CHANNEL 0
 RQ ROW_BUFFER_HIT:   11912317  ROW_BUFFER_MISS:   36707391
 DBUS_CONGESTED:  112627410
 WQ ROW_BUFFER_HIT:    3211956  ROW_BUFFER_MISS:   26214837  FULL:          0

 CHANNEL 1
 RQ ROW_BUFFER_HIT:   11919655  ROW_BUFFER_MISS:   36770915
 DBUS_CONGESTED:  112627410
 WQ ROW_BUFFER_HIT:    3211589  ROW_BUFFER_MISS:   26214758  FULL:          0

 AVG_CONGESTED_CYCLE: 14
