Initialize SIGNATURE TABLE
ST_SET: 1
ST_WAY: 256
ST_TAG_BIT: 16
ST_TAG_MASK: ffff

Initialize PATTERN TABLE
PT_SET: 512
PT_WAY: 4
SIG_DELTA_BIT: 7
C_SIG_BIT: 4
C_DELTA_BIT: 4

Initialize PREFETCH FILTER
FILTER_SET: 1024

*** ChampSim Multicore Out-of-Order Simulator ***

Warmup Instructions: 200000000
Simulation Instructions: 1000000000
Number of CPUs: 1
LLC sets: 2048
LLC ways: 16
Off-chip DRAM Size: 4096 MB Channels: 1 Width: 64-bit Data Rate: 1600 MT/s

CPU 0 runs /scratch/user/djimenez/champsim-traces/speccpu2006/xz/403.gcc-48B.champsimtrace.xz
Heartbeat CPU 0 instructions: 10000001 cycles: 5486067 heartbeat IPC: 1.8228 cumulative IPC: 1.8228 (Simulation time: 0 hr 0 min 24 sec) 
Heartbeat CPU 0 instructions: 20000000 cycles: 10965370 heartbeat IPC: 1.82505 cumulative IPC: 1.82392 (Simulation time: 0 hr 0 min 48 sec) 
Heartbeat CPU 0 instructions: 30000000 cycles: 16440071 heartbeat IPC: 1.82658 cumulative IPC: 1.82481 (Simulation time: 0 hr 1 min 12 sec) 
Heartbeat CPU 0 instructions: 40000000 cycles: 21917069 heartbeat IPC: 1.82582 cumulative IPC: 1.82506 (Simulation time: 0 hr 1 min 35 sec) 
Heartbeat CPU 0 instructions: 50000003 cycles: 27396302 heartbeat IPC: 1.82507 cumulative IPC: 1.82506 (Simulation time: 0 hr 1 min 59 sec) 
Heartbeat CPU 0 instructions: 60000000 cycles: 32871234 heartbeat IPC: 1.82651 cumulative IPC: 1.8253 (Simulation time: 0 hr 2 min 23 sec) 
Heartbeat CPU 0 instructions: 70000001 cycles: 38350308 heartbeat IPC: 1.82513 cumulative IPC: 1.82528 (Simulation time: 0 hr 2 min 46 sec) 
Heartbeat CPU 0 instructions: 80000000 cycles: 43821351 heartbeat IPC: 1.8278 cumulative IPC: 1.82559 (Simulation time: 0 hr 3 min 10 sec) 
Heartbeat CPU 0 instructions: 90000001 cycles: 49299912 heartbeat IPC: 1.8253 cumulative IPC: 1.82556 (Simulation time: 0 hr 3 min 34 sec) 
Heartbeat CPU 0 instructions: 100000000 cycles: 54774657 heartbeat IPC: 1.82657 cumulative IPC: 1.82566 (Simulation time: 0 hr 3 min 58 sec) 
Heartbeat CPU 0 instructions: 110000002 cycles: 60257905 heartbeat IPC: 1.82374 cumulative IPC: 1.82549 (Simulation time: 0 hr 4 min 21 sec) 
Heartbeat CPU 0 instructions: 120000000 cycles: 65739678 heartbeat IPC: 1.82423 cumulative IPC: 1.82538 (Simulation time: 0 hr 4 min 45 sec) 
Heartbeat CPU 0 instructions: 130000002 cycles: 71220477 heartbeat IPC: 1.82455 cumulative IPC: 1.82532 (Simulation time: 0 hr 5 min 9 sec) 
Heartbeat CPU 0 instructions: 140000000 cycles: 76697012 heartbeat IPC: 1.82597 cumulative IPC: 1.82536 (Simulation time: 0 hr 5 min 32 sec) 
Heartbeat CPU 0 instructions: 150000001 cycles: 82172088 heartbeat IPC: 1.82646 cumulative IPC: 1.82544 (Simulation time: 0 hr 5 min 56 sec) 
Heartbeat CPU 0 instructions: 160000000 cycles: 87649157 heartbeat IPC: 1.82579 cumulative IPC: 1.82546 (Simulation time: 0 hr 6 min 20 sec) 
Heartbeat CPU 0 instructions: 170000001 cycles: 93118821 heartbeat IPC: 1.82827 cumulative IPC: 1.82562 (Simulation time: 0 hr 6 min 43 sec) 
Heartbeat CPU 0 instructions: 180000000 cycles: 98598759 heartbeat IPC: 1.82484 cumulative IPC: 1.82558 (Simulation time: 0 hr 7 min 7 sec) 
Heartbeat CPU 0 instructions: 190000000 cycles: 104077025 heartbeat IPC: 1.8254 cumulative IPC: 1.82557 (Simulation time: 0 hr 7 min 31 sec) 
Heartbeat CPU 0 instructions: 200000000 cycles: 109545614 heartbeat IPC: 1.82863 cumulative IPC: 1.82572 (Simulation time: 0 hr 7 min 55 sec) 

Warmup complete CPU 0 instructions: 200000003 cycles: 109545615 (Simulation time: 0 hr 7 min 55 sec) 

Heartbeat CPU 0 instructions: 210000001 cycles: 124097729 heartbeat IPC: 0.687185 cumulative IPC: 0.687185 (Simulation time: 0 hr 8 min 28 sec) 
Heartbeat CPU 0 instructions: 220000000 cycles: 138642644 heartbeat IPC: 0.687525 cumulative IPC: 0.687355 (Simulation time: 0 hr 9 min 1 sec) 
Heartbeat CPU 0 instructions: 230000002 cycles: 153203973 heartbeat IPC: 0.686751 cumulative IPC: 0.687154 (Simulation time: 0 hr 9 min 34 sec) 
Heartbeat CPU 0 instructions: 240000000 cycles: 167695032 heartbeat IPC: 0.690081 cumulative IPC: 0.687883 (Simulation time: 0 hr 10 min 7 sec) 
Heartbeat CPU 0 instructions: 250000002 cycles: 182208625 heartbeat IPC: 0.689009 cumulative IPC: 0.688108 (Simulation time: 0 hr 10 min 41 sec) 
Heartbeat CPU 0 instructions: 260000000 cycles: 196771621 heartbeat IPC: 0.686672 cumulative IPC: 0.687868 (Simulation time: 0 hr 11 min 14 sec) 
Heartbeat CPU 0 instructions: 270000000 cycles: 211316886 heartbeat IPC: 0.687509 cumulative IPC: 0.687817 (Simulation time: 0 hr 11 min 47 sec) 
Heartbeat CPU 0 instructions: 280000000 cycles: 225871772 heartbeat IPC: 0.687055 cumulative IPC: 0.687721 (Simulation time: 0 hr 12 min 20 sec) 
Heartbeat CPU 0 instructions: 290000002 cycles: 240355693 heartbeat IPC: 0.690421 cumulative IPC: 0.68802 (Simulation time: 0 hr 12 min 54 sec) 
Heartbeat CPU 0 instructions: 300000000 cycles: 254883549 heartbeat IPC: 0.688333 cumulative IPC: 0.688052 (Simulation time: 0 hr 13 min 27 sec) 
Heartbeat CPU 0 instructions: 310000000 cycles: 269459346 heartbeat IPC: 0.686069 cumulative IPC: 0.687871 (Simulation time: 0 hr 14 min 0 sec) 
Heartbeat CPU 0 instructions: 320000000 cycles: 284003774 heartbeat IPC: 0.687549 cumulative IPC: 0.687844 (Simulation time: 0 hr 14 min 34 sec) 
Heartbeat CPU 0 instructions: 330000000 cycles: 298572174 heartbeat IPC: 0.686417 cumulative IPC: 0.687734 (Simulation time: 0 hr 15 min 7 sec) 
Heartbeat CPU 0 instructions: 340000000 cycles: 313076042 heartbeat IPC: 0.689471 cumulative IPC: 0.687858 (Simulation time: 0 hr 15 min 40 sec) 
Heartbeat CPU 0 instructions: 350000000 cycles: 327641525 heartbeat IPC: 0.686555 cumulative IPC: 0.687771 (Simulation time: 0 hr 16 min 13 sec) 
Heartbeat CPU 0 instructions: 360000000 cycles: 342206176 heartbeat IPC: 0.686594 cumulative IPC: 0.687697 (Simulation time: 0 hr 16 min 47 sec) 
Heartbeat CPU 0 instructions: 370000003 cycles: 356720776 heartbeat IPC: 0.688962 cumulative IPC: 0.687771 (Simulation time: 0 hr 17 min 20 sec) 
Heartbeat CPU 0 instructions: 380000000 cycles: 371281448 heartbeat IPC: 0.686781 cumulative IPC: 0.687716 (Simulation time: 0 hr 17 min 53 sec) 
Heartbeat CPU 0 instructions: 390000003 cycles: 385764198 heartbeat IPC: 0.690477 cumulative IPC: 0.687861 (Simulation time: 0 hr 18 min 26 sec) 
Heartbeat CPU 0 instructions: 400000000 cycles: 400371007 heartbeat IPC: 0.684612 cumulative IPC: 0.687698 (Simulation time: 0 hr 18 min 59 sec) 
Heartbeat CPU 0 instructions: 410000002 cycles: 414943196 heartbeat IPC: 0.686239 cumulative IPC: 0.687628 (Simulation time: 0 hr 19 min 33 sec) 
Heartbeat CPU 0 instructions: 420000000 cycles: 429524836 heartbeat IPC: 0.685794 cumulative IPC: 0.687545 (Simulation time: 0 hr 20 min 6 sec) 
Heartbeat CPU 0 instructions: 430000002 cycles: 444090214 heartbeat IPC: 0.68656 cumulative IPC: 0.687502 (Simulation time: 0 hr 20 min 39 sec) 
Heartbeat CPU 0 instructions: 440000000 cycles: 458634805 heartbeat IPC: 0.687541 cumulative IPC: 0.687503 (Simulation time: 0 hr 21 min 13 sec) 
Heartbeat CPU 0 instructions: 450000000 cycles: 473146491 heartbeat IPC: 0.6891 cumulative IPC: 0.687567 (Simulation time: 0 hr 21 min 46 sec) 
Heartbeat CPU 0 instructions: 460000000 cycles: 487663490 heartbeat IPC: 0.688848 cumulative IPC: 0.687616 (Simulation time: 0 hr 22 min 19 sec) 
Heartbeat CPU 0 instructions: 470000001 cycles: 515952189 heartbeat IPC: 0.353498 cumulative IPC: 0.664359 (Simulation time: 0 hr 22 min 56 sec) 
Heartbeat CPU 0 instructions: 480000000 cycles: 549652156 heartbeat IPC: 0.296736 cumulative IPC: 0.63621 (Simulation time: 0 hr 23 min 33 sec) 
Heartbeat CPU 0 instructions: 490000000 cycles: 588277813 heartbeat IPC: 0.258895 cumulative IPC: 0.605767 (Simulation time: 0 hr 24 min 10 sec) 
Heartbeat CPU 0 instructions: 500000000 cycles: 628809444 heartbeat IPC: 0.246721 cumulative IPC: 0.577741 (Simulation time: 0 hr 24 min 48 sec) 
Heartbeat CPU 0 instructions: 510000002 cycles: 672420135 heartbeat IPC: 0.229302 cumulative IPC: 0.550744 (Simulation time: 0 hr 25 min 25 sec) 
Heartbeat CPU 0 instructions: 520000000 cycles: 709393486 heartbeat IPC: 0.270465 cumulative IPC: 0.533469 (Simulation time: 0 hr 26 min 3 sec) 
Heartbeat CPU 0 instructions: 530000000 cycles: 724300784 heartbeat IPC: 0.670812 cumulative IPC: 0.536799 (Simulation time: 0 hr 26 min 36 sec) 
Heartbeat CPU 0 instructions: 540000000 cycles: 738595901 heartbeat IPC: 0.69954 cumulative IPC: 0.540497 (Simulation time: 0 hr 27 min 9 sec) 
Heartbeat CPU 0 instructions: 550000000 cycles: 752905622 heartbeat IPC: 0.698826 cumulative IPC: 0.544019 (Simulation time: 0 hr 27 min 42 sec) 
Heartbeat CPU 0 instructions: 560000000 cycles: 767269171 heartbeat IPC: 0.696207 cumulative IPC: 0.547342 (Simulation time: 0 hr 28 min 16 sec) 
Heartbeat CPU 0 instructions: 570000000 cycles: 781552810 heartbeat IPC: 0.700102 cumulative IPC: 0.550589 (Simulation time: 0 hr 28 min 49 sec) 
Heartbeat CPU 0 instructions: 580000000 cycles: 795895297 heartbeat IPC: 0.697229 cumulative IPC: 0.553654 (Simulation time: 0 hr 29 min 22 sec) 
Heartbeat CPU 0 instructions: 590000001 cycles: 810215841 heartbeat IPC: 0.698298 cumulative IPC: 0.55661 (Simulation time: 0 hr 29 min 55 sec) 
Heartbeat CPU 0 instructions: 600000000 cycles: 824548156 heartbeat IPC: 0.697724 cumulative IPC: 0.559439 (Simulation time: 0 hr 30 min 28 sec) 
Heartbeat CPU 0 instructions: 610000001 cycles: 838898341 heartbeat IPC: 0.696855 cumulative IPC: 0.562142 (Simulation time: 0 hr 31 min 2 sec) 
Heartbeat CPU 0 instructions: 620000000 cycles: 853243223 heartbeat IPC: 0.697113 cumulative IPC: 0.564746 (Simulation time: 0 hr 31 min 35 sec) 
Heartbeat CPU 0 instructions: 630000000 cycles: 867612143 heartbeat IPC: 0.695947 cumulative IPC: 0.567233 (Simulation time: 0 hr 32 min 8 sec) 
Heartbeat CPU 0 instructions: 640000000 cycles: 882045041 heartbeat IPC: 0.692862 cumulative IPC: 0.56958 (Simulation time: 0 hr 32 min 41 sec) 
Heartbeat CPU 0 instructions: 650000002 cycles: 896404434 heartbeat IPC: 0.696408 cumulative IPC: 0.571894 (Simulation time: 0 hr 33 min 14 sec) 
Heartbeat CPU 0 instructions: 660000000 cycles: 910754571 heartbeat IPC: 0.696857 cumulative IPC: 0.574132 (Simulation time: 0 hr 33 min 48 sec) 
Heartbeat CPU 0 instructions: 670000003 cycles: 925146498 heartbeat IPC: 0.694834 cumulative IPC: 0.576262 (Simulation time: 0 hr 34 min 21 sec) 
Heartbeat CPU 0 instructions: 680000000 cycles: 939500652 heartbeat IPC: 0.696662 cumulative IPC: 0.578345 (Simulation time: 0 hr 34 min 54 sec) 
Heartbeat CPU 0 instructions: 690000000 cycles: 953852591 heartbeat IPC: 0.69677 cumulative IPC: 0.580358 (Simulation time: 0 hr 35 min 27 sec) 
Heartbeat CPU 0 instructions: 700000000 cycles: 968203934 heartbeat IPC: 0.696799 cumulative IPC: 0.582304 (Simulation time: 0 hr 36 min 1 sec) 
Heartbeat CPU 0 instructions: 710000001 cycles: 982546917 heartbeat IPC: 0.697205 cumulative IPC: 0.584192 (Simulation time: 0 hr 36 min 34 sec) 
Heartbeat CPU 0 instructions: 720000000 cycles: 996904431 heartbeat IPC: 0.696499 cumulative IPC: 0.586009 (Simulation time: 0 hr 37 min 7 sec) 
Heartbeat CPU 0 instructions: 730000001 cycles: 1011249777 heartbeat IPC: 0.69709 cumulative IPC: 0.587776 (Simulation time: 0 hr 37 min 40 sec) 
Heartbeat CPU 0 instructions: 740000000 cycles: 1025622446 heartbeat IPC: 0.695765 cumulative IPC: 0.58947 (Simulation time: 0 hr 38 min 14 sec) 
Heartbeat CPU 0 instructions: 750000000 cycles: 1039998417 heartbeat IPC: 0.695605 cumulative IPC: 0.59111 (Simulation time: 0 hr 38 min 47 sec) 
Heartbeat CPU 0 instructions: 760000000 cycles: 1054378262 heartbeat IPC: 0.695418 cumulative IPC: 0.592698 (Simulation time: 0 hr 39 min 20 sec) 
Heartbeat CPU 0 instructions: 770000002 cycles: 1068746200 heartbeat IPC: 0.695994 cumulative IPC: 0.594245 (Simulation time: 0 hr 39 min 53 sec) 
Heartbeat CPU 0 instructions: 780000000 cycles: 1083251233 heartbeat IPC: 0.689416 cumulative IPC: 0.595663 (Simulation time: 0 hr 40 min 26 sec) 
Heartbeat CPU 0 instructions: 790000000 cycles: 1097578580 heartbeat IPC: 0.697966 cumulative IPC: 0.597146 (Simulation time: 0 hr 41 min 0 sec) 
Heartbeat CPU 0 instructions: 800000000 cycles: 1111856751 heartbeat IPC: 0.70037 cumulative IPC: 0.598617 (Simulation time: 0 hr 41 min 33 sec) 
Heartbeat CPU 0 instructions: 810000001 cycles: 1126182637 heartbeat IPC: 0.698037 cumulative IPC: 0.600017 (Simulation time: 0 hr 42 min 6 sec) 
Heartbeat CPU 0 instructions: 820000000 cycles: 1140532882 heartbeat IPC: 0.696852 cumulative IPC: 0.601365 (Simulation time: 0 hr 42 min 40 sec) 
Heartbeat CPU 0 instructions: 830000000 cycles: 1154868507 heartbeat IPC: 0.697563 cumulative IPC: 0.602685 (Simulation time: 0 hr 43 min 13 sec) 
Heartbeat CPU 0 instructions: 840000000 cycles: 1169185384 heartbeat IPC: 0.698476 cumulative IPC: 0.603979 (Simulation time: 0 hr 43 min 46 sec) 
Heartbeat CPU 0 instructions: 850000002 cycles: 1183513913 heartbeat IPC: 0.697908 cumulative IPC: 0.605232 (Simulation time: 0 hr 44 min 19 sec) 
Heartbeat CPU 0 instructions: 860000000 cycles: 1197854144 heartbeat IPC: 0.697339 cumulative IPC: 0.606446 (Simulation time: 0 hr 44 min 53 sec) 
Heartbeat CPU 0 instructions: 870000001 cycles: 1212158634 heartbeat IPC: 0.699081 cumulative IPC: 0.607647 (Simulation time: 0 hr 45 min 26 sec) 
Heartbeat CPU 0 instructions: 880000000 cycles: 1226483112 heartbeat IPC: 0.698106 cumulative IPC: 0.608808 (Simulation time: 0 hr 45 min 59 sec) 
Heartbeat CPU 0 instructions: 890000001 cycles: 1240821642 heartbeat IPC: 0.697422 cumulative IPC: 0.609931 (Simulation time: 0 hr 46 min 32 sec) 
Heartbeat CPU 0 instructions: 900000000 cycles: 1255154225 heartbeat IPC: 0.697711 cumulative IPC: 0.611029 (Simulation time: 0 hr 47 min 5 sec) 
Heartbeat CPU 0 instructions: 910000003 cycles: 1269480605 heartbeat IPC: 0.698013 cumulative IPC: 0.612103 (Simulation time: 0 hr 47 min 39 sec) 
Heartbeat CPU 0 instructions: 920000000 cycles: 1283842723 heartbeat IPC: 0.696276 cumulative IPC: 0.613133 (Simulation time: 0 hr 48 min 12 sec) 
Heartbeat CPU 0 instructions: 930000002 cycles: 1298187232 heartbeat IPC: 0.697131 cumulative IPC: 0.614146 (Simulation time: 0 hr 48 min 45 sec) 
Heartbeat CPU 0 instructions: 940000000 cycles: 1312543896 heartbeat IPC: 0.696541 cumulative IPC: 0.61513 (Simulation time: 0 hr 49 min 18 sec) 
Heartbeat CPU 0 instructions: 950000001 cycles: 1326895597 heartbeat IPC: 0.696782 cumulative IPC: 0.616092 (Simulation time: 0 hr 49 min 51 sec) 
Heartbeat CPU 0 instructions: 960000000 cycles: 1341246252 heartbeat IPC: 0.696832 cumulative IPC: 0.617033 (Simulation time: 0 hr 50 min 25 sec) 
Heartbeat CPU 0 instructions: 970000001 cycles: 1355599860 heartbeat IPC: 0.696689 cumulative IPC: 0.617951 (Simulation time: 0 hr 50 min 58 sec) 
Heartbeat CPU 0 instructions: 980000000 cycles: 1369938671 heartbeat IPC: 0.697408 cumulative IPC: 0.618855 (Simulation time: 0 hr 51 min 31 sec) 
Heartbeat CPU 0 instructions: 990000003 cycles: 1384282872 heartbeat IPC: 0.697146 cumulative IPC: 0.619736 (Simulation time: 0 hr 52 min 4 sec) 
Heartbeat CPU 0 instructions: 1000000000 cycles: 1398665097 heartbeat IPC: 0.695302 cumulative IPC: 0.620579 (Simulation time: 0 hr 52 min 37 sec) 
Heartbeat CPU 0 instructions: 1010000000 cycles: 1413043999 heartbeat IPC: 0.695463 cumulative IPC: 0.621405 (Simulation time: 0 hr 53 min 11 sec) 
Heartbeat CPU 0 instructions: 1020000000 cycles: 1427424409 heartbeat IPC: 0.69539 cumulative IPC: 0.622212 (Simulation time: 0 hr 53 min 44 sec) 
Heartbeat CPU 0 instructions: 1030000001 cycles: 1441799795 heartbeat IPC: 0.695634 cumulative IPC: 0.623004 (Simulation time: 0 hr 54 min 17 sec) 
Heartbeat CPU 0 instructions: 1040000000 cycles: 1456223921 heartbeat IPC: 0.693283 cumulative IPC: 0.623757 (Simulation time: 0 hr 54 min 50 sec) 
Heartbeat CPU 0 instructions: 1050000001 cycles: 1470618765 heartbeat IPC: 0.694693 cumulative IPC: 0.624507 (Simulation time: 0 hr 55 min 23 sec) 
Heartbeat CPU 0 instructions: 1060000000 cycles: 1485018090 heartbeat IPC: 0.694477 cumulative IPC: 0.62524 (Simulation time: 0 hr 55 min 56 sec) 
Heartbeat CPU 0 instructions: 1070000000 cycles: 1499472184 heartbeat IPC: 0.691846 cumulative IPC: 0.625932 (Simulation time: 0 hr 56 min 29 sec) 
Heartbeat CPU 0 instructions: 1080000000 cycles: 1513870939 heartbeat IPC: 0.694504 cumulative IPC: 0.626635 (Simulation time: 0 hr 57 min 2 sec) 
Heartbeat CPU 0 instructions: 1090000000 cycles: 1528250802 heartbeat IPC: 0.695417 cumulative IPC: 0.627333 (Simulation time: 0 hr 57 min 35 sec) 
Heartbeat CPU 0 instructions: 1100000000 cycles: 1542609519 heartbeat IPC: 0.696441 cumulative IPC: 0.628025 (Simulation time: 0 hr 58 min 8 sec) 
Heartbeat CPU 0 instructions: 1110000000 cycles: 1557011439 heartbeat IPC: 0.694352 cumulative IPC: 0.628685 (Simulation time: 0 hr 58 min 42 sec) 
Heartbeat CPU 0 instructions: 1120000000 cycles: 1571393690 heartbeat IPC: 0.695301 cumulative IPC: 0.62934 (Simulation time: 0 hr 59 min 15 sec) 
Heartbeat CPU 0 instructions: 1130000000 cycles: 1585775992 heartbeat IPC: 0.695299 cumulative IPC: 0.629983 (Simulation time: 0 hr 59 min 48 sec) 
Heartbeat CPU 0 instructions: 1140000000 cycles: 1600127640 heartbeat IPC: 0.696784 cumulative IPC: 0.630626 (Simulation time: 1 hr 0 min 21 sec) 
Heartbeat CPU 0 instructions: 1150000002 cycles: 1614596629 heartbeat IPC: 0.691133 cumulative IPC: 0.631208 (Simulation time: 1 hr 0 min 54 sec) 
Heartbeat CPU 0 instructions: 1160000000 cycles: 1629021892 heartbeat IPC: 0.693228 cumulative IPC: 0.631797 (Simulation time: 1 hr 1 min 27 sec) 
Heartbeat CPU 0 instructions: 1170000002 cycles: 1643399407 heartbeat IPC: 0.695531 cumulative IPC: 0.632394 (Simulation time: 1 hr 2 min 0 sec) 
Heartbeat CPU 0 instructions: 1180000000 cycles: 1657858879 heartbeat IPC: 0.691588 cumulative IPC: 0.632947 (Simulation time: 1 hr 2 min 33 sec) 
Heartbeat CPU 0 instructions: 1190000001 cycles: 1672309490 heartbeat IPC: 0.692012 cumulative IPC: 0.633493 (Simulation time: 1 hr 3 min 6 sec) 
Heartbeat CPU 0 instructions: 1200000000 cycles: 1686776982 heartbeat IPC: 0.691205 cumulative IPC: 0.634022 (Simulation time: 1 hr 3 min 39 sec) 
Finished CPU 0 instructions: 1000000001 cycles: 1577231384 cumulative IPC: 0.634022 (Simulation time: 1 hr 3 min 39 sec) 

CPU 0 Branch Prediction Accuracy: 99.6502% MPKI: 0.666081

ChampSim completed all CPUs

Region of Interest Statistics

CPU 0 cumulative IPC: 0.634022 instructions: 1000000001 cycles: 1577231384
L1D TOTAL     ACCESS:  367979966  HIT:  358427581  MISS:    9552385
L1D LOAD      ACCESS:  188808329  HIT:  179361302  MISS:    9447027
L1D RFO       ACCESS:  179171637  HIT:  179066279  MISS:     105358
L1D PREFETCH  ACCESS:          0  HIT:          0  MISS:          0
L1D WRITEBACK ACCESS:          0  HIT:          0  MISS:          0
L1D PREFETCH  REQUESTED:          0  ISSUED:          0  USEFUL:          0  USELESS:          0
L1I TOTAL     ACCESS:  360622449  HIT:  360622321  MISS:        128
L1I LOAD      ACCESS:  360622449  HIT:  360622321  MISS:        128
L1I RFO       ACCESS:          0  HIT:          0  MISS:          0
L1I PREFETCH  ACCESS:          0  HIT:          0  MISS:          0
L1I WRITEBACK ACCESS:          0  HIT:          0  MISS:          0
L1I PREFETCH  REQUESTED:          0  ISSUED:          0  USEFUL:          0  USELESS:          0
L2C TOTAL     ACCESS:   15712203  HIT:   14428307  MISS:    1283896
L2C LOAD      ACCESS:    9447142  HIT:    8297507  MISS:    1149635
L2C RFO       ACCESS:     105356  HIT:      12441  MISS:      92915
L2C PREFETCH  ACCESS:    5705322  HIT:    5664700  MISS:      40622
L2C WRITEBACK ACCESS:     454383  HIT:     453659  MISS:        724
L2C PREFETCH  REQUESTED:    9646315  ISSUED:    9646315  USEFUL:      34868  USELESS:       6179
LLC TOTAL     ACCESS:    3862771  HIT:    2527042  MISS:    1335729
LLC LOAD      ACCESS:    1146699  HIT:     536511  MISS:     610188
LLC RFO       ACCESS:      92915  HIT:       4476  MISS:      88439
LLC PREFETCH  ACCESS:    2366274  HIT:    1729704  MISS:     636570
LLC WRITEBACK ACCESS:     256883  HIT:     256351  MISS:        532
LLC PREFETCH  REQUESTED:          0  ISSUED:          0  USEFUL:     350933  USELESS:     305362
Major fault: 0 Minor fault: 12291

DRAM Statistics
 CHANNEL 0
 RQ ROW_BUFFER_HIT:     624781  ROW_BUFFER_MISS:     710163
 DBUS_CONGESTED:     526479
 WQ ROW_BUFFER_HIT:      30828  ROW_BUFFER_MISS:     201029  FULL:          0

 AVG_CONGESTED_CYCLE: 12
