Initialize SIGNATURE TABLE
ST_SET: 1
ST_WAY: 256
ST_TAG_BIT: 16
ST_TAG_MASK: ffff

Initialize PATTERN TABLE
PT_SET: 512
PT_WAY: 4
SIG_DELTA_BIT: 7
C_SIG_BIT: 4
C_DELTA_BIT: 4

Initialize PREFETCH FILTER
FILTER_SET: 1024

*** ChampSim Multicore Out-of-Order Simulator ***

Warmup Instructions: 200000000
Simulation Instructions: 1000000000
Number of CPUs: 1
LLC sets: 2048
LLC ways: 16
Off-chip DRAM Size: 4096 MB Channels: 1 Width: 64-bit Data Rate: 1600 MT/s

CPU 0 runs /scratch/user/djimenez/champsim-traces/speccpu2006/xz/433.milc-127B.champsimtrace.xz
Heartbeat CPU 0 instructions: 10000002 cycles: 4420130 heartbeat IPC: 2.26238 cumulative IPC: 2.26238 (Simulation time: 0 hr 0 min 14 sec) 
Heartbeat CPU 0 instructions: 20000000 cycles: 8877381 heartbeat IPC: 2.24353 cumulative IPC: 2.25292 (Simulation time: 0 hr 0 min 28 sec) 
Heartbeat CPU 0 instructions: 30000000 cycles: 14338315 heartbeat IPC: 1.83119 cumulative IPC: 2.0923 (Simulation time: 0 hr 0 min 53 sec) 
Heartbeat CPU 0 instructions: 40000000 cycles: 19206122 heartbeat IPC: 2.05431 cumulative IPC: 2.08267 (Simulation time: 0 hr 1 min 15 sec) 
Heartbeat CPU 0 instructions: 50000002 cycles: 24073824 heartbeat IPC: 2.05436 cumulative IPC: 2.07694 (Simulation time: 0 hr 1 min 37 sec) 
Heartbeat CPU 0 instructions: 60000000 cycles: 28942746 heartbeat IPC: 2.05384 cumulative IPC: 2.07306 (Simulation time: 0 hr 2 min 0 sec) 
Heartbeat CPU 0 instructions: 70000002 cycles: 33832621 heartbeat IPC: 2.04504 cumulative IPC: 2.06901 (Simulation time: 0 hr 2 min 22 sec) 
Heartbeat CPU 0 instructions: 80000000 cycles: 38714297 heartbeat IPC: 2.04848 cumulative IPC: 2.06642 (Simulation time: 0 hr 2 min 45 sec) 
Heartbeat CPU 0 instructions: 90000003 cycles: 43596339 heartbeat IPC: 2.04832 cumulative IPC: 2.06439 (Simulation time: 0 hr 3 min 7 sec) 
Heartbeat CPU 0 instructions: 100000000 cycles: 48476180 heartbeat IPC: 2.04925 cumulative IPC: 2.06287 (Simulation time: 0 hr 3 min 31 sec) 
Heartbeat CPU 0 instructions: 110000001 cycles: 52442931 heartbeat IPC: 2.52096 cumulative IPC: 2.09752 (Simulation time: 0 hr 3 min 52 sec) 
Heartbeat CPU 0 instructions: 120000000 cycles: 56006444 heartbeat IPC: 2.80622 cumulative IPC: 2.14261 (Simulation time: 0 hr 4 min 11 sec) 
Heartbeat CPU 0 instructions: 130000002 cycles: 59823189 heartbeat IPC: 2.62003 cumulative IPC: 2.17307 (Simulation time: 0 hr 4 min 31 sec) 
Heartbeat CPU 0 instructions: 140000000 cycles: 63379404 heartbeat IPC: 2.81198 cumulative IPC: 2.20892 (Simulation time: 0 hr 4 min 51 sec) 
Heartbeat CPU 0 instructions: 150000002 cycles: 66927027 heartbeat IPC: 2.81879 cumulative IPC: 2.24125 (Simulation time: 0 hr 5 min 10 sec) 
Heartbeat CPU 0 instructions: 160000000 cycles: 71531577 heartbeat IPC: 2.17176 cumulative IPC: 2.23677 (Simulation time: 0 hr 5 min 32 sec) 
Heartbeat CPU 0 instructions: 170000000 cycles: 76400247 heartbeat IPC: 2.05395 cumulative IPC: 2.22512 (Simulation time: 0 hr 5 min 54 sec) 
Heartbeat CPU 0 instructions: 180000000 cycles: 81268945 heartbeat IPC: 2.05394 cumulative IPC: 2.21487 (Simulation time: 0 hr 6 min 17 sec) 
Heartbeat CPU 0 instructions: 190000001 cycles: 86142933 heartbeat IPC: 2.05171 cumulative IPC: 2.20564 (Simulation time: 0 hr 6 min 39 sec) 
Heartbeat CPU 0 instructions: 200000000 cycles: 91029819 heartbeat IPC: 2.04629 cumulative IPC: 2.19708 (Simulation time: 0 hr 7 min 1 sec) 

Warmup complete CPU 0 instructions: 200000001 cycles: 91029822 (Simulation time: 0 hr 7 min 1 sec) 

Heartbeat CPU 0 instructions: 210000002 cycles: 102948587 heartbeat IPC: 0.839013 cumulative IPC: 0.839013 (Simulation time: 0 hr 7 min 30 sec) 
Heartbeat CPU 0 instructions: 220000000 cycles: 114309749 heartbeat IPC: 0.880192 cumulative IPC: 0.859109 (Simulation time: 0 hr 7 min 58 sec) 
Heartbeat CPU 0 instructions: 230000001 cycles: 133959891 heartbeat IPC: 0.508902 cumulative IPC: 0.698811 (Simulation time: 0 hr 8 min 31 sec) 
Heartbeat CPU 0 instructions: 240000000 cycles: 152363890 heartbeat IPC: 0.54336 cumulative IPC: 0.652166 (Simulation time: 0 hr 9 min 0 sec) 
Heartbeat CPU 0 instructions: 250000001 cycles: 172231808 heartbeat IPC: 0.503324 cumulative IPC: 0.615748 (Simulation time: 0 hr 9 min 35 sec) 
Heartbeat CPU 0 instructions: 260000000 cycles: 191175293 heartbeat IPC: 0.527886 cumulative IPC: 0.599128 (Simulation time: 0 hr 10 min 9 sec) 
Heartbeat CPU 0 instructions: 270000001 cycles: 210024355 heartbeat IPC: 0.53053 cumulative IPC: 0.588262 (Simulation time: 0 hr 10 min 38 sec) 
Heartbeat CPU 0 instructions: 280000000 cycles: 225852338 heartbeat IPC: 0.631792 cumulative IPC: 0.593373 (Simulation time: 0 hr 11 min 7 sec) 
Heartbeat CPU 0 instructions: 290000002 cycles: 237387500 heartbeat IPC: 0.866915 cumulative IPC: 0.614932 (Simulation time: 0 hr 11 min 36 sec) 
Heartbeat CPU 0 instructions: 300000000 cycles: 248837892 heartbeat IPC: 0.873332 cumulative IPC: 0.633681 (Simulation time: 0 hr 12 min 4 sec) 
Heartbeat CPU 0 instructions: 310000003 cycles: 260748398 heartbeat IPC: 0.839595 cumulative IPC: 0.648132 (Simulation time: 0 hr 12 min 32 sec) 
Heartbeat CPU 0 instructions: 320000000 cycles: 272888215 heartbeat IPC: 0.823735 cumulative IPC: 0.659854 (Simulation time: 0 hr 13 min 0 sec) 
Heartbeat CPU 0 instructions: 330000003 cycles: 285009974 heartbeat IPC: 0.824963 cumulative IPC: 0.670172 (Simulation time: 0 hr 13 min 28 sec) 
Heartbeat CPU 0 instructions: 340000000 cycles: 297144964 heartbeat IPC: 0.824063 cumulative IPC: 0.679232 (Simulation time: 0 hr 13 min 57 sec) 
Heartbeat CPU 0 instructions: 350000000 cycles: 311620300 heartbeat IPC: 0.69083 cumulative IPC: 0.679993 (Simulation time: 0 hr 14 min 27 sec) 
Heartbeat CPU 0 instructions: 360000000 cycles: 329453405 heartbeat IPC: 0.560755 cumulative IPC: 0.671075 (Simulation time: 0 hr 14 min 55 sec) 
Heartbeat CPU 0 instructions: 370000001 cycles: 347380966 heartbeat IPC: 0.5578 cumulative IPC: 0.663153 (Simulation time: 0 hr 15 min 24 sec) 
Heartbeat CPU 0 instructions: 380000000 cycles: 360694579 heartbeat IPC: 0.751111 cumulative IPC: 0.667495 (Simulation time: 0 hr 15 min 53 sec) 
Heartbeat CPU 0 instructions: 390000000 cycles: 373292116 heartbeat IPC: 0.793806 cumulative IPC: 0.673133 (Simulation time: 0 hr 16 min 21 sec) 
Heartbeat CPU 0 instructions: 400000000 cycles: 385831974 heartbeat IPC: 0.797457 cumulative IPC: 0.678421 (Simulation time: 0 hr 16 min 50 sec) 
Heartbeat CPU 0 instructions: 410000000 cycles: 398212098 heartbeat IPC: 0.807746 cumulative IPC: 0.683633 (Simulation time: 0 hr 17 min 19 sec) 
Heartbeat CPU 0 instructions: 420000000 cycles: 410317148 heartbeat IPC: 0.826101 cumulative IPC: 0.689035 (Simulation time: 0 hr 17 min 47 sec) 
Heartbeat CPU 0 instructions: 430000002 cycles: 422828208 heartbeat IPC: 0.799293 cumulative IPC: 0.693192 (Simulation time: 0 hr 18 min 16 sec) 
Heartbeat CPU 0 instructions: 440000000 cycles: 435264343 heartbeat IPC: 0.804108 cumulative IPC: 0.697199 (Simulation time: 0 hr 18 min 44 sec) 
Heartbeat CPU 0 instructions: 450000000 cycles: 449737217 heartbeat IPC: 0.690948 cumulative IPC: 0.696947 (Simulation time: 0 hr 19 min 20 sec) 
Heartbeat CPU 0 instructions: 460000000 cycles: 467822452 heartbeat IPC: 0.552937 cumulative IPC: 0.690035 (Simulation time: 0 hr 19 min 49 sec) 
Heartbeat CPU 0 instructions: 470000002 cycles: 485591105 heartbeat IPC: 0.562789 cumulative IPC: 0.684304 (Simulation time: 0 hr 20 min 18 sec) 
Heartbeat CPU 0 instructions: 480000000 cycles: 503720427 heartbeat IPC: 0.551592 cumulative IPC: 0.678474 (Simulation time: 0 hr 20 min 49 sec) 
Heartbeat CPU 0 instructions: 490000001 cycles: 522377940 heartbeat IPC: 0.535977 cumulative IPC: 0.672311 (Simulation time: 0 hr 21 min 18 sec) 
Heartbeat CPU 0 instructions: 500000000 cycles: 540413919 heartbeat IPC: 0.554447 cumulative IPC: 0.66758 (Simulation time: 0 hr 21 min 48 sec) 
Heartbeat CPU 0 instructions: 510000002 cycles: 552753380 heartbeat IPC: 0.810408 cumulative IPC: 0.671397 (Simulation time: 0 hr 22 min 17 sec) 
Heartbeat CPU 0 instructions: 520000000 cycles: 564912279 heartbeat IPC: 0.822443 cumulative IPC: 0.675273 (Simulation time: 0 hr 22 min 45 sec) 
Heartbeat CPU 0 instructions: 530000001 cycles: 576994394 heartbeat IPC: 0.82767 cumulative IPC: 0.679062 (Simulation time: 0 hr 23 min 13 sec) 
Heartbeat CPU 0 instructions: 540000000 cycles: 589135888 heartbeat IPC: 0.823622 cumulative IPC: 0.682586 (Simulation time: 0 hr 23 min 41 sec) 
Heartbeat CPU 0 instructions: 550000003 cycles: 601243450 heartbeat IPC: 0.82593 cumulative IPC: 0.685987 (Simulation time: 0 hr 24 min 10 sec) 
Heartbeat CPU 0 instructions: 560000000 cycles: 613270913 heartbeat IPC: 0.83143 cumulative IPC: 0.689337 (Simulation time: 0 hr 24 min 38 sec) 
Heartbeat CPU 0 instructions: 570000003 cycles: 627398854 heartbeat IPC: 0.707817 cumulative IPC: 0.689824 (Simulation time: 0 hr 25 min 9 sec) 
Heartbeat CPU 0 instructions: 580000000 cycles: 647027968 heartbeat IPC: 0.509447 cumulative IPC: 0.683456 (Simulation time: 0 hr 25 min 40 sec) 
Heartbeat CPU 0 instructions: 590000003 cycles: 664847608 heartbeat IPC: 0.561179 cumulative IPC: 0.679658 (Simulation time: 0 hr 26 min 8 sec) 
Heartbeat CPU 0 instructions: 600000000 cycles: 684072104 heartbeat IPC: 0.52017 cumulative IPC: 0.674488 (Simulation time: 0 hr 26 min 45 sec) 
Heartbeat CPU 0 instructions: 610000000 cycles: 696940153 heartbeat IPC: 0.777119 cumulative IPC: 0.676668 (Simulation time: 0 hr 27 min 14 sec) 
Heartbeat CPU 0 instructions: 620000000 cycles: 709649982 heartbeat IPC: 0.786793 cumulative IPC: 0.67893 (Simulation time: 0 hr 27 min 43 sec) 
Heartbeat CPU 0 instructions: 630000002 cycles: 722336083 heartbeat IPC: 0.788264 cumulative IPC: 0.681127 (Simulation time: 0 hr 28 min 11 sec) 
Heartbeat CPU 0 instructions: 640000000 cycles: 734918143 heartbeat IPC: 0.794782 cumulative IPC: 0.683348 (Simulation time: 0 hr 28 min 40 sec) 
Heartbeat CPU 0 instructions: 650000000 cycles: 747527949 heartbeat IPC: 0.793034 cumulative IPC: 0.685455 (Simulation time: 0 hr 29 min 9 sec) 
Heartbeat CPU 0 instructions: 660000000 cycles: 760191494 heartbeat IPC: 0.789668 cumulative IPC: 0.687427 (Simulation time: 0 hr 29 min 37 sec) 
Heartbeat CPU 0 instructions: 670000000 cycles: 773110091 heartbeat IPC: 0.774078 cumulative IPC: 0.689068 (Simulation time: 0 hr 30 min 7 sec) 
Heartbeat CPU 0 instructions: 680000000 cycles: 792216432 heartbeat IPC: 0.523386 cumulative IPC: 0.684554 (Simulation time: 0 hr 30 min 45 sec) 
Heartbeat CPU 0 instructions: 690000002 cycles: 810258849 heartbeat IPC: 0.55425 cumulative IPC: 0.681285 (Simulation time: 0 hr 31 min 14 sec) 
Heartbeat CPU 0 instructions: 700000000 cycles: 828094102 heartbeat IPC: 0.560687 cumulative IPC: 0.678367 (Simulation time: 0 hr 31 min 42 sec) 
Heartbeat CPU 0 instructions: 710000003 cycles: 845123283 heartbeat IPC: 0.587227 cumulative IPC: 0.676309 (Simulation time: 0 hr 32 min 19 sec) 
Heartbeat CPU 0 instructions: 720000000 cycles: 857139196 heartbeat IPC: 0.832229 cumulative IPC: 0.678754 (Simulation time: 0 hr 32 min 47 sec) 
Heartbeat CPU 0 instructions: 730000001 cycles: 869142845 heartbeat IPC: 0.83308 cumulative IPC: 0.681135 (Simulation time: 0 hr 33 min 15 sec) 
Heartbeat CPU 0 instructions: 740000000 cycles: 880660673 heartbeat IPC: 0.868219 cumulative IPC: 0.683864 (Simulation time: 0 hr 33 min 43 sec) 
Heartbeat CPU 0 instructions: 750000002 cycles: 892051606 heartbeat IPC: 0.877891 cumulative IPC: 0.686623 (Simulation time: 0 hr 34 min 11 sec) 
Heartbeat CPU 0 instructions: 760000000 cycles: 904148713 heartbeat IPC: 0.826644 cumulative IPC: 0.688706 (Simulation time: 0 hr 34 min 39 sec) 
Heartbeat CPU 0 instructions: 770000000 cycles: 916149690 heartbeat IPC: 0.833265 cumulative IPC: 0.690809 (Simulation time: 0 hr 35 min 7 sec) 
Heartbeat CPU 0 instructions: 780000000 cycles: 930043021 heartbeat IPC: 0.71977 cumulative IPC: 0.691288 (Simulation time: 0 hr 35 min 40 sec) 
Heartbeat CPU 0 instructions: 790000001 cycles: 953479414 heartbeat IPC: 0.426687 cumulative IPC: 0.684098 (Simulation time: 0 hr 36 min 17 sec) 
Heartbeat CPU 0 instructions: 800000000 cycles: 975061815 heartbeat IPC: 0.46334 cumulative IPC: 0.678708 (Simulation time: 0 hr 36 min 47 sec) 
Heartbeat CPU 0 instructions: 810000000 cycles: 997120142 heartbeat IPC: 0.453344 cumulative IPC: 0.673222 (Simulation time: 0 hr 37 min 24 sec) 
Heartbeat CPU 0 instructions: 820000000 cycles: 1015751763 heartbeat IPC: 0.536722 cumulative IPC: 0.670472 (Simulation time: 0 hr 37 min 56 sec) 
Heartbeat CPU 0 instructions: 830000002 cycles: 1034510736 heartbeat IPC: 0.533078 cumulative IPC: 0.66774 (Simulation time: 0 hr 38 min 26 sec) 
Heartbeat CPU 0 instructions: 840000000 cycles: 1050277216 heartbeat IPC: 0.634257 cumulative IPC: 0.66719 (Simulation time: 0 hr 38 min 55 sec) 
Heartbeat CPU 0 instructions: 850000002 cycles: 1062283444 heartbeat IPC: 0.832901 cumulative IPC: 0.669238 (Simulation time: 0 hr 39 min 23 sec) 
Heartbeat CPU 0 instructions: 860000000 cycles: 1074296360 heartbeat IPC: 0.832437 cumulative IPC: 0.671232 (Simulation time: 0 hr 39 min 51 sec) 
Heartbeat CPU 0 instructions: 870000000 cycles: 1086330033 heartbeat IPC: 0.831001 cumulative IPC: 0.673164 (Simulation time: 0 hr 40 min 20 sec) 
Heartbeat CPU 0 instructions: 880000000 cycles: 1098477065 heartbeat IPC: 0.823246 cumulative IPC: 0.674973 (Simulation time: 0 hr 40 min 48 sec) 
Heartbeat CPU 0 instructions: 890000001 cycles: 1110612583 heartbeat IPC: 0.824028 cumulative IPC: 0.676747 (Simulation time: 0 hr 41 min 16 sec) 
Heartbeat CPU 0 instructions: 900000000 cycles: 1122155110 heartbeat IPC: 0.866361 cumulative IPC: 0.67887 (Simulation time: 0 hr 41 min 44 sec) 
Heartbeat CPU 0 instructions: 910000002 cycles: 1136158504 heartbeat IPC: 0.714113 cumulative IPC: 0.679342 (Simulation time: 0 hr 42 min 14 sec) 
Heartbeat CPU 0 instructions: 920000000 cycles: 1153284090 heartbeat IPC: 0.583921 cumulative IPC: 0.677804 (Simulation time: 0 hr 42 min 43 sec) 
Heartbeat CPU 0 instructions: 930000001 cycles: 1170273956 heartbeat IPC: 0.588586 cumulative IPC: 0.676399 (Simulation time: 0 hr 43 min 12 sec) 
Heartbeat CPU 0 instructions: 940000000 cycles: 1183411899 heartbeat IPC: 0.761154 cumulative IPC: 0.677419 (Simulation time: 0 hr 43 min 40 sec) 
Heartbeat CPU 0 instructions: 950000000 cycles: 1196030182 heartbeat IPC: 0.792501 cumulative IPC: 0.678733 (Simulation time: 0 hr 44 min 9 sec) 
Heartbeat CPU 0 instructions: 960000000 cycles: 1208533366 heartbeat IPC: 0.799796 cumulative IPC: 0.680087 (Simulation time: 0 hr 44 min 38 sec) 
Heartbeat CPU 0 instructions: 970000001 cycles: 1221104808 heartbeat IPC: 0.795454 cumulative IPC: 0.681371 (Simulation time: 0 hr 45 min 6 sec) 
Heartbeat CPU 0 instructions: 980000000 cycles: 1233607541 heartbeat IPC: 0.799825 cumulative IPC: 0.682667 (Simulation time: 0 hr 45 min 35 sec) 
Heartbeat CPU 0 instructions: 990000003 cycles: 1246239682 heartbeat IPC: 0.791632 cumulative IPC: 0.683858 (Simulation time: 0 hr 46 min 3 sec) 
Heartbeat CPU 0 instructions: 1000000000 cycles: 1258865352 heartbeat IPC: 0.792037 cumulative IPC: 0.685028 (Simulation time: 0 hr 46 min 32 sec) 
Heartbeat CPU 0 instructions: 1010000002 cycles: 1274227539 heartbeat IPC: 0.650949 cumulative IPC: 0.684586 (Simulation time: 0 hr 47 min 7 sec) 
Heartbeat CPU 0 instructions: 1020000000 cycles: 1291338783 heartbeat IPC: 0.584411 cumulative IPC: 0.683157 (Simulation time: 0 hr 47 min 36 sec) 
Heartbeat CPU 0 instructions: 1030000003 cycles: 1308412070 heartbeat IPC: 0.58571 cumulative IPC: 0.681791 (Simulation time: 0 hr 48 min 5 sec) 
Heartbeat CPU 0 instructions: 1040000000 cycles: 1322436953 heartbeat IPC: 0.713018 cumulative IPC: 0.682146 (Simulation time: 0 hr 48 min 33 sec) 
Heartbeat CPU 0 instructions: 1050000000 cycles: 1334857217 heartbeat IPC: 0.805136 cumulative IPC: 0.683375 (Simulation time: 0 hr 49 min 2 sec) 
Heartbeat CPU 0 instructions: 1060000000 cycles: 1347248243 heartbeat IPC: 0.807036 cumulative IPC: 0.684594 (Simulation time: 0 hr 49 min 30 sec) 
Heartbeat CPU 0 instructions: 1070000000 cycles: 1359713097 heartbeat IPC: 0.802256 cumulative IPC: 0.68575 (Simulation time: 0 hr 49 min 59 sec) 
Heartbeat CPU 0 instructions: 1080000000 cycles: 1371732485 heartbeat IPC: 0.831989 cumulative IPC: 0.687123 (Simulation time: 0 hr 50 min 27 sec) 
Heartbeat CPU 0 instructions: 1090000003 cycles: 1384142852 heartbeat IPC: 0.805778 cumulative IPC: 0.688262 (Simulation time: 0 hr 50 min 56 sec) 
Heartbeat CPU 0 instructions: 1100000000 cycles: 1396539179 heartbeat IPC: 0.80669 cumulative IPC: 0.689386 (Simulation time: 0 hr 51 min 25 sec) 
Heartbeat CPU 0 instructions: 1110000002 cycles: 1412061986 heartbeat IPC: 0.644213 cumulative IPC: 0.688855 (Simulation time: 0 hr 51 min 55 sec) 
Heartbeat CPU 0 instructions: 1120000000 cycles: 1430147467 heartbeat IPC: 0.55293 cumulative IPC: 0.68702 (Simulation time: 0 hr 52 min 25 sec) 
Heartbeat CPU 0 instructions: 1130000003 cycles: 1446709692 heartbeat IPC: 0.603784 cumulative IPC: 0.686003 (Simulation time: 0 hr 52 min 53 sec) 
Heartbeat CPU 0 instructions: 1140000000 cycles: 1459100717 heartbeat IPC: 0.807036 cumulative IPC: 0.687099 (Simulation time: 0 hr 53 min 22 sec) 
Heartbeat CPU 0 instructions: 1150000003 cycles: 1471509940 heartbeat IPC: 0.805852 cumulative IPC: 0.688166 (Simulation time: 0 hr 53 min 51 sec) 
Heartbeat CPU 0 instructions: 1160000000 cycles: 1483974554 heartbeat IPC: 0.802271 cumulative IPC: 0.689187 (Simulation time: 0 hr 54 min 20 sec) 
Heartbeat CPU 0 instructions: 1170000002 cycles: 1496542874 heartbeat IPC: 0.795651 cumulative IPC: 0.690139 (Simulation time: 0 hr 54 min 48 sec) 
Heartbeat CPU 0 instructions: 1180000000 cycles: 1509052607 heartbeat IPC: 0.799377 cumulative IPC: 0.691103 (Simulation time: 0 hr 55 min 17 sec) 
Heartbeat CPU 0 instructions: 1190000003 cycles: 1521446464 heartbeat IPC: 0.806852 cumulative IPC: 0.692106 (Simulation time: 0 hr 55 min 45 sec) 
Heartbeat CPU 0 instructions: 1200000000 cycles: 1537230378 heartbeat IPC: 0.633556 cumulative IPC: 0.691467 (Simulation time: 0 hr 56 min 18 sec) 
Finished CPU 0 instructions: 1000000000 cycles: 1446200564 cumulative IPC: 0.691467 (Simulation time: 0 hr 56 min 18 sec) 

CPU 0 Branch Prediction Accuracy: 99.9995% MPKI: 0.000253

ChampSim completed all CPUs

Region of Interest Statistics

CPU 0 cumulative IPC: 0.691467 instructions: 1000000000 cycles: 1446200564
L1D TOTAL     ACCESS:  223067467  HIT:  204594524  MISS:   18472943
L1D LOAD      ACCESS:  107586368  HIT:   91874970  MISS:   15711398
L1D RFO       ACCESS:  115481099  HIT:  112719554  MISS:    2761545
L1D PREFETCH  ACCESS:          0  HIT:          0  MISS:          0
L1D WRITEBACK ACCESS:          0  HIT:          0  MISS:          0
L1D PREFETCH  REQUESTED:          0  ISSUED:          0  USEFUL:          0  USELESS:          0
L1I TOTAL     ACCESS:  260694585  HIT:  260694538  MISS:         47
L1I LOAD      ACCESS:  260694585  HIT:  260694538  MISS:         47
L1I RFO       ACCESS:          0  HIT:          0  MISS:          0
L1I PREFETCH  ACCESS:          0  HIT:          0  MISS:          0
L1I WRITEBACK ACCESS:          0  HIT:          0  MISS:          0
L1I PREFETCH  REQUESTED:          0  ISSUED:          0  USEFUL:          0  USELESS:          0
L2C TOTAL     ACCESS:   31877797  HIT:   13367497  MISS:   18510300
L2C LOAD      ACCESS:   15711445  HIT:    2919730  MISS:   12791715
L2C RFO       ACCESS:    2761545  HIT:          0  MISS:    2761545
L2C PREFETCH  ACCESS:    7184166  HIT:    4227202  MISS:    2956964
L2C WRITEBACK ACCESS:    6220641  HIT:    6220565  MISS:         76
L2C PREFETCH  REQUESTED:   84922559  ISSUED:   84922370  USEFUL:    4178338  USELESS:      55368
LLC TOTAL     ACCESS:   59987051  HIT:   37960453  MISS:   22026598
LLC LOAD      ACCESS:   11675333  HIT:    5778977  MISS:    5896356
LLC RFO       ACCESS:    2761545  HIT:        849  MISS:    2760696
LLC PREFETCH  ACCESS:   39331550  HIT:   25998677  MISS:   13332873
LLC WRITEBACK ACCESS:    6218623  HIT:    6181950  MISS:      36673
LLC PREFETCH  REQUESTED:          0  ISSUED:          0  USEFUL:    7032102  USELESS:    9719251
Major fault: 0 Minor fault: 98309

DRAM Statistics
 CHANNEL 0
 RQ ROW_BUFFER_HIT:   18903585  ROW_BUFFER_MISS:    3086285
 DBUS_CONGESTED:   14617215
 WQ ROW_BUFFER_HIT:    4307706  ROW_BUFFER_MISS:    1887041  FULL:          0

 AVG_CONGESTED_CYCLE: 12
