Initialize SIGNATURE TABLE
ST_SET: 1
ST_WAY: 256
ST_TAG_BIT: 16
ST_TAG_MASK: ffff

Initialize PATTERN TABLE
PT_SET: 512
PT_WAY: 4
SIG_DELTA_BIT: 7
C_SIG_BIT: 4
C_DELTA_BIT: 4

Initialize PREFETCH FILTER
FILTER_SET: 1024

*** ChampSim Multicore Out-of-Order Simulator ***

Warmup Instructions: 200000000
Simulation Instructions: 1000000000
Number of CPUs: 1
LLC sets: 2048
LLC ways: 16
Off-chip DRAM Size: 4096 MB Channels: 1 Width: 64-bit Data Rate: 1600 MT/s

CPU 0 runs /scratch/user/djimenez/champsim-traces/speccpu2006/xz/445.gobmk-17B.champsimtrace.xz
Heartbeat CPU 0 instructions: 10000000 cycles: 6723783 heartbeat IPC: 1.48726 cumulative IPC: 1.48726 (Simulation time: 0 hr 0 min 14 sec) 
Heartbeat CPU 0 instructions: 20000000 cycles: 13373941 heartbeat IPC: 1.50372 cumulative IPC: 1.49545 (Simulation time: 0 hr 0 min 28 sec) 
Heartbeat CPU 0 instructions: 30000001 cycles: 20041809 heartbeat IPC: 1.49973 cumulative IPC: 1.49687 (Simulation time: 0 hr 0 min 42 sec) 
Heartbeat CPU 0 instructions: 40000000 cycles: 26641669 heartbeat IPC: 1.51518 cumulative IPC: 1.50141 (Simulation time: 0 hr 0 min 56 sec) 
Heartbeat CPU 0 instructions: 50000000 cycles: 33219861 heartbeat IPC: 1.52017 cumulative IPC: 1.50512 (Simulation time: 0 hr 1 min 10 sec) 
Heartbeat CPU 0 instructions: 60000000 cycles: 39811605 heartbeat IPC: 1.51705 cumulative IPC: 1.5071 (Simulation time: 0 hr 1 min 25 sec) 
Heartbeat CPU 0 instructions: 70000000 cycles: 46403671 heartbeat IPC: 1.51698 cumulative IPC: 1.5085 (Simulation time: 0 hr 1 min 39 sec) 
Heartbeat CPU 0 instructions: 80000000 cycles: 52962517 heartbeat IPC: 1.52466 cumulative IPC: 1.5105 (Simulation time: 0 hr 1 min 53 sec) 
Heartbeat CPU 0 instructions: 90000002 cycles: 59556293 heartbeat IPC: 1.51658 cumulative IPC: 1.51118 (Simulation time: 0 hr 2 min 7 sec) 
Heartbeat CPU 0 instructions: 100000000 cycles: 66113573 heartbeat IPC: 1.52502 cumulative IPC: 1.51255 (Simulation time: 0 hr 2 min 21 sec) 
Heartbeat CPU 0 instructions: 110000002 cycles: 72695752 heartbeat IPC: 1.51925 cumulative IPC: 1.51316 (Simulation time: 0 hr 2 min 35 sec) 
Heartbeat CPU 0 instructions: 120000000 cycles: 79233932 heartbeat IPC: 1.52948 cumulative IPC: 1.5145 (Simulation time: 0 hr 2 min 49 sec) 
Heartbeat CPU 0 instructions: 130000001 cycles: 85786060 heartbeat IPC: 1.52622 cumulative IPC: 1.5154 (Simulation time: 0 hr 3 min 3 sec) 
Heartbeat CPU 0 instructions: 140000000 cycles: 92350174 heartbeat IPC: 1.52343 cumulative IPC: 1.51597 (Simulation time: 0 hr 3 min 17 sec) 
Heartbeat CPU 0 instructions: 150000001 cycles: 98916971 heartbeat IPC: 1.52281 cumulative IPC: 1.51642 (Simulation time: 0 hr 3 min 32 sec) 
Heartbeat CPU 0 instructions: 160000000 cycles: 105460959 heartbeat IPC: 1.52812 cumulative IPC: 1.51715 (Simulation time: 0 hr 3 min 45 sec) 
Heartbeat CPU 0 instructions: 170000002 cycles: 112044660 heartbeat IPC: 1.5189 cumulative IPC: 1.51725 (Simulation time: 0 hr 3 min 59 sec) 
Heartbeat CPU 0 instructions: 180000000 cycles: 118632332 heartbeat IPC: 1.51799 cumulative IPC: 1.51729 (Simulation time: 0 hr 4 min 13 sec) 
Heartbeat CPU 0 instructions: 190000002 cycles: 125216827 heartbeat IPC: 1.51872 cumulative IPC: 1.51737 (Simulation time: 0 hr 4 min 27 sec) 
Heartbeat CPU 0 instructions: 200000000 cycles: 131792465 heartbeat IPC: 1.52076 cumulative IPC: 1.51754 (Simulation time: 0 hr 4 min 41 sec) 

Warmup complete CPU 0 instructions: 200000001 cycles: 131792466 (Simulation time: 0 hr 4 min 41 sec) 

Heartbeat CPU 0 instructions: 210000002 cycles: 151364885 heartbeat IPC: 0.510923 cumulative IPC: 0.510923 (Simulation time: 0 hr 5 min 4 sec) 
Heartbeat CPU 0 instructions: 220000000 cycles: 171017581 heartbeat IPC: 0.508836 cumulative IPC: 0.509877 (Simulation time: 0 hr 5 min 28 sec) 
Heartbeat CPU 0 instructions: 230000001 cycles: 191068794 heartbeat IPC: 0.498723 cumulative IPC: 0.506104 (Simulation time: 0 hr 5 min 51 sec) 
Heartbeat CPU 0 instructions: 240000000 cycles: 211146401 heartbeat IPC: 0.498067 cumulative IPC: 0.504071 (Simulation time: 0 hr 6 min 14 sec) 
Heartbeat CPU 0 instructions: 250000002 cycles: 230622507 heartbeat IPC: 0.51345 cumulative IPC: 0.505919 (Simulation time: 0 hr 6 min 37 sec) 
Heartbeat CPU 0 instructions: 260000000 cycles: 250162422 heartbeat IPC: 0.511773 cumulative IPC: 0.506885 (Simulation time: 0 hr 7 min 0 sec) 
Heartbeat CPU 0 instructions: 270000002 cycles: 269595268 heartbeat IPC: 0.514593 cumulative IPC: 0.507972 (Simulation time: 0 hr 7 min 23 sec) 
Heartbeat CPU 0 instructions: 280000000 cycles: 288937624 heartbeat IPC: 0.517 cumulative IPC: 0.509083 (Simulation time: 0 hr 7 min 46 sec) 
Heartbeat CPU 0 instructions: 290000001 cycles: 308542445 heartbeat IPC: 0.510079 cumulative IPC: 0.509194 (Simulation time: 0 hr 8 min 9 sec) 
Heartbeat CPU 0 instructions: 300000000 cycles: 328102088 heartbeat IPC: 0.511257 cumulative IPC: 0.509399 (Simulation time: 0 hr 8 min 33 sec) 
Heartbeat CPU 0 instructions: 310000002 cycles: 347585519 heartbeat IPC: 0.513257 cumulative IPC: 0.509748 (Simulation time: 0 hr 8 min 56 sec) 
Heartbeat CPU 0 instructions: 320000000 cycles: 367302413 heartbeat IPC: 0.507179 cumulative IPC: 0.509533 (Simulation time: 0 hr 9 min 19 sec) 
Heartbeat CPU 0 instructions: 330000003 cycles: 386707181 heartbeat IPC: 0.515337 cumulative IPC: 0.509974 (Simulation time: 0 hr 9 min 42 sec) 
Heartbeat CPU 0 instructions: 340000000 cycles: 406457216 heartbeat IPC: 0.506328 cumulative IPC: 0.509712 (Simulation time: 0 hr 10 min 5 sec) 
Heartbeat CPU 0 instructions: 350000002 cycles: 426136817 heartbeat IPC: 0.508141 cumulative IPC: 0.509607 (Simulation time: 0 hr 10 min 28 sec) 
Heartbeat CPU 0 instructions: 360000000 cycles: 446218306 heartbeat IPC: 0.497971 cumulative IPC: 0.508864 (Simulation time: 0 hr 10 min 51 sec) 
Heartbeat CPU 0 instructions: 370000001 cycles: 466613548 heartbeat IPC: 0.49031 cumulative IPC: 0.507734 (Simulation time: 0 hr 11 min 13 sec) 
Heartbeat CPU 0 instructions: 380000000 cycles: 486840237 heartbeat IPC: 0.494396 cumulative IPC: 0.506974 (Simulation time: 0 hr 11 min 36 sec) 
Heartbeat CPU 0 instructions: 390000002 cycles: 506965458 heartbeat IPC: 0.496889 cumulative IPC: 0.506433 (Simulation time: 0 hr 11 min 59 sec) 
Heartbeat CPU 0 instructions: 400000000 cycles: 527208908 heartbeat IPC: 0.493987 cumulative IPC: 0.505796 (Simulation time: 0 hr 12 min 22 sec) 
Heartbeat CPU 0 instructions: 410000003 cycles: 547680148 heartbeat IPC: 0.48849 cumulative IPC: 0.504944 (Simulation time: 0 hr 12 min 45 sec) 
Heartbeat CPU 0 instructions: 420000000 cycles: 567962317 heartbeat IPC: 0.493044 cumulative IPC: 0.504391 (Simulation time: 0 hr 13 min 8 sec) 
Heartbeat CPU 0 instructions: 430000002 cycles: 588509884 heartbeat IPC: 0.486676 cumulative IPC: 0.503594 (Simulation time: 0 hr 13 min 32 sec) 
Heartbeat CPU 0 instructions: 440000000 cycles: 610225448 heartbeat IPC: 0.460499 cumulative IPC: 0.501638 (Simulation time: 0 hr 13 min 56 sec) 
Heartbeat CPU 0 instructions: 450000000 cycles: 631800295 heartbeat IPC: 0.463503 cumulative IPC: 0.499992 (Simulation time: 0 hr 14 min 19 sec) 
Heartbeat CPU 0 instructions: 460000000 cycles: 654469487 heartbeat IPC: 0.441127 cumulative IPC: 0.497439 (Simulation time: 0 hr 14 min 43 sec) 
Heartbeat CPU 0 instructions: 470000001 cycles: 675336737 heartbeat IPC: 0.47922 cumulative IPC: 0.49674 (Simulation time: 0 hr 15 min 7 sec) 
Heartbeat CPU 0 instructions: 480000000 cycles: 695365635 heartbeat IPC: 0.499279 cumulative IPC: 0.49683 (Simulation time: 0 hr 15 min 30 sec) 
Heartbeat CPU 0 instructions: 490000002 cycles: 715282564 heartbeat IPC: 0.502086 cumulative IPC: 0.497009 (Simulation time: 0 hr 15 min 53 sec) 
Heartbeat CPU 0 instructions: 500000000 cycles: 735063648 heartbeat IPC: 0.505533 cumulative IPC: 0.497289 (Simulation time: 0 hr 16 min 17 sec) 
Heartbeat CPU 0 instructions: 510000001 cycles: 754760044 heartbeat IPC: 0.507707 cumulative IPC: 0.497618 (Simulation time: 0 hr 16 min 40 sec) 
Heartbeat CPU 0 instructions: 520000000 cycles: 774246094 heartbeat IPC: 0.513188 cumulative IPC: 0.49809 (Simulation time: 0 hr 17 min 3 sec) 
Heartbeat CPU 0 instructions: 530000002 cycles: 793802850 heartbeat IPC: 0.511332 cumulative IPC: 0.498482 (Simulation time: 0 hr 17 min 26 sec) 
Heartbeat CPU 0 instructions: 540000000 cycles: 813437532 heartbeat IPC: 0.509303 cumulative IPC: 0.498793 (Simulation time: 0 hr 17 min 49 sec) 
Heartbeat CPU 0 instructions: 550000001 cycles: 833505346 heartbeat IPC: 0.49831 cumulative IPC: 0.49878 (Simulation time: 0 hr 18 min 12 sec) 
Heartbeat CPU 0 instructions: 560000000 cycles: 853221338 heartbeat IPC: 0.507202 cumulative IPC: 0.49901 (Simulation time: 0 hr 18 min 35 sec) 
Heartbeat CPU 0 instructions: 570000001 cycles: 872879347 heartbeat IPC: 0.508699 cumulative IPC: 0.499267 (Simulation time: 0 hr 18 min 58 sec) 
Heartbeat CPU 0 instructions: 580000000 cycles: 892507835 heartbeat IPC: 0.509464 cumulative IPC: 0.49953 (Simulation time: 0 hr 19 min 21 sec) 
Heartbeat CPU 0 instructions: 590000003 cycles: 911920803 heartbeat IPC: 0.51512 cumulative IPC: 0.499918 (Simulation time: 0 hr 19 min 44 sec) 
Heartbeat CPU 0 instructions: 600000000 cycles: 931305116 heartbeat IPC: 0.515881 cumulative IPC: 0.500305 (Simulation time: 0 hr 20 min 7 sec) 
Heartbeat CPU 0 instructions: 610000000 cycles: 950792710 heartbeat IPC: 0.513147 cumulative IPC: 0.50061 (Simulation time: 0 hr 20 min 30 sec) 
Heartbeat CPU 0 instructions: 620000000 cycles: 970391278 heartbeat IPC: 0.510241 cumulative IPC: 0.500835 (Simulation time: 0 hr 20 min 54 sec) 
Heartbeat CPU 0 instructions: 630000001 cycles: 989994311 heartbeat IPC: 0.510125 cumulative IPC: 0.501048 (Simulation time: 0 hr 21 min 17 sec) 
Heartbeat CPU 0 instructions: 640000000 cycles: 1009526828 heartbeat IPC: 0.511967 cumulative IPC: 0.501291 (Simulation time: 0 hr 21 min 40 sec) 
Heartbeat CPU 0 instructions: 650000001 cycles: 1029190248 heartbeat IPC: 0.508559 cumulative IPC: 0.50145 (Simulation time: 0 hr 22 min 3 sec) 
Heartbeat CPU 0 instructions: 660000000 cycles: 1049006082 heartbeat IPC: 0.504647 cumulative IPC: 0.501519 (Simulation time: 0 hr 22 min 26 sec) 
Heartbeat CPU 0 instructions: 670000000 cycles: 1068790674 heartbeat IPC: 0.505444 cumulative IPC: 0.501602 (Simulation time: 0 hr 22 min 49 sec) 
Heartbeat CPU 0 instructions: 680000000 cycles: 1088429405 heartbeat IPC: 0.509198 cumulative IPC: 0.501758 (Simulation time: 0 hr 23 min 12 sec) 
Heartbeat CPU 0 instructions: 690000001 cycles: 1108105814 heartbeat IPC: 0.508223 cumulative IPC: 0.501888 (Simulation time: 0 hr 23 min 35 sec) 
Heartbeat CPU 0 instructions: 700000000 cycles: 1127661074 heartbeat IPC: 0.511371 cumulative IPC: 0.502074 (Simulation time: 0 hr 23 min 58 sec) 
Heartbeat CPU 0 instructions: 710000000 cycles: 1147231170 heartbeat IPC: 0.510984 cumulative IPC: 0.502246 (Simulation time: 0 hr 24 min 22 sec) 
Heartbeat CPU 0 instructions: 720000000 cycles: 1166817865 heartbeat IPC: 0.510551 cumulative IPC: 0.502403 (Simulation time: 0 hr 24 min 45 sec) 
Heartbeat CPU 0 instructions: 730000003 cycles: 1186284115 heartbeat IPC: 0.51371 cumulative IPC: 0.502612 (Simulation time: 0 hr 25 min 8 sec) 
Heartbeat CPU 0 instructions: 740000000 cycles: 1205558359 heartbeat IPC: 0.518827 cumulative IPC: 0.502903 (Simulation time: 0 hr 25 min 31 sec) 
Heartbeat CPU 0 instructions: 750000000 cycles: 1225157052 heartbeat IPC: 0.510238 cumulative IPC: 0.503034 (Simulation time: 0 hr 25 min 54 sec) 
Heartbeat CPU 0 instructions: 760000000 cycles: 1244604349 heartbeat IPC: 0.51421 cumulative IPC: 0.50323 (Simulation time: 0 hr 26 min 17 sec) 
Heartbeat CPU 0 instructions: 770000000 cycles: 1264143515 heartbeat IPC: 0.511793 cumulative IPC: 0.503377 (Simulation time: 0 hr 26 min 41 sec) 
Heartbeat CPU 0 instructions: 780000000 cycles: 1284042804 heartbeat IPC: 0.502531 cumulative IPC: 0.503363 (Simulation time: 0 hr 27 min 4 sec) 
Heartbeat CPU 0 instructions: 790000000 cycles: 1305688818 heartbeat IPC: 0.461979 cumulative IPC: 0.5026 (Simulation time: 0 hr 27 min 28 sec) 
Heartbeat CPU 0 instructions: 800000000 cycles: 1327363672 heartbeat IPC: 0.461364 cumulative IPC: 0.501852 (Simulation time: 0 hr 27 min 51 sec) 
Heartbeat CPU 0 instructions: 810000002 cycles: 1346967776 heartbeat IPC: 0.510097 cumulative IPC: 0.501985 (Simulation time: 0 hr 28 min 14 sec) 
Heartbeat CPU 0 instructions: 820000000 cycles: 1368995772 heartbeat IPC: 0.453968 cumulative IPC: 0.50113 (Simulation time: 0 hr 28 min 37 sec) 
Heartbeat CPU 0 instructions: 830000002 cycles: 1391181444 heartbeat IPC: 0.450741 cumulative IPC: 0.500243 (Simulation time: 0 hr 29 min 1 sec) 
Heartbeat CPU 0 instructions: 840000000 cycles: 1412891853 heartbeat IPC: 0.460608 cumulative IPC: 0.499571 (Simulation time: 0 hr 29 min 23 sec) 
Heartbeat CPU 0 instructions: 850000000 cycles: 1434666288 heartbeat IPC: 0.459254 cumulative IPC: 0.498897 (Simulation time: 0 hr 29 min 46 sec) 
Heartbeat CPU 0 instructions: 860000000 cycles: 1457199624 heartbeat IPC: 0.443787 cumulative IPC: 0.49796 (Simulation time: 0 hr 30 min 10 sec) 
Heartbeat CPU 0 instructions: 870000001 cycles: 1479116316 heartbeat IPC: 0.456273 cumulative IPC: 0.497282 (Simulation time: 0 hr 30 min 33 sec) 
Heartbeat CPU 0 instructions: 880000000 cycles: 1500918888 heartbeat IPC: 0.458661 cumulative IPC: 0.496667 (Simulation time: 0 hr 30 min 55 sec) 
Heartbeat CPU 0 instructions: 890000002 cycles: 1523320910 heartbeat IPC: 0.446388 cumulative IPC: 0.495858 (Simulation time: 0 hr 31 min 19 sec) 
Heartbeat CPU 0 instructions: 900000000 cycles: 1544671235 heartbeat IPC: 0.468377 cumulative IPC: 0.495442 (Simulation time: 0 hr 31 min 41 sec) 
Heartbeat CPU 0 instructions: 910000002 cycles: 1566569297 heartbeat IPC: 0.456661 cumulative IPC: 0.49485 (Simulation time: 0 hr 32 min 4 sec) 
Heartbeat CPU 0 instructions: 920000000 cycles: 1588413929 heartbeat IPC: 0.457778 cumulative IPC: 0.494295 (Simulation time: 0 hr 32 min 27 sec) 
Heartbeat CPU 0 instructions: 930000000 cycles: 1610756414 heartbeat IPC: 0.447578 cumulative IPC: 0.493589 (Simulation time: 0 hr 32 min 50 sec) 
Heartbeat CPU 0 instructions: 940000000 cycles: 1632920312 heartbeat IPC: 0.451184 cumulative IPC: 0.492963 (Simulation time: 0 hr 33 min 13 sec) 
Heartbeat CPU 0 instructions: 950000000 cycles: 1654896152 heartbeat IPC: 0.455045 cumulative IPC: 0.492416 (Simulation time: 0 hr 33 min 36 sec) 
Heartbeat CPU 0 instructions: 960000000 cycles: 1677186011 heartbeat IPC: 0.448635 cumulative IPC: 0.491784 (Simulation time: 0 hr 33 min 59 sec) 
Heartbeat CPU 0 instructions: 970000001 cycles: 1699115833 heartbeat IPC: 0.456 cumulative IPC: 0.491283 (Simulation time: 0 hr 34 min 22 sec) 
Heartbeat CPU 0 instructions: 980000000 cycles: 1721032495 heartbeat IPC: 0.456274 cumulative IPC: 0.490801 (Simulation time: 0 hr 34 min 45 sec) 
Heartbeat CPU 0 instructions: 990000003 cycles: 1743500083 heartbeat IPC: 0.445086 cumulative IPC: 0.490163 (Simulation time: 0 hr 35 min 9 sec) 
Heartbeat CPU 0 instructions: 1000000000 cycles: 1764861616 heartbeat IPC: 0.468131 cumulative IPC: 0.489875 (Simulation time: 0 hr 35 min 31 sec) 
Heartbeat CPU 0 instructions: 1010000002 cycles: 1786220135 heartbeat IPC: 0.468197 cumulative IPC: 0.489595 (Simulation time: 0 hr 35 min 54 sec) 
Heartbeat CPU 0 instructions: 1020000000 cycles: 1807540107 heartbeat IPC: 0.469044 cumulative IPC: 0.489334 (Simulation time: 0 hr 36 min 16 sec) 
Heartbeat CPU 0 instructions: 1030000000 cycles: 1828593210 heartbeat IPC: 0.474989 cumulative IPC: 0.489156 (Simulation time: 0 hr 36 min 38 sec) 
Heartbeat CPU 0 instructions: 1040000000 cycles: 1850092665 heartbeat IPC: 0.465128 cumulative IPC: 0.488855 (Simulation time: 0 hr 37 min 1 sec) 
Heartbeat CPU 0 instructions: 1050000000 cycles: 1872418299 heartbeat IPC: 0.447916 cumulative IPC: 0.48833 (Simulation time: 0 hr 37 min 24 sec) 
Heartbeat CPU 0 instructions: 1060000000 cycles: 1893825079 heartbeat IPC: 0.467142 cumulative IPC: 0.488073 (Simulation time: 0 hr 37 min 47 sec) 
Heartbeat CPU 0 instructions: 1070000001 cycles: 1915860835 heartbeat IPC: 0.453808 cumulative IPC: 0.487649 (Simulation time: 0 hr 38 min 10 sec) 
Heartbeat CPU 0 instructions: 1080000000 cycles: 1938234276 heartbeat IPC: 0.446958 cumulative IPC: 0.487146 (Simulation time: 0 hr 38 min 33 sec) 
Heartbeat CPU 0 instructions: 1090000000 cycles: 1959180172 heartbeat IPC: 0.47742 cumulative IPC: 0.487034 (Simulation time: 0 hr 38 min 58 sec) 
Heartbeat CPU 0 instructions: 1100000000 cycles: 1975828438 heartbeat IPC: 0.600663 cumulative IPC: 0.48806 (Simulation time: 0 hr 39 min 32 sec) 
Heartbeat CPU 0 instructions: 1110000002 cycles: 1992960511 heartbeat IPC: 0.583701 cumulative IPC: 0.48894 (Simulation time: 0 hr 40 min 7 sec) 
Heartbeat CPU 0 instructions: 1120000000 cycles: 2013251558 heartbeat IPC: 0.492828 cumulative IPC: 0.488982 (Simulation time: 0 hr 40 min 30 sec) 
Heartbeat CPU 0 instructions: 1130000000 cycles: 2035153448 heartbeat IPC: 0.456582 cumulative IPC: 0.488609 (Simulation time: 0 hr 40 min 53 sec) 
Heartbeat CPU 0 instructions: 1140000000 cycles: 2057655238 heartbeat IPC: 0.444409 cumulative IPC: 0.488093 (Simulation time: 0 hr 41 min 17 sec) 
Heartbeat CPU 0 instructions: 1150000001 cycles: 2080070091 heartbeat IPC: 0.446133 cumulative IPC: 0.48761 (Simulation time: 0 hr 41 min 41 sec) 
Heartbeat CPU 0 instructions: 1160000000 cycles: 2101609363 heartbeat IPC: 0.464268 cumulative IPC: 0.487355 (Simulation time: 0 hr 42 min 3 sec) 
Heartbeat CPU 0 instructions: 1170000000 cycles: 2122741331 heartbeat IPC: 0.473217 cumulative IPC: 0.487205 (Simulation time: 0 hr 42 min 26 sec) 
Heartbeat CPU 0 instructions: 1180000000 cycles: 2144676952 heartbeat IPC: 0.45588 cumulative IPC: 0.486863 (Simulation time: 0 hr 42 min 50 sec) 
Heartbeat CPU 0 instructions: 1190000002 cycles: 2166541405 heartbeat IPC: 0.457363 cumulative IPC: 0.486547 (Simulation time: 0 hr 43 min 13 sec) 
Heartbeat CPU 0 instructions: 1200000000 cycles: 2188018636 heartbeat IPC: 0.465609 cumulative IPC: 0.486328 (Simulation time: 0 hr 43 min 37 sec) 
Finished CPU 0 instructions: 1000000000 cycles: 2056226178 cumulative IPC: 0.486328 (Simulation time: 0 hr 43 min 37 sec) 

CPU 0 Branch Prediction Accuracy: 85.7191% MPKI: 22.4622

ChampSim completed all CPUs

Region of Interest Statistics

CPU 0 cumulative IPC: 0.486328 instructions: 1000000000 cycles: 2056226178
L1D TOTAL     ACCESS:  333008852  HIT:  329591638  MISS:    3417214
L1D LOAD      ACCESS:  182919546  HIT:  181472453  MISS:    1447093
L1D RFO       ACCESS:  150089306  HIT:  148119185  MISS:    1970121
L1D PREFETCH  ACCESS:          0  HIT:          0  MISS:          0
L1D WRITEBACK ACCESS:          0  HIT:          0  MISS:          0
L1D PREFETCH  REQUESTED:          0  ISSUED:          0  USEFUL:          0  USELESS:          0
L1I TOTAL     ACCESS:  228999270  HIT:  226171230  MISS:    2828040
L1I LOAD      ACCESS:  228999270  HIT:  226171230  MISS:    2828040
L1I RFO       ACCESS:          0  HIT:          0  MISS:          0
L1I PREFETCH  ACCESS:          0  HIT:          0  MISS:          0
L1I WRITEBACK ACCESS:          0  HIT:          0  MISS:          0
L1I PREFETCH  REQUESTED:          0  ISSUED:          0  USEFUL:          0  USELESS:          0
L2C TOTAL     ACCESS:   11194228  HIT:   10079186  MISS:    1115042
L2C LOAD      ACCESS:    4275121  HIT:    3968426  MISS:     306695
L2C RFO       ACCESS:    1970037  HIT:    1168158  MISS:     801879
L2C PREFETCH  ACCESS:    2595035  HIT:    2589888  MISS:       5147
L2C WRITEBACK ACCESS:    2354035  HIT:    2352714  MISS:       1321
L2C PREFETCH  REQUESTED:    4060120  ISSUED:    4058591  USEFUL:       5104  USELESS:        176
LLC TOTAL     ACCESS:    2647705  HIT:    1721077  MISS:     926628
LLC LOAD      ACCESS:     303974  HIT:     218825  MISS:      85149
LLC RFO       ACCESS:     801878  HIT:      53116  MISS:     748762
LLC PREFETCH  ACCESS:     614636  HIT:     522254  MISS:      92382
LLC WRITEBACK ACCESS:     927217  HIT:     926882  MISS:        335
LLC PREFETCH  REQUESTED:          0  ISSUED:          0  USEFUL:      54921  USELESS:      41097
Major fault: 0 Minor fault: 6649

DRAM Statistics
 CHANNEL 0
 RQ ROW_BUFFER_HIT:     644289  ROW_BUFFER_MISS:     281984
 DBUS_CONGESTED:    1265519
 WQ ROW_BUFFER_HIT:     557939  ROW_BUFFER_MISS:     276867  FULL:          0

 AVG_CONGESTED_CYCLE: 13
