Initialize SIGNATURE TABLE
ST_SET: 1
ST_WAY: 256
ST_TAG_BIT: 16
ST_TAG_MASK: ffff

Initialize PATTERN TABLE
PT_SET: 512
PT_WAY: 4
SIG_DELTA_BIT: 7
C_SIG_BIT: 4
C_DELTA_BIT: 4

Initialize PREFETCH FILTER
FILTER_SET: 1024

*** ChampSim Multicore Out-of-Order Simulator ***

Warmup Instructions: 200000000
Simulation Instructions: 1000000000
Number of CPUs: 1
LLC sets: 2048
LLC ways: 16
Off-chip DRAM Size: 4096 MB Channels: 1 Width: 64-bit Data Rate: 1600 MT/s

CPU 0 runs /scratch/user/djimenez/champsim-traces/speccpu2006/xz/450.soplex-92B.champsimtrace.xz
Heartbeat CPU 0 instructions: 10000000 cycles: 5007613 heartbeat IPC: 1.99696 cumulative IPC: 1.99696 (Simulation time: 0 hr 0 min 14 sec) 
Heartbeat CPU 0 instructions: 20000000 cycles: 10137757 heartbeat IPC: 1.94926 cumulative IPC: 1.97282 (Simulation time: 0 hr 0 min 28 sec) 
Heartbeat CPU 0 instructions: 30000002 cycles: 15189341 heartbeat IPC: 1.97958 cumulative IPC: 1.97507 (Simulation time: 0 hr 0 min 41 sec) 
Heartbeat CPU 0 instructions: 40000000 cycles: 20208697 heartbeat IPC: 1.99229 cumulative IPC: 1.97935 (Simulation time: 0 hr 0 min 54 sec) 
Heartbeat CPU 0 instructions: 50000002 cycles: 25188426 heartbeat IPC: 2.00814 cumulative IPC: 1.98504 (Simulation time: 0 hr 1 min 7 sec) 
Heartbeat CPU 0 instructions: 60000000 cycles: 30316998 heartbeat IPC: 1.94986 cumulative IPC: 1.97909 (Simulation time: 0 hr 1 min 21 sec) 
Heartbeat CPU 0 instructions: 70000000 cycles: 36326909 heartbeat IPC: 1.66392 cumulative IPC: 1.92695 (Simulation time: 0 hr 1 min 41 sec) 
Heartbeat CPU 0 instructions: 80000000 cycles: 42523802 heartbeat IPC: 1.61371 cumulative IPC: 1.8813 (Simulation time: 0 hr 2 min 0 sec) 
Heartbeat CPU 0 instructions: 90000000 cycles: 47617550 heartbeat IPC: 1.96319 cumulative IPC: 1.89006 (Simulation time: 0 hr 2 min 13 sec) 
Heartbeat CPU 0 instructions: 100000000 cycles: 52684386 heartbeat IPC: 1.97362 cumulative IPC: 1.8981 (Simulation time: 0 hr 2 min 27 sec) 
Heartbeat CPU 0 instructions: 110000001 cycles: 57726741 heartbeat IPC: 1.9832 cumulative IPC: 1.90553 (Simulation time: 0 hr 2 min 40 sec) 
Heartbeat CPU 0 instructions: 120000000 cycles: 62729886 heartbeat IPC: 1.99874 cumulative IPC: 1.91296 (Simulation time: 0 hr 2 min 54 sec) 
Heartbeat CPU 0 instructions: 130000002 cycles: 67828228 heartbeat IPC: 1.96142 cumulative IPC: 1.91661 (Simulation time: 0 hr 3 min 7 sec) 
Heartbeat CPU 0 instructions: 140000000 cycles: 72961297 heartbeat IPC: 1.94815 cumulative IPC: 1.91883 (Simulation time: 0 hr 3 min 20 sec) 
Heartbeat CPU 0 instructions: 150000001 cycles: 78102183 heartbeat IPC: 1.94519 cumulative IPC: 1.92056 (Simulation time: 0 hr 3 min 34 sec) 
Heartbeat CPU 0 instructions: 160000000 cycles: 83175791 heartbeat IPC: 1.97098 cumulative IPC: 1.92364 (Simulation time: 0 hr 3 min 47 sec) 
Heartbeat CPU 0 instructions: 170000000 cycles: 88402183 heartbeat IPC: 1.91337 cumulative IPC: 1.92303 (Simulation time: 0 hr 4 min 1 sec) 
Heartbeat CPU 0 instructions: 180000000 cycles: 94698963 heartbeat IPC: 1.58811 cumulative IPC: 1.90076 (Simulation time: 0 hr 4 min 22 sec) 
Heartbeat CPU 0 instructions: 190000001 cycles: 100159499 heartbeat IPC: 1.83132 cumulative IPC: 1.89697 (Simulation time: 0 hr 4 min 39 sec) 
Heartbeat CPU 0 instructions: 200000000 cycles: 105217998 heartbeat IPC: 1.97687 cumulative IPC: 1.90082 (Simulation time: 0 hr 4 min 53 sec) 

Warmup complete CPU 0 instructions: 200000003 cycles: 105217999 (Simulation time: 0 hr 4 min 53 sec) 

Heartbeat CPU 0 instructions: 210000001 cycles: 128351554 heartbeat IPC: 0.432273 cumulative IPC: 0.432272 (Simulation time: 0 hr 5 min 19 sec) 
Heartbeat CPU 0 instructions: 220000000 cycles: 151667702 heartbeat IPC: 0.428887 cumulative IPC: 0.430573 (Simulation time: 0 hr 5 min 45 sec) 
Heartbeat CPU 0 instructions: 230000002 cycles: 174561981 heartbeat IPC: 0.43679 cumulative IPC: 0.432626 (Simulation time: 0 hr 6 min 12 sec) 
Heartbeat CPU 0 instructions: 240000000 cycles: 197128491 heartbeat IPC: 0.443134 cumulative IPC: 0.435206 (Simulation time: 0 hr 6 min 39 sec) 
Heartbeat CPU 0 instructions: 250000003 cycles: 222135012 heartbeat IPC: 0.399896 cumulative IPC: 0.427654 (Simulation time: 0 hr 7 min 8 sec) 
Heartbeat CPU 0 instructions: 260000000 cycles: 244075724 heartbeat IPC: 0.455774 cumulative IPC: 0.432097 (Simulation time: 0 hr 7 min 34 sec) 
Heartbeat CPU 0 instructions: 270000001 cycles: 265852961 heartbeat IPC: 0.459195 cumulative IPC: 0.435771 (Simulation time: 0 hr 8 min 0 sec) 
Heartbeat CPU 0 instructions: 280000000 cycles: 295028004 heartbeat IPC: 0.342759 cumulative IPC: 0.421474 (Simulation time: 0 hr 8 min 33 sec) 
Heartbeat CPU 0 instructions: 290000000 cycles: 319967425 heartbeat IPC: 0.400972 cumulative IPC: 0.419093 (Simulation time: 0 hr 9 min 5 sec) 
Heartbeat CPU 0 instructions: 300000000 cycles: 342188796 heartbeat IPC: 0.450017 cumulative IPC: 0.421993 (Simulation time: 0 hr 9 min 32 sec) 
Heartbeat CPU 0 instructions: 310000001 cycles: 365526775 heartbeat IPC: 0.428486 cumulative IPC: 0.422575 (Simulation time: 0 hr 10 min 0 sec) 
Heartbeat CPU 0 instructions: 320000000 cycles: 388868344 heartbeat IPC: 0.42842 cumulative IPC: 0.423056 (Simulation time: 0 hr 10 min 28 sec) 
Heartbeat CPU 0 instructions: 330000001 cycles: 410721522 heartbeat IPC: 0.457599 cumulative IPC: 0.425527 (Simulation time: 0 hr 10 min 55 sec) 
Heartbeat CPU 0 instructions: 340000000 cycles: 432665360 heartbeat IPC: 0.455709 cumulative IPC: 0.42755 (Simulation time: 0 hr 11 min 22 sec) 
Heartbeat CPU 0 instructions: 350000003 cycles: 456470942 heartbeat IPC: 0.42007 cumulative IPC: 0.427043 (Simulation time: 0 hr 11 min 50 sec) 
Heartbeat CPU 0 instructions: 360000000 cycles: 478972357 heartbeat IPC: 0.444416 cumulative IPC: 0.428089 (Simulation time: 0 hr 12 min 18 sec) 
Heartbeat CPU 0 instructions: 370000001 cycles: 501847952 heartbeat IPC: 0.437147 cumulative IPC: 0.428611 (Simulation time: 0 hr 12 min 45 sec) 
Heartbeat CPU 0 instructions: 380000000 cycles: 524587073 heartbeat IPC: 0.439771 cumulative IPC: 0.429216 (Simulation time: 0 hr 13 min 12 sec) 
Heartbeat CPU 0 instructions: 390000000 cycles: 554552805 heartbeat IPC: 0.333715 cumulative IPC: 0.422847 (Simulation time: 0 hr 13 min 47 sec) 
Heartbeat CPU 0 instructions: 400000000 cycles: 579203369 heartbeat IPC: 0.40567 cumulative IPC: 0.421954 (Simulation time: 0 hr 14 min 19 sec) 
Heartbeat CPU 0 instructions: 410000000 cycles: 601663889 heartbeat IPC: 0.445226 cumulative IPC: 0.423007 (Simulation time: 0 hr 14 min 47 sec) 
Heartbeat CPU 0 instructions: 420000000 cycles: 625900931 heartbeat IPC: 0.412592 cumulative IPC: 0.422522 (Simulation time: 0 hr 15 min 16 sec) 
Heartbeat CPU 0 instructions: 430000003 cycles: 648345541 heartbeat IPC: 0.445541 cumulative IPC: 0.423473 (Simulation time: 0 hr 15 min 43 sec) 
Heartbeat CPU 0 instructions: 440000000 cycles: 669480828 heartbeat IPC: 0.473142 cumulative IPC: 0.425334 (Simulation time: 0 hr 16 min 9 sec) 
Heartbeat CPU 0 instructions: 450000000 cycles: 691143558 heartbeat IPC: 0.461622 cumulative IPC: 0.426675 (Simulation time: 0 hr 16 min 36 sec) 
Heartbeat CPU 0 instructions: 460000000 cycles: 713802239 heartbeat IPC: 0.441332 cumulative IPC: 0.427221 (Simulation time: 0 hr 17 min 3 sec) 
Heartbeat CPU 0 instructions: 470000000 cycles: 736087200 heartbeat IPC: 0.448733 cumulative IPC: 0.427981 (Simulation time: 0 hr 17 min 30 sec) 
Heartbeat CPU 0 instructions: 480000000 cycles: 757279369 heartbeat IPC: 0.471872 cumulative IPC: 0.429407 (Simulation time: 0 hr 17 min 56 sec) 
Heartbeat CPU 0 instructions: 490000001 cycles: 778522983 heartbeat IPC: 0.47073 cumulative IPC: 0.430711 (Simulation time: 0 hr 18 min 23 sec) 
Heartbeat CPU 0 instructions: 500000000 cycles: 806540942 heartbeat IPC: 0.356914 cumulative IPC: 0.427763 (Simulation time: 0 hr 18 min 54 sec) 
Heartbeat CPU 0 instructions: 510000002 cycles: 832214881 heartbeat IPC: 0.3895 cumulative IPC: 0.426412 (Simulation time: 0 hr 19 min 27 sec) 
Heartbeat CPU 0 instructions: 520000000 cycles: 854484660 heartbeat IPC: 0.449039 cumulative IPC: 0.427084 (Simulation time: 0 hr 19 min 56 sec) 
Heartbeat CPU 0 instructions: 530000003 cycles: 878264941 heartbeat IPC: 0.420517 cumulative IPC: 0.426882 (Simulation time: 0 hr 20 min 23 sec) 
Heartbeat CPU 0 instructions: 540000000 cycles: 900093925 heartbeat IPC: 0.458106 cumulative IPC: 0.42774 (Simulation time: 0 hr 20 min 50 sec) 
Heartbeat CPU 0 instructions: 550000001 cycles: 921972258 heartbeat IPC: 0.457073 cumulative IPC: 0.428525 (Simulation time: 0 hr 21 min 16 sec) 
Heartbeat CPU 0 instructions: 560000000 cycles: 943811093 heartbeat IPC: 0.4579 cumulative IPC: 0.42929 (Simulation time: 0 hr 21 min 43 sec) 
Heartbeat CPU 0 instructions: 570000001 cycles: 965632669 heartbeat IPC: 0.458262 cumulative IPC: 0.430025 (Simulation time: 0 hr 22 min 9 sec) 
Heartbeat CPU 0 instructions: 580000000 cycles: 987475957 heartbeat IPC: 0.457806 cumulative IPC: 0.430713 (Simulation time: 0 hr 22 min 35 sec) 
Heartbeat CPU 0 instructions: 590000000 cycles: 1010071043 heartbeat IPC: 0.442574 cumulative IPC: 0.431009 (Simulation time: 0 hr 23 min 3 sec) 
Heartbeat CPU 0 instructions: 600000000 cycles: 1033779996 heartbeat IPC: 0.421782 cumulative IPC: 0.430774 (Simulation time: 0 hr 23 min 31 sec) 
Heartbeat CPU 0 instructions: 610000001 cycles: 1055633914 heartbeat IPC: 0.457584 cumulative IPC: 0.43139 (Simulation time: 0 hr 23 min 57 sec) 
Heartbeat CPU 0 instructions: 620000000 cycles: 1088091387 heartbeat IPC: 0.308095 cumulative IPC: 0.427319 (Simulation time: 0 hr 24 min 34 sec) 
Heartbeat CPU 0 instructions: 630000002 cycles: 1109720282 heartbeat IPC: 0.462345 cumulative IPC: 0.428073 (Simulation time: 0 hr 25 min 5 sec) 
Heartbeat CPU 0 instructions: 640000000 cycles: 1132281922 heartbeat IPC: 0.44323 cumulative IPC: 0.428406 (Simulation time: 0 hr 25 min 31 sec) 
Heartbeat CPU 0 instructions: 650000003 cycles: 1154207080 heartbeat IPC: 0.456097 cumulative IPC: 0.428984 (Simulation time: 0 hr 25 min 58 sec) 
Heartbeat CPU 0 instructions: 660000000 cycles: 1176149000 heartbeat IPC: 0.455748 cumulative IPC: 0.429533 (Simulation time: 0 hr 26 min 24 sec) 
Heartbeat CPU 0 instructions: 670000000 cycles: 1198065936 heartbeat IPC: 0.456268 cumulative IPC: 0.430069 (Simulation time: 0 hr 26 min 50 sec) 
Heartbeat CPU 0 instructions: 680000000 cycles: 1220009315 heartbeat IPC: 0.455718 cumulative IPC: 0.430574 (Simulation time: 0 hr 27 min 17 sec) 
Heartbeat CPU 0 instructions: 690000000 cycles: 1241948674 heartbeat IPC: 0.455802 cumulative IPC: 0.431061 (Simulation time: 0 hr 27 min 43 sec) 
Heartbeat CPU 0 instructions: 700000000 cycles: 1263858343 heartbeat IPC: 0.456419 cumulative IPC: 0.43154 (Simulation time: 0 hr 28 min 10 sec) 
Heartbeat CPU 0 instructions: 710000003 cycles: 1285769259 heartbeat IPC: 0.456394 cumulative IPC: 0.432002 (Simulation time: 0 hr 28 min 36 sec) 
Heartbeat CPU 0 instructions: 720000000 cycles: 1307696134 heartbeat IPC: 0.456061 cumulative IPC: 0.43244 (Simulation time: 0 hr 29 min 3 sec) 
Heartbeat CPU 0 instructions: 730000002 cycles: 1336346261 heartbeat IPC: 0.349039 cumulative IPC: 0.430499 (Simulation time: 0 hr 29 min 36 sec) 
Heartbeat CPU 0 instructions: 740000000 cycles: 1361809102 heartbeat IPC: 0.392729 cumulative IPC: 0.429734 (Simulation time: 0 hr 30 min 8 sec) 
Heartbeat CPU 0 instructions: 750000000 cycles: 1384098430 heartbeat IPC: 0.448645 cumulative IPC: 0.430064 (Simulation time: 0 hr 30 min 35 sec) 
Heartbeat CPU 0 instructions: 760000000 cycles: 1406256160 heartbeat IPC: 0.45131 cumulative IPC: 0.430425 (Simulation time: 0 hr 31 min 2 sec) 
Heartbeat CPU 0 instructions: 770000000 cycles: 1428104810 heartbeat IPC: 0.457694 cumulative IPC: 0.430876 (Simulation time: 0 hr 31 min 28 sec) 
Heartbeat CPU 0 instructions: 780000000 cycles: 1449939657 heartbeat IPC: 0.457984 cumulative IPC: 0.431316 (Simulation time: 0 hr 31 min 54 sec) 
Heartbeat CPU 0 instructions: 790000003 cycles: 1471925017 heartbeat IPC: 0.454848 cumulative IPC: 0.431695 (Simulation time: 0 hr 32 min 21 sec) 
Heartbeat CPU 0 instructions: 800000000 cycles: 1494054321 heartbeat IPC: 0.451889 cumulative IPC: 0.432016 (Simulation time: 0 hr 32 min 48 sec) 
Heartbeat CPU 0 instructions: 810000003 cycles: 1516103696 heartbeat IPC: 0.453528 cumulative IPC: 0.432353 (Simulation time: 0 hr 33 min 14 sec) 
Heartbeat CPU 0 instructions: 820000000 cycles: 1538234335 heartbeat IPC: 0.451862 cumulative IPC: 0.432654 (Simulation time: 0 hr 33 min 41 sec) 
Heartbeat CPU 0 instructions: 830000001 cycles: 1560298942 heartbeat IPC: 0.453215 cumulative IPC: 0.432966 (Simulation time: 0 hr 34 min 7 sec) 
Heartbeat CPU 0 instructions: 840000000 cycles: 1586122340 heartbeat IPC: 0.387246 cumulative IPC: 0.432168 (Simulation time: 0 hr 34 min 35 sec) 
Heartbeat CPU 0 instructions: 850000000 cycles: 1615255724 heartbeat IPC: 0.343249 cumulative IPC: 0.430453 (Simulation time: 0 hr 35 min 11 sec) 
Heartbeat CPU 0 instructions: 860000000 cycles: 1635996353 heartbeat IPC: 0.482145 cumulative IPC: 0.431153 (Simulation time: 0 hr 35 min 41 sec) 
Heartbeat CPU 0 instructions: 870000000 cycles: 1659094199 heartbeat IPC: 0.432941 cumulative IPC: 0.43118 (Simulation time: 0 hr 36 min 8 sec) 
Heartbeat CPU 0 instructions: 880000000 cycles: 1682296263 heartbeat IPC: 0.430996 cumulative IPC: 0.431177 (Simulation time: 0 hr 36 min 36 sec) 
Heartbeat CPU 0 instructions: 890000000 cycles: 1705896592 heartbeat IPC: 0.423723 cumulative IPC: 0.431067 (Simulation time: 0 hr 37 min 4 sec) 
Heartbeat CPU 0 instructions: 900000000 cycles: 1730109020 heartbeat IPC: 0.413011 cumulative IPC: 0.430798 (Simulation time: 0 hr 37 min 32 sec) 
Heartbeat CPU 0 instructions: 910000000 cycles: 1753930046 heartbeat IPC: 0.419797 cumulative IPC: 0.430639 (Simulation time: 0 hr 38 min 1 sec) 
Heartbeat CPU 0 instructions: 920000000 cycles: 1777538870 heartbeat IPC: 0.42357 cumulative IPC: 0.430539 (Simulation time: 0 hr 38 min 28 sec) 
Heartbeat CPU 0 instructions: 930000000 cycles: 1801183346 heartbeat IPC: 0.422932 cumulative IPC: 0.430433 (Simulation time: 0 hr 38 min 56 sec) 
Heartbeat CPU 0 instructions: 940000000 cycles: 1823548086 heartbeat IPC: 0.447132 cumulative IPC: 0.430651 (Simulation time: 0 hr 39 min 24 sec) 
Heartbeat CPU 0 instructions: 950000000 cycles: 1846913378 heartbeat IPC: 0.427985 cumulative IPC: 0.430615 (Simulation time: 0 hr 39 min 51 sec) 
Heartbeat CPU 0 instructions: 960000000 cycles: 1878497364 heartbeat IPC: 0.316616 cumulative IPC: 0.428584 (Simulation time: 0 hr 40 min 28 sec) 
Heartbeat CPU 0 instructions: 970000002 cycles: 1900727397 heartbeat IPC: 0.449842 cumulative IPC: 0.428848 (Simulation time: 0 hr 40 min 58 sec) 
Heartbeat CPU 0 instructions: 980000000 cycles: 1924419255 heartbeat IPC: 0.422086 cumulative IPC: 0.42876 (Simulation time: 0 hr 41 min 26 sec) 
Heartbeat CPU 0 instructions: 990000001 cycles: 1948135721 heartbeat IPC: 0.421648 cumulative IPC: 0.428668 (Simulation time: 0 hr 41 min 54 sec) 
Heartbeat CPU 0 instructions: 1000000000 cycles: 1971626763 heartbeat IPC: 0.425694 cumulative IPC: 0.428631 (Simulation time: 0 hr 42 min 23 sec) 
Heartbeat CPU 0 instructions: 1010000003 cycles: 1995009265 heartbeat IPC: 0.42767 cumulative IPC: 0.428619 (Simulation time: 0 hr 42 min 51 sec) 
Heartbeat CPU 0 instructions: 1020000000 cycles: 2016340954 heartbeat IPC: 0.468786 cumulative IPC: 0.429067 (Simulation time: 0 hr 43 min 18 sec) 
Heartbeat CPU 0 instructions: 1030000002 cycles: 2038433322 heartbeat IPC: 0.452645 cumulative IPC: 0.429337 (Simulation time: 0 hr 43 min 46 sec) 
Heartbeat CPU 0 instructions: 1040000000 cycles: 2061705626 heartbeat IPC: 0.429695 cumulative IPC: 0.429341 (Simulation time: 0 hr 44 min 15 sec) 
Heartbeat CPU 0 instructions: 1050000003 cycles: 2084626954 heartbeat IPC: 0.436275 cumulative IPC: 0.429421 (Simulation time: 0 hr 44 min 44 sec) 
Heartbeat CPU 0 instructions: 1060000000 cycles: 2107431188 heartbeat IPC: 0.438515 cumulative IPC: 0.429525 (Simulation time: 0 hr 45 min 11 sec) 
Heartbeat CPU 0 instructions: 1070000001 cycles: 2130184403 heartbeat IPC: 0.439498 cumulative IPC: 0.429637 (Simulation time: 0 hr 45 min 38 sec) 
Heartbeat CPU 0 instructions: 1080000000 cycles: 2161380810 heartbeat IPC: 0.32055 cumulative IPC: 0.427982 (Simulation time: 0 hr 46 min 14 sec) 
Heartbeat CPU 0 instructions: 1090000000 cycles: 2183707957 heartbeat IPC: 0.447885 cumulative IPC: 0.428195 (Simulation time: 0 hr 46 min 44 sec) 
Heartbeat CPU 0 instructions: 1100000000 cycles: 2206795237 heartbeat IPC: 0.433139 cumulative IPC: 0.42825 (Simulation time: 0 hr 47 min 12 sec) 
Heartbeat CPU 0 instructions: 1110000000 cycles: 2229679307 heartbeat IPC: 0.436985 cumulative IPC: 0.428344 (Simulation time: 0 hr 47 min 39 sec) 
Heartbeat CPU 0 instructions: 1120000000 cycles: 2252727074 heartbeat IPC: 0.433882 cumulative IPC: 0.428403 (Simulation time: 0 hr 48 min 7 sec) 
Heartbeat CPU 0 instructions: 1130000000 cycles: 2275866951 heartbeat IPC: 0.432154 cumulative IPC: 0.428443 (Simulation time: 0 hr 48 min 34 sec) 
Heartbeat CPU 0 instructions: 1140000000 cycles: 2299111282 heartbeat IPC: 0.430212 cumulative IPC: 0.428462 (Simulation time: 0 hr 49 min 2 sec) 
Heartbeat CPU 0 instructions: 1150000002 cycles: 2322179223 heartbeat IPC: 0.433502 cumulative IPC: 0.428514 (Simulation time: 0 hr 49 min 29 sec) 
Heartbeat CPU 0 instructions: 1160000000 cycles: 2345204768 heartbeat IPC: 0.4343 cumulative IPC: 0.428574 (Simulation time: 0 hr 49 min 56 sec) 
Heartbeat CPU 0 instructions: 1170000002 cycles: 2368299494 heartbeat IPC: 0.432999 cumulative IPC: 0.428619 (Simulation time: 0 hr 50 min 24 sec) 
Heartbeat CPU 0 instructions: 1180000000 cycles: 2391156847 heartbeat IPC: 0.437496 cumulative IPC: 0.428708 (Simulation time: 0 hr 50 min 51 sec) 
Heartbeat CPU 0 instructions: 1190000002 cycles: 2414124133 heartbeat IPC: 0.435402 cumulative IPC: 0.428774 (Simulation time: 0 hr 51 min 19 sec) 
Heartbeat CPU 0 instructions: 1200000000 cycles: 2446783900 heartbeat IPC: 0.306187 cumulative IPC: 0.427065 (Simulation time: 0 hr 51 min 55 sec) 
Finished CPU 0 instructions: 1000000001 cycles: 2341565924 cumulative IPC: 0.427065 (Simulation time: 0 hr 51 min 55 sec) 

CPU 0 Branch Prediction Accuracy: 93.9343% MPKI: 11.5213

ChampSim completed all CPUs

Region of Interest Statistics

CPU 0 cumulative IPC: 0.427065 instructions: 1000000001 cycles: 2341565924
L1D TOTAL     ACCESS:  212634351  HIT:  174246224  MISS:   38388127
L1D LOAD      ACCESS:  154464950  HIT:  122273959  MISS:   32190991
L1D RFO       ACCESS:   58169401  HIT:   51972265  MISS:    6197136
L1D PREFETCH  ACCESS:          0  HIT:          0  MISS:          0
L1D WRITEBACK ACCESS:          0  HIT:          0  MISS:          0
L1D PREFETCH  REQUESTED:          0  ISSUED:          0  USEFUL:          0  USELESS:          0
L1I TOTAL     ACCESS:  227473175  HIT:  227467149  MISS:       6026
L1I LOAD      ACCESS:  227473175  HIT:  227467149  MISS:       6026
L1I RFO       ACCESS:          0  HIT:          0  MISS:          0
L1I PREFETCH  ACCESS:          0  HIT:          0  MISS:          0
L1I WRITEBACK ACCESS:          0  HIT:          0  MISS:          0
L1I PREFETCH  REQUESTED:          0  ISSUED:          0  USEFUL:          0  USELESS:          0
L2C TOTAL     ACCESS:   61946157  HIT:   29617322  MISS:   32328835
L2C LOAD      ACCESS:   32194408  HIT:    9469003  MISS:   22725405
L2C RFO       ACCESS:    6196823  HIT:     620415  MISS:    5576408
L2C PREFETCH  ACCESS:    7637964  HIT:    3620827  MISS:    4017137
L2C WRITEBACK ACCESS:   15916962  HIT:   15907077  MISS:       9885
L2C PREFETCH  REQUESTED:   95064419  ISSUED:   94885821  USEFUL:    4845962  USELESS:     194153
LLC TOTAL     ACCESS:   98348846  HIT:   70552755  MISS:   27796091
LLC LOAD      ACCESS:   22174710  HIT:   11867849  MISS:   10306861
LLC RFO       ACCESS:    5576343  HIT:    1484740  MISS:    4091603
LLC PREFETCH  ACCESS:   58225272  HIT:   44827974  MISS:   13397298
LLC WRITEBACK ACCESS:   12372521  HIT:   12372192  MISS:        329
LLC PREFETCH  REQUESTED:          0  ISSUED:          0  USEFUL:    7938667  USELESS:    8397730
Major fault: 0 Minor fault: 13848

DRAM Statistics
 CHANNEL 0
 RQ ROW_BUFFER_HIT:   19795487  ROW_BUFFER_MISS:    7993726
 DBUS_CONGESTED:   20868293
 WQ ROW_BUFFER_HIT:    2379354  ROW_BUFFER_MISS:    6052030  FULL:          0

 AVG_CONGESTED_CYCLE: 13
