
*** ChampSim Multicore Out-of-Order Simulator ***

Warmup Instructions: 200000000
Simulation Instructions: 1000000000
Number of CPUs: 1
LLC sets: 2048
LLC ways: 16
Off-chip DRAM Size: 4096 MB Channels: 1 Width: 64-bit Data Rate: 400 MT/s

CPU 0 runs /scratch/user/djimenez/champsim-traces/speccpu2017/xz/607.cactuBSSN_s/607.cactuBSSN_s-4004B.champsimtrace.xz
L2C DA-AMPM prefetcher
Heartbeat CPU 0 instructions: 10000000 cycles: 5802469 heartbeat IPC: 1.7234 cumulative IPC: 1.7234 (Simulation time: 0 hr 0 min 25 sec) 
Heartbeat CPU 0 instructions: 20000000 cycles: 11605198 heartbeat IPC: 1.72333 cumulative IPC: 1.72337 (Simulation time: 0 hr 0 min 50 sec) 
Heartbeat CPU 0 instructions: 30000001 cycles: 17407791 heartbeat IPC: 1.72337 cumulative IPC: 1.72337 (Simulation time: 0 hr 1 min 15 sec) 
Heartbeat CPU 0 instructions: 40000000 cycles: 23209511 heartbeat IPC: 1.72363 cumulative IPC: 1.72343 (Simulation time: 0 hr 1 min 40 sec) 
Heartbeat CPU 0 instructions: 50000001 cycles: 29012395 heartbeat IPC: 1.72328 cumulative IPC: 1.7234 (Simulation time: 0 hr 2 min 5 sec) 
Heartbeat CPU 0 instructions: 60000000 cycles: 34815071 heartbeat IPC: 1.72334 cumulative IPC: 1.72339 (Simulation time: 0 hr 2 min 30 sec) 
Heartbeat CPU 0 instructions: 70000002 cycles: 40617376 heartbeat IPC: 1.72345 cumulative IPC: 1.7234 (Simulation time: 0 hr 2 min 55 sec) 
Heartbeat CPU 0 instructions: 80000000 cycles: 46419375 heartbeat IPC: 1.72354 cumulative IPC: 1.72342 (Simulation time: 0 hr 3 min 20 sec) 
Heartbeat CPU 0 instructions: 90000000 cycles: 52222678 heartbeat IPC: 1.72316 cumulative IPC: 1.72339 (Simulation time: 0 hr 3 min 45 sec) 
Heartbeat CPU 0 instructions: 100000000 cycles: 58024947 heartbeat IPC: 1.72346 cumulative IPC: 1.7234 (Simulation time: 0 hr 4 min 10 sec) 
Heartbeat CPU 0 instructions: 110000002 cycles: 63826883 heartbeat IPC: 1.72356 cumulative IPC: 1.72341 (Simulation time: 0 hr 4 min 35 sec) 
Heartbeat CPU 0 instructions: 120000000 cycles: 69628737 heartbeat IPC: 1.72359 cumulative IPC: 1.72343 (Simulation time: 0 hr 5 min 0 sec) 
Heartbeat CPU 0 instructions: 130000003 cycles: 75431781 heartbeat IPC: 1.72323 cumulative IPC: 1.72341 (Simulation time: 0 hr 5 min 25 sec) 
Heartbeat CPU 0 instructions: 140000000 cycles: 81233723 heartbeat IPC: 1.72356 cumulative IPC: 1.72342 (Simulation time: 0 hr 5 min 50 sec) 
Heartbeat CPU 0 instructions: 150000001 cycles: 87036392 heartbeat IPC: 1.72335 cumulative IPC: 1.72342 (Simulation time: 0 hr 6 min 15 sec) 
Heartbeat CPU 0 instructions: 160000000 cycles: 92838289 heartbeat IPC: 1.72357 cumulative IPC: 1.72343 (Simulation time: 0 hr 6 min 40 sec) 
Heartbeat CPU 0 instructions: 170000000 cycles: 98640538 heartbeat IPC: 1.72347 cumulative IPC: 1.72343 (Simulation time: 0 hr 7 min 5 sec) 
Heartbeat CPU 0 instructions: 180000000 cycles: 104442246 heartbeat IPC: 1.72363 cumulative IPC: 1.72344 (Simulation time: 0 hr 7 min 30 sec) 
Heartbeat CPU 0 instructions: 190000002 cycles: 110245149 heartbeat IPC: 1.72328 cumulative IPC: 1.72343 (Simulation time: 0 hr 7 min 55 sec) 
Heartbeat CPU 0 instructions: 200000000 cycles: 116046927 heartbeat IPC: 1.72361 cumulative IPC: 1.72344 (Simulation time: 0 hr 8 min 20 sec) 

Warmup complete CPU 0 instructions: 200000001 cycles: 116046928 (Simulation time: 0 hr 8 min 20 sec) 

Heartbeat CPU 0 instructions: 210000002 cycles: 126614725 heartbeat IPC: 0.946271 cumulative IPC: 0.946271 (Simulation time: 0 hr 8 min 51 sec) 
Heartbeat CPU 0 instructions: 220000000 cycles: 137094093 heartbeat IPC: 0.954256 cumulative IPC: 0.950247 (Simulation time: 0 hr 9 min 22 sec) 
Heartbeat CPU 0 instructions: 230000000 cycles: 147563315 heartbeat IPC: 0.955181 cumulative IPC: 0.951886 (Simulation time: 0 hr 9 min 53 sec) 
Heartbeat CPU 0 instructions: 240000000 cycles: 158455627 heartbeat IPC: 0.918079 cumulative IPC: 0.943203 (Simulation time: 0 hr 10 min 24 sec) 
Heartbeat CPU 0 instructions: 250000003 cycles: 168942204 heartbeat IPC: 0.9536 cumulative IPC: 0.945264 (Simulation time: 0 hr 10 min 55 sec) 
Heartbeat CPU 0 instructions: 260000000 cycles: 179423691 heartbeat IPC: 0.954063 cumulative IPC: 0.946719 (Simulation time: 0 hr 11 min 25 sec) 
Heartbeat CPU 0 instructions: 270000003 cycles: 189940830 heartbeat IPC: 0.950829 cumulative IPC: 0.947304 (Simulation time: 0 hr 11 min 56 sec) 
Heartbeat CPU 0 instructions: 280000000 cycles: 200465461 heartbeat IPC: 0.950152 cumulative IPC: 0.947659 (Simulation time: 0 hr 12 min 27 sec) 
Heartbeat CPU 0 instructions: 290000001 cycles: 210941208 heartbeat IPC: 0.954586 cumulative IPC: 0.948424 (Simulation time: 0 hr 12 min 58 sec) 
Heartbeat CPU 0 instructions: 300000000 cycles: 221487489 heartbeat IPC: 0.948201 cumulative IPC: 0.948402 (Simulation time: 0 hr 13 min 29 sec) 
Heartbeat CPU 0 instructions: 310000003 cycles: 232021600 heartbeat IPC: 0.949297 cumulative IPC: 0.948483 (Simulation time: 0 hr 13 min 59 sec) 
Heartbeat CPU 0 instructions: 320000000 cycles: 242502846 heartbeat IPC: 0.954085 cumulative IPC: 0.948947 (Simulation time: 0 hr 14 min 30 sec) 
Heartbeat CPU 0 instructions: 330000000 cycles: 253044918 heartbeat IPC: 0.94858 cumulative IPC: 0.948919 (Simulation time: 0 hr 15 min 1 sec) 
Heartbeat CPU 0 instructions: 340000000 cycles: 263555047 heartbeat IPC: 0.951463 cumulative IPC: 0.9491 (Simulation time: 0 hr 15 min 32 sec) 
Heartbeat CPU 0 instructions: 350000002 cycles: 274054765 heartbeat IPC: 0.952407 cumulative IPC: 0.94932 (Simulation time: 0 hr 16 min 3 sec) 
Heartbeat CPU 0 instructions: 360000000 cycles: 284547218 heartbeat IPC: 0.953066 cumulative IPC: 0.949553 (Simulation time: 0 hr 16 min 33 sec) 
Heartbeat CPU 0 instructions: 370000003 cycles: 295039407 heartbeat IPC: 0.95309 cumulative IPC: 0.949761 (Simulation time: 0 hr 17 min 4 sec) 
Heartbeat CPU 0 instructions: 380000000 cycles: 305491794 heartbeat IPC: 0.956719 cumulative IPC: 0.950145 (Simulation time: 0 hr 17 min 35 sec) 
Heartbeat CPU 0 instructions: 390000003 cycles: 316410098 heartbeat IPC: 0.915893 cumulative IPC: 0.948278 (Simulation time: 0 hr 18 min 6 sec) 
Heartbeat CPU 0 instructions: 400000000 cycles: 326845518 heartbeat IPC: 0.958274 cumulative IPC: 0.948773 (Simulation time: 0 hr 18 min 37 sec) 
Heartbeat CPU 0 instructions: 410000002 cycles: 337315039 heartbeat IPC: 0.955154 cumulative IPC: 0.949075 (Simulation time: 0 hr 19 min 8 sec) 
Heartbeat CPU 0 instructions: 420000000 cycles: 347815897 heartbeat IPC: 0.952303 cumulative IPC: 0.949221 (Simulation time: 0 hr 19 min 38 sec) 
Heartbeat CPU 0 instructions: 430000000 cycles: 358299631 heartbeat IPC: 0.953859 cumulative IPC: 0.949422 (Simulation time: 0 hr 20 min 9 sec) 
Heartbeat CPU 0 instructions: 440000000 cycles: 368795918 heartbeat IPC: 0.952718 cumulative IPC: 0.949559 (Simulation time: 0 hr 20 min 40 sec) 
Heartbeat CPU 0 instructions: 450000001 cycles: 379276074 heartbeat IPC: 0.954184 cumulative IPC: 0.949743 (Simulation time: 0 hr 21 min 11 sec) 
Heartbeat CPU 0 instructions: 460000000 cycles: 389886578 heartbeat IPC: 0.942462 cumulative IPC: 0.949461 (Simulation time: 0 hr 21 min 42 sec) 
Heartbeat CPU 0 instructions: 470000002 cycles: 400373366 heartbeat IPC: 0.953581 cumulative IPC: 0.949613 (Simulation time: 0 hr 22 min 12 sec) 
Heartbeat CPU 0 instructions: 480000000 cycles: 410874988 heartbeat IPC: 0.952234 cumulative IPC: 0.949706 (Simulation time: 0 hr 22 min 43 sec) 
Heartbeat CPU 0 instructions: 490000003 cycles: 421374421 heartbeat IPC: 0.952433 cumulative IPC: 0.9498 (Simulation time: 0 hr 23 min 14 sec) 
Heartbeat CPU 0 instructions: 500000000 cycles: 431850931 heartbeat IPC: 0.954516 cumulative IPC: 0.949956 (Simulation time: 0 hr 23 min 45 sec) 
Heartbeat CPU 0 instructions: 510000002 cycles: 442360230 heartbeat IPC: 0.951538 cumulative IPC: 0.950007 (Simulation time: 0 hr 24 min 16 sec) 
Heartbeat CPU 0 instructions: 520000000 cycles: 452830269 heartbeat IPC: 0.955106 cumulative IPC: 0.950166 (Simulation time: 0 hr 24 min 46 sec) 
Heartbeat CPU 0 instructions: 530000000 cycles: 463320164 heartbeat IPC: 0.953298 cumulative IPC: 0.95026 (Simulation time: 0 hr 25 min 17 sec) 
Heartbeat CPU 0 instructions: 540000000 cycles: 474304293 heartbeat IPC: 0.910404 cumulative IPC: 0.949038 (Simulation time: 0 hr 25 min 48 sec) 
Heartbeat CPU 0 instructions: 550000000 cycles: 484757812 heartbeat IPC: 0.956616 cumulative IPC: 0.949253 (Simulation time: 0 hr 26 min 19 sec) 
Heartbeat CPU 0 instructions: 560000000 cycles: 495244870 heartbeat IPC: 0.953556 cumulative IPC: 0.949372 (Simulation time: 0 hr 26 min 50 sec) 
Heartbeat CPU 0 instructions: 570000000 cycles: 505682625 heartbeat IPC: 0.95806 cumulative IPC: 0.949605 (Simulation time: 0 hr 27 min 21 sec) 
Heartbeat CPU 0 instructions: 580000000 cycles: 516197994 heartbeat IPC: 0.950989 cumulative IPC: 0.949641 (Simulation time: 0 hr 27 min 51 sec) 
Heartbeat CPU 0 instructions: 590000003 cycles: 526675499 heartbeat IPC: 0.954426 cumulative IPC: 0.949763 (Simulation time: 0 hr 28 min 22 sec) 
Heartbeat CPU 0 instructions: 600000000 cycles: 537240167 heartbeat IPC: 0.946551 cumulative IPC: 0.949683 (Simulation time: 0 hr 28 min 53 sec) 
Heartbeat CPU 0 instructions: 610000000 cycles: 547786684 heartbeat IPC: 0.94818 cumulative IPC: 0.949646 (Simulation time: 0 hr 29 min 24 sec) 
Heartbeat CPU 0 instructions: 620000000 cycles: 558270260 heartbeat IPC: 0.953873 cumulative IPC: 0.949746 (Simulation time: 0 hr 29 min 54 sec) 
Heartbeat CPU 0 instructions: 630000003 cycles: 568800880 heartbeat IPC: 0.949612 cumulative IPC: 0.949743 (Simulation time: 0 hr 30 min 25 sec) 
Heartbeat CPU 0 instructions: 640000000 cycles: 579298372 heartbeat IPC: 0.952608 cumulative IPC: 0.949808 (Simulation time: 0 hr 30 min 56 sec) 
Heartbeat CPU 0 instructions: 650000002 cycles: 589846054 heartbeat IPC: 0.948076 cumulative IPC: 0.94977 (Simulation time: 0 hr 31 min 27 sec) 
Heartbeat CPU 0 instructions: 660000000 cycles: 600367493 heartbeat IPC: 0.95044 cumulative IPC: 0.949784 (Simulation time: 0 hr 31 min 58 sec) 
Heartbeat CPU 0 instructions: 670000003 cycles: 610911482 heartbeat IPC: 0.948408 cumulative IPC: 0.949755 (Simulation time: 0 hr 32 min 29 sec) 
Heartbeat CPU 0 instructions: 680000000 cycles: 621422683 heartbeat IPC: 0.951366 cumulative IPC: 0.949788 (Simulation time: 0 hr 33 min 0 sec) 
Heartbeat CPU 0 instructions: 690000000 cycles: 632418752 heartbeat IPC: 0.909416 cumulative IPC: 0.948929 (Simulation time: 0 hr 33 min 31 sec) 
Heartbeat CPU 0 instructions: 700000000 cycles: 642875736 heartbeat IPC: 0.956299 cumulative IPC: 0.949075 (Simulation time: 0 hr 34 min 2 sec) 
Heartbeat CPU 0 instructions: 710000000 cycles: 653391416 heartbeat IPC: 0.950961 cumulative IPC: 0.949112 (Simulation time: 0 hr 34 min 32 sec) 
Heartbeat CPU 0 instructions: 720000000 cycles: 663841338 heartbeat IPC: 0.956945 cumulative IPC: 0.949261 (Simulation time: 0 hr 35 min 3 sec) 
Heartbeat CPU 0 instructions: 730000003 cycles: 674345700 heartbeat IPC: 0.951986 cumulative IPC: 0.949313 (Simulation time: 0 hr 35 min 34 sec) 
Heartbeat CPU 0 instructions: 740000000 cycles: 684916699 heartbeat IPC: 0.945984 cumulative IPC: 0.949251 (Simulation time: 0 hr 36 min 5 sec) 
Heartbeat CPU 0 instructions: 750000003 cycles: 695405452 heartbeat IPC: 0.953402 cumulative IPC: 0.949326 (Simulation time: 0 hr 36 min 36 sec) 
Heartbeat CPU 0 instructions: 760000000 cycles: 705908014 heartbeat IPC: 0.952148 cumulative IPC: 0.949376 (Simulation time: 0 hr 37 min 6 sec) 
Heartbeat CPU 0 instructions: 770000002 cycles: 716441196 heartbeat IPC: 0.949381 cumulative IPC: 0.949376 (Simulation time: 0 hr 37 min 37 sec) 
Heartbeat CPU 0 instructions: 780000000 cycles: 727006068 heartbeat IPC: 0.946533 cumulative IPC: 0.949327 (Simulation time: 0 hr 38 min 8 sec) 
Heartbeat CPU 0 instructions: 790000001 cycles: 737498642 heartbeat IPC: 0.953055 cumulative IPC: 0.94939 (Simulation time: 0 hr 38 min 39 sec) 
Heartbeat CPU 0 instructions: 800000000 cycles: 748040145 heartbeat IPC: 0.948631 cumulative IPC: 0.949377 (Simulation time: 0 hr 39 min 9 sec) 
Heartbeat CPU 0 instructions: 810000000 cycles: 758541770 heartbeat IPC: 0.952234 cumulative IPC: 0.949424 (Simulation time: 0 hr 39 min 40 sec) 
Heartbeat CPU 0 instructions: 820000000 cycles: 769083209 heartbeat IPC: 0.948637 cumulative IPC: 0.949411 (Simulation time: 0 hr 40 min 11 sec) 
Heartbeat CPU 0 instructions: 830000000 cycles: 779628063 heartbeat IPC: 0.94833 cumulative IPC: 0.949394 (Simulation time: 0 hr 40 min 42 sec) 
Heartbeat CPU 0 instructions: 840000000 cycles: 790520235 heartbeat IPC: 0.918091 cumulative IPC: 0.948889 (Simulation time: 0 hr 41 min 13 sec) 
Heartbeat CPU 0 instructions: 850000003 cycles: 800936370 heartbeat IPC: 0.960049 cumulative IPC: 0.949058 (Simulation time: 0 hr 41 min 43 sec) 
Heartbeat CPU 0 instructions: 860000000 cycles: 811434856 heartbeat IPC: 0.952518 cumulative IPC: 0.949111 (Simulation time: 0 hr 42 min 14 sec) 
Heartbeat CPU 0 instructions: 870000000 cycles: 821949866 heartbeat IPC: 0.951021 cumulative IPC: 0.949139 (Simulation time: 0 hr 42 min 45 sec) 
Heartbeat CPU 0 instructions: 880000000 cycles: 832458833 heartbeat IPC: 0.951568 cumulative IPC: 0.949175 (Simulation time: 0 hr 43 min 16 sec) 
Heartbeat CPU 0 instructions: 890000002 cycles: 842988874 heartbeat IPC: 0.949664 cumulative IPC: 0.949182 (Simulation time: 0 hr 43 min 46 sec) 
Heartbeat CPU 0 instructions: 900000000 cycles: 853471811 heartbeat IPC: 0.953931 cumulative IPC: 0.949249 (Simulation time: 0 hr 44 min 17 sec) 
Heartbeat CPU 0 instructions: 910000001 cycles: 863969012 heartbeat IPC: 0.952635 cumulative IPC: 0.949297 (Simulation time: 0 hr 44 min 48 sec) 
Heartbeat CPU 0 instructions: 920000000 cycles: 874519365 heartbeat IPC: 0.947836 cumulative IPC: 0.949276 (Simulation time: 0 hr 45 min 19 sec) 
Heartbeat CPU 0 instructions: 930000003 cycles: 885057586 heartbeat IPC: 0.948927 cumulative IPC: 0.949272 (Simulation time: 0 hr 45 min 49 sec) 
Heartbeat CPU 0 instructions: 940000000 cycles: 895513827 heartbeat IPC: 0.956366 cumulative IPC: 0.949367 (Simulation time: 0 hr 46 min 20 sec) 
Heartbeat CPU 0 instructions: 950000002 cycles: 906037979 heartbeat IPC: 0.950195 cumulative IPC: 0.949378 (Simulation time: 0 hr 46 min 51 sec) 
Heartbeat CPU 0 instructions: 960000000 cycles: 916548475 heartbeat IPC: 0.95143 cumulative IPC: 0.949405 (Simulation time: 0 hr 47 min 22 sec) 
Heartbeat CPU 0 instructions: 970000001 cycles: 927053538 heartbeat IPC: 0.951922 cumulative IPC: 0.949437 (Simulation time: 0 hr 47 min 52 sec) 
Heartbeat CPU 0 instructions: 980000000 cycles: 937593031 heartbeat IPC: 0.948812 cumulative IPC: 0.949429 (Simulation time: 0 hr 48 min 23 sec) 
Heartbeat CPU 0 instructions: 990000003 cycles: 948521467 heartbeat IPC: 0.915044 cumulative IPC: 0.948978 (Simulation time: 0 hr 48 min 54 sec) 
Heartbeat CPU 0 instructions: 1000000000 cycles: 958926443 heartbeat IPC: 0.961078 cumulative IPC: 0.949127 (Simulation time: 0 hr 49 min 25 sec) 
Heartbeat CPU 0 instructions: 1010000002 cycles: 969428015 heartbeat IPC: 0.952239 cumulative IPC: 0.949166 (Simulation time: 0 hr 49 min 56 sec) 
Heartbeat CPU 0 instructions: 1020000000 cycles: 979971151 heartbeat IPC: 0.948484 cumulative IPC: 0.949157 (Simulation time: 0 hr 50 min 26 sec) 
Heartbeat CPU 0 instructions: 1030000002 cycles: 990441179 heartbeat IPC: 0.955107 cumulative IPC: 0.949229 (Simulation time: 0 hr 50 min 57 sec) 
Heartbeat CPU 0 instructions: 1040000000 cycles: 1000940487 heartbeat IPC: 0.952444 cumulative IPC: 0.949267 (Simulation time: 0 hr 51 min 28 sec) 
Heartbeat CPU 0 instructions: 1050000001 cycles: 1011479200 heartbeat IPC: 0.948883 cumulative IPC: 0.949262 (Simulation time: 0 hr 51 min 59 sec) 
Heartbeat CPU 0 instructions: 1060000000 cycles: 1021957498 heartbeat IPC: 0.954353 cumulative IPC: 0.949321 (Simulation time: 0 hr 52 min 30 sec) 
Heartbeat CPU 0 instructions: 1070000003 cycles: 1032397062 heartbeat IPC: 0.957895 cumulative IPC: 0.949419 (Simulation time: 0 hr 53 min 0 sec) 
Heartbeat CPU 0 instructions: 1080000000 cycles: 1042919945 heartbeat IPC: 0.95031 cumulative IPC: 0.949429 (Simulation time: 0 hr 53 min 31 sec) 
Heartbeat CPU 0 instructions: 1090000000 cycles: 1053397147 heartbeat IPC: 0.954453 cumulative IPC: 0.949485 (Simulation time: 0 hr 54 min 2 sec) 
Heartbeat CPU 0 instructions: 1100000000 cycles: 1063939692 heartbeat IPC: 0.948538 cumulative IPC: 0.949475 (Simulation time: 0 hr 54 min 33 sec) 
Heartbeat CPU 0 instructions: 1110000001 cycles: 1074500389 heartbeat IPC: 0.946907 cumulative IPC: 0.949446 (Simulation time: 0 hr 55 min 4 sec) 
Heartbeat CPU 0 instructions: 1120000000 cycles: 1084986646 heartbeat IPC: 0.953629 cumulative IPC: 0.949492 (Simulation time: 0 hr 55 min 34 sec) 
Heartbeat CPU 0 instructions: 1130000002 cycles: 1095471336 heartbeat IPC: 0.953772 cumulative IPC: 0.949537 (Simulation time: 0 hr 56 min 5 sec) 
Heartbeat CPU 0 instructions: 1140000000 cycles: 1106005943 heartbeat IPC: 0.949252 cumulative IPC: 0.949534 (Simulation time: 0 hr 56 min 36 sec) 
Heartbeat CPU 0 instructions: 1150000001 cycles: 1116916953 heartbeat IPC: 0.916506 cumulative IPC: 0.949174 (Simulation time: 0 hr 57 min 7 sec) 
Heartbeat CPU 0 instructions: 1160000000 cycles: 1127397166 heartbeat IPC: 0.954179 cumulative IPC: 0.949226 (Simulation time: 0 hr 57 min 38 sec) 
Heartbeat CPU 0 instructions: 1170000001 cycles: 1137945735 heartbeat IPC: 0.947996 cumulative IPC: 0.949213 (Simulation time: 0 hr 58 min 9 sec) 
Heartbeat CPU 0 instructions: 1180000000 cycles: 1148424628 heartbeat IPC: 0.954299 cumulative IPC: 0.949265 (Simulation time: 0 hr 58 min 39 sec) 
Heartbeat CPU 0 instructions: 1190000003 cycles: 1158920946 heartbeat IPC: 0.952715 cumulative IPC: 0.9493 (Simulation time: 0 hr 59 min 10 sec) 
Heartbeat CPU 0 instructions: 1200000000 cycles: 1169408435 heartbeat IPC: 0.953517 cumulative IPC: 0.949342 (Simulation time: 0 hr 59 min 41 sec) 
Finished CPU 0 instructions: 1000000000 cycles: 1053361531 cumulative IPC: 0.949342 (Simulation time: 0 hr 59 min 41 sec) 

CPU 0 Branch Prediction Accuracy: 99.9747% MPKI: 0.001706

ChampSim completed all CPUs

Region of Interest Statistics

CPU 0 cumulative IPC: 0.949342 instructions: 1000000000 cycles: 1053361531
L1D TOTAL     ACCESS:  401180086  HIT:  320999078  MISS:   80181008
L1D LOAD      ACCESS:  321098839  HIT:  247484931  MISS:   73613908
L1D RFO       ACCESS:   80081247  HIT:   73514147  MISS:    6567100
L1D PREFETCH  ACCESS:          0  HIT:          0  MISS:          0
L1D WRITEBACK ACCESS:          0  HIT:          0  MISS:          0
L1D PREFETCH  REQUESTED:          0  ISSUED:          0  USEFUL:          0  USELESS:          0
L1I TOTAL     ACCESS:  238939116  HIT:  212938955  MISS:   26000161
L1I LOAD      ACCESS:  238939116  HIT:  212938955  MISS:   26000161
L1I RFO       ACCESS:          0  HIT:          0  MISS:          0
L1I PREFETCH  ACCESS:          0  HIT:          0  MISS:          0
L1I WRITEBACK ACCESS:          0  HIT:          0  MISS:          0
L1I PREFETCH  REQUESTED:          0  ISSUED:          0  USEFUL:          0  USELESS:          0
L2C TOTAL     ACCESS:  115501964  HIT:  104512038  MISS:   10989926
L2C LOAD      ACCESS:   99608406  HIT:   91482771  MISS:    8125635
L2C RFO       ACCESS:    6561219  HIT:    5660632  MISS:     900587
L2C PREFETCH  ACCESS:    1959206  HIT:         19  MISS:    1959187
L2C WRITEBACK ACCESS:    7373133  HIT:    7368616  MISS:       4517
L2C PREFETCH  REQUESTED:    2642755  ISSUED:    2355191  USEFUL:     989105  USELESS:    1365307
LLC TOTAL     ACCESS:   11832102  HIT:    9167863  MISS:    2664239
LLC LOAD      ACCESS:    8125394  HIT:    8010573  MISS:     114821
LLC RFO       ACCESS:     838499  HIT:     249802  MISS:     588697
LLC PREFETCH  ACCESS:    1959235  HIT:        264  MISS:    1958971
LLC WRITEBACK ACCESS:     908974  HIT:     907224  MISS:       1750
LLC PREFETCH  REQUESTED:          0  ISSUED:          0  USEFUL:    2098664  USELESS:     252845
Major fault: 0 Minor fault: 26596

L2C DA-AMPM prefetcher final stats

DRAM Statistics
 CHANNEL 0
 RQ ROW_BUFFER_HIT:    2221734  ROW_BUFFER_MISS:     440748
 DBUS_CONGESTED:    3096518
 WQ ROW_BUFFER_HIT:     334819  ROW_BUFFER_MISS:     255721  FULL:          0

 AVG_CONGESTED_CYCLE: 73
