
*** ChampSim Multicore Out-of-Order Simulator ***

Warmup Instructions: 200000000
Simulation Instructions: 1000000000
Number of CPUs: 1
LLC sets: 512
LLC ways: 16
Off-chip DRAM Size: 4096 MB Channels: 1 Width: 64-bit Data Rate: 1600 MT/s

CPU 0 runs /scratch/user/djimenez/champsim-traces/speccpu2017/xz/600.perlbench_s/600.perlbench_s-1273B.champsimtrace.xz
L2C Best-offset prefetcher
Heartbeat CPU 0 instructions: 10000003 cycles: 5916639 heartbeat IPC: 1.69015 cumulative IPC: 1.69015 (Simulation time: 0 hr 0 min 20 sec) 
Heartbeat CPU 0 instructions: 20000000 cycles: 11738194 heartbeat IPC: 1.71775 cumulative IPC: 1.70384 (Simulation time: 0 hr 0 min 40 sec) 
Heartbeat CPU 0 instructions: 30000001 cycles: 17613964 heartbeat IPC: 1.7019 cumulative IPC: 1.70319 (Simulation time: 0 hr 1 min 2 sec) 
Heartbeat CPU 0 instructions: 40000000 cycles: 23311345 heartbeat IPC: 1.75519 cumulative IPC: 1.7159 (Simulation time: 0 hr 1 min 23 sec) 
Heartbeat CPU 0 instructions: 50000003 cycles: 29124224 heartbeat IPC: 1.72032 cumulative IPC: 1.71678 (Simulation time: 0 hr 1 min 44 sec) 
Heartbeat CPU 0 instructions: 60000000 cycles: 35024806 heartbeat IPC: 1.69475 cumulative IPC: 1.71307 (Simulation time: 0 hr 2 min 7 sec) 
Heartbeat CPU 0 instructions: 70000002 cycles: 40845886 heartbeat IPC: 1.71789 cumulative IPC: 1.71376 (Simulation time: 0 hr 2 min 27 sec) 
Heartbeat CPU 0 instructions: 80000000 cycles: 46556527 heartbeat IPC: 1.75112 cumulative IPC: 1.71834 (Simulation time: 0 hr 2 min 47 sec) 
Heartbeat CPU 0 instructions: 90000001 cycles: 52493397 heartbeat IPC: 1.68439 cumulative IPC: 1.7145 (Simulation time: 0 hr 3 min 8 sec) 
Heartbeat CPU 0 instructions: 100000000 cycles: 58309528 heartbeat IPC: 1.71936 cumulative IPC: 1.71499 (Simulation time: 0 hr 3 min 30 sec) 
Heartbeat CPU 0 instructions: 110000000 cycles: 64284179 heartbeat IPC: 1.67374 cumulative IPC: 1.71115 (Simulation time: 0 hr 3 min 51 sec) 
Heartbeat CPU 0 instructions: 120000000 cycles: 70071379 heartbeat IPC: 1.72795 cumulative IPC: 1.71254 (Simulation time: 0 hr 4 min 11 sec) 
Heartbeat CPU 0 instructions: 130000003 cycles: 75949884 heartbeat IPC: 1.70111 cumulative IPC: 1.71166 (Simulation time: 0 hr 4 min 32 sec) 
Heartbeat CPU 0 instructions: 140000000 cycles: 81792321 heartbeat IPC: 1.71161 cumulative IPC: 1.71165 (Simulation time: 0 hr 4 min 52 sec) 
Heartbeat CPU 0 instructions: 150000000 cycles: 87532337 heartbeat IPC: 1.74216 cumulative IPC: 1.71365 (Simulation time: 0 hr 5 min 13 sec) 
Heartbeat CPU 0 instructions: 160000000 cycles: 93364736 heartbeat IPC: 1.71456 cumulative IPC: 1.71371 (Simulation time: 0 hr 5 min 34 sec) 
Heartbeat CPU 0 instructions: 170000003 cycles: 99240655 heartbeat IPC: 1.70186 cumulative IPC: 1.71301 (Simulation time: 0 hr 5 min 54 sec) 
Heartbeat CPU 0 instructions: 180000000 cycles: 105148863 heartbeat IPC: 1.69256 cumulative IPC: 1.71186 (Simulation time: 0 hr 6 min 14 sec) 
Heartbeat CPU 0 instructions: 190000001 cycles: 110925985 heartbeat IPC: 1.73097 cumulative IPC: 1.71285 (Simulation time: 0 hr 6 min 34 sec) 
Heartbeat CPU 0 instructions: 200000000 cycles: 116799313 heartbeat IPC: 1.70261 cumulative IPC: 1.71234 (Simulation time: 0 hr 6 min 55 sec) 

Warmup complete CPU 0 instructions: 200000001 cycles: 116799314 (Simulation time: 0 hr 6 min 55 sec) 

Heartbeat CPU 0 instructions: 210000003 cycles: 128986304 heartbeat IPC: 0.820547 cumulative IPC: 0.820547 (Simulation time: 0 hr 7 min 23 sec) 
Heartbeat CPU 0 instructions: 220000000 cycles: 142814637 heartbeat IPC: 0.723153 cumulative IPC: 0.768778 (Simulation time: 0 hr 7 min 51 sec) 
Heartbeat CPU 0 instructions: 230000001 cycles: 155823232 heartbeat IPC: 0.768723 cumulative IPC: 0.768759 (Simulation time: 0 hr 8 min 20 sec) 
Heartbeat CPU 0 instructions: 240000000 cycles: 170714441 heartbeat IPC: 0.671537 cumulative IPC: 0.741907 (Simulation time: 0 hr 8 min 48 sec) 
Heartbeat CPU 0 instructions: 250000000 cycles: 185160929 heartbeat IPC: 0.69221 cumulative IPC: 0.731405 (Simulation time: 0 hr 9 min 17 sec) 
Heartbeat CPU 0 instructions: 260000000 cycles: 197278335 heartbeat IPC: 0.825259 cumulative IPC: 0.745536 (Simulation time: 0 hr 9 min 44 sec) 
Heartbeat CPU 0 instructions: 270000002 cycles: 210039635 heartbeat IPC: 0.783619 cumulative IPC: 0.750748 (Simulation time: 0 hr 10 min 12 sec) 
Heartbeat CPU 0 instructions: 280000000 cycles: 223410350 heartbeat IPC: 0.747903 cumulative IPC: 0.750391 (Simulation time: 0 hr 10 min 41 sec) 
Heartbeat CPU 0 instructions: 290000001 cycles: 241594663 heartbeat IPC: 0.549925 cumulative IPC: 0.721181 (Simulation time: 0 hr 11 min 11 sec) 
Heartbeat CPU 0 instructions: 300000000 cycles: 264654903 heartbeat IPC: 0.433647 cumulative IPC: 0.676336 (Simulation time: 0 hr 11 min 42 sec) 
Heartbeat CPU 0 instructions: 310000003 cycles: 289053800 heartbeat IPC: 0.409855 cumulative IPC: 0.63859 (Simulation time: 0 hr 12 min 13 sec) 
Heartbeat CPU 0 instructions: 320000000 cycles: 310087062 heartbeat IPC: 0.475437 cumulative IPC: 0.620836 (Simulation time: 0 hr 12 min 44 sec) 
Heartbeat CPU 0 instructions: 330000000 cycles: 324021493 heartbeat IPC: 0.717647 cumulative IPC: 0.627346 (Simulation time: 0 hr 13 min 13 sec) 
Heartbeat CPU 0 instructions: 340000000 cycles: 339371437 heartbeat IPC: 0.651468 cumulative IPC: 0.62901 (Simulation time: 0 hr 13 min 42 sec) 
Heartbeat CPU 0 instructions: 350000000 cycles: 357386667 heartbeat IPC: 0.555086 cumulative IPC: 0.623474 (Simulation time: 0 hr 14 min 12 sec) 
Heartbeat CPU 0 instructions: 360000000 cycles: 384130620 heartbeat IPC: 0.373916 cumulative IPC: 0.598508 (Simulation time: 0 hr 14 min 43 sec) 
Heartbeat CPU 0 instructions: 370000000 cycles: 409963510 heartbeat IPC: 0.387103 cumulative IPC: 0.57988 (Simulation time: 0 hr 15 min 15 sec) 
Heartbeat CPU 0 instructions: 380000000 cycles: 427062570 heartbeat IPC: 0.584827 cumulative IPC: 0.580153 (Simulation time: 0 hr 15 min 44 sec) 
Heartbeat CPU 0 instructions: 390000000 cycles: 440676936 heartbeat IPC: 0.734518 cumulative IPC: 0.586641 (Simulation time: 0 hr 16 min 12 sec) 
Heartbeat CPU 0 instructions: 400000000 cycles: 453450159 heartbeat IPC: 0.782888 cumulative IPC: 0.594087 (Simulation time: 0 hr 16 min 40 sec) 
Heartbeat CPU 0 instructions: 410000001 cycles: 464915174 heartbeat IPC: 0.872219 cumulative IPC: 0.603247 (Simulation time: 0 hr 17 min 7 sec) 
Heartbeat CPU 0 instructions: 420000000 cycles: 477062420 heartbeat IPC: 0.823232 cumulative IPC: 0.610665 (Simulation time: 0 hr 17 min 35 sec) 
Heartbeat CPU 0 instructions: 430000003 cycles: 490701008 heartbeat IPC: 0.733214 cumulative IPC: 0.615135 (Simulation time: 0 hr 18 min 3 sec) 
Heartbeat CPU 0 instructions: 440000000 cycles: 504351162 heartbeat IPC: 0.732592 cumulative IPC: 0.619272 (Simulation time: 0 hr 18 min 30 sec) 
Heartbeat CPU 0 instructions: 450000001 cycles: 517810108 heartbeat IPC: 0.743 cumulative IPC: 0.623425 (Simulation time: 0 hr 18 min 58 sec) 
Heartbeat CPU 0 instructions: 460000000 cycles: 530760109 heartbeat IPC: 0.772201 cumulative IPC: 0.628079 (Simulation time: 0 hr 19 min 27 sec) 
Heartbeat CPU 0 instructions: 470000001 cycles: 543739465 heartbeat IPC: 0.770454 cumulative IPC: 0.632407 (Simulation time: 0 hr 19 min 55 sec) 
Heartbeat CPU 0 instructions: 480000000 cycles: 557046687 heartbeat IPC: 0.751472 cumulative IPC: 0.636006 (Simulation time: 0 hr 20 min 22 sec) 
Heartbeat CPU 0 instructions: 490000001 cycles: 570071518 heartbeat IPC: 0.767764 cumulative IPC: 0.639792 (Simulation time: 0 hr 20 min 50 sec) 
Heartbeat CPU 0 instructions: 500000000 cycles: 579886827 heartbeat IPC: 1.01882 cumulative IPC: 0.647826 (Simulation time: 0 hr 21 min 18 sec) 
Heartbeat CPU 0 instructions: 510000001 cycles: 590804077 heartbeat IPC: 0.915982 cumulative IPC: 0.654002 (Simulation time: 0 hr 21 min 46 sec) 
Heartbeat CPU 0 instructions: 520000000 cycles: 603660875 heartbeat IPC: 0.777799 cumulative IPC: 0.657271 (Simulation time: 0 hr 22 min 13 sec) 
Heartbeat CPU 0 instructions: 530000002 cycles: 617166111 heartbeat IPC: 0.740454 cumulative IPC: 0.659516 (Simulation time: 0 hr 22 min 42 sec) 
Heartbeat CPU 0 instructions: 540000000 cycles: 629287856 heartbeat IPC: 0.824964 cumulative IPC: 0.663429 (Simulation time: 0 hr 23 min 11 sec) 
Heartbeat CPU 0 instructions: 550000001 cycles: 641689921 heartbeat IPC: 0.806317 cumulative IPC: 0.666806 (Simulation time: 0 hr 23 min 40 sec) 
Heartbeat CPU 0 instructions: 560000000 cycles: 655485114 heartbeat IPC: 0.72489 cumulative IPC: 0.668293 (Simulation time: 0 hr 24 min 8 sec) 
Heartbeat CPU 0 instructions: 570000003 cycles: 669934061 heartbeat IPC: 0.692092 cumulative IPC: 0.668915 (Simulation time: 0 hr 24 min 36 sec) 
Heartbeat CPU 0 instructions: 580000000 cycles: 680891439 heartbeat IPC: 0.912627 cumulative IPC: 0.673649 (Simulation time: 0 hr 25 min 4 sec) 
Heartbeat CPU 0 instructions: 590000002 cycles: 693203246 heartbeat IPC: 0.812229 cumulative IPC: 0.676609 (Simulation time: 0 hr 25 min 32 sec) 
Heartbeat CPU 0 instructions: 600000000 cycles: 705617260 heartbeat IPC: 0.805541 cumulative IPC: 0.679327 (Simulation time: 0 hr 26 min 0 sec) 
Heartbeat CPU 0 instructions: 610000001 cycles: 717997348 heartbeat IPC: 0.807749 cumulative IPC: 0.681972 (Simulation time: 0 hr 26 min 29 sec) 
Heartbeat CPU 0 instructions: 620000000 cycles: 731859276 heartbeat IPC: 0.7214 cumulative IPC: 0.68286 (Simulation time: 0 hr 26 min 59 sec) 
Heartbeat CPU 0 instructions: 630000000 cycles: 746420338 heartbeat IPC: 0.686763 cumulative IPC: 0.68295 (Simulation time: 0 hr 27 min 27 sec) 
Heartbeat CPU 0 instructions: 640000000 cycles: 760776924 heartbeat IPC: 0.696544 cumulative IPC: 0.683254 (Simulation time: 0 hr 27 min 55 sec) 
Heartbeat CPU 0 instructions: 650000001 cycles: 774360692 heartbeat IPC: 0.736173 cumulative IPC: 0.684347 (Simulation time: 0 hr 28 min 24 sec) 
Heartbeat CPU 0 instructions: 660000000 cycles: 788808308 heartbeat IPC: 0.692156 cumulative IPC: 0.684515 (Simulation time: 0 hr 28 min 52 sec) 
Heartbeat CPU 0 instructions: 670000000 cycles: 801766227 heartbeat IPC: 0.771729 cumulative IPC: 0.686165 (Simulation time: 0 hr 29 min 20 sec) 
Heartbeat CPU 0 instructions: 680000000 cycles: 813851815 heartbeat IPC: 0.827432 cumulative IPC: 0.688614 (Simulation time: 0 hr 29 min 48 sec) 
Heartbeat CPU 0 instructions: 690000000 cycles: 827807821 heartbeat IPC: 0.716537 cumulative IPC: 0.689162 (Simulation time: 0 hr 30 min 16 sec) 
Heartbeat CPU 0 instructions: 700000000 cycles: 840046188 heartbeat IPC: 0.817102 cumulative IPC: 0.691327 (Simulation time: 0 hr 30 min 44 sec) 
Heartbeat CPU 0 instructions: 710000001 cycles: 854242338 heartbeat IPC: 0.704416 cumulative IPC: 0.691579 (Simulation time: 0 hr 31 min 12 sec) 
Heartbeat CPU 0 instructions: 720000000 cycles: 868469805 heartbeat IPC: 0.702866 cumulative IPC: 0.691792 (Simulation time: 0 hr 31 min 41 sec) 
Heartbeat CPU 0 instructions: 730000000 cycles: 883078997 heartbeat IPC: 0.684501 cumulative IPC: 0.691653 (Simulation time: 0 hr 32 min 9 sec) 
Heartbeat CPU 0 instructions: 740000000 cycles: 897351699 heartbeat IPC: 0.700638 cumulative IPC: 0.691818 (Simulation time: 0 hr 32 min 37 sec) 
Heartbeat CPU 0 instructions: 750000000 cycles: 909597773 heartbeat IPC: 0.816588 cumulative IPC: 0.693745 (Simulation time: 0 hr 33 min 5 sec) 
Heartbeat CPU 0 instructions: 760000000 cycles: 922042861 heartbeat IPC: 0.80353 cumulative IPC: 0.695442 (Simulation time: 0 hr 33 min 33 sec) 
Heartbeat CPU 0 instructions: 770000000 cycles: 934636450 heartbeat IPC: 0.794055 cumulative IPC: 0.69696 (Simulation time: 0 hr 34 min 0 sec) 
Heartbeat CPU 0 instructions: 780000000 cycles: 948852472 heartbeat IPC: 0.703432 cumulative IPC: 0.697071 (Simulation time: 0 hr 34 min 28 sec) 
Heartbeat CPU 0 instructions: 790000002 cycles: 960851730 heartbeat IPC: 0.833385 cumulative IPC: 0.699009 (Simulation time: 0 hr 34 min 58 sec) 
Heartbeat CPU 0 instructions: 800000000 cycles: 974919338 heartbeat IPC: 0.710853 cumulative IPC: 0.699203 (Simulation time: 0 hr 35 min 26 sec) 
Heartbeat CPU 0 instructions: 810000002 cycles: 989913272 heartbeat IPC: 0.666937 cumulative IPC: 0.698649 (Simulation time: 0 hr 35 min 54 sec) 
Heartbeat CPU 0 instructions: 820000000 cycles: 1004470868 heartbeat IPC: 0.686926 cumulative IPC: 0.698457 (Simulation time: 0 hr 36 min 23 sec) 
Heartbeat CPU 0 instructions: 830000002 cycles: 1017930454 heartbeat IPC: 0.742965 cumulative IPC: 0.699121 (Simulation time: 0 hr 36 min 51 sec) 
Heartbeat CPU 0 instructions: 840000000 cycles: 1030286263 heartbeat IPC: 0.809336 cumulative IPC: 0.700612 (Simulation time: 0 hr 37 min 18 sec) 
Heartbeat CPU 0 instructions: 850000003 cycles: 1043864930 heartbeat IPC: 0.73645 cumulative IPC: 0.701137 (Simulation time: 0 hr 37 min 46 sec) 
Heartbeat CPU 0 instructions: 860000000 cycles: 1055231881 heartbeat IPC: 0.879743 cumulative IPC: 0.7033 (Simulation time: 0 hr 38 min 15 sec) 
Heartbeat CPU 0 instructions: 870000001 cycles: 1069227652 heartbeat IPC: 0.714502 cumulative IPC: 0.703465 (Simulation time: 0 hr 38 min 44 sec) 
Heartbeat CPU 0 instructions: 880000000 cycles: 1087676497 heartbeat IPC: 0.542039 cumulative IPC: 0.700398 (Simulation time: 0 hr 39 min 13 sec) 
Heartbeat CPU 0 instructions: 890000003 cycles: 1108708098 heartbeat IPC: 0.475475 cumulative IPC: 0.695628 (Simulation time: 0 hr 39 min 44 sec) 
Heartbeat CPU 0 instructions: 900000000 cycles: 1128243433 heartbeat IPC: 0.511893 cumulative IPC: 0.69208 (Simulation time: 0 hr 40 min 14 sec) 
Heartbeat CPU 0 instructions: 910000000 cycles: 1150333237 heartbeat IPC: 0.452698 cumulative IPC: 0.686963 (Simulation time: 0 hr 40 min 45 sec) 
Heartbeat CPU 0 instructions: 920000000 cycles: 1163541896 heartbeat IPC: 0.757079 cumulative IPC: 0.687848 (Simulation time: 0 hr 41 min 13 sec) 
Heartbeat CPU 0 instructions: 930000000 cycles: 1175481652 heartbeat IPC: 0.837538 cumulative IPC: 0.689536 (Simulation time: 0 hr 41 min 40 sec) 
Heartbeat CPU 0 instructions: 940000000 cycles: 1189266033 heartbeat IPC: 0.725459 cumulative IPC: 0.689998 (Simulation time: 0 hr 42 min 8 sec) 
Heartbeat CPU 0 instructions: 950000001 cycles: 1202227772 heartbeat IPC: 0.771501 cumulative IPC: 0.690971 (Simulation time: 0 hr 42 min 36 sec) 
Heartbeat CPU 0 instructions: 960000000 cycles: 1215403859 heartbeat IPC: 0.758951 cumulative IPC: 0.691787 (Simulation time: 0 hr 43 min 4 sec) 
Heartbeat CPU 0 instructions: 970000001 cycles: 1228446258 heartbeat IPC: 0.76673 cumulative IPC: 0.692666 (Simulation time: 0 hr 43 min 32 sec) 
Heartbeat CPU 0 instructions: 980000000 cycles: 1239054797 heartbeat IPC: 0.942637 cumulative IPC: 0.695029 (Simulation time: 0 hr 44 min 0 sec) 
Heartbeat CPU 0 instructions: 990000001 cycles: 1252326325 heartbeat IPC: 0.753493 cumulative IPC: 0.695712 (Simulation time: 0 hr 44 min 28 sec) 
Heartbeat CPU 0 instructions: 1000000000 cycles: 1264424597 heartbeat IPC: 0.826564 cumulative IPC: 0.697092 (Simulation time: 0 hr 44 min 57 sec) 
Heartbeat CPU 0 instructions: 1010000001 cycles: 1278598724 heartbeat IPC: 0.705511 cumulative IPC: 0.697194 (Simulation time: 0 hr 45 min 26 sec) 
Heartbeat CPU 0 instructions: 1020000000 cycles: 1290453715 heartbeat IPC: 0.843526 cumulative IPC: 0.698672 (Simulation time: 0 hr 45 min 53 sec) 
Heartbeat CPU 0 instructions: 1030000000 cycles: 1303092611 heartbeat IPC: 0.791208 cumulative IPC: 0.699658 (Simulation time: 0 hr 46 min 22 sec) 
Heartbeat CPU 0 instructions: 1040000000 cycles: 1316540857 heartbeat IPC: 0.743591 cumulative IPC: 0.700151 (Simulation time: 0 hr 46 min 51 sec) 
Heartbeat CPU 0 instructions: 1050000000 cycles: 1330979076 heartbeat IPC: 0.692606 cumulative IPC: 0.700061 (Simulation time: 0 hr 47 min 19 sec) 
Heartbeat CPU 0 instructions: 1060000000 cycles: 1345067188 heartbeat IPC: 0.709818 cumulative IPC: 0.700173 (Simulation time: 0 hr 47 min 48 sec) 
Heartbeat CPU 0 instructions: 1070000001 cycles: 1357457444 heartbeat IPC: 0.807086 cumulative IPC: 0.701241 (Simulation time: 0 hr 48 min 16 sec) 
Heartbeat CPU 0 instructions: 1080000000 cycles: 1370776544 heartbeat IPC: 0.750801 cumulative IPC: 0.701767 (Simulation time: 0 hr 48 min 44 sec) 
Heartbeat CPU 0 instructions: 1090000000 cycles: 1384726311 heartbeat IPC: 0.716858 cumulative IPC: 0.701933 (Simulation time: 0 hr 49 min 12 sec) 
Heartbeat CPU 0 instructions: 1100000000 cycles: 1399389768 heartbeat IPC: 0.681967 cumulative IPC: 0.701705 (Simulation time: 0 hr 49 min 41 sec) 
Heartbeat CPU 0 instructions: 1110000001 cycles: 1412317321 heartbeat IPC: 0.773542 cumulative IPC: 0.702422 (Simulation time: 0 hr 50 min 9 sec) 
Heartbeat CPU 0 instructions: 1120000000 cycles: 1424924201 heartbeat IPC: 0.793218 cumulative IPC: 0.703297 (Simulation time: 0 hr 50 min 36 sec) 
Heartbeat CPU 0 instructions: 1130000000 cycles: 1437998586 heartbeat IPC: 0.764854 cumulative IPC: 0.703906 (Simulation time: 0 hr 51 min 5 sec) 
Heartbeat CPU 0 instructions: 1140000000 cycles: 1452731020 heartbeat IPC: 0.678774 cumulative IPC: 0.703629 (Simulation time: 0 hr 51 min 34 sec) 
Heartbeat CPU 0 instructions: 1150000000 cycles: 1466980908 heartbeat IPC: 0.70176 cumulative IPC: 0.703609 (Simulation time: 0 hr 52 min 2 sec) 
Heartbeat CPU 0 instructions: 1160000000 cycles: 1479773404 heartbeat IPC: 0.781708 cumulative IPC: 0.704342 (Simulation time: 0 hr 52 min 30 sec) 
Heartbeat CPU 0 instructions: 1170000002 cycles: 1492644851 heartbeat IPC: 0.776914 cumulative IPC: 0.705021 (Simulation time: 0 hr 52 min 58 sec) 
Heartbeat CPU 0 instructions: 1180000000 cycles: 1509803424 heartbeat IPC: 0.582799 cumulative IPC: 0.703516 (Simulation time: 0 hr 53 min 28 sec) 
Heartbeat CPU 0 instructions: 1190000003 cycles: 1532134799 heartbeat IPC: 0.447801 cumulative IPC: 0.699481 (Simulation time: 0 hr 53 min 59 sec) 
Heartbeat CPU 0 instructions: 1200000000 cycles: 1556742521 heartbeat IPC: 0.406376 cumulative IPC: 0.694472 (Simulation time: 0 hr 54 min 30 sec) 
Finished CPU 0 instructions: 1000000001 cycles: 1439943215 cumulative IPC: 0.694472 (Simulation time: 0 hr 54 min 30 sec) 

CPU 0 Branch Prediction Accuracy: 98.0097% MPKI: 2.60426

ChampSim completed all CPUs

Region of Interest Statistics

CPU 0 cumulative IPC: 0.694472 instructions: 1000000001 cycles: 1439943215
L1D TOTAL     ACCESS:  373137374  HIT:  372201838  MISS:     935536
L1D LOAD      ACCESS:  162697897  HIT:  161860531  MISS:     837366
L1D RFO       ACCESS:  210439477  HIT:  210341307  MISS:      98170
L1D PREFETCH  ACCESS:          0  HIT:          0  MISS:          0
L1D WRITEBACK ACCESS:          0  HIT:          0  MISS:          0
L1D PREFETCH  REQUESTED:          0  ISSUED:          0  USEFUL:          0  USELESS:          0
L1I TOTAL     ACCESS:  273009117  HIT:  271914274  MISS:    1094843
L1I LOAD      ACCESS:  273009117  HIT:  271914274  MISS:    1094843
L1I RFO       ACCESS:          0  HIT:          0  MISS:          0
L1I PREFETCH  ACCESS:          0  HIT:          0  MISS:          0
L1I WRITEBACK ACCESS:          0  HIT:          0  MISS:          0
L1I PREFETCH  REQUESTED:          0  ISSUED:          0  USEFUL:          0  USELESS:          0
L2C TOTAL     ACCESS:    2802803  HIT:    1960619  MISS:     842184
L2C LOAD      ACCESS:    1932196  HIT:    1497920  MISS:     434276
L2C RFO       ACCESS:      98150  HIT:      61328  MISS:      36822
L2C PREFETCH  ACCESS:     501986  HIT:     136248  MISS:     365738
L2C WRITEBACK ACCESS:     270471  HIT:     265123  MISS:       5348
L2C PREFETCH  REQUESTED:     561228  ISSUED:     561228  USEFUL:     137264  USELESS:     237706
LLC TOTAL     ACCESS:     956383  HIT:     365850  MISS:     590533
LLC LOAD      ACCESS:     420521  HIT:     148510  MISS:     272011
LLC RFO       ACCESS:      36672  HIT:      10276  MISS:      26396
LLC PREFETCH  ACCESS:     379858  HIT:      94093  MISS:     285765
LLC WRITEBACK ACCESS:     119332  HIT:     112971  MISS:       6361
LLC PREFETCH  REQUESTED:          0  ISSUED:          0  USEFUL:      19069  USELESS:     273211
Major fault: 0 Minor fault: 5990

L2C Best-offset prefetcher final stats

DRAM Statistics
 CHANNEL 0
 RQ ROW_BUFFER_HIT:     304698  ROW_BUFFER_MISS:     278489
 DBUS_CONGESTED:     235561
 WQ ROW_BUFFER_HIT:      12781  ROW_BUFFER_MISS:      75366  FULL:          0

 AVG_CONGESTED_CYCLE: 11
