
*** ChampSim Multicore Out-of-Order Simulator ***

Warmup Instructions: 200000000
Simulation Instructions: 1000000000
Number of CPUs: 1
LLC sets: 512
LLC ways: 16
Off-chip DRAM Size: 4096 MB Channels: 1 Width: 64-bit Data Rate: 1600 MT/s

CPU 0 runs /scratch/user/djimenez/champsim-traces/speccpu2017/xz/603.bwaves_s/603.bwaves_s-2609B.champsimtrace.xz
L2C Best-offset prefetcher
Heartbeat CPU 0 instructions: 10000001 cycles: 5273695 heartbeat IPC: 1.8962 cumulative IPC: 1.8962 (Simulation time: 0 hr 0 min 23 sec) 
Heartbeat CPU 0 instructions: 20000000 cycles: 10548968 heartbeat IPC: 1.89564 cumulative IPC: 1.89592 (Simulation time: 0 hr 0 min 46 sec) 
Heartbeat CPU 0 instructions: 30000000 cycles: 15820746 heartbeat IPC: 1.89689 cumulative IPC: 1.89624 (Simulation time: 0 hr 1 min 8 sec) 
Heartbeat CPU 0 instructions: 40000000 cycles: 21094497 heartbeat IPC: 1.89618 cumulative IPC: 1.89623 (Simulation time: 0 hr 1 min 31 sec) 
Heartbeat CPU 0 instructions: 50000002 cycles: 26371154 heartbeat IPC: 1.89514 cumulative IPC: 1.89601 (Simulation time: 0 hr 1 min 53 sec) 
Heartbeat CPU 0 instructions: 60000000 cycles: 31644485 heartbeat IPC: 1.89633 cumulative IPC: 1.89606 (Simulation time: 0 hr 2 min 16 sec) 
Heartbeat CPU 0 instructions: 70000000 cycles: 36919602 heartbeat IPC: 1.89569 cumulative IPC: 1.89601 (Simulation time: 0 hr 2 min 39 sec) 
Heartbeat CPU 0 instructions: 80000000 cycles: 42194196 heartbeat IPC: 1.89588 cumulative IPC: 1.896 (Simulation time: 0 hr 3 min 1 sec) 
Heartbeat CPU 0 instructions: 90000002 cycles: 47467087 heartbeat IPC: 1.89649 cumulative IPC: 1.89605 (Simulation time: 0 hr 3 min 24 sec) 
Heartbeat CPU 0 instructions: 100000000 cycles: 52741450 heartbeat IPC: 1.89596 cumulative IPC: 1.89604 (Simulation time: 0 hr 3 min 47 sec) 
Heartbeat CPU 0 instructions: 110000002 cycles: 58017127 heartbeat IPC: 1.89549 cumulative IPC: 1.89599 (Simulation time: 0 hr 4 min 9 sec) 
Heartbeat CPU 0 instructions: 120000000 cycles: 63290798 heartbeat IPC: 1.89621 cumulative IPC: 1.89601 (Simulation time: 0 hr 4 min 32 sec) 
Heartbeat CPU 0 instructions: 130000002 cycles: 68566167 heartbeat IPC: 1.8956 cumulative IPC: 1.89598 (Simulation time: 0 hr 4 min 54 sec) 
Heartbeat CPU 0 instructions: 140000000 cycles: 73840026 heartbeat IPC: 1.89614 cumulative IPC: 1.89599 (Simulation time: 0 hr 5 min 17 sec) 
Heartbeat CPU 0 instructions: 150000002 cycles: 79113977 heartbeat IPC: 1.89611 cumulative IPC: 1.896 (Simulation time: 0 hr 5 min 40 sec) 
Heartbeat CPU 0 instructions: 160000000 cycles: 84388071 heartbeat IPC: 1.89606 cumulative IPC: 1.896 (Simulation time: 0 hr 6 min 2 sec) 
Heartbeat CPU 0 instructions: 170000002 cycles: 89661999 heartbeat IPC: 1.89612 cumulative IPC: 1.89601 (Simulation time: 0 hr 6 min 25 sec) 
Heartbeat CPU 0 instructions: 180000000 cycles: 94936329 heartbeat IPC: 1.89597 cumulative IPC: 1.89601 (Simulation time: 0 hr 6 min 48 sec) 
Heartbeat CPU 0 instructions: 190000000 cycles: 100211311 heartbeat IPC: 1.89574 cumulative IPC: 1.89599 (Simulation time: 0 hr 7 min 10 sec) 
Heartbeat CPU 0 instructions: 200000000 cycles: 105485490 heartbeat IPC: 1.89603 cumulative IPC: 1.896 (Simulation time: 0 hr 7 min 33 sec) 

Warmup complete CPU 0 instructions: 200000001 cycles: 105485491 (Simulation time: 0 hr 7 min 33 sec) 

Heartbeat CPU 0 instructions: 210000002 cycles: 114020637 heartbeat IPC: 1.17163 cumulative IPC: 1.17163 (Simulation time: 0 hr 8 min 1 sec) 
Heartbeat CPU 0 instructions: 220000000 cycles: 122549189 heartbeat IPC: 1.17253 cumulative IPC: 1.17208 (Simulation time: 0 hr 8 min 28 sec) 
Heartbeat CPU 0 instructions: 230000001 cycles: 131217236 heartbeat IPC: 1.15366 cumulative IPC: 1.16588 (Simulation time: 0 hr 8 min 56 sec) 
Heartbeat CPU 0 instructions: 240000000 cycles: 139859642 heartbeat IPC: 1.15709 cumulative IPC: 1.16367 (Simulation time: 0 hr 9 min 24 sec) 
Heartbeat CPU 0 instructions: 250000001 cycles: 148369201 heartbeat IPC: 1.17515 cumulative IPC: 1.16594 (Simulation time: 0 hr 9 min 51 sec) 
Heartbeat CPU 0 instructions: 260000000 cycles: 156897486 heartbeat IPC: 1.17257 cumulative IPC: 1.16704 (Simulation time: 0 hr 10 min 19 sec) 
Heartbeat CPU 0 instructions: 270000003 cycles: 165534119 heartbeat IPC: 1.15786 cumulative IPC: 1.16572 (Simulation time: 0 hr 10 min 47 sec) 
Heartbeat CPU 0 instructions: 280000000 cycles: 174090711 heartbeat IPC: 1.16869 cumulative IPC: 1.16609 (Simulation time: 0 hr 11 min 14 sec) 
Heartbeat CPU 0 instructions: 290000003 cycles: 182674215 heartbeat IPC: 1.16503 cumulative IPC: 1.16597 (Simulation time: 0 hr 11 min 42 sec) 
Heartbeat CPU 0 instructions: 300000000 cycles: 191347082 heartbeat IPC: 1.15302 cumulative IPC: 1.16467 (Simulation time: 0 hr 12 min 9 sec) 
Heartbeat CPU 0 instructions: 310000001 cycles: 199891973 heartbeat IPC: 1.17029 cumulative IPC: 1.16517 (Simulation time: 0 hr 12 min 37 sec) 
Heartbeat CPU 0 instructions: 320000000 cycles: 208510306 heartbeat IPC: 1.16032 cumulative IPC: 1.16477 (Simulation time: 0 hr 13 min 5 sec) 
Heartbeat CPU 0 instructions: 330000002 cycles: 217124897 heartbeat IPC: 1.16082 cumulative IPC: 1.16446 (Simulation time: 0 hr 13 min 32 sec) 
Heartbeat CPU 0 instructions: 340000000 cycles: 225675909 heartbeat IPC: 1.16945 cumulative IPC: 1.16482 (Simulation time: 0 hr 14 min 0 sec) 
Heartbeat CPU 0 instructions: 350000000 cycles: 234200381 heartbeat IPC: 1.17309 cumulative IPC: 1.16537 (Simulation time: 0 hr 14 min 27 sec) 
Heartbeat CPU 0 instructions: 360000000 cycles: 242774521 heartbeat IPC: 1.1663 cumulative IPC: 1.16542 (Simulation time: 0 hr 14 min 55 sec) 
Heartbeat CPU 0 instructions: 370000000 cycles: 251323495 heartbeat IPC: 1.16973 cumulative IPC: 1.16568 (Simulation time: 0 hr 15 min 23 sec) 
Heartbeat CPU 0 instructions: 380000000 cycles: 259843074 heartbeat IPC: 1.17377 cumulative IPC: 1.16612 (Simulation time: 0 hr 15 min 50 sec) 
Heartbeat CPU 0 instructions: 390000003 cycles: 268405904 heartbeat IPC: 1.16784 cumulative IPC: 1.16621 (Simulation time: 0 hr 16 min 18 sec) 
Heartbeat CPU 0 instructions: 400000000 cycles: 277005363 heartbeat IPC: 1.16286 cumulative IPC: 1.16605 (Simulation time: 0 hr 16 min 45 sec) 
Heartbeat CPU 0 instructions: 410000000 cycles: 285561166 heartbeat IPC: 1.1688 cumulative IPC: 1.16618 (Simulation time: 0 hr 17 min 13 sec) 
Heartbeat CPU 0 instructions: 420000000 cycles: 294245900 heartbeat IPC: 1.15145 cumulative IPC: 1.1655 (Simulation time: 0 hr 17 min 40 sec) 
Heartbeat CPU 0 instructions: 430000000 cycles: 302827476 heartbeat IPC: 1.16529 cumulative IPC: 1.16549 (Simulation time: 0 hr 18 min 8 sec) 
Heartbeat CPU 0 instructions: 440000000 cycles: 311410029 heartbeat IPC: 1.16515 cumulative IPC: 1.16548 (Simulation time: 0 hr 18 min 36 sec) 
Heartbeat CPU 0 instructions: 450000002 cycles: 320033711 heartbeat IPC: 1.1596 cumulative IPC: 1.16524 (Simulation time: 0 hr 19 min 3 sec) 
Heartbeat CPU 0 instructions: 460000000 cycles: 328567138 heartbeat IPC: 1.17186 cumulative IPC: 1.16549 (Simulation time: 0 hr 19 min 31 sec) 
Heartbeat CPU 0 instructions: 470000000 cycles: 337121080 heartbeat IPC: 1.16905 cumulative IPC: 1.16562 (Simulation time: 0 hr 19 min 58 sec) 
Heartbeat CPU 0 instructions: 480000000 cycles: 345697427 heartbeat IPC: 1.166 cumulative IPC: 1.16564 (Simulation time: 0 hr 20 min 26 sec) 
Heartbeat CPU 0 instructions: 490000001 cycles: 354245049 heartbeat IPC: 1.16992 cumulative IPC: 1.16578 (Simulation time: 0 hr 20 min 53 sec) 
Heartbeat CPU 0 instructions: 500000000 cycles: 362772484 heartbeat IPC: 1.17269 cumulative IPC: 1.16601 (Simulation time: 0 hr 21 min 21 sec) 
Heartbeat CPU 0 instructions: 510000001 cycles: 371405614 heartbeat IPC: 1.15833 cumulative IPC: 1.16576 (Simulation time: 0 hr 21 min 49 sec) 
Heartbeat CPU 0 instructions: 520000000 cycles: 379980273 heartbeat IPC: 1.16623 cumulative IPC: 1.16578 (Simulation time: 0 hr 22 min 16 sec) 
Heartbeat CPU 0 instructions: 530000002 cycles: 388597528 heartbeat IPC: 1.16046 cumulative IPC: 1.16562 (Simulation time: 0 hr 22 min 44 sec) 
Heartbeat CPU 0 instructions: 540000000 cycles: 397154510 heartbeat IPC: 1.16864 cumulative IPC: 1.1657 (Simulation time: 0 hr 23 min 11 sec) 
Heartbeat CPU 0 instructions: 550000000 cycles: 405745316 heartbeat IPC: 1.16404 cumulative IPC: 1.16566 (Simulation time: 0 hr 23 min 39 sec) 
Heartbeat CPU 0 instructions: 560000000 cycles: 414308355 heartbeat IPC: 1.16781 cumulative IPC: 1.16572 (Simulation time: 0 hr 24 min 7 sec) 
Heartbeat CPU 0 instructions: 570000003 cycles: 422853383 heartbeat IPC: 1.17027 cumulative IPC: 1.16584 (Simulation time: 0 hr 24 min 34 sec) 
Heartbeat CPU 0 instructions: 580000000 cycles: 431425673 heartbeat IPC: 1.16655 cumulative IPC: 1.16586 (Simulation time: 0 hr 25 min 2 sec) 
Heartbeat CPU 0 instructions: 590000003 cycles: 440101187 heartbeat IPC: 1.15267 cumulative IPC: 1.16552 (Simulation time: 0 hr 25 min 30 sec) 
Heartbeat CPU 0 instructions: 600000000 cycles: 448687647 heartbeat IPC: 1.16462 cumulative IPC: 1.16549 (Simulation time: 0 hr 25 min 57 sec) 
Heartbeat CPU 0 instructions: 610000002 cycles: 457322947 heartbeat IPC: 1.15804 cumulative IPC: 1.16531 (Simulation time: 0 hr 26 min 25 sec) 
Heartbeat CPU 0 instructions: 620000000 cycles: 465898057 heartbeat IPC: 1.16617 cumulative IPC: 1.16533 (Simulation time: 0 hr 26 min 52 sec) 
Heartbeat CPU 0 instructions: 630000000 cycles: 474477466 heartbeat IPC: 1.16558 cumulative IPC: 1.16534 (Simulation time: 0 hr 27 min 20 sec) 
Heartbeat CPU 0 instructions: 640000000 cycles: 483029715 heartbeat IPC: 1.16928 cumulative IPC: 1.16543 (Simulation time: 0 hr 27 min 48 sec) 
Heartbeat CPU 0 instructions: 650000002 cycles: 491565878 heartbeat IPC: 1.17149 cumulative IPC: 1.16556 (Simulation time: 0 hr 28 min 15 sec) 
Heartbeat CPU 0 instructions: 660000000 cycles: 500100655 heartbeat IPC: 1.17168 cumulative IPC: 1.16569 (Simulation time: 0 hr 28 min 43 sec) 
Heartbeat CPU 0 instructions: 670000003 cycles: 508567065 heartbeat IPC: 1.18114 cumulative IPC: 1.16602 (Simulation time: 0 hr 29 min 10 sec) 
Heartbeat CPU 0 instructions: 680000000 cycles: 517158067 heartbeat IPC: 1.16401 cumulative IPC: 1.16598 (Simulation time: 0 hr 29 min 38 sec) 
Heartbeat CPU 0 instructions: 690000002 cycles: 525758723 heartbeat IPC: 1.1627 cumulative IPC: 1.16591 (Simulation time: 0 hr 30 min 5 sec) 
Heartbeat CPU 0 instructions: 700000000 cycles: 534386655 heartbeat IPC: 1.15903 cumulative IPC: 1.16577 (Simulation time: 0 hr 30 min 33 sec) 
Heartbeat CPU 0 instructions: 710000002 cycles: 543018362 heartbeat IPC: 1.15852 cumulative IPC: 1.16563 (Simulation time: 0 hr 31 min 1 sec) 
Heartbeat CPU 0 instructions: 720000000 cycles: 551616926 heartbeat IPC: 1.16298 cumulative IPC: 1.16558 (Simulation time: 0 hr 31 min 28 sec) 
Heartbeat CPU 0 instructions: 730000002 cycles: 560178931 heartbeat IPC: 1.16795 cumulative IPC: 1.16562 (Simulation time: 0 hr 31 min 56 sec) 
Heartbeat CPU 0 instructions: 740000000 cycles: 568658366 heartbeat IPC: 1.17932 cumulative IPC: 1.16587 (Simulation time: 0 hr 32 min 23 sec) 
Heartbeat CPU 0 instructions: 750000000 cycles: 577204291 heartbeat IPC: 1.17015 cumulative IPC: 1.16595 (Simulation time: 0 hr 32 min 51 sec) 
Heartbeat CPU 0 instructions: 760000000 cycles: 585732771 heartbeat IPC: 1.17254 cumulative IPC: 1.16607 (Simulation time: 0 hr 33 min 18 sec) 
Heartbeat CPU 0 instructions: 770000000 cycles: 594303268 heartbeat IPC: 1.16679 cumulative IPC: 1.16608 (Simulation time: 0 hr 33 min 46 sec) 
Heartbeat CPU 0 instructions: 780000000 cycles: 602839414 heartbeat IPC: 1.17149 cumulative IPC: 1.16617 (Simulation time: 0 hr 34 min 13 sec) 
Heartbeat CPU 0 instructions: 790000001 cycles: 611367491 heartbeat IPC: 1.1726 cumulative IPC: 1.16628 (Simulation time: 0 hr 34 min 41 sec) 
Heartbeat CPU 0 instructions: 800000000 cycles: 619842801 heartbeat IPC: 1.1799 cumulative IPC: 1.1665 (Simulation time: 0 hr 35 min 9 sec) 
Heartbeat CPU 0 instructions: 810000003 cycles: 628475281 heartbeat IPC: 1.15842 cumulative IPC: 1.16637 (Simulation time: 0 hr 35 min 36 sec) 
Heartbeat CPU 0 instructions: 820000000 cycles: 637125513 heartbeat IPC: 1.15604 cumulative IPC: 1.1662 (Simulation time: 0 hr 36 min 4 sec) 
Heartbeat CPU 0 instructions: 830000001 cycles: 645735761 heartbeat IPC: 1.16141 cumulative IPC: 1.16613 (Simulation time: 0 hr 36 min 31 sec) 
Heartbeat CPU 0 instructions: 840000000 cycles: 654229994 heartbeat IPC: 1.17727 cumulative IPC: 1.1663 (Simulation time: 0 hr 36 min 59 sec) 
Heartbeat CPU 0 instructions: 850000002 cycles: 662800014 heartbeat IPC: 1.16686 cumulative IPC: 1.16631 (Simulation time: 0 hr 37 min 26 sec) 
Heartbeat CPU 0 instructions: 860000000 cycles: 671385389 heartbeat IPC: 1.16477 cumulative IPC: 1.16628 (Simulation time: 0 hr 37 min 54 sec) 
Heartbeat CPU 0 instructions: 870000000 cycles: 679984126 heartbeat IPC: 1.16296 cumulative IPC: 1.16623 (Simulation time: 0 hr 38 min 22 sec) 
Heartbeat CPU 0 instructions: 880000000 cycles: 688474175 heartbeat IPC: 1.17785 cumulative IPC: 1.1664 (Simulation time: 0 hr 38 min 49 sec) 
Heartbeat CPU 0 instructions: 890000003 cycles: 697013163 heartbeat IPC: 1.1711 cumulative IPC: 1.16647 (Simulation time: 0 hr 39 min 17 sec) 
Heartbeat CPU 0 instructions: 900000000 cycles: 705530338 heartbeat IPC: 1.1741 cumulative IPC: 1.16658 (Simulation time: 0 hr 39 min 44 sec) 
Heartbeat CPU 0 instructions: 910000001 cycles: 714111661 heartbeat IPC: 1.16532 cumulative IPC: 1.16656 (Simulation time: 0 hr 40 min 12 sec) 
Heartbeat CPU 0 instructions: 920000000 cycles: 722730879 heartbeat IPC: 1.1602 cumulative IPC: 1.16647 (Simulation time: 0 hr 40 min 39 sec) 
Heartbeat CPU 0 instructions: 930000003 cycles: 731369675 heartbeat IPC: 1.15757 cumulative IPC: 1.16635 (Simulation time: 0 hr 41 min 7 sec) 
Heartbeat CPU 0 instructions: 940000000 cycles: 739921258 heartbeat IPC: 1.16937 cumulative IPC: 1.16639 (Simulation time: 0 hr 41 min 35 sec) 
Heartbeat CPU 0 instructions: 950000001 cycles: 748567439 heartbeat IPC: 1.15658 cumulative IPC: 1.16626 (Simulation time: 0 hr 42 min 2 sec) 
Heartbeat CPU 0 instructions: 960000000 cycles: 757133466 heartbeat IPC: 1.1674 cumulative IPC: 1.16627 (Simulation time: 0 hr 42 min 30 sec) 
Heartbeat CPU 0 instructions: 970000002 cycles: 765647271 heartbeat IPC: 1.17456 cumulative IPC: 1.16638 (Simulation time: 0 hr 42 min 57 sec) 
Heartbeat CPU 0 instructions: 980000000 cycles: 774240366 heartbeat IPC: 1.16372 cumulative IPC: 1.16635 (Simulation time: 0 hr 43 min 25 sec) 
Heartbeat CPU 0 instructions: 990000001 cycles: 782755470 heartbeat IPC: 1.17438 cumulative IPC: 1.16645 (Simulation time: 0 hr 43 min 52 sec) 
Heartbeat CPU 0 instructions: 1000000000 cycles: 791346871 heartbeat IPC: 1.16395 cumulative IPC: 1.16642 (Simulation time: 0 hr 44 min 20 sec) 
Heartbeat CPU 0 instructions: 1010000003 cycles: 799916479 heartbeat IPC: 1.16691 cumulative IPC: 1.16642 (Simulation time: 0 hr 44 min 47 sec) 
Heartbeat CPU 0 instructions: 1020000000 cycles: 808420969 heartbeat IPC: 1.17585 cumulative IPC: 1.16654 (Simulation time: 0 hr 45 min 15 sec) 
Heartbeat CPU 0 instructions: 1030000002 cycles: 816972962 heartbeat IPC: 1.16932 cumulative IPC: 1.16657 (Simulation time: 0 hr 45 min 43 sec) 
Heartbeat CPU 0 instructions: 1040000000 cycles: 825605540 heartbeat IPC: 1.1584 cumulative IPC: 1.16647 (Simulation time: 0 hr 46 min 10 sec) 
Heartbeat CPU 0 instructions: 1050000002 cycles: 834136639 heartbeat IPC: 1.17218 cumulative IPC: 1.16654 (Simulation time: 0 hr 46 min 38 sec) 
Heartbeat CPU 0 instructions: 1060000000 cycles: 842734538 heartbeat IPC: 1.16307 cumulative IPC: 1.1665 (Simulation time: 0 hr 47 min 5 sec) 
Heartbeat CPU 0 instructions: 1070000000 cycles: 851241243 heartbeat IPC: 1.17554 cumulative IPC: 1.1666 (Simulation time: 0 hr 47 min 33 sec) 
Heartbeat CPU 0 instructions: 1080000000 cycles: 859744096 heartbeat IPC: 1.17608 cumulative IPC: 1.16671 (Simulation time: 0 hr 48 min 0 sec) 
Heartbeat CPU 0 instructions: 1090000003 cycles: 868289070 heartbeat IPC: 1.17028 cumulative IPC: 1.16675 (Simulation time: 0 hr 48 min 28 sec) 
Heartbeat CPU 0 instructions: 1100000000 cycles: 876824524 heartbeat IPC: 1.17158 cumulative IPC: 1.1668 (Simulation time: 0 hr 48 min 56 sec) 
Heartbeat CPU 0 instructions: 1110000001 cycles: 885365802 heartbeat IPC: 1.17079 cumulative IPC: 1.16685 (Simulation time: 0 hr 49 min 23 sec) 
Heartbeat CPU 0 instructions: 1120000000 cycles: 893998198 heartbeat IPC: 1.15843 cumulative IPC: 1.16675 (Simulation time: 0 hr 49 min 51 sec) 
Heartbeat CPU 0 instructions: 1130000003 cycles: 902591497 heartbeat IPC: 1.1637 cumulative IPC: 1.16672 (Simulation time: 0 hr 50 min 18 sec) 
Heartbeat CPU 0 instructions: 1140000000 cycles: 911241946 heartbeat IPC: 1.15601 cumulative IPC: 1.16661 (Simulation time: 0 hr 50 min 46 sec) 
Heartbeat CPU 0 instructions: 1150000000 cycles: 919871255 heartbeat IPC: 1.15884 cumulative IPC: 1.16652 (Simulation time: 0 hr 51 min 14 sec) 
Heartbeat CPU 0 instructions: 1160000000 cycles: 928354239 heartbeat IPC: 1.17883 cumulative IPC: 1.16665 (Simulation time: 0 hr 51 min 41 sec) 
Heartbeat CPU 0 instructions: 1170000003 cycles: 936897369 heartbeat IPC: 1.17053 cumulative IPC: 1.16669 (Simulation time: 0 hr 52 min 9 sec) 
Heartbeat CPU 0 instructions: 1180000000 cycles: 945361110 heartbeat IPC: 1.18151 cumulative IPC: 1.16684 (Simulation time: 0 hr 52 min 36 sec) 
Heartbeat CPU 0 instructions: 1190000001 cycles: 953954741 heartbeat IPC: 1.16365 cumulative IPC: 1.16681 (Simulation time: 0 hr 53 min 4 sec) 
Heartbeat CPU 0 instructions: 1200000000 cycles: 962530867 heartbeat IPC: 1.16603 cumulative IPC: 1.1668 (Simulation time: 0 hr 53 min 32 sec) 
Finished CPU 0 instructions: 1000000000 cycles: 857045399 cumulative IPC: 1.1668 (Simulation time: 0 hr 53 min 32 sec) 

CPU 0 Branch Prediction Accuracy: 99.9709% MPKI: 0.007274

ChampSim completed all CPUs

Region of Interest Statistics

CPU 0 cumulative IPC: 1.1668 instructions: 1000000000 cycles: 857045399
L1D TOTAL     ACCESS:  382146716  HIT:  361353291  MISS:   20793425
L1D LOAD      ACCESS:  325945586  HIT:  305795199  MISS:   20150387
L1D RFO       ACCESS:   56201130  HIT:   55558092  MISS:     643038
L1D PREFETCH  ACCESS:          0  HIT:          0  MISS:          0
L1D WRITEBACK ACCESS:          0  HIT:          0  MISS:          0
L1D PREFETCH  REQUESTED:          0  ISSUED:          0  USEFUL:          0  USELESS:          0
L1I TOTAL     ACCESS:  247734166  HIT:  247734166  MISS:          0
L1I LOAD      ACCESS:  247734166  HIT:  247734166  MISS:          0
L1I RFO       ACCESS:          0  HIT:          0  MISS:          0
L1I PREFETCH  ACCESS:          0  HIT:          0  MISS:          0
L1I WRITEBACK ACCESS:          0  HIT:          0  MISS:          0
L1I PREFETCH  REQUESTED:          0  ISSUED:          0  USEFUL:          0  USELESS:          0
L2C TOTAL     ACCESS:   34607751  HIT:   15590703  MISS:   19017048
L2C LOAD      ACCESS:   20144472  HIT:   14673866  MISS:    5470606
L2C RFO       ACCESS:     630585  HIT:     143342  MISS:     487243
L2C PREFETCH  ACCESS:   13132716  HIT:      77853  MISS:   13054863
L2C WRITEBACK ACCESS:     699978  HIT:     695642  MISS:       4336
L2C PREFETCH  REQUESTED:   21092039  ISSUED:   21092039  USEFUL:   16577233  USELESS:        310
LLC TOTAL     ACCESS:   22500054  HIT:    3493022  MISS:   19007032
LLC LOAD      ACCESS:    4084989  HIT:    2976330  MISS:    1108659
LLC RFO       ACCESS:     487243  HIT:          0  MISS:     487243
LLC PREFETCH  ACCESS:   17435710  HIT:      27744  MISS:   17407966
LLC WRITEBACK ACCESS:     492112  HIT:     488948  MISS:       3164
LLC PREFETCH  REQUESTED:          0  ISSUED:          0  USEFUL:    2974128  USELESS:   17950042
Major fault: 0 Minor fault: 338312

L2C Best-offset prefetcher final stats

DRAM Statistics
 CHANNEL 0
 RQ ROW_BUFFER_HIT:   18009171  ROW_BUFFER_MISS:     994693
 DBUS_CONGESTED:    6689274
 WQ ROW_BUFFER_HIT:     307806  ROW_BUFFER_MISS:     182710  FULL:          0

 AVG_CONGESTED_CYCLE: 11
