
*** ChampSim Multicore Out-of-Order Simulator ***

Warmup Instructions: 200000000
Simulation Instructions: 1000000000
Number of CPUs: 1
LLC sets: 512
LLC ways: 16
Off-chip DRAM Size: 4096 MB Channels: 1 Width: 64-bit Data Rate: 1600 MT/s

CPU 0 runs /scratch/user/djimenez/champsim-traces/speccpu2017/xz/605.mcf_s/605.mcf_s-1644B.champsimtrace.xz
L2C Best-offset prefetcher
Heartbeat CPU 0 instructions: 10000002 cycles: 10546178 heartbeat IPC: 0.948211 cumulative IPC: 0.948211 (Simulation time: 0 hr 0 min 25 sec) 
Heartbeat CPU 0 instructions: 20000000 cycles: 21029144 heartbeat IPC: 0.953928 cumulative IPC: 0.951061 (Simulation time: 0 hr 0 min 51 sec) 
Heartbeat CPU 0 instructions: 30000003 cycles: 31645932 heartbeat IPC: 0.941905 cumulative IPC: 0.947989 (Simulation time: 0 hr 1 min 16 sec) 
Heartbeat CPU 0 instructions: 40000000 cycles: 42227828 heartbeat IPC: 0.94501 cumulative IPC: 0.947243 (Simulation time: 0 hr 1 min 40 sec) 
Heartbeat CPU 0 instructions: 50000001 cycles: 52793188 heartbeat IPC: 0.946489 cumulative IPC: 0.947092 (Simulation time: 0 hr 2 min 5 sec) 
Heartbeat CPU 0 instructions: 60000000 cycles: 63350776 heartbeat IPC: 0.947186 cumulative IPC: 0.947108 (Simulation time: 0 hr 2 min 30 sec) 
Heartbeat CPU 0 instructions: 70000000 cycles: 73900321 heartbeat IPC: 0.947908 cumulative IPC: 0.947222 (Simulation time: 0 hr 2 min 55 sec) 
Heartbeat CPU 0 instructions: 80000000 cycles: 84452654 heartbeat IPC: 0.947658 cumulative IPC: 0.947276 (Simulation time: 0 hr 3 min 21 sec) 
Heartbeat CPU 0 instructions: 90000003 cycles: 94974365 heartbeat IPC: 0.950416 cumulative IPC: 0.947624 (Simulation time: 0 hr 3 min 46 sec) 
Heartbeat CPU 0 instructions: 100000000 cycles: 105510191 heartbeat IPC: 0.949142 cumulative IPC: 0.947776 (Simulation time: 0 hr 4 min 11 sec) 
Heartbeat CPU 0 instructions: 110000002 cycles: 116050764 heartbeat IPC: 0.948715 cumulative IPC: 0.947861 (Simulation time: 0 hr 4 min 37 sec) 
Heartbeat CPU 0 instructions: 120000000 cycles: 126603011 heartbeat IPC: 0.947665 cumulative IPC: 0.947845 (Simulation time: 0 hr 5 min 2 sec) 
Heartbeat CPU 0 instructions: 130000000 cycles: 137177229 heartbeat IPC: 0.945696 cumulative IPC: 0.947679 (Simulation time: 0 hr 5 min 27 sec) 
Heartbeat CPU 0 instructions: 140000000 cycles: 147745141 heartbeat IPC: 0.946261 cumulative IPC: 0.947578 (Simulation time: 0 hr 5 min 51 sec) 
Heartbeat CPU 0 instructions: 150000001 cycles: 158271305 heartbeat IPC: 0.950014 cumulative IPC: 0.94774 (Simulation time: 0 hr 6 min 17 sec) 
Heartbeat CPU 0 instructions: 160000000 cycles: 168698572 heartbeat IPC: 0.959024 cumulative IPC: 0.948437 (Simulation time: 0 hr 6 min 43 sec) 
Heartbeat CPU 0 instructions: 170000001 cycles: 179306826 heartbeat IPC: 0.942662 cumulative IPC: 0.948096 (Simulation time: 0 hr 7 min 7 sec) 
Heartbeat CPU 0 instructions: 180000000 cycles: 189892195 heartbeat IPC: 0.9447 cumulative IPC: 0.947906 (Simulation time: 0 hr 7 min 32 sec) 
Heartbeat CPU 0 instructions: 190000000 cycles: 200464105 heartbeat IPC: 0.945903 cumulative IPC: 0.947801 (Simulation time: 0 hr 7 min 57 sec) 
Heartbeat CPU 0 instructions: 200000000 cycles: 211054741 heartbeat IPC: 0.94423 cumulative IPC: 0.947621 (Simulation time: 0 hr 8 min 21 sec) 

Warmup complete CPU 0 instructions: 200000004 cycles: 211054746 (Simulation time: 0 hr 8 min 21 sec) 

Heartbeat CPU 0 instructions: 210000000 cycles: 284179523 heartbeat IPC: 0.136753 cumulative IPC: 0.136753 (Simulation time: 0 hr 9 min 23 sec) 
Heartbeat CPU 0 instructions: 220000000 cycles: 357392205 heartbeat IPC: 0.136588 cumulative IPC: 0.13667 (Simulation time: 0 hr 10 min 24 sec) 
Heartbeat CPU 0 instructions: 230000000 cycles: 430059946 heartbeat IPC: 0.137613 cumulative IPC: 0.136983 (Simulation time: 0 hr 11 min 25 sec) 
Heartbeat CPU 0 instructions: 240000000 cycles: 503389284 heartbeat IPC: 0.136371 cumulative IPC: 0.13683 (Simulation time: 0 hr 12 min 27 sec) 
Heartbeat CPU 0 instructions: 250000002 cycles: 577137940 heartbeat IPC: 0.135596 cumulative IPC: 0.136581 (Simulation time: 0 hr 13 min 27 sec) 
Heartbeat CPU 0 instructions: 260000000 cycles: 650421146 heartbeat IPC: 0.136457 cumulative IPC: 0.13656 (Simulation time: 0 hr 14 min 29 sec) 
Heartbeat CPU 0 instructions: 270000002 cycles: 724734413 heartbeat IPC: 0.134566 cumulative IPC: 0.136272 (Simulation time: 0 hr 15 min 30 sec) 
Heartbeat CPU 0 instructions: 280000000 cycles: 798408359 heartbeat IPC: 0.135733 cumulative IPC: 0.136204 (Simulation time: 0 hr 16 min 31 sec) 
Heartbeat CPU 0 instructions: 290000000 cycles: 871616125 heartbeat IPC: 0.136598 cumulative IPC: 0.136248 (Simulation time: 0 hr 17 min 33 sec) 
Heartbeat CPU 0 instructions: 300000000 cycles: 944817958 heartbeat IPC: 0.136609 cumulative IPC: 0.136284 (Simulation time: 0 hr 18 min 35 sec) 
Heartbeat CPU 0 instructions: 310000000 cycles: 1019601180 heartbeat IPC: 0.13372 cumulative IPC: 0.136047 (Simulation time: 0 hr 19 min 36 sec) 
Heartbeat CPU 0 instructions: 320000000 cycles: 1092778585 heartbeat IPC: 0.136654 cumulative IPC: 0.136097 (Simulation time: 0 hr 20 min 38 sec) 
Heartbeat CPU 0 instructions: 330000002 cycles: 1166782274 heartbeat IPC: 0.135128 cumulative IPC: 0.136022 (Simulation time: 0 hr 21 min 39 sec) 
Heartbeat CPU 0 instructions: 340000000 cycles: 1240891980 heartbeat IPC: 0.134935 cumulative IPC: 0.135944 (Simulation time: 0 hr 22 min 40 sec) 
Heartbeat CPU 0 instructions: 350000000 cycles: 1315271207 heartbeat IPC: 0.134446 cumulative IPC: 0.135843 (Simulation time: 0 hr 23 min 42 sec) 
Heartbeat CPU 0 instructions: 360000000 cycles: 1388824281 heartbeat IPC: 0.135956 cumulative IPC: 0.13585 (Simulation time: 0 hr 24 min 42 sec) 
Heartbeat CPU 0 instructions: 370000000 cycles: 1462143395 heartbeat IPC: 0.13639 cumulative IPC: 0.135882 (Simulation time: 0 hr 25 min 43 sec) 
Heartbeat CPU 0 instructions: 380000000 cycles: 1534974930 heartbeat IPC: 0.137303 cumulative IPC: 0.13596 (Simulation time: 0 hr 26 min 42 sec) 
Heartbeat CPU 0 instructions: 390000002 cycles: 1608232690 heartbeat IPC: 0.136504 cumulative IPC: 0.135988 (Simulation time: 0 hr 27 min 42 sec) 
Heartbeat CPU 0 instructions: 400000000 cycles: 1678566365 heartbeat IPC: 0.142179 cumulative IPC: 0.136285 (Simulation time: 0 hr 28 min 40 sec) 
Heartbeat CPU 0 instructions: 410000000 cycles: 1747439452 heartbeat IPC: 0.145195 cumulative IPC: 0.136685 (Simulation time: 0 hr 29 min 37 sec) 
Heartbeat CPU 0 instructions: 420000000 cycles: 1817778270 heartbeat IPC: 0.142169 cumulative IPC: 0.136925 (Simulation time: 0 hr 30 min 35 sec) 
Heartbeat CPU 0 instructions: 430000003 cycles: 1888358675 heartbeat IPC: 0.141682 cumulative IPC: 0.137125 (Simulation time: 0 hr 31 min 35 sec) 
Heartbeat CPU 0 instructions: 440000000 cycles: 1959447004 heartbeat IPC: 0.14067 cumulative IPC: 0.137269 (Simulation time: 0 hr 32 min 35 sec) 
Heartbeat CPU 0 instructions: 450000003 cycles: 2028656224 heartbeat IPC: 0.144489 cumulative IPC: 0.137544 (Simulation time: 0 hr 33 min 28 sec) 
Heartbeat CPU 0 instructions: 460000000 cycles: 2089545650 heartbeat IPC: 0.164232 cumulative IPC: 0.138409 (Simulation time: 0 hr 34 min 24 sec) 
Heartbeat CPU 0 instructions: 470000002 cycles: 2123472815 heartbeat IPC: 0.294749 cumulative IPC: 0.141183 (Simulation time: 0 hr 35 min 11 sec) 
Heartbeat CPU 0 instructions: 480000000 cycles: 2157870786 heartbeat IPC: 0.290715 cumulative IPC: 0.143825 (Simulation time: 0 hr 35 min 59 sec) 
Heartbeat CPU 0 instructions: 490000001 cycles: 2184587363 heartbeat IPC: 0.374299 cumulative IPC: 0.146945 (Simulation time: 0 hr 36 min 38 sec) 
Heartbeat CPU 0 instructions: 500000000 cycles: 2209532213 heartbeat IPC: 0.400884 cumulative IPC: 0.150114 (Simulation time: 0 hr 37 min 16 sec) 
Heartbeat CPU 0 instructions: 510000000 cycles: 2237854096 heartbeat IPC: 0.353084 cumulative IPC: 0.152951 (Simulation time: 0 hr 37 min 57 sec) 
Heartbeat CPU 0 instructions: 520000000 cycles: 2264646232 heartbeat IPC: 0.373244 cumulative IPC: 0.155825 (Simulation time: 0 hr 38 min 36 sec) 
Heartbeat CPU 0 instructions: 530000000 cycles: 2289661668 heartbeat IPC: 0.399753 cumulative IPC: 0.15876 (Simulation time: 0 hr 39 min 14 sec) 
Heartbeat CPU 0 instructions: 540000000 cycles: 2313823150 heartbeat IPC: 0.413882 cumulative IPC: 0.161692 (Simulation time: 0 hr 39 min 50 sec) 
Heartbeat CPU 0 instructions: 550000000 cycles: 2339892452 heartbeat IPC: 0.383593 cumulative IPC: 0.164409 (Simulation time: 0 hr 40 min 29 sec) 
Heartbeat CPU 0 instructions: 560000000 cycles: 2364242570 heartbeat IPC: 0.410676 cumulative IPC: 0.167194 (Simulation time: 0 hr 41 min 6 sec) 
Heartbeat CPU 0 instructions: 570000000 cycles: 2389547799 heartbeat IPC: 0.395175 cumulative IPC: 0.169842 (Simulation time: 0 hr 41 min 43 sec) 
Heartbeat CPU 0 instructions: 580000000 cycles: 2413456024 heartbeat IPC: 0.418266 cumulative IPC: 0.172539 (Simulation time: 0 hr 42 min 18 sec) 
Heartbeat CPU 0 instructions: 590000001 cycles: 2438276318 heartbeat IPC: 0.402896 cumulative IPC: 0.175106 (Simulation time: 0 hr 42 min 55 sec) 
Heartbeat CPU 0 instructions: 600000000 cycles: 2461777649 heartbeat IPC: 0.425508 cumulative IPC: 0.177721 (Simulation time: 0 hr 43 min 30 sec) 
Heartbeat CPU 0 instructions: 610000000 cycles: 2484598163 heartbeat IPC: 0.438202 cumulative IPC: 0.180335 (Simulation time: 0 hr 44 min 5 sec) 
Heartbeat CPU 0 instructions: 620000000 cycles: 2507994232 heartbeat IPC: 0.427422 cumulative IPC: 0.182852 (Simulation time: 0 hr 44 min 40 sec) 
Heartbeat CPU 0 instructions: 630000001 cycles: 2533334952 heartbeat IPC: 0.394622 cumulative IPC: 0.185163 (Simulation time: 0 hr 45 min 18 sec) 
Heartbeat CPU 0 instructions: 640000000 cycles: 2557255405 heartbeat IPC: 0.418052 cumulative IPC: 0.187537 (Simulation time: 0 hr 45 min 53 sec) 
Heartbeat CPU 0 instructions: 650000000 cycles: 2581174414 heartbeat IPC: 0.418078 cumulative IPC: 0.189864 (Simulation time: 0 hr 46 min 29 sec) 
Heartbeat CPU 0 instructions: 660000000 cycles: 2607156848 heartbeat IPC: 0.384875 cumulative IPC: 0.191978 (Simulation time: 0 hr 47 min 6 sec) 
Heartbeat CPU 0 instructions: 670000001 cycles: 2632088726 heartbeat IPC: 0.401093 cumulative IPC: 0.194132 (Simulation time: 0 hr 47 min 42 sec) 
Heartbeat CPU 0 instructions: 680000000 cycles: 2656813101 heartbeat IPC: 0.404459 cumulative IPC: 0.196258 (Simulation time: 0 hr 48 min 18 sec) 
Heartbeat CPU 0 instructions: 690000002 cycles: 2680253173 heartbeat IPC: 0.42662 cumulative IPC: 0.198445 (Simulation time: 0 hr 48 min 52 sec) 
Heartbeat CPU 0 instructions: 700000000 cycles: 2704202751 heartbeat IPC: 0.417544 cumulative IPC: 0.20055 (Simulation time: 0 hr 49 min 27 sec) 
Heartbeat CPU 0 instructions: 710000000 cycles: 2727457724 heartbeat IPC: 0.430016 cumulative IPC: 0.20267 (Simulation time: 0 hr 50 min 2 sec) 
Heartbeat CPU 0 instructions: 720000000 cycles: 2752396061 heartbeat IPC: 0.400989 cumulative IPC: 0.204616 (Simulation time: 0 hr 50 min 37 sec) 
Heartbeat CPU 0 instructions: 730000001 cycles: 2777597129 heartbeat IPC: 0.396809 cumulative IPC: 0.206504 (Simulation time: 0 hr 51 min 13 sec) 
Heartbeat CPU 0 instructions: 740000000 cycles: 2801770845 heartbeat IPC: 0.413672 cumulative IPC: 0.208437 (Simulation time: 0 hr 51 min 48 sec) 
Heartbeat CPU 0 instructions: 750000000 cycles: 2825910011 heartbeat IPC: 0.414265 cumulative IPC: 0.210337 (Simulation time: 0 hr 52 min 22 sec) 
Heartbeat CPU 0 instructions: 760000000 cycles: 2854938276 heartbeat IPC: 0.344492 cumulative IPC: 0.21181 (Simulation time: 0 hr 52 min 56 sec) 
Heartbeat CPU 0 instructions: 770000001 cycles: 2879183180 heartbeat IPC: 0.412458 cumulative IPC: 0.213633 (Simulation time: 0 hr 53 min 28 sec) 
Heartbeat CPU 0 instructions: 780000000 cycles: 2904054329 heartbeat IPC: 0.402072 cumulative IPC: 0.215373 (Simulation time: 0 hr 54 min 0 sec) 
Heartbeat CPU 0 instructions: 790000003 cycles: 2928784787 heartbeat IPC: 0.40436 cumulative IPC: 0.217093 (Simulation time: 0 hr 54 min 33 sec) 
Heartbeat CPU 0 instructions: 800000000 cycles: 2953079129 heartbeat IPC: 0.411618 cumulative IPC: 0.218816 (Simulation time: 0 hr 55 min 5 sec) 
Heartbeat CPU 0 instructions: 810000000 cycles: 2977937367 heartbeat IPC: 0.402281 cumulative IPC: 0.220465 (Simulation time: 0 hr 55 min 38 sec) 
Heartbeat CPU 0 instructions: 820000000 cycles: 3002673656 heartbeat IPC: 0.404264 cumulative IPC: 0.222093 (Simulation time: 0 hr 56 min 10 sec) 
Heartbeat CPU 0 instructions: 830000001 cycles: 3027023370 heartbeat IPC: 0.410682 cumulative IPC: 0.223724 (Simulation time: 0 hr 56 min 43 sec) 
Heartbeat CPU 0 instructions: 840000000 cycles: 3051882969 heartbeat IPC: 0.402259 cumulative IPC: 0.225286 (Simulation time: 0 hr 57 min 15 sec) 
Heartbeat CPU 0 instructions: 850000000 cycles: 3076730248 heartbeat IPC: 0.402459 cumulative IPC: 0.226823 (Simulation time: 0 hr 57 min 48 sec) 
Heartbeat CPU 0 instructions: 860000000 cycles: 3101464677 heartbeat IPC: 0.404295 cumulative IPC: 0.228341 (Simulation time: 0 hr 58 min 21 sec) 
Heartbeat CPU 0 instructions: 870000000 cycles: 3125835940 heartbeat IPC: 0.410319 cumulative IPC: 0.229863 (Simulation time: 0 hr 58 min 53 sec) 
Heartbeat CPU 0 instructions: 880000000 cycles: 3150767131 heartbeat IPC: 0.401104 cumulative IPC: 0.231315 (Simulation time: 0 hr 59 min 25 sec) 
Heartbeat CPU 0 instructions: 890000003 cycles: 3175611661 heartbeat IPC: 0.402503 cumulative IPC: 0.23275 (Simulation time: 0 hr 59 min 58 sec) 
Heartbeat CPU 0 instructions: 900000000 cycles: 3200796024 heartbeat IPC: 0.397072 cumulative IPC: 0.234134 (Simulation time: 1 hr 0 min 31 sec) 
Heartbeat CPU 0 instructions: 910000003 cycles: 3225377735 heartbeat IPC: 0.406807 cumulative IPC: 0.235542 (Simulation time: 1 hr 1 min 3 sec) 
Heartbeat CPU 0 instructions: 920000000 cycles: 3250360065 heartbeat IPC: 0.400283 cumulative IPC: 0.236896 (Simulation time: 1 hr 1 min 35 sec) 
Heartbeat CPU 0 instructions: 930000000 cycles: 3275351044 heartbeat IPC: 0.400144 cumulative IPC: 0.238228 (Simulation time: 1 hr 2 min 7 sec) 
Heartbeat CPU 0 instructions: 940000000 cycles: 3300212661 heartbeat IPC: 0.402226 cumulative IPC: 0.239547 (Simulation time: 1 hr 2 min 40 sec) 
Heartbeat CPU 0 instructions: 950000003 cycles: 3324601619 heartbeat IPC: 0.410022 cumulative IPC: 0.240883 (Simulation time: 1 hr 3 min 12 sec) 
Heartbeat CPU 0 instructions: 960000000 cycles: 3349630296 heartbeat IPC: 0.399542 cumulative IPC: 0.242148 (Simulation time: 1 hr 3 min 44 sec) 
Heartbeat CPU 0 instructions: 970000000 cycles: 3374637018 heartbeat IPC: 0.399892 cumulative IPC: 0.243395 (Simulation time: 1 hr 4 min 17 sec) 
Heartbeat CPU 0 instructions: 980000000 cycles: 3399643208 heartbeat IPC: 0.399901 cumulative IPC: 0.244622 (Simulation time: 1 hr 4 min 49 sec) 
Heartbeat CPU 0 instructions: 990000000 cycles: 3424632792 heartbeat IPC: 0.400167 cumulative IPC: 0.245832 (Simulation time: 1 hr 5 min 22 sec) 
Heartbeat CPU 0 instructions: 1000000000 cycles: 3449046920 heartbeat IPC: 0.409599 cumulative IPC: 0.247067 (Simulation time: 1 hr 5 min 54 sec) 
Heartbeat CPU 0 instructions: 1010000001 cycles: 3474104647 heartbeat IPC: 0.399079 cumulative IPC: 0.248234 (Simulation time: 1 hr 6 min 26 sec) 
Heartbeat CPU 0 instructions: 1020000000 cycles: 3499189948 heartbeat IPC: 0.39864 cumulative IPC: 0.249381 (Simulation time: 1 hr 6 min 59 sec) 
Heartbeat CPU 0 instructions: 1030000001 cycles: 3524275519 heartbeat IPC: 0.398636 cumulative IPC: 0.250512 (Simulation time: 1 hr 7 min 31 sec) 
Heartbeat CPU 0 instructions: 1040000000 cycles: 3549146655 heartbeat IPC: 0.402072 cumulative IPC: 0.251641 (Simulation time: 1 hr 8 min 4 sec) 
Heartbeat CPU 0 instructions: 1050000000 cycles: 3573731324 heartbeat IPC: 0.406758 cumulative IPC: 0.252775 (Simulation time: 1 hr 8 min 36 sec) 
Heartbeat CPU 0 instructions: 1060000000 cycles: 3598654028 heartbeat IPC: 0.401241 cumulative IPC: 0.253867 (Simulation time: 1 hr 9 min 8 sec) 
Heartbeat CPU 0 instructions: 1070000002 cycles: 3623913300 heartbeat IPC: 0.395894 cumulative IPC: 0.254918 (Simulation time: 1 hr 9 min 41 sec) 
Heartbeat CPU 0 instructions: 1080000000 cycles: 3648535964 heartbeat IPC: 0.40613 cumulative IPC: 0.256001 (Simulation time: 1 hr 10 min 13 sec) 
Heartbeat CPU 0 instructions: 1090000003 cycles: 3673720412 heartbeat IPC: 0.397071 cumulative IPC: 0.257027 (Simulation time: 1 hr 10 min 45 sec) 
Heartbeat CPU 0 instructions: 1100000000 cycles: 3698933040 heartbeat IPC: 0.396627 cumulative IPC: 0.258037 (Simulation time: 1 hr 11 min 17 sec) 
Heartbeat CPU 0 instructions: 1110000003 cycles: 3724002294 heartbeat IPC: 0.398895 cumulative IPC: 0.259042 (Simulation time: 1 hr 11 min 49 sec) 
Heartbeat CPU 0 instructions: 1120000000 cycles: 3748772535 heartbeat IPC: 0.40371 cumulative IPC: 0.260055 (Simulation time: 1 hr 12 min 21 sec) 
Heartbeat CPU 0 instructions: 1130000002 cycles: 3774000736 heartbeat IPC: 0.396382 cumulative IPC: 0.26102 (Simulation time: 1 hr 12 min 53 sec) 
Heartbeat CPU 0 instructions: 1140000000 cycles: 3799330255 heartbeat IPC: 0.394796 cumulative IPC: 0.261964 (Simulation time: 1 hr 13 min 25 sec) 
Heartbeat CPU 0 instructions: 1150000000 cycles: 3823958298 heartbeat IPC: 0.406041 cumulative IPC: 0.262946 (Simulation time: 1 hr 13 min 57 sec) 
Heartbeat CPU 0 instructions: 1160000000 cycles: 3849097161 heartbeat IPC: 0.39779 cumulative IPC: 0.263878 (Simulation time: 1 hr 14 min 29 sec) 
Heartbeat CPU 0 instructions: 1170000001 cycles: 3874133611 heartbeat IPC: 0.399418 cumulative IPC: 0.264805 (Simulation time: 1 hr 15 min 1 sec) 
Heartbeat CPU 0 instructions: 1180000000 cycles: 3899109085 heartbeat IPC: 0.400393 cumulative IPC: 0.265723 (Simulation time: 1 hr 15 min 34 sec) 
Heartbeat CPU 0 instructions: 1190000003 cycles: 3923691448 heartbeat IPC: 0.406796 cumulative IPC: 0.266657 (Simulation time: 1 hr 16 min 6 sec) 
Heartbeat CPU 0 instructions: 1200000000 cycles: 3948795128 heartbeat IPC: 0.398348 cumulative IPC: 0.267541 (Simulation time: 1 hr 16 min 38 sec) 
Finished CPU 0 instructions: 1000000000 cycles: 3737740411 cumulative IPC: 0.267541 (Simulation time: 1 hr 16 min 38 sec) 

CPU 0 Branch Prediction Accuracy: 96.2127% MPKI: 6.05657

ChampSim completed all CPUs

Region of Interest Statistics

CPU 0 cumulative IPC: 0.267541 instructions: 1000000000 cycles: 3737740411
L1D TOTAL     ACCESS:  435204826  HIT:  388151675  MISS:   47053151
L1D LOAD      ACCESS:  313176682  HIT:  280028338  MISS:   33148344
L1D RFO       ACCESS:  122028144  HIT:  108123337  MISS:   13904807
L1D PREFETCH  ACCESS:          0  HIT:          0  MISS:          0
L1D WRITEBACK ACCESS:          0  HIT:          0  MISS:          0
L1D PREFETCH  REQUESTED:          0  ISSUED:          0  USEFUL:          0  USELESS:          0
L1I TOTAL     ACCESS:  288791758  HIT:  288791532  MISS:        226
L1I LOAD      ACCESS:  288791758  HIT:  288791532  MISS:        226
L1I RFO       ACCESS:          0  HIT:          0  MISS:          0
L1I PREFETCH  ACCESS:          0  HIT:          0  MISS:          0
L1I WRITEBACK ACCESS:          0  HIT:          0  MISS:          0
L1I PREFETCH  REQUESTED:          0  ISSUED:          0  USEFUL:          0  USELESS:          0
L2C TOTAL     ACCESS:   92459526  HIT:   50004549  MISS:   42454977
L2C LOAD      ACCESS:   33148337  HIT:   20685221  MISS:   12463116
L2C RFO       ACCESS:   13904710  HIT:     830939  MISS:   13073771
L2C PREFETCH  ACCESS:   19366823  HIT:    2459195  MISS:   16907628
L2C WRITEBACK ACCESS:   26039656  HIT:   26029194  MISS:      10462
L2C PREFETCH  REQUESTED:   27828348  ISSUED:   27828348  USEFUL:   14588719  USELESS:    9649258
LLC TOTAL     ACCESS:   66901264  HIT:   27447165  MISS:   39454099
LLC LOAD      ACCESS:   12256375  HIT:    2045985  MISS:   10210390
LLC RFO       ACCESS:   13073651  HIT:     705861  MISS:   12367790
LLC PREFETCH  ACCESS:   17398555  HIT:     872779  MISS:   16525776
LLC WRITEBACK ACCESS:   24172683  HIT:   23822540  MISS:     350143
LLC PREFETCH  REQUESTED:          0  ISSUED:          0  USEFUL:     554971  USELESS:   23031882
Major fault: 0 Minor fault: 401622

L2C Best-offset prefetcher final stats

DRAM Statistics
 CHANNEL 0
 RQ ROW_BUFFER_HIT:   13516551  ROW_BUFFER_MISS:   25532937
 DBUS_CONGESTED:   39984029
 WQ ROW_BUFFER_HIT:    7045971  ROW_BUFFER_MISS:   15894535  FULL:          0

 AVG_CONGESTED_CYCLE: 13
