
*** ChampSim Multicore Out-of-Order Simulator ***

Warmup Instructions: 200000000
Simulation Instructions: 1000000000
Number of CPUs: 1
LLC sets: 512
LLC ways: 16
Off-chip DRAM Size: 4096 MB Channels: 1 Width: 64-bit Data Rate: 1600 MT/s

CPU 0 runs /scratch/user/djimenez/champsim-traces/speccpu2017/xz/605.mcf_s/605.mcf_s-994B.champsimtrace.xz
L2C Best-offset prefetcher
Heartbeat CPU 0 instructions: 10000000 cycles: 5625101 heartbeat IPC: 1.77775 cumulative IPC: 1.77775 (Simulation time: 0 hr 0 min 14 sec) 
Heartbeat CPU 0 instructions: 20000000 cycles: 11311799 heartbeat IPC: 1.75849 cumulative IPC: 1.76807 (Simulation time: 0 hr 0 min 27 sec) 
Heartbeat CPU 0 instructions: 30000000 cycles: 17036789 heartbeat IPC: 1.74673 cumulative IPC: 1.7609 (Simulation time: 0 hr 0 min 41 sec) 
Heartbeat CPU 0 instructions: 40000000 cycles: 22718294 heartbeat IPC: 1.7601 cumulative IPC: 1.7607 (Simulation time: 0 hr 0 min 54 sec) 
Heartbeat CPU 0 instructions: 50000000 cycles: 29206551 heartbeat IPC: 1.54125 cumulative IPC: 1.71194 (Simulation time: 0 hr 1 min 8 sec) 
Heartbeat CPU 0 instructions: 60000000 cycles: 35006201 heartbeat IPC: 1.72424 cumulative IPC: 1.71398 (Simulation time: 0 hr 1 min 22 sec) 
Heartbeat CPU 0 instructions: 70000002 cycles: 40883616 heartbeat IPC: 1.70143 cumulative IPC: 1.71218 (Simulation time: 0 hr 1 min 35 sec) 
Heartbeat CPU 0 instructions: 80000000 cycles: 46556530 heartbeat IPC: 1.76276 cumulative IPC: 1.71834 (Simulation time: 0 hr 1 min 49 sec) 
Heartbeat CPU 0 instructions: 90000001 cycles: 52149242 heartbeat IPC: 1.78804 cumulative IPC: 1.72582 (Simulation time: 0 hr 2 min 3 sec) 
Heartbeat CPU 0 instructions: 100000000 cycles: 57809602 heartbeat IPC: 1.76667 cumulative IPC: 1.72982 (Simulation time: 0 hr 2 min 16 sec) 
Heartbeat CPU 0 instructions: 110000003 cycles: 63662463 heartbeat IPC: 1.70857 cumulative IPC: 1.72786 (Simulation time: 0 hr 2 min 30 sec) 
Heartbeat CPU 0 instructions: 120000000 cycles: 69419852 heartbeat IPC: 1.7369 cumulative IPC: 1.72861 (Simulation time: 0 hr 2 min 44 sec) 
Heartbeat CPU 0 instructions: 130000001 cycles: 75102744 heartbeat IPC: 1.75967 cumulative IPC: 1.73096 (Simulation time: 0 hr 2 min 58 sec) 
Heartbeat CPU 0 instructions: 140000000 cycles: 81093249 heartbeat IPC: 1.66931 cumulative IPC: 1.72641 (Simulation time: 0 hr 3 min 11 sec) 
Heartbeat CPU 0 instructions: 150000002 cycles: 87167043 heartbeat IPC: 1.64642 cumulative IPC: 1.72083 (Simulation time: 0 hr 3 min 26 sec) 
Heartbeat CPU 0 instructions: 160000000 cycles: 92785222 heartbeat IPC: 1.77994 cumulative IPC: 1.72441 (Simulation time: 0 hr 3 min 39 sec) 
Heartbeat CPU 0 instructions: 170000000 cycles: 98307511 heartbeat IPC: 1.81084 cumulative IPC: 1.72927 (Simulation time: 0 hr 3 min 53 sec) 
Heartbeat CPU 0 instructions: 180000000 cycles: 104648980 heartbeat IPC: 1.57692 cumulative IPC: 1.72004 (Simulation time: 0 hr 4 min 7 sec) 
Heartbeat CPU 0 instructions: 190000001 cycles: 110182738 heartbeat IPC: 1.80709 cumulative IPC: 1.72441 (Simulation time: 0 hr 4 min 21 sec) 
Heartbeat CPU 0 instructions: 200000000 cycles: 115907570 heartbeat IPC: 1.74678 cumulative IPC: 1.72551 (Simulation time: 0 hr 4 min 34 sec) 

Warmup complete CPU 0 instructions: 200000001 cycles: 115907571 (Simulation time: 0 hr 4 min 34 sec) 

Heartbeat CPU 0 instructions: 210000001 cycles: 165467685 heartbeat IPC: 0.201775 cumulative IPC: 0.201775 (Simulation time: 0 hr 5 min 7 sec) 
Heartbeat CPU 0 instructions: 220000000 cycles: 225435202 heartbeat IPC: 0.166757 cumulative IPC: 0.182602 (Simulation time: 0 hr 5 min 42 sec) 
Heartbeat CPU 0 instructions: 230000001 cycles: 263131772 heartbeat IPC: 0.265276 cumulative IPC: 0.203771 (Simulation time: 0 hr 6 min 11 sec) 
Heartbeat CPU 0 instructions: 240000000 cycles: 301813628 heartbeat IPC: 0.258519 cumulative IPC: 0.215162 (Simulation time: 0 hr 6 min 42 sec) 
Heartbeat CPU 0 instructions: 250000002 cycles: 332340918 heartbeat IPC: 0.327576 cumulative IPC: 0.231018 (Simulation time: 0 hr 7 min 10 sec) 
Heartbeat CPU 0 instructions: 260000000 cycles: 404534563 heartbeat IPC: 0.138516 cumulative IPC: 0.207881 (Simulation time: 0 hr 7 min 47 sec) 
Heartbeat CPU 0 instructions: 270000000 cycles: 498054716 heartbeat IPC: 0.106929 cumulative IPC: 0.183176 (Simulation time: 0 hr 8 min 29 sec) 
Heartbeat CPU 0 instructions: 280000000 cycles: 543880378 heartbeat IPC: 0.218218 cumulative IPC: 0.186928 (Simulation time: 0 hr 9 min 3 sec) 
Heartbeat CPU 0 instructions: 290000000 cycles: 593275589 heartbeat IPC: 0.202449 cumulative IPC: 0.188534 (Simulation time: 0 hr 9 min 35 sec) 
Heartbeat CPU 0 instructions: 300000000 cycles: 643623738 heartbeat IPC: 0.198617 cumulative IPC: 0.189496 (Simulation time: 0 hr 10 min 8 sec) 
Heartbeat CPU 0 instructions: 310000001 cycles: 681695474 heartbeat IPC: 0.262662 cumulative IPC: 0.194419 (Simulation time: 0 hr 10 min 37 sec) 
Heartbeat CPU 0 instructions: 320000000 cycles: 720252328 heartbeat IPC: 0.259357 cumulative IPC: 0.198562 (Simulation time: 0 hr 11 min 6 sec) 
Heartbeat CPU 0 instructions: 330000000 cycles: 775855789 heartbeat IPC: 0.179845 cumulative IPC: 0.196985 (Simulation time: 0 hr 11 min 41 sec) 
Heartbeat CPU 0 instructions: 340000000 cycles: 809989812 heartbeat IPC: 0.292963 cumulative IPC: 0.201705 (Simulation time: 0 hr 12 min 12 sec) 
Heartbeat CPU 0 instructions: 350000000 cycles: 838461819 heartbeat IPC: 0.351222 cumulative IPC: 0.207597 (Simulation time: 0 hr 12 min 39 sec) 
Heartbeat CPU 0 instructions: 360000000 cycles: 891676393 heartbeat IPC: 0.187918 cumulative IPC: 0.206247 (Simulation time: 0 hr 13 min 13 sec) 
Heartbeat CPU 0 instructions: 370000001 cycles: 929721808 heartbeat IPC: 0.262844 cumulative IPC: 0.208893 (Simulation time: 0 hr 13 min 42 sec) 
Heartbeat CPU 0 instructions: 380000000 cycles: 963566417 heartbeat IPC: 0.295468 cumulative IPC: 0.21235 (Simulation time: 0 hr 14 min 11 sec) 
Heartbeat CPU 0 instructions: 390000000 cycles: 1023616865 heartbeat IPC: 0.166527 cumulative IPC: 0.209318 (Simulation time: 0 hr 14 min 46 sec) 
Heartbeat CPU 0 instructions: 400000000 cycles: 1088124440 heartbeat IPC: 0.155021 cumulative IPC: 0.205715 (Simulation time: 0 hr 15 min 25 sec) 
Heartbeat CPU 0 instructions: 410000003 cycles: 1122821648 heartbeat IPC: 0.288208 cumulative IPC: 0.208558 (Simulation time: 0 hr 15 min 55 sec) 
Heartbeat CPU 0 instructions: 420000000 cycles: 1151337567 heartbeat IPC: 0.350681 cumulative IPC: 0.212472 (Simulation time: 0 hr 16 min 23 sec) 
Heartbeat CPU 0 instructions: 430000000 cycles: 1188184642 heartbeat IPC: 0.271392 cumulative IPC: 0.214497 (Simulation time: 0 hr 16 min 53 sec) 
Heartbeat CPU 0 instructions: 440000000 cycles: 1257492873 heartbeat IPC: 0.144283 cumulative IPC: 0.210234 (Simulation time: 0 hr 17 min 35 sec) 
Heartbeat CPU 0 instructions: 450000002 cycles: 1285399094 heartbeat IPC: 0.358343 cumulative IPC: 0.213768 (Simulation time: 0 hr 18 min 3 sec) 
Heartbeat CPU 0 instructions: 460000000 cycles: 1323934737 heartbeat IPC: 0.2595 cumulative IPC: 0.215227 (Simulation time: 0 hr 18 min 35 sec) 
Heartbeat CPU 0 instructions: 470000003 cycles: 1353265265 heartbeat IPC: 0.340942 cumulative IPC: 0.218207 (Simulation time: 0 hr 19 min 3 sec) 
Heartbeat CPU 0 instructions: 480000000 cycles: 1386777505 heartbeat IPC: 0.298398 cumulative IPC: 0.220322 (Simulation time: 0 hr 19 min 33 sec) 
Heartbeat CPU 0 instructions: 490000001 cycles: 1450745029 heartbeat IPC: 0.156329 cumulative IPC: 0.217255 (Simulation time: 0 hr 20 min 11 sec) 
Heartbeat CPU 0 instructions: 500000000 cycles: 1486925730 heartbeat IPC: 0.27639 cumulative IPC: 0.218815 (Simulation time: 0 hr 20 min 40 sec) 
Heartbeat CPU 0 instructions: 510000003 cycles: 1523918576 heartbeat IPC: 0.270323 cumulative IPC: 0.220169 (Simulation time: 0 hr 21 min 10 sec) 
Heartbeat CPU 0 instructions: 520000000 cycles: 1554819419 heartbeat IPC: 0.323616 cumulative IPC: 0.22239 (Simulation time: 0 hr 21 min 39 sec) 
Heartbeat CPU 0 instructions: 530000000 cycles: 1589928516 heartbeat IPC: 0.284826 cumulative IPC: 0.223877 (Simulation time: 0 hr 22 min 8 sec) 
Heartbeat CPU 0 instructions: 540000000 cycles: 1646892550 heartbeat IPC: 0.175549 cumulative IPC: 0.222079 (Simulation time: 0 hr 22 min 42 sec) 
Heartbeat CPU 0 instructions: 550000000 cycles: 1715223153 heartbeat IPC: 0.146347 cumulative IPC: 0.218844 (Simulation time: 0 hr 23 min 20 sec) 
Heartbeat CPU 0 instructions: 560000000 cycles: 1782685254 heartbeat IPC: 0.148231 cumulative IPC: 0.215986 (Simulation time: 0 hr 23 min 57 sec) 
Heartbeat CPU 0 instructions: 570000002 cycles: 1850141733 heartbeat IPC: 0.148244 cumulative IPC: 0.213351 (Simulation time: 0 hr 24 min 35 sec) 
Heartbeat CPU 0 instructions: 580000000 cycles: 1916806758 heartbeat IPC: 0.150004 cumulative IPC: 0.211006 (Simulation time: 0 hr 25 min 12 sec) 
Heartbeat CPU 0 instructions: 590000001 cycles: 1985057414 heartbeat IPC: 0.146519 cumulative IPC: 0.208651 (Simulation time: 0 hr 25 min 50 sec) 
Heartbeat CPU 0 instructions: 600000000 cycles: 2052147804 heartbeat IPC: 0.149053 cumulative IPC: 0.206586 (Simulation time: 0 hr 26 min 27 sec) 
Heartbeat CPU 0 instructions: 610000003 cycles: 2119134760 heartbeat IPC: 0.149283 cumulative IPC: 0.20467 (Simulation time: 0 hr 27 min 5 sec) 
Heartbeat CPU 0 instructions: 620000000 cycles: 2189496137 heartbeat IPC: 0.142123 cumulative IPC: 0.202547 (Simulation time: 0 hr 27 min 44 sec) 
Heartbeat CPU 0 instructions: 630000001 cycles: 2260339277 heartbeat IPC: 0.141157 cumulative IPC: 0.200519 (Simulation time: 0 hr 28 min 24 sec) 
Heartbeat CPU 0 instructions: 640000000 cycles: 2329955019 heartbeat IPC: 0.143646 cumulative IPC: 0.198731 (Simulation time: 0 hr 29 min 5 sec) 
Heartbeat CPU 0 instructions: 650000000 cycles: 2409155688 heartbeat IPC: 0.126262 cumulative IPC: 0.196228 (Simulation time: 0 hr 29 min 45 sec) 
Heartbeat CPU 0 instructions: 660000000 cycles: 2494629486 heartbeat IPC: 0.116995 cumulative IPC: 0.193381 (Simulation time: 0 hr 30 min 25 sec) 
Heartbeat CPU 0 instructions: 670000001 cycles: 2582897301 heartbeat IPC: 0.113292 cumulative IPC: 0.190516 (Simulation time: 0 hr 31 min 4 sec) 
Heartbeat CPU 0 instructions: 680000000 cycles: 2677143466 heartbeat IPC: 0.106105 cumulative IPC: 0.18741 (Simulation time: 0 hr 31 min 46 sec) 
Heartbeat CPU 0 instructions: 690000002 cycles: 2753169259 heartbeat IPC: 0.131534 cumulative IPC: 0.185799 (Simulation time: 0 hr 32 min 33 sec) 
Heartbeat CPU 0 instructions: 700000000 cycles: 2804298820 heartbeat IPC: 0.195582 cumulative IPC: 0.185985 (Simulation time: 0 hr 33 min 7 sec) 
Heartbeat CPU 0 instructions: 710000000 cycles: 2838669838 heartbeat IPC: 0.290943 cumulative IPC: 0.18731 (Simulation time: 0 hr 33 min 36 sec) 
Heartbeat CPU 0 instructions: 720000000 cycles: 2878126744 heartbeat IPC: 0.253441 cumulative IPC: 0.188254 (Simulation time: 0 hr 34 min 8 sec) 
Heartbeat CPU 0 instructions: 730000003 cycles: 2912989077 heartbeat IPC: 0.286843 cumulative IPC: 0.189483 (Simulation time: 0 hr 34 min 37 sec) 
Heartbeat CPU 0 instructions: 740000000 cycles: 2941918505 heartbeat IPC: 0.345669 cumulative IPC: 0.191082 (Simulation time: 0 hr 35 min 5 sec) 
Heartbeat CPU 0 instructions: 750000000 cycles: 2985686231 heartbeat IPC: 0.228479 cumulative IPC: 0.191652 (Simulation time: 0 hr 35 min 39 sec) 
Heartbeat CPU 0 instructions: 760000000 cycles: 3014422328 heartbeat IPC: 0.347994 cumulative IPC: 0.193202 (Simulation time: 0 hr 36 min 7 sec) 
Heartbeat CPU 0 instructions: 770000002 cycles: 3047185470 heartbeat IPC: 0.305221 cumulative IPC: 0.194454 (Simulation time: 0 hr 36 min 36 sec) 
Heartbeat CPU 0 instructions: 780000000 cycles: 3089281881 heartbeat IPC: 0.23755 cumulative IPC: 0.195065 (Simulation time: 0 hr 37 min 6 sec) 
Heartbeat CPU 0 instructions: 790000001 cycles: 3132779997 heartbeat IPC: 0.229895 cumulative IPC: 0.195567 (Simulation time: 0 hr 37 min 38 sec) 
Heartbeat CPU 0 instructions: 800000000 cycles: 3194839996 heartbeat IPC: 0.161134 cumulative IPC: 0.194873 (Simulation time: 0 hr 38 min 14 sec) 
Heartbeat CPU 0 instructions: 810000000 cycles: 3248297020 heartbeat IPC: 0.187066 cumulative IPC: 0.19474 (Simulation time: 0 hr 38 min 48 sec) 
Heartbeat CPU 0 instructions: 820000000 cycles: 3291952609 heartbeat IPC: 0.229066 cumulative IPC: 0.195211 (Simulation time: 0 hr 39 min 18 sec) 
Heartbeat CPU 0 instructions: 830000000 cycles: 3329226268 heartbeat IPC: 0.268286 cumulative IPC: 0.196059 (Simulation time: 0 hr 39 min 48 sec) 
Heartbeat CPU 0 instructions: 840000000 cycles: 3386617790 heartbeat IPC: 0.174242 cumulative IPC: 0.195676 (Simulation time: 0 hr 40 min 24 sec) 
Heartbeat CPU 0 instructions: 850000000 cycles: 3438793545 heartbeat IPC: 0.19166 cumulative IPC: 0.195613 (Simulation time: 0 hr 41 min 2 sec) 
Heartbeat CPU 0 instructions: 860000000 cycles: 3474337759 heartbeat IPC: 0.28134 cumulative IPC: 0.19652 (Simulation time: 0 hr 41 min 33 sec) 
Heartbeat CPU 0 instructions: 870000001 cycles: 3502331322 heartbeat IPC: 0.357225 cumulative IPC: 0.197849 (Simulation time: 0 hr 42 min 0 sec) 
Heartbeat CPU 0 instructions: 880000000 cycles: 3542740553 heartbeat IPC: 0.247468 cumulative IPC: 0.198434 (Simulation time: 0 hr 42 min 32 sec) 
Heartbeat CPU 0 instructions: 890000000 cycles: 3578161528 heartbeat IPC: 0.282319 cumulative IPC: 0.199292 (Simulation time: 0 hr 43 min 1 sec) 
Heartbeat CPU 0 instructions: 900000000 cycles: 3631027556 heartbeat IPC: 0.189157 cumulative IPC: 0.19914 (Simulation time: 0 hr 43 min 35 sec) 
Heartbeat CPU 0 instructions: 910000001 cycles: 3663153910 heartbeat IPC: 0.311271 cumulative IPC: 0.200155 (Simulation time: 0 hr 44 min 2 sec) 
Heartbeat CPU 0 instructions: 920000000 cycles: 3704215316 heartbeat IPC: 0.243538 cumulative IPC: 0.200652 (Simulation time: 0 hr 44 min 33 sec) 
Heartbeat CPU 0 instructions: 930000000 cycles: 3739503353 heartbeat IPC: 0.283382 cumulative IPC: 0.201457 (Simulation time: 0 hr 45 min 2 sec) 
Heartbeat CPU 0 instructions: 940000000 cycles: 3813784806 heartbeat IPC: 0.134623 cumulative IPC: 0.200115 (Simulation time: 0 hr 45 min 42 sec) 
Heartbeat CPU 0 instructions: 950000003 cycles: 3897024384 heartbeat IPC: 0.120135 cumulative IPC: 0.198354 (Simulation time: 0 hr 46 min 25 sec) 
Heartbeat CPU 0 instructions: 960000000 cycles: 3947679265 heartbeat IPC: 0.197414 cumulative IPC: 0.198342 (Simulation time: 0 hr 47 min 1 sec) 
Heartbeat CPU 0 instructions: 970000000 cycles: 3980426879 heartbeat IPC: 0.305366 cumulative IPC: 0.199249 (Simulation time: 0 hr 47 min 29 sec) 
Heartbeat CPU 0 instructions: 980000000 cycles: 4011204643 heartbeat IPC: 0.32491 cumulative IPC: 0.200241 (Simulation time: 0 hr 47 min 58 sec) 
Heartbeat CPU 0 instructions: 990000001 cycles: 4055627686 heartbeat IPC: 0.225108 cumulative IPC: 0.200522 (Simulation time: 0 hr 48 min 32 sec) 
Heartbeat CPU 0 instructions: 1000000000 cycles: 4089599654 heartbeat IPC: 0.29436 cumulative IPC: 0.201324 (Simulation time: 0 hr 49 min 2 sec) 
Heartbeat CPU 0 instructions: 1010000001 cycles: 4125079642 heartbeat IPC: 0.281849 cumulative IPC: 0.202037 (Simulation time: 0 hr 49 min 31 sec) 
Heartbeat CPU 0 instructions: 1020000000 cycles: 4161944471 heartbeat IPC: 0.271261 cumulative IPC: 0.202667 (Simulation time: 0 hr 50 min 3 sec) 
Heartbeat CPU 0 instructions: 1030000000 cycles: 4197181116 heartbeat IPC: 0.283795 cumulative IPC: 0.203368 (Simulation time: 0 hr 50 min 33 sec) 
Heartbeat CPU 0 instructions: 1040000000 cycles: 4234291597 heartbeat IPC: 0.269466 cumulative IPC: 0.203963 (Simulation time: 0 hr 51 min 2 sec) 
Heartbeat CPU 0 instructions: 1050000003 cycles: 4328231369 heartbeat IPC: 0.106451 cumulative IPC: 0.201789 (Simulation time: 0 hr 51 min 44 sec) 
Heartbeat CPU 0 instructions: 1060000000 cycles: 4408645337 heartbeat IPC: 0.124356 cumulative IPC: 0.200338 (Simulation time: 0 hr 52 min 25 sec) 
Heartbeat CPU 0 instructions: 1070000001 cycles: 4439455686 heartbeat IPC: 0.324566 cumulative IPC: 0.201224 (Simulation time: 0 hr 52 min 53 sec) 
Heartbeat CPU 0 instructions: 1080000000 cycles: 4471739406 heartbeat IPC: 0.309754 cumulative IPC: 0.202028 (Simulation time: 0 hr 53 min 23 sec) 
Heartbeat CPU 0 instructions: 1090000000 cycles: 4544862259 heartbeat IPC: 0.136756 cumulative IPC: 0.20095 (Simulation time: 0 hr 54 min 5 sec) 
Heartbeat CPU 0 instructions: 1100000000 cycles: 4589285243 heartbeat IPC: 0.225109 cumulative IPC: 0.20119 (Simulation time: 0 hr 54 min 38 sec) 
Heartbeat CPU 0 instructions: 1110000001 cycles: 4623810455 heartbeat IPC: 0.289643 cumulative IPC: 0.201868 (Simulation time: 0 hr 55 min 8 sec) 
Heartbeat CPU 0 instructions: 1120000000 cycles: 4655445543 heartbeat IPC: 0.316105 cumulative IPC: 0.202664 (Simulation time: 0 hr 55 min 37 sec) 
Heartbeat CPU 0 instructions: 1130000000 cycles: 4683802553 heartbeat IPC: 0.352646 cumulative IPC: 0.203595 (Simulation time: 0 hr 56 min 4 sec) 
Heartbeat CPU 0 instructions: 1140000000 cycles: 4742042479 heartbeat IPC: 0.171704 cumulative IPC: 0.203193 (Simulation time: 0 hr 56 min 39 sec) 
Heartbeat CPU 0 instructions: 1150000001 cycles: 4778198919 heartbeat IPC: 0.276576 cumulative IPC: 0.203762 (Simulation time: 0 hr 57 min 8 sec) 
Heartbeat CPU 0 instructions: 1160000000 cycles: 4827465605 heartbeat IPC: 0.202977 cumulative IPC: 0.203754 (Simulation time: 0 hr 57 min 42 sec) 
Heartbeat CPU 0 instructions: 1170000003 cycles: 4859641329 heartbeat IPC: 0.310793 cumulative IPC: 0.20448 (Simulation time: 0 hr 58 min 10 sec) 
Heartbeat CPU 0 instructions: 1180000000 cycles: 4896029452 heartbeat IPC: 0.274815 cumulative IPC: 0.205016 (Simulation time: 0 hr 58 min 39 sec) 
Heartbeat CPU 0 instructions: 1190000001 cycles: 4960865563 heartbeat IPC: 0.154235 cumulative IPC: 0.204336 (Simulation time: 0 hr 59 min 20 sec) 
Heartbeat CPU 0 instructions: 1200000000 cycles: 4994710722 heartbeat IPC: 0.295463 cumulative IPC: 0.204968 (Simulation time: 0 hr 59 min 49 sec) 
Finished CPU 0 instructions: 1000000001 cycles: 4878803159 cumulative IPC: 0.204968 (Simulation time: 0 hr 59 min 49 sec) 

CPU 0 Branch Prediction Accuracy: 92.4308% MPKI: 14.6465

ChampSim completed all CPUs

Region of Interest Statistics

CPU 0 cumulative IPC: 0.204968 instructions: 1000000001 cycles: 4878803159
L1D TOTAL     ACCESS:  413467314  HIT:  373440135  MISS:   40027179
L1D LOAD      ACCESS:  313653836  HIT:  273908323  MISS:   39745513
L1D RFO       ACCESS:   99813478  HIT:   99531812  MISS:     281666
L1D PREFETCH  ACCESS:          0  HIT:          0  MISS:          0
L1D WRITEBACK ACCESS:          0  HIT:          0  MISS:          0
L1D PREFETCH  REQUESTED:          0  ISSUED:          0  USEFUL:          0  USELESS:          0
L1I TOTAL     ACCESS:  223640874  HIT:  223640874  MISS:          0
L1I LOAD      ACCESS:  223640874  HIT:  223640874  MISS:          0
L1I RFO       ACCESS:          0  HIT:          0  MISS:          0
L1I PREFETCH  ACCESS:          0  HIT:          0  MISS:          0
L1I WRITEBACK ACCESS:          0  HIT:          0  MISS:          0
L1I PREFETCH  REQUESTED:          0  ISSUED:          0  USEFUL:          0  USELESS:          0
L2C TOTAL     ACCESS:   66981273  HIT:   17366338  MISS:   49614935
L2C LOAD      ACCESS:   39745480  HIT:   11126535  MISS:   28618945
L2C RFO       ACCESS:     281657  HIT:     214806  MISS:      66851
L2C PREFETCH  ACCESS:   23860748  HIT:    2939279  MISS:   20921469
L2C WRITEBACK ACCESS:    3093388  HIT:    3085718  MISS:       7670
L2C PREFETCH  REQUESTED:   35675755  ISSUED:   35675755  USEFUL:    5127264  USELESS:   20185979
LLC TOTAL     ACCESS:   52045540  HIT:    6274128  MISS:   45771412
LLC LOAD      ACCESS:   25707325  HIT:    2186395  MISS:   23520930
LLC RFO       ACCESS:      66823  HIT:      28987  MISS:      37836
LLC PREFETCH  ACCESS:   23840489  HIT:    1640811  MISS:   22199678
LLC WRITEBACK ACCESS:    2430903  HIT:    2417935  MISS:      12968
LLC PREFETCH  REQUESTED:          0  ISSUED:          0  USEFUL:     457670  USELESS:   25812507
Major fault: 0 Minor fault: 323461

L2C Best-offset prefetcher final stats

DRAM Statistics
 CHANNEL 0
 RQ ROW_BUFFER_HIT:   16724814  ROW_BUFFER_MISS:   29014594
 DBUS_CONGESTED:   19192602
 WQ ROW_BUFFER_HIT:     354907  ROW_BUFFER_MISS:    1878753  FULL:          0

 AVG_CONGESTED_CYCLE: 11
