
*** ChampSim Multicore Out-of-Order Simulator ***

Warmup Instructions: 200000000
Simulation Instructions: 1000000000
Number of CPUs: 1
LLC sets: 512
LLC ways: 16
Off-chip DRAM Size: 4096 MB Channels: 1 Width: 64-bit Data Rate: 1600 MT/s

CPU 0 runs /scratch/user/djimenez/champsim-traces/speccpu2017/xz/644.nab_s/644.nab_s-12459B.champsimtrace.xz
L2C Best-offset prefetcher
Heartbeat CPU 0 instructions: 10000000 cycles: 4635769 heartbeat IPC: 2.15714 cumulative IPC: 2.15714 (Simulation time: 0 hr 0 min 14 sec) 
Heartbeat CPU 0 instructions: 20000000 cycles: 9297714 heartbeat IPC: 2.14503 cumulative IPC: 2.15107 (Simulation time: 0 hr 0 min 28 sec) 
Heartbeat CPU 0 instructions: 30000001 cycles: 13991845 heartbeat IPC: 2.13032 cumulative IPC: 2.14411 (Simulation time: 0 hr 0 min 42 sec) 
Heartbeat CPU 0 instructions: 40000000 cycles: 18644492 heartbeat IPC: 2.14931 cumulative IPC: 2.14541 (Simulation time: 0 hr 0 min 56 sec) 
Heartbeat CPU 0 instructions: 50000002 cycles: 23345487 heartbeat IPC: 2.12721 cumulative IPC: 2.14174 (Simulation time: 0 hr 1 min 10 sec) 
Heartbeat CPU 0 instructions: 60000000 cycles: 28113225 heartbeat IPC: 2.09743 cumulative IPC: 2.13423 (Simulation time: 0 hr 1 min 24 sec) 
Heartbeat CPU 0 instructions: 70000001 cycles: 32937953 heartbeat IPC: 2.07266 cumulative IPC: 2.12521 (Simulation time: 0 hr 1 min 39 sec) 
Heartbeat CPU 0 instructions: 80000000 cycles: 37742549 heartbeat IPC: 2.08134 cumulative IPC: 2.11962 (Simulation time: 0 hr 1 min 53 sec) 
Heartbeat CPU 0 instructions: 90000000 cycles: 42505329 heartbeat IPC: 2.09961 cumulative IPC: 2.11738 (Simulation time: 0 hr 2 min 7 sec) 
Heartbeat CPU 0 instructions: 100000000 cycles: 47351112 heartbeat IPC: 2.06365 cumulative IPC: 2.11188 (Simulation time: 0 hr 2 min 22 sec) 
Heartbeat CPU 0 instructions: 110000001 cycles: 52289600 heartbeat IPC: 2.02491 cumulative IPC: 2.10367 (Simulation time: 0 hr 2 min 37 sec) 
Heartbeat CPU 0 instructions: 120000000 cycles: 57303537 heartbeat IPC: 1.99444 cumulative IPC: 2.09411 (Simulation time: 0 hr 2 min 51 sec) 
Heartbeat CPU 0 instructions: 130000001 cycles: 62229111 heartbeat IPC: 2.03022 cumulative IPC: 2.08905 (Simulation time: 0 hr 3 min 6 sec) 
Heartbeat CPU 0 instructions: 140000000 cycles: 67067978 heartbeat IPC: 2.0666 cumulative IPC: 2.08743 (Simulation time: 0 hr 3 min 21 sec) 
Heartbeat CPU 0 instructions: 150000000 cycles: 71904318 heartbeat IPC: 2.06768 cumulative IPC: 2.08611 (Simulation time: 0 hr 3 min 35 sec) 
Heartbeat CPU 0 instructions: 160000000 cycles: 76735414 heartbeat IPC: 2.06992 cumulative IPC: 2.08509 (Simulation time: 0 hr 3 min 50 sec) 
Heartbeat CPU 0 instructions: 170000003 cycles: 81579540 heartbeat IPC: 2.06436 cumulative IPC: 2.08386 (Simulation time: 0 hr 4 min 4 sec) 
Heartbeat CPU 0 instructions: 180000000 cycles: 86390095 heartbeat IPC: 2.07876 cumulative IPC: 2.08357 (Simulation time: 0 hr 4 min 19 sec) 
Heartbeat CPU 0 instructions: 190000000 cycles: 91156816 heartbeat IPC: 2.09788 cumulative IPC: 2.08432 (Simulation time: 0 hr 4 min 33 sec) 
Heartbeat CPU 0 instructions: 200000000 cycles: 95933886 heartbeat IPC: 2.09333 cumulative IPC: 2.08477 (Simulation time: 0 hr 4 min 48 sec) 

Warmup complete CPU 0 instructions: 200000001 cycles: 95933887 (Simulation time: 0 hr 4 min 48 sec) 

Heartbeat CPU 0 instructions: 210000000 cycles: 110771762 heartbeat IPC: 0.673951 cumulative IPC: 0.673951 (Simulation time: 0 hr 5 min 12 sec) 
Heartbeat CPU 0 instructions: 220000000 cycles: 125864355 heartbeat IPC: 0.662577 cumulative IPC: 0.668215 (Simulation time: 0 hr 5 min 37 sec) 
Heartbeat CPU 0 instructions: 230000003 cycles: 140729942 heartbeat IPC: 0.672695 cumulative IPC: 0.669702 (Simulation time: 0 hr 6 min 2 sec) 
Heartbeat CPU 0 instructions: 240000000 cycles: 155781655 heartbeat IPC: 0.664376 cumulative IPC: 0.668362 (Simulation time: 0 hr 6 min 26 sec) 
Heartbeat CPU 0 instructions: 250000001 cycles: 170572020 heartbeat IPC: 0.676116 cumulative IPC: 0.669899 (Simulation time: 0 hr 6 min 51 sec) 
Heartbeat CPU 0 instructions: 260000000 cycles: 185423192 heartbeat IPC: 0.673347 cumulative IPC: 0.670471 (Simulation time: 0 hr 7 min 15 sec) 
Heartbeat CPU 0 instructions: 270000002 cycles: 200324658 heartbeat IPC: 0.671075 cumulative IPC: 0.670557 (Simulation time: 0 hr 7 min 40 sec) 
Heartbeat CPU 0 instructions: 280000000 cycles: 215311844 heartbeat IPC: 0.667237 cumulative IPC: 0.67014 (Simulation time: 0 hr 8 min 5 sec) 
Heartbeat CPU 0 instructions: 290000001 cycles: 230218170 heartbeat IPC: 0.670856 cumulative IPC: 0.67022 (Simulation time: 0 hr 8 min 29 sec) 
Heartbeat CPU 0 instructions: 300000000 cycles: 245137421 heartbeat IPC: 0.670275 cumulative IPC: 0.670225 (Simulation time: 0 hr 8 min 54 sec) 
Heartbeat CPU 0 instructions: 310000002 cycles: 260174523 heartbeat IPC: 0.665022 cumulative IPC: 0.669749 (Simulation time: 0 hr 9 min 19 sec) 
Heartbeat CPU 0 instructions: 320000000 cycles: 275635846 heartbeat IPC: 0.646775 cumulative IPC: 0.667772 (Simulation time: 0 hr 9 min 44 sec) 
Heartbeat CPU 0 instructions: 330000003 cycles: 291073481 heartbeat IPC: 0.647768 cumulative IPC: 0.66619 (Simulation time: 0 hr 10 min 9 sec) 
Heartbeat CPU 0 instructions: 340000000 cycles: 306544290 heartbeat IPC: 0.646378 cumulative IPC: 0.664734 (Simulation time: 0 hr 10 min 34 sec) 
Heartbeat CPU 0 instructions: 350000003 cycles: 321966907 heartbeat IPC: 0.648399 cumulative IPC: 0.66362 (Simulation time: 0 hr 10 min 59 sec) 
Heartbeat CPU 0 instructions: 360000000 cycles: 337324871 heartbeat IPC: 0.651128 cumulative IPC: 0.662825 (Simulation time: 0 hr 11 min 24 sec) 
Heartbeat CPU 0 instructions: 370000001 cycles: 352714354 heartbeat IPC: 0.649794 cumulative IPC: 0.662044 (Simulation time: 0 hr 11 min 49 sec) 
Heartbeat CPU 0 instructions: 380000000 cycles: 368059445 heartbeat IPC: 0.651674 cumulative IPC: 0.661459 (Simulation time: 0 hr 12 min 14 sec) 
Heartbeat CPU 0 instructions: 390000000 cycles: 383298972 heartbeat IPC: 0.656188 cumulative IPC: 0.66118 (Simulation time: 0 hr 12 min 39 sec) 
Heartbeat CPU 0 instructions: 400000000 cycles: 398405636 heartbeat IPC: 0.66196 cumulative IPC: 0.661219 (Simulation time: 0 hr 13 min 4 sec) 
Heartbeat CPU 0 instructions: 410000001 cycles: 413542831 heartbeat IPC: 0.660624 cumulative IPC: 0.66119 (Simulation time: 0 hr 13 min 28 sec) 
Heartbeat CPU 0 instructions: 420000000 cycles: 428613762 heartbeat IPC: 0.663529 cumulative IPC: 0.661296 (Simulation time: 0 hr 13 min 53 sec) 
Heartbeat CPU 0 instructions: 430000001 cycles: 443678985 heartbeat IPC: 0.663781 cumulative IPC: 0.661404 (Simulation time: 0 hr 14 min 18 sec) 
Heartbeat CPU 0 instructions: 440000000 cycles: 458773757 heartbeat IPC: 0.662481 cumulative IPC: 0.661449 (Simulation time: 0 hr 14 min 43 sec) 
Heartbeat CPU 0 instructions: 450000002 cycles: 473653928 heartbeat IPC: 0.672035 cumulative IPC: 0.661866 (Simulation time: 0 hr 15 min 8 sec) 
Heartbeat CPU 0 instructions: 460000000 cycles: 488411662 heartbeat IPC: 0.677611 cumulative IPC: 0.662458 (Simulation time: 0 hr 15 min 32 sec) 
Heartbeat CPU 0 instructions: 470000002 cycles: 503203569 heartbeat IPC: 0.676045 cumulative IPC: 0.662951 (Simulation time: 0 hr 15 min 57 sec) 
Heartbeat CPU 0 instructions: 480000000 cycles: 518164771 heartbeat IPC: 0.668395 cumulative IPC: 0.663144 (Simulation time: 0 hr 16 min 22 sec) 
Heartbeat CPU 0 instructions: 490000000 cycles: 532876420 heartbeat IPC: 0.679733 cumulative IPC: 0.663703 (Simulation time: 0 hr 16 min 46 sec) 
Heartbeat CPU 0 instructions: 500000000 cycles: 547728700 heartbeat IPC: 0.673297 cumulative IPC: 0.664018 (Simulation time: 0 hr 17 min 11 sec) 
Heartbeat CPU 0 instructions: 510000002 cycles: 562422208 heartbeat IPC: 0.680573 cumulative IPC: 0.66454 (Simulation time: 0 hr 17 min 35 sec) 
Heartbeat CPU 0 instructions: 520000000 cycles: 576927939 heartbeat IPC: 0.689383 cumulative IPC: 0.665289 (Simulation time: 0 hr 17 min 59 sec) 
Heartbeat CPU 0 instructions: 530000000 cycles: 591463158 heartbeat IPC: 0.687984 cumulative IPC: 0.665955 (Simulation time: 0 hr 18 min 24 sec) 
Heartbeat CPU 0 instructions: 540000000 cycles: 606229545 heartbeat IPC: 0.677214 cumulative IPC: 0.66628 (Simulation time: 0 hr 18 min 48 sec) 
Heartbeat CPU 0 instructions: 550000002 cycles: 620967844 heartbeat IPC: 0.678504 cumulative IPC: 0.666624 (Simulation time: 0 hr 19 min 13 sec) 
Heartbeat CPU 0 instructions: 560000000 cycles: 635807880 heartbeat IPC: 0.673853 cumulative IPC: 0.666822 (Simulation time: 0 hr 19 min 37 sec) 
Heartbeat CPU 0 instructions: 570000001 cycles: 650810670 heartbeat IPC: 0.666543 cumulative IPC: 0.666815 (Simulation time: 0 hr 20 min 2 sec) 
Heartbeat CPU 0 instructions: 580000000 cycles: 665596754 heartbeat IPC: 0.676312 cumulative IPC: 0.667061 (Simulation time: 0 hr 20 min 27 sec) 
Heartbeat CPU 0 instructions: 590000000 cycles: 680316872 heartbeat IPC: 0.679342 cumulative IPC: 0.667371 (Simulation time: 0 hr 20 min 52 sec) 
Heartbeat CPU 0 instructions: 600000000 cycles: 695330796 heartbeat IPC: 0.666048 cumulative IPC: 0.667337 (Simulation time: 0 hr 21 min 17 sec) 
Heartbeat CPU 0 instructions: 610000000 cycles: 710132394 heartbeat IPC: 0.675603 cumulative IPC: 0.667537 (Simulation time: 0 hr 21 min 41 sec) 
Heartbeat CPU 0 instructions: 620000000 cycles: 725027281 heartbeat IPC: 0.671371 cumulative IPC: 0.667627 (Simulation time: 0 hr 22 min 5 sec) 
Heartbeat CPU 0 instructions: 630000003 cycles: 739685949 heartbeat IPC: 0.68219 cumulative IPC: 0.667959 (Simulation time: 0 hr 22 min 30 sec) 
Heartbeat CPU 0 instructions: 640000000 cycles: 754679366 heartbeat IPC: 0.666959 cumulative IPC: 0.667936 (Simulation time: 0 hr 22 min 55 sec) 
Heartbeat CPU 0 instructions: 650000002 cycles: 769491038 heartbeat IPC: 0.675143 cumulative IPC: 0.668095 (Simulation time: 0 hr 23 min 20 sec) 
Heartbeat CPU 0 instructions: 660000000 cycles: 784243905 heartbeat IPC: 0.677834 cumulative IPC: 0.668303 (Simulation time: 0 hr 23 min 44 sec) 
Heartbeat CPU 0 instructions: 670000003 cycles: 799128636 heartbeat IPC: 0.67183 cumulative IPC: 0.668378 (Simulation time: 0 hr 24 min 9 sec) 
Heartbeat CPU 0 instructions: 680000000 cycles: 813785883 heartbeat IPC: 0.682256 cumulative IPC: 0.668662 (Simulation time: 0 hr 24 min 33 sec) 
Heartbeat CPU 0 instructions: 690000000 cycles: 828870583 heartbeat IPC: 0.662923 cumulative IPC: 0.668543 (Simulation time: 0 hr 24 min 59 sec) 
Heartbeat CPU 0 instructions: 700000000 cycles: 843950355 heartbeat IPC: 0.66314 cumulative IPC: 0.668435 (Simulation time: 0 hr 25 min 24 sec) 
Heartbeat CPU 0 instructions: 710000000 cycles: 858876144 heartbeat IPC: 0.669981 cumulative IPC: 0.668465 (Simulation time: 0 hr 25 min 48 sec) 
Heartbeat CPU 0 instructions: 720000000 cycles: 873787406 heartbeat IPC: 0.670634 cumulative IPC: 0.668506 (Simulation time: 0 hr 26 min 13 sec) 
Heartbeat CPU 0 instructions: 730000003 cycles: 889339271 heartbeat IPC: 0.64301 cumulative IPC: 0.668007 (Simulation time: 0 hr 26 min 39 sec) 
Heartbeat CPU 0 instructions: 740000000 cycles: 905000788 heartbeat IPC: 0.638508 cumulative IPC: 0.667436 (Simulation time: 0 hr 27 min 4 sec) 
Heartbeat CPU 0 instructions: 750000003 cycles: 920414108 heartbeat IPC: 0.64879 cumulative IPC: 0.667087 (Simulation time: 0 hr 27 min 29 sec) 
Heartbeat CPU 0 instructions: 760000000 cycles: 935602607 heartbeat IPC: 0.658393 cumulative IPC: 0.66693 (Simulation time: 0 hr 27 min 54 sec) 
Heartbeat CPU 0 instructions: 770000000 cycles: 950982327 heartbeat IPC: 0.650207 cumulative IPC: 0.666629 (Simulation time: 0 hr 28 min 19 sec) 
Heartbeat CPU 0 instructions: 780000000 cycles: 966955530 heartbeat IPC: 0.626049 cumulative IPC: 0.665885 (Simulation time: 0 hr 28 min 45 sec) 
Heartbeat CPU 0 instructions: 790000000 cycles: 982374206 heartbeat IPC: 0.648564 cumulative IPC: 0.665583 (Simulation time: 0 hr 29 min 10 sec) 
Heartbeat CPU 0 instructions: 800000000 cycles: 997889571 heartbeat IPC: 0.644522 cumulative IPC: 0.665221 (Simulation time: 0 hr 29 min 35 sec) 
Heartbeat CPU 0 instructions: 810000001 cycles: 1013223892 heartbeat IPC: 0.652132 cumulative IPC: 0.665002 (Simulation time: 0 hr 30 min 1 sec) 
Heartbeat CPU 0 instructions: 820000000 cycles: 1028936278 heartbeat IPC: 0.636441 cumulative IPC: 0.664521 (Simulation time: 0 hr 30 min 26 sec) 
Heartbeat CPU 0 instructions: 830000001 cycles: 1044750643 heartbeat IPC: 0.632337 cumulative IPC: 0.663985 (Simulation time: 0 hr 30 min 52 sec) 
Heartbeat CPU 0 instructions: 840000000 cycles: 1060467882 heartbeat IPC: 0.636244 cumulative IPC: 0.663533 (Simulation time: 0 hr 31 min 17 sec) 
Heartbeat CPU 0 instructions: 850000000 cycles: 1076281432 heartbeat IPC: 0.632369 cumulative IPC: 0.66303 (Simulation time: 0 hr 31 min 43 sec) 
Heartbeat CPU 0 instructions: 860000000 cycles: 1092355527 heartbeat IPC: 0.622119 cumulative IPC: 0.66237 (Simulation time: 0 hr 32 min 8 sec) 
Heartbeat CPU 0 instructions: 870000001 cycles: 1108423331 heartbeat IPC: 0.622363 cumulative IPC: 0.661735 (Simulation time: 0 hr 32 min 34 sec) 
Heartbeat CPU 0 instructions: 880000000 cycles: 1124623065 heartbeat IPC: 0.617294 cumulative IPC: 0.661035 (Simulation time: 0 hr 33 min 0 sec) 
Heartbeat CPU 0 instructions: 890000003 cycles: 1140327685 heartbeat IPC: 0.636755 cumulative IPC: 0.66067 (Simulation time: 0 hr 33 min 26 sec) 
Heartbeat CPU 0 instructions: 900000000 cycles: 1156321758 heartbeat IPC: 0.625231 cumulative IPC: 0.660136 (Simulation time: 0 hr 33 min 51 sec) 
Heartbeat CPU 0 instructions: 910000001 cycles: 1172153484 heartbeat IPC: 0.631643 cumulative IPC: 0.659717 (Simulation time: 0 hr 34 min 17 sec) 
Heartbeat CPU 0 instructions: 920000000 cycles: 1187659493 heartbeat IPC: 0.644911 cumulative IPC: 0.659506 (Simulation time: 0 hr 34 min 42 sec) 
Heartbeat CPU 0 instructions: 930000001 cycles: 1203426168 heartbeat IPC: 0.634249 cumulative IPC: 0.659147 (Simulation time: 0 hr 35 min 8 sec) 
Heartbeat CPU 0 instructions: 940000000 cycles: 1219282188 heartbeat IPC: 0.630675 cumulative IPC: 0.658745 (Simulation time: 0 hr 35 min 33 sec) 
Heartbeat CPU 0 instructions: 950000000 cycles: 1234520298 heartbeat IPC: 0.656249 cumulative IPC: 0.658712 (Simulation time: 0 hr 35 min 58 sec) 
Heartbeat CPU 0 instructions: 960000000 cycles: 1249970043 heartbeat IPC: 0.64726 cumulative IPC: 0.658558 (Simulation time: 0 hr 36 min 23 sec) 
Heartbeat CPU 0 instructions: 970000001 cycles: 1265541019 heartbeat IPC: 0.642221 cumulative IPC: 0.658341 (Simulation time: 0 hr 36 min 49 sec) 
Heartbeat CPU 0 instructions: 980000000 cycles: 1281183646 heartbeat IPC: 0.639279 cumulative IPC: 0.658089 (Simulation time: 0 hr 37 min 14 sec) 
Heartbeat CPU 0 instructions: 990000000 cycles: 1296725019 heartbeat IPC: 0.643444 cumulative IPC: 0.6579 (Simulation time: 0 hr 37 min 39 sec) 
Heartbeat CPU 0 instructions: 1000000000 cycles: 1311827560 heartbeat IPC: 0.66214 cumulative IPC: 0.657952 (Simulation time: 0 hr 38 min 4 sec) 
Heartbeat CPU 0 instructions: 1010000001 cycles: 1327020240 heartbeat IPC: 0.658212 cumulative IPC: 0.657955 (Simulation time: 0 hr 38 min 29 sec) 
Heartbeat CPU 0 instructions: 1020000000 cycles: 1342864757 heartbeat IPC: 0.631133 cumulative IPC: 0.657615 (Simulation time: 0 hr 38 min 55 sec) 
Heartbeat CPU 0 instructions: 1030000003 cycles: 1358573424 heartbeat IPC: 0.636591 cumulative IPC: 0.657353 (Simulation time: 0 hr 39 min 20 sec) 
Heartbeat CPU 0 instructions: 1040000000 cycles: 1373928741 heartbeat IPC: 0.65124 cumulative IPC: 0.65728 (Simulation time: 0 hr 39 min 45 sec) 
Heartbeat CPU 0 instructions: 1050000002 cycles: 1389788008 heartbeat IPC: 0.630546 cumulative IPC: 0.656952 (Simulation time: 0 hr 40 min 10 sec) 
Heartbeat CPU 0 instructions: 1060000000 cycles: 1405001320 heartbeat IPC: 0.657319 cumulative IPC: 0.656956 (Simulation time: 0 hr 40 min 36 sec) 
Heartbeat CPU 0 instructions: 1070000000 cycles: 1420445047 heartbeat IPC: 0.647512 cumulative IPC: 0.656846 (Simulation time: 0 hr 41 min 0 sec) 
Heartbeat CPU 0 instructions: 1080000000 cycles: 1435846232 heartbeat IPC: 0.649301 cumulative IPC: 0.656759 (Simulation time: 0 hr 41 min 25 sec) 
Heartbeat CPU 0 instructions: 1090000000 cycles: 1451780742 heartbeat IPC: 0.627569 cumulative IPC: 0.656416 (Simulation time: 0 hr 41 min 51 sec) 
Heartbeat CPU 0 instructions: 1100000000 cycles: 1467292022 heartbeat IPC: 0.644692 cumulative IPC: 0.656284 (Simulation time: 0 hr 42 min 17 sec) 
Heartbeat CPU 0 instructions: 1110000000 cycles: 1482616811 heartbeat IPC: 0.652538 cumulative IPC: 0.656242 (Simulation time: 0 hr 42 min 41 sec) 
Heartbeat CPU 0 instructions: 1120000000 cycles: 1497771460 heartbeat IPC: 0.659864 cumulative IPC: 0.656281 (Simulation time: 0 hr 43 min 6 sec) 
Heartbeat CPU 0 instructions: 1130000000 cycles: 1513036777 heartbeat IPC: 0.65508 cumulative IPC: 0.656269 (Simulation time: 0 hr 43 min 31 sec) 
Heartbeat CPU 0 instructions: 1140000000 cycles: 1528645924 heartbeat IPC: 0.64065 cumulative IPC: 0.656098 (Simulation time: 0 hr 43 min 57 sec) 
Heartbeat CPU 0 instructions: 1150000001 cycles: 1543850132 heartbeat IPC: 0.657713 cumulative IPC: 0.656115 (Simulation time: 0 hr 44 min 22 sec) 
Heartbeat CPU 0 instructions: 1160000000 cycles: 1558742601 heartbeat IPC: 0.67148 cumulative IPC: 0.656272 (Simulation time: 0 hr 44 min 46 sec) 
Heartbeat CPU 0 instructions: 1170000000 cycles: 1573964360 heartbeat IPC: 0.656954 cumulative IPC: 0.656279 (Simulation time: 0 hr 45 min 11 sec) 
Heartbeat CPU 0 instructions: 1180000000 cycles: 1588856615 heartbeat IPC: 0.67149 cumulative IPC: 0.65643 (Simulation time: 0 hr 45 min 36 sec) 
Heartbeat CPU 0 instructions: 1190000000 cycles: 1604148825 heartbeat IPC: 0.653928 cumulative IPC: 0.656405 (Simulation time: 0 hr 46 min 1 sec) 
Heartbeat CPU 0 instructions: 1200000000 cycles: 1619633575 heartbeat IPC: 0.645797 cumulative IPC: 0.656297 (Simulation time: 0 hr 46 min 26 sec) 
Finished CPU 0 instructions: 1000000003 cycles: 1523699696 cumulative IPC: 0.656297 (Simulation time: 0 hr 46 min 26 sec) 

CPU 0 Branch Prediction Accuracy: 96.5696% MPKI: 4.4956

ChampSim completed all CPUs

Region of Interest Statistics

CPU 0 cumulative IPC: 0.656297 instructions: 1000000003 cycles: 1523699696
L1D TOTAL     ACCESS:  263848196  HIT:  256527329  MISS:    7320867
L1D LOAD      ACCESS:  158196520  HIT:  151173010  MISS:    7023510
L1D RFO       ACCESS:  105651676  HIT:  105354319  MISS:     297357
L1D PREFETCH  ACCESS:          0  HIT:          0  MISS:          0
L1D WRITEBACK ACCESS:          0  HIT:          0  MISS:          0
L1D PREFETCH  REQUESTED:          0  ISSUED:          0  USEFUL:          0  USELESS:          0
L1I TOTAL     ACCESS:  222486331  HIT:  222486328  MISS:          3
L1I LOAD      ACCESS:  222486331  HIT:  222486328  MISS:          3
L1I RFO       ACCESS:          0  HIT:          0  MISS:          0
L1I PREFETCH  ACCESS:          0  HIT:          0  MISS:          0
L1I WRITEBACK ACCESS:          0  HIT:          0  MISS:          0
L1I PREFETCH  REQUESTED:          0  ISSUED:          0  USEFUL:          0  USELESS:          0
L2C TOTAL     ACCESS:   13298167  HIT:    6325049  MISS:    6973118
L2C LOAD      ACCESS:    7023513  HIT:    3095959  MISS:    3927554
L2C RFO       ACCESS:     297338  HIT:     133367  MISS:     163971
L2C PREFETCH  ACCESS:    5502439  HIT:    2630285  MISS:    2872154
L2C WRITEBACK ACCESS:     474877  HIT:     465438  MISS:       9439
L2C PREFETCH  REQUESTED:    6737740  ISSUED:    6737740  USEFUL:    2405281  USELESS:     901926
LLC TOTAL     ACCESS:    7210491  HIT:    6576502  MISS:     633989
LLC LOAD      ACCESS:    3803427  HIT:    3556709  MISS:     246718
LLC RFO       ACCESS:     163970  HIT:      25602  MISS:     138368
LLC PREFETCH  ACCESS:    2996282  HIT:    2750288  MISS:     245994
LLC WRITEBACK ACCESS:     246812  HIT:     243903  MISS:       2909
LLC PREFETCH  REQUESTED:          0  ISSUED:          0  USEFUL:      41678  USELESS:     223914
Major fault: 0 Minor fault: 2917

L2C Best-offset prefetcher final stats

DRAM Statistics
 CHANNEL 0
 RQ ROW_BUFFER_HIT:     426068  ROW_BUFFER_MISS:     199945
 DBUS_CONGESTED:     212612
 WQ ROW_BUFFER_HIT:      88507  ROW_BUFFER_MISS:      59746  FULL:          0

 AVG_CONGESTED_CYCLE: 13
