
*** ChampSim Multicore Out-of-Order Simulator ***

Warmup Instructions: 200000000
Simulation Instructions: 1000000000
Number of CPUs: 1
LLC sets: 512
LLC ways: 16
Off-chip DRAM Size: 4096 MB Channels: 1 Width: 64-bit Data Rate: 1600 MT/s

CPU 0 runs /scratch/user/djimenez/champsim-traces/speccpu2017/xz/657.xz_s/657.xz_s-3167B.champsimtrace.xz
L2C Best-offset prefetcher
Heartbeat CPU 0 instructions: 10000003 cycles: 3993027 heartbeat IPC: 2.50437 cumulative IPC: 2.50437 (Simulation time: 0 hr 0 min 12 sec) 
Heartbeat CPU 0 instructions: 20000000 cycles: 7998256 heartbeat IPC: 2.49674 cumulative IPC: 2.50055 (Simulation time: 0 hr 0 min 24 sec) 
Heartbeat CPU 0 instructions: 30000000 cycles: 12078798 heartbeat IPC: 2.45065 cumulative IPC: 2.48369 (Simulation time: 0 hr 0 min 36 sec) 
Heartbeat CPU 0 instructions: 40000000 cycles: 16176846 heartbeat IPC: 2.44019 cumulative IPC: 2.47267 (Simulation time: 0 hr 0 min 48 sec) 
Heartbeat CPU 0 instructions: 50000000 cycles: 20263251 heartbeat IPC: 2.44714 cumulative IPC: 2.46752 (Simulation time: 0 hr 1 min 0 sec) 
Heartbeat CPU 0 instructions: 60000000 cycles: 24248977 heartbeat IPC: 2.50895 cumulative IPC: 2.47433 (Simulation time: 0 hr 1 min 11 sec) 
Heartbeat CPU 0 instructions: 70000001 cycles: 28157175 heartbeat IPC: 2.55872 cumulative IPC: 2.48604 (Simulation time: 0 hr 1 min 22 sec) 
Heartbeat CPU 0 instructions: 80000000 cycles: 32111652 heartbeat IPC: 2.52878 cumulative IPC: 2.49131 (Simulation time: 0 hr 1 min 34 sec) 
Heartbeat CPU 0 instructions: 90000000 cycles: 36078519 heartbeat IPC: 2.52088 cumulative IPC: 2.49456 (Simulation time: 0 hr 1 min 46 sec) 
Heartbeat CPU 0 instructions: 100000000 cycles: 40074571 heartbeat IPC: 2.50247 cumulative IPC: 2.49535 (Simulation time: 0 hr 1 min 58 sec) 
Heartbeat CPU 0 instructions: 110000001 cycles: 43957465 heartbeat IPC: 2.5754 cumulative IPC: 2.50242 (Simulation time: 0 hr 2 min 10 sec) 
Heartbeat CPU 0 instructions: 120000000 cycles: 47790888 heartbeat IPC: 2.60863 cumulative IPC: 2.51094 (Simulation time: 0 hr 2 min 21 sec) 
Heartbeat CPU 0 instructions: 130000002 cycles: 51507810 heartbeat IPC: 2.6904 cumulative IPC: 2.52389 (Simulation time: 0 hr 2 min 33 sec) 
Heartbeat CPU 0 instructions: 140000000 cycles: 55325708 heartbeat IPC: 2.61924 cumulative IPC: 2.53047 (Simulation time: 0 hr 2 min 44 sec) 
Heartbeat CPU 0 instructions: 150000003 cycles: 59088936 heartbeat IPC: 2.65729 cumulative IPC: 2.53855 (Simulation time: 0 hr 2 min 56 sec) 
Heartbeat CPU 0 instructions: 160000000 cycles: 62822932 heartbeat IPC: 2.6781 cumulative IPC: 2.54684 (Simulation time: 0 hr 3 min 7 sec) 
Heartbeat CPU 0 instructions: 170000000 cycles: 66712426 heartbeat IPC: 2.57103 cumulative IPC: 2.54825 (Simulation time: 0 hr 3 min 19 sec) 
Heartbeat CPU 0 instructions: 180000000 cycles: 70826123 heartbeat IPC: 2.4309 cumulative IPC: 2.54144 (Simulation time: 0 hr 3 min 31 sec) 
Heartbeat CPU 0 instructions: 190000000 cycles: 75164631 heartbeat IPC: 2.30494 cumulative IPC: 2.52778 (Simulation time: 0 hr 3 min 43 sec) 
Heartbeat CPU 0 instructions: 200000000 cycles: 79571635 heartbeat IPC: 2.26912 cumulative IPC: 2.51346 (Simulation time: 0 hr 3 min 55 sec) 

Warmup complete CPU 0 instructions: 200000001 cycles: 79571636 (Simulation time: 0 hr 3 min 55 sec) 

Heartbeat CPU 0 instructions: 210000000 cycles: 94807150 heartbeat IPC: 0.656361 cumulative IPC: 0.656361 (Simulation time: 0 hr 4 min 15 sec) 
Heartbeat CPU 0 instructions: 220000000 cycles: 108064912 heartbeat IPC: 0.754275 cumulative IPC: 0.70192 (Simulation time: 0 hr 4 min 35 sec) 
Heartbeat CPU 0 instructions: 230000002 cycles: 119425283 heartbeat IPC: 0.880253 cumulative IPC: 0.752754 (Simulation time: 0 hr 4 min 54 sec) 
Heartbeat CPU 0 instructions: 240000000 cycles: 130951112 heartbeat IPC: 0.867616 cumulative IPC: 0.778521 (Simulation time: 0 hr 5 min 13 sec) 
Heartbeat CPU 0 instructions: 250000000 cycles: 141702485 heartbeat IPC: 0.930114 cumulative IPC: 0.804753 (Simulation time: 0 hr 5 min 33 sec) 
Heartbeat CPU 0 instructions: 260000000 cycles: 151137741 heartbeat IPC: 1.05985 cumulative IPC: 0.838386 (Simulation time: 0 hr 5 min 52 sec) 
Heartbeat CPU 0 instructions: 270000001 cycles: 160101902 heartbeat IPC: 1.11555 cumulative IPC: 0.869238 (Simulation time: 0 hr 6 min 10 sec) 
Heartbeat CPU 0 instructions: 280000000 cycles: 173324010 heartbeat IPC: 0.756309 cumulative IPC: 0.853312 (Simulation time: 0 hr 6 min 30 sec) 
Heartbeat CPU 0 instructions: 290000000 cycles: 184687595 heartbeat IPC: 0.880004 cumulative IPC: 0.856197 (Simulation time: 0 hr 6 min 48 sec) 
Heartbeat CPU 0 instructions: 300000000 cycles: 194410814 heartbeat IPC: 1.02847 cumulative IPC: 0.870783 (Simulation time: 0 hr 7 min 7 sec) 
Heartbeat CPU 0 instructions: 310000002 cycles: 204636103 heartbeat IPC: 0.977968 cumulative IPC: 0.879546 (Simulation time: 0 hr 7 min 26 sec) 
Heartbeat CPU 0 instructions: 320000000 cycles: 216889957 heartbeat IPC: 0.81607 cumulative IPC: 0.873882 (Simulation time: 0 hr 7 min 47 sec) 
Heartbeat CPU 0 instructions: 330000001 cycles: 226419934 heartbeat IPC: 1.04932 cumulative IPC: 0.885267 (Simulation time: 0 hr 8 min 5 sec) 
Heartbeat CPU 0 instructions: 340000000 cycles: 238237014 heartbeat IPC: 0.846233 cumulative IPC: 0.88236 (Simulation time: 0 hr 8 min 24 sec) 
Heartbeat CPU 0 instructions: 350000001 cycles: 251136061 heartbeat IPC: 0.775251 cumulative IPC: 0.874307 (Simulation time: 0 hr 8 min 43 sec) 
Heartbeat CPU 0 instructions: 360000000 cycles: 264413558 heartbeat IPC: 0.753154 cumulative IPC: 0.865605 (Simulation time: 0 hr 9 min 3 sec) 
Heartbeat CPU 0 instructions: 370000000 cycles: 276076418 heartbeat IPC: 0.857423 cumulative IPC: 0.865119 (Simulation time: 0 hr 9 min 22 sec) 
Heartbeat CPU 0 instructions: 380000000 cycles: 286997954 heartbeat IPC: 0.915622 cumulative IPC: 0.867778 (Simulation time: 0 hr 9 min 41 sec) 
Heartbeat CPU 0 instructions: 390000001 cycles: 300283582 heartbeat IPC: 0.752693 cumulative IPC: 0.860851 (Simulation time: 0 hr 10 min 1 sec) 
Heartbeat CPU 0 instructions: 400000000 cycles: 312996709 heartbeat IPC: 0.786588 cumulative IPC: 0.856806 (Simulation time: 0 hr 10 min 20 sec) 
Heartbeat CPU 0 instructions: 410000000 cycles: 326157687 heartbeat IPC: 0.759822 cumulative IPC: 0.85163 (Simulation time: 0 hr 10 min 40 sec) 
Heartbeat CPU 0 instructions: 420000000 cycles: 339827138 heartbeat IPC: 0.731558 cumulative IPC: 0.845323 (Simulation time: 0 hr 11 min 0 sec) 
Heartbeat CPU 0 instructions: 430000003 cycles: 352072485 heartbeat IPC: 0.816637 cumulative IPC: 0.844034 (Simulation time: 0 hr 11 min 20 sec) 
Heartbeat CPU 0 instructions: 440000000 cycles: 364815739 heartbeat IPC: 0.784729 cumulative IPC: 0.841385 (Simulation time: 0 hr 11 min 41 sec) 
Heartbeat CPU 0 instructions: 450000002 cycles: 377292041 heartbeat IPC: 0.80152 cumulative IPC: 0.839714 (Simulation time: 0 hr 12 min 2 sec) 
Heartbeat CPU 0 instructions: 460000000 cycles: 389605241 heartbeat IPC: 0.812136 cumulative IPC: 0.838619 (Simulation time: 0 hr 12 min 22 sec) 
Heartbeat CPU 0 instructions: 470000000 cycles: 401380228 heartbeat IPC: 0.849258 cumulative IPC: 0.839008 (Simulation time: 0 hr 12 min 42 sec) 
Heartbeat CPU 0 instructions: 480000000 cycles: 412118812 heartbeat IPC: 0.931221 cumulative IPC: 0.841986 (Simulation time: 0 hr 13 min 1 sec) 
Heartbeat CPU 0 instructions: 490000001 cycles: 422567736 heartbeat IPC: 0.957036 cumulative IPC: 0.845491 (Simulation time: 0 hr 13 min 19 sec) 
Heartbeat CPU 0 instructions: 500000000 cycles: 434013197 heartbeat IPC: 0.873709 cumulative IPC: 0.846402 (Simulation time: 0 hr 13 min 39 sec) 
Heartbeat CPU 0 instructions: 510000003 cycles: 448360773 heartbeat IPC: 0.696982 cumulative IPC: 0.840589 (Simulation time: 0 hr 14 min 2 sec) 
Heartbeat CPU 0 instructions: 520000000 cycles: 459654112 heartbeat IPC: 0.885477 cumulative IPC: 0.841923 (Simulation time: 0 hr 14 min 22 sec) 
Heartbeat CPU 0 instructions: 530000001 cycles: 470597677 heartbeat IPC: 0.913779 cumulative IPC: 0.843934 (Simulation time: 0 hr 14 min 41 sec) 
Heartbeat CPU 0 instructions: 540000000 cycles: 481326405 heartbeat IPC: 0.932077 cumulative IPC: 0.846287 (Simulation time: 0 hr 15 min 0 sec) 
Heartbeat CPU 0 instructions: 550000000 cycles: 495461711 heartbeat IPC: 0.707448 cumulative IPC: 0.841569 (Simulation time: 0 hr 15 min 20 sec) 
Heartbeat CPU 0 instructions: 560000000 cycles: 506709589 heartbeat IPC: 0.889057 cumulative IPC: 0.842819 (Simulation time: 0 hr 15 min 40 sec) 
Heartbeat CPU 0 instructions: 570000002 cycles: 518499588 heartbeat IPC: 0.848177 cumulative IPC: 0.842963 (Simulation time: 0 hr 15 min 59 sec) 
Heartbeat CPU 0 instructions: 580000000 cycles: 529961776 heartbeat IPC: 0.872434 cumulative IPC: 0.843713 (Simulation time: 0 hr 16 min 18 sec) 
Heartbeat CPU 0 instructions: 590000000 cycles: 541697034 heartbeat IPC: 0.852133 cumulative IPC: 0.843927 (Simulation time: 0 hr 16 min 37 sec) 
Heartbeat CPU 0 instructions: 600000000 cycles: 553835634 heartbeat IPC: 0.823818 cumulative IPC: 0.843412 (Simulation time: 0 hr 16 min 56 sec) 
Heartbeat CPU 0 instructions: 610000000 cycles: 565969305 heartbeat IPC: 0.824153 cumulative IPC: 0.842932 (Simulation time: 0 hr 17 min 15 sec) 
Heartbeat CPU 0 instructions: 620000000 cycles: 577167167 heartbeat IPC: 0.893028 cumulative IPC: 0.844059 (Simulation time: 0 hr 17 min 34 sec) 
Heartbeat CPU 0 instructions: 630000000 cycles: 588907498 heartbeat IPC: 0.851765 cumulative IPC: 0.844237 (Simulation time: 0 hr 17 min 54 sec) 
Heartbeat CPU 0 instructions: 640000000 cycles: 600275421 heartbeat IPC: 0.879668 cumulative IPC: 0.84501 (Simulation time: 0 hr 18 min 12 sec) 
Heartbeat CPU 0 instructions: 650000000 cycles: 610834820 heartbeat IPC: 0.947024 cumulative IPC: 0.847038 (Simulation time: 0 hr 18 min 30 sec) 
Heartbeat CPU 0 instructions: 660000000 cycles: 622598074 heartbeat IPC: 0.850105 cumulative IPC: 0.847104 (Simulation time: 0 hr 18 min 50 sec) 
Heartbeat CPU 0 instructions: 670000003 cycles: 634210356 heartbeat IPC: 0.861157 cumulative IPC: 0.847398 (Simulation time: 0 hr 19 min 9 sec) 
Heartbeat CPU 0 instructions: 680000000 cycles: 645041663 heartbeat IPC: 0.923249 cumulative IPC: 0.848851 (Simulation time: 0 hr 19 min 27 sec) 
Heartbeat CPU 0 instructions: 690000001 cycles: 657475756 heartbeat IPC: 0.80424 cumulative IPC: 0.847892 (Simulation time: 0 hr 19 min 47 sec) 
Heartbeat CPU 0 instructions: 700000000 cycles: 668930945 heartbeat IPC: 0.872967 cumulative IPC: 0.848379 (Simulation time: 0 hr 20 min 7 sec) 
Heartbeat CPU 0 instructions: 710000003 cycles: 680939978 heartbeat IPC: 0.832707 cumulative IPC: 0.848066 (Simulation time: 0 hr 20 min 27 sec) 
Heartbeat CPU 0 instructions: 720000000 cycles: 692920929 heartbeat IPC: 0.834658 cumulative IPC: 0.847804 (Simulation time: 0 hr 20 min 48 sec) 
Heartbeat CPU 0 instructions: 730000002 cycles: 704540665 heartbeat IPC: 0.860605 cumulative IPC: 0.848042 (Simulation time: 0 hr 21 min 8 sec) 
Heartbeat CPU 0 instructions: 740000000 cycles: 716587004 heartbeat IPC: 0.830128 cumulative IPC: 0.847703 (Simulation time: 0 hr 21 min 28 sec) 
Heartbeat CPU 0 instructions: 750000002 cycles: 726033409 heartbeat IPC: 1.0586 cumulative IPC: 0.850785 (Simulation time: 0 hr 21 min 47 sec) 
Heartbeat CPU 0 instructions: 760000000 cycles: 734852691 heartbeat IPC: 1.13388 cumulative IPC: 0.854595 (Simulation time: 0 hr 22 min 5 sec) 
Heartbeat CPU 0 instructions: 770000000 cycles: 743761273 heartbeat IPC: 1.12251 cumulative IPC: 0.858189 (Simulation time: 0 hr 22 min 23 sec) 
Heartbeat CPU 0 instructions: 780000000 cycles: 752408358 heartbeat IPC: 1.15646 cumulative IPC: 0.862022 (Simulation time: 0 hr 22 min 41 sec) 
Heartbeat CPU 0 instructions: 790000003 cycles: 761395476 heartbeat IPC: 1.1127 cumulative IPC: 0.865326 (Simulation time: 0 hr 23 min 0 sec) 
Heartbeat CPU 0 instructions: 800000000 cycles: 770333793 heartbeat IPC: 1.11878 cumulative IPC: 0.868606 (Simulation time: 0 hr 23 min 18 sec) 
Heartbeat CPU 0 instructions: 810000000 cycles: 779250741 heartbeat IPC: 1.12146 cumulative IPC: 0.871828 (Simulation time: 0 hr 23 min 37 sec) 
Heartbeat CPU 0 instructions: 820000000 cycles: 787969622 heartbeat IPC: 1.14694 cumulative IPC: 0.875214 (Simulation time: 0 hr 23 min 55 sec) 
Heartbeat CPU 0 instructions: 830000002 cycles: 796730350 heartbeat IPC: 1.14146 cumulative IPC: 0.878467 (Simulation time: 0 hr 24 min 13 sec) 
Heartbeat CPU 0 instructions: 840000000 cycles: 805207312 heartbeat IPC: 1.17967 cumulative IPC: 0.881985 (Simulation time: 0 hr 24 min 31 sec) 
Heartbeat CPU 0 instructions: 850000001 cycles: 814221660 heartbeat IPC: 1.10934 cumulative IPC: 0.884775 (Simulation time: 0 hr 24 min 50 sec) 
Heartbeat CPU 0 instructions: 860000000 cycles: 823012273 heartbeat IPC: 1.13758 cumulative IPC: 0.887764 (Simulation time: 0 hr 25 min 8 sec) 
Heartbeat CPU 0 instructions: 870000003 cycles: 832007864 heartbeat IPC: 1.11166 cumulative IPC: 0.890441 (Simulation time: 0 hr 25 min 27 sec) 
Heartbeat CPU 0 instructions: 880000000 cycles: 840704077 heartbeat IPC: 1.14993 cumulative IPC: 0.893406 (Simulation time: 0 hr 25 min 45 sec) 
Heartbeat CPU 0 instructions: 890000001 cycles: 849411452 heartbeat IPC: 1.14845 cumulative IPC: 0.89629 (Simulation time: 0 hr 26 min 3 sec) 
Heartbeat CPU 0 instructions: 900000000 cycles: 858259528 heartbeat IPC: 1.13019 cumulative IPC: 0.898948 (Simulation time: 0 hr 26 min 21 sec) 
Heartbeat CPU 0 instructions: 910000001 cycles: 867014845 heartbeat IPC: 1.14216 cumulative IPC: 0.901652 (Simulation time: 0 hr 26 min 40 sec) 
Heartbeat CPU 0 instructions: 920000000 cycles: 875794064 heartbeat IPC: 1.13905 cumulative IPC: 0.90427 (Simulation time: 0 hr 26 min 58 sec) 
Heartbeat CPU 0 instructions: 930000001 cycles: 886215673 heartbeat IPC: 0.959545 cumulative IPC: 0.904984 (Simulation time: 0 hr 27 min 17 sec) 
Heartbeat CPU 0 instructions: 940000000 cycles: 897472447 heartbeat IPC: 0.888354 cumulative IPC: 0.904755 (Simulation time: 0 hr 27 min 36 sec) 
Heartbeat CPU 0 instructions: 950000001 cycles: 910419985 heartbeat IPC: 0.772348 cumulative IPC: 0.902692 (Simulation time: 0 hr 27 min 56 sec) 
Heartbeat CPU 0 instructions: 960000000 cycles: 920394297 heartbeat IPC: 1.00258 cumulative IPC: 0.903877 (Simulation time: 0 hr 28 min 14 sec) 
Heartbeat CPU 0 instructions: 970000000 cycles: 931326605 heartbeat IPC: 0.91472 cumulative IPC: 0.904016 (Simulation time: 0 hr 28 min 33 sec) 
Heartbeat CPU 0 instructions: 980000000 cycles: 945566104 heartbeat IPC: 0.702272 cumulative IPC: 0.900699 (Simulation time: 0 hr 28 min 53 sec) 
Heartbeat CPU 0 instructions: 990000003 cycles: 960908594 heartbeat IPC: 0.651785 cumulative IPC: 0.896365 (Simulation time: 0 hr 29 min 14 sec) 
Heartbeat CPU 0 instructions: 1000000000 cycles: 972504610 heartbeat IPC: 0.862365 cumulative IPC: 0.895924 (Simulation time: 0 hr 29 min 33 sec) 
Heartbeat CPU 0 instructions: 1010000002 cycles: 983635429 heartbeat IPC: 0.898407 cumulative IPC: 0.895954 (Simulation time: 0 hr 29 min 52 sec) 
Heartbeat CPU 0 instructions: 1020000000 cycles: 999367934 heartbeat IPC: 0.635627 cumulative IPC: 0.891502 (Simulation time: 0 hr 30 min 13 sec) 
Heartbeat CPU 0 instructions: 1030000003 cycles: 1017700778 heartbeat IPC: 0.545469 cumulative IPC: 0.88474 (Simulation time: 0 hr 30 min 34 sec) 
Heartbeat CPU 0 instructions: 1040000000 cycles: 1037194462 heartbeat IPC: 0.512987 cumulative IPC: 0.877172 (Simulation time: 0 hr 30 min 56 sec) 
Heartbeat CPU 0 instructions: 1050000002 cycles: 1055041103 heartbeat IPC: 0.56033 cumulative IPC: 0.871375 (Simulation time: 0 hr 31 min 17 sec) 
Heartbeat CPU 0 instructions: 1060000000 cycles: 1069510975 heartbeat IPC: 0.691091 cumulative IPC: 0.86874 (Simulation time: 0 hr 31 min 37 sec) 
Heartbeat CPU 0 instructions: 1070000000 cycles: 1080445157 heartbeat IPC: 0.914563 cumulative IPC: 0.869241 (Simulation time: 0 hr 31 min 56 sec) 
Heartbeat CPU 0 instructions: 1080000000 cycles: 1090176768 heartbeat IPC: 1.02758 cumulative IPC: 0.870765 (Simulation time: 0 hr 32 min 15 sec) 
Heartbeat CPU 0 instructions: 1090000000 cycles: 1104208037 heartbeat IPC: 0.712694 cumulative IPC: 0.868601 (Simulation time: 0 hr 32 min 35 sec) 
Heartbeat CPU 0 instructions: 1100000000 cycles: 1118210869 heartbeat IPC: 0.714141 cumulative IPC: 0.866518 (Simulation time: 0 hr 32 min 55 sec) 
Heartbeat CPU 0 instructions: 1110000002 cycles: 1135130955 heartbeat IPC: 0.591014 cumulative IPC: 0.862102 (Simulation time: 0 hr 33 min 16 sec) 
Heartbeat CPU 0 instructions: 1120000000 cycles: 1150435316 heartbeat IPC: 0.653408 cumulative IPC: 0.85912 (Simulation time: 0 hr 33 min 38 sec) 
Heartbeat CPU 0 instructions: 1130000000 cycles: 1161352053 heartbeat IPC: 0.916025 cumulative IPC: 0.859694 (Simulation time: 0 hr 33 min 56 sec) 
Heartbeat CPU 0 instructions: 1140000000 cycles: 1172846767 heartbeat IPC: 0.869965 cumulative IPC: 0.859802 (Simulation time: 0 hr 34 min 15 sec) 
Heartbeat CPU 0 instructions: 1150000000 cycles: 1182658586 heartbeat IPC: 1.01918 cumulative IPC: 0.86122 (Simulation time: 0 hr 34 min 34 sec) 
Heartbeat CPU 0 instructions: 1160000000 cycles: 1192497984 heartbeat IPC: 1.01632 cumulative IPC: 0.862591 (Simulation time: 0 hr 34 min 53 sec) 
Heartbeat CPU 0 instructions: 1170000002 cycles: 1202090754 heartbeat IPC: 1.04245 cumulative IPC: 0.864128 (Simulation time: 0 hr 35 min 12 sec) 
Heartbeat CPU 0 instructions: 1180000000 cycles: 1211883466 heartbeat IPC: 1.02117 cumulative IPC: 0.865486 (Simulation time: 0 hr 35 min 31 sec) 
Heartbeat CPU 0 instructions: 1190000000 cycles: 1221736151 heartbeat IPC: 1.01495 cumulative IPC: 0.866775 (Simulation time: 0 hr 35 min 50 sec) 
Heartbeat CPU 0 instructions: 1200000000 cycles: 1233824838 heartbeat IPC: 0.82722 cumulative IPC: 0.866361 (Simulation time: 0 hr 36 min 10 sec) 
Finished CPU 0 instructions: 1000000001 cycles: 1154253211 cumulative IPC: 0.866361 (Simulation time: 0 hr 36 min 10 sec) 

CPU 0 Branch Prediction Accuracy: 93.7529% MPKI: 9.3215

ChampSim completed all CPUs

Region of Interest Statistics

CPU 0 cumulative IPC: 0.866361 instructions: 1000000001 cycles: 1154253211
L1D TOTAL     ACCESS:  191339596  HIT:  185055941  MISS:    6283655
L1D LOAD      ACCESS:  127254745  HIT:  122639707  MISS:    4615038
L1D RFO       ACCESS:   64084851  HIT:   62416234  MISS:    1668617
L1D PREFETCH  ACCESS:          0  HIT:          0  MISS:          0
L1D WRITEBACK ACCESS:          0  HIT:          0  MISS:          0
L1D PREFETCH  REQUESTED:          0  ISSUED:          0  USEFUL:          0  USELESS:          0
L1I TOTAL     ACCESS:  178374307  HIT:  178371039  MISS:       3268
L1I LOAD      ACCESS:  178374307  HIT:  178371039  MISS:       3268
L1I RFO       ACCESS:          0  HIT:          0  MISS:          0
L1I PREFETCH  ACCESS:          0  HIT:          0  MISS:          0
L1I WRITEBACK ACCESS:          0  HIT:          0  MISS:          0
L1I PREFETCH  REQUESTED:          0  ISSUED:          0  USEFUL:          0  USELESS:          0
L2C TOTAL     ACCESS:   12838167  HIT:    8946354  MISS:    3891813
L2C LOAD      ACCESS:    4618083  HIT:    2972560  MISS:    1645523
L2C RFO       ACCESS:    1668259  HIT:    1113663  MISS:     554596
L2C PREFETCH  ACCESS:    1900745  HIT:     228787  MISS:    1671958
L2C WRITEBACK ACCESS:    4651080  HIT:    4631344  MISS:      19736
L2C PREFETCH  REQUESTED:    2316159  ISSUED:    2316159  USEFUL:     413771  USELESS:    1589663
LLC TOTAL     ACCESS:    5667691  HIT:    2411473  MISS:    3256218
LLC LOAD      ACCESS:    1632922  HIT:     374949  MISS:    1257973
LLC RFO       ACCESS:     554581  HIT:      82856  MISS:     471725
LLC PREFETCH  ACCESS:    1696212  HIT:     260022  MISS:    1436190
LLC WRITEBACK ACCESS:    1783976  HIT:    1693646  MISS:      90330
LLC PREFETCH  REQUESTED:          0  ISSUED:          0  USEFUL:      87093  USELESS:    1623005
Major fault: 0 Minor fault: 11827

L2C Best-offset prefetcher final stats

DRAM Statistics
 CHANNEL 0
 RQ ROW_BUFFER_HIT:     992254  ROW_BUFFER_MISS:    2170144
 DBUS_CONGESTED:    2352825
 WQ ROW_BUFFER_HIT:     315981  ROW_BUFFER_MISS:    1183853  FULL:          0

 AVG_CONGESTED_CYCLE: 13
