
*** ChampSim Multicore Out-of-Order Simulator ***

Warmup Instructions: 20000000
Simulation Instructions: 100000000
Number of CPUs: 4
LLC sets: 8192
LLC ways: 16
Off-chip DRAM Size: 8192 MB Channels: 2 Width: 64-bit Data Rate: 1600 MT/s

CPU 0 runs /scratch/user/eshanbhatia22/THESIS/cloudsuite_traces/streaming_phase1_core0.trace.gz
CPU 1 runs /scratch/user/eshanbhatia22/THESIS/cloudsuite_traces/streaming_phase1_core1.trace.gz
CPU 2 runs /scratch/user/eshanbhatia22/THESIS/cloudsuite_traces/streaming_phase1_core2.trace.gz
CPU 3 runs /scratch/user/eshanbhatia22/THESIS/cloudsuite_traces/streaming_phase1_core3.trace.gz
L2C Best-offset prefetcher
L2C Best-offset prefetcher
L2C Best-offset prefetcher
L2C Best-offset prefetcher
Heartbeat CPU 2 instructions: 10000001 cycles: 3733225 heartbeat IPC: 2.67865 cumulative IPC: 2.67865 (Simulation time: 0 hr 1 min 9 sec) 
Heartbeat CPU 3 instructions: 10000003 cycles: 4419273 heartbeat IPC: 2.26282 cumulative IPC: 2.26282 (Simulation time: 0 hr 1 min 21 sec) 
Heartbeat CPU 1 instructions: 10000001 cycles: 4543923 heartbeat IPC: 2.20074 cumulative IPC: 2.20074 (Simulation time: 0 hr 1 min 23 sec) 
Heartbeat CPU 0 instructions: 10000003 cycles: 4588005 heartbeat IPC: 2.1796 cumulative IPC: 2.1796 (Simulation time: 0 hr 1 min 24 sec) 
Heartbeat CPU 2 instructions: 20000000 cycles: 6737460 heartbeat IPC: 3.32863 cumulative IPC: 2.96848 (Simulation time: 0 hr 2 min 7 sec) 
Heartbeat CPU 3 instructions: 20000000 cycles: 8914745 heartbeat IPC: 2.22446 cumulative IPC: 2.24347 (Simulation time: 0 hr 2 min 50 sec) 
Heartbeat CPU 1 instructions: 20000000 cycles: 9015849 heartbeat IPC: 2.23617 cumulative IPC: 2.21832 (Simulation time: 0 hr 2 min 52 sec) 
Heartbeat CPU 0 instructions: 20000000 cycles: 9041643 heartbeat IPC: 2.24535 cumulative IPC: 2.21199 (Simulation time: 0 hr 2 min 53 sec) 

Warmup complete CPU 0 instructions: 20000001 cycles: 9041654 (Simulation time: 0 hr 2 min 53 sec) 
Warmup complete CPU 1 instructions: 20057988 cycles: 9041653 (Simulation time: 0 hr 2 min 53 sec) 
Warmup complete CPU 2 instructions: 28010845 cycles: 9041653 (Simulation time: 0 hr 2 min 53 sec) 
Warmup complete CPU 3 instructions: 20278409 cycles: 9041653 (Simulation time: 0 hr 2 min 53 sec) 

Heartbeat CPU 2 instructions: 30000000 cycles: 13068313 heartbeat IPC: 1.57957 cumulative IPC: 0.493996 (Simulation time: 0 hr 3 min 3 sec) 
Heartbeat CPU 2 instructions: 40000000 cycles: 47981093 heartbeat IPC: 0.286428 cumulative IPC: 0.307892 (Simulation time: 0 hr 4 min 18 sec) 
Heartbeat CPU 3 instructions: 30000001 cycles: 60072805 heartbeat IPC: 0.195473 cumulative IPC: 0.190503 (Simulation time: 0 hr 4 min 41 sec) 
Heartbeat CPU 1 instructions: 30000003 cycles: 61019507 heartbeat IPC: 0.192294 cumulative IPC: 0.191274 (Simulation time: 0 hr 4 min 43 sec) 
Heartbeat CPU 0 instructions: 30000002 cycles: 62143107 heartbeat IPC: 0.188319 cumulative IPC: 0.188319 (Simulation time: 0 hr 4 min 45 sec) 
Heartbeat CPU 2 instructions: 50000003 cycles: 111680992 heartbeat IPC: 0.156986 cumulative IPC: 0.214237 (Simulation time: 0 hr 6 min 22 sec) 
Heartbeat CPU 3 instructions: 40000000 cycles: 112727527 heartbeat IPC: 0.189916 cumulative IPC: 0.190205 (Simulation time: 0 hr 6 min 24 sec) 
Heartbeat CPU 1 instructions: 40000000 cycles: 113713050 heartbeat IPC: 0.189777 cumulative IPC: 0.19052 (Simulation time: 0 hr 6 min 26 sec) 
Heartbeat CPU 0 instructions: 40000000 cycles: 114498601 heartbeat IPC: 0.191002 cumulative IPC: 0.189651 (Simulation time: 0 hr 6 min 28 sec) 
Heartbeat CPU 2 instructions: 60000000 cycles: 166162315 heartbeat IPC: 0.183549 cumulative IPC: 0.203596 (Simulation time: 0 hr 8 min 9 sec) 
Heartbeat CPU 3 instructions: 50000000 cycles: 166217779 heartbeat IPC: 0.18695 cumulative IPC: 0.189097 (Simulation time: 0 hr 8 min 10 sec) 
Heartbeat CPU 1 instructions: 50000002 cycles: 167211861 heartbeat IPC: 0.18692 cumulative IPC: 0.189302 (Simulation time: 0 hr 8 min 11 sec) 
Heartbeat CPU 0 instructions: 50000002 cycles: 167619561 heartbeat IPC: 0.18825 cumulative IPC: 0.189181 (Simulation time: 0 hr 8 min 12 sec) 
Heartbeat CPU 2 instructions: 70000001 cycles: 187841551 heartbeat IPC: 0.461271 cumulative IPC: 0.234839 (Simulation time: 0 hr 9 min 2 sec) 
Heartbeat CPU 3 instructions: 60000000 cycles: 219471501 heartbeat IPC: 0.18778 cumulative IPC: 0.188764 (Simulation time: 0 hr 10 min 9 sec) 
Heartbeat CPU 0 instructions: 60000000 cycles: 220628762 heartbeat IPC: 0.188646 cumulative IPC: 0.189047 (Simulation time: 0 hr 10 min 11 sec) 
Heartbeat CPU 1 instructions: 60000000 cycles: 220757051 heartbeat IPC: 0.186758 cumulative IPC: 0.188659 (Simulation time: 0 hr 10 min 11 sec) 
Heartbeat CPU 2 instructions: 80000000 cycles: 230069815 heartbeat IPC: 0.236808 cumulative IPC: 0.235215 (Simulation time: 0 hr 10 min 29 sec) 
Heartbeat CPU 0 instructions: 70000001 cycles: 245712051 heartbeat IPC: 0.398672 cumulative IPC: 0.211264 (Simulation time: 0 hr 11 min 7 sec) 
Heartbeat CPU 1 instructions: 70000000 cycles: 255151682 heartbeat IPC: 0.290743 cumulative IPC: 0.202926 (Simulation time: 0 hr 11 min 31 sec) 
Heartbeat CPU 3 instructions: 70000003 cycles: 272349085 heartbeat IPC: 0.189116 cumulative IPC: 0.188835 (Simulation time: 0 hr 12 min 6 sec) 
Heartbeat CPU 2 instructions: 90000001 cycles: 289740402 heartbeat IPC: 0.167587 cumulative IPC: 0.220839 (Simulation time: 0 hr 12 min 40 sec) 
Heartbeat CPU 0 instructions: 80000000 cycles: 294833368 heartbeat IPC: 0.203578 cumulative IPC: 0.209943 (Simulation time: 0 hr 12 min 50 sec) 
Heartbeat CPU 1 instructions: 80000000 cycles: 307941466 heartbeat IPC: 0.189431 cumulative IPC: 0.200542 (Simulation time: 0 hr 13 min 15 sec) 
Heartbeat CPU 3 instructions: 80000000 cycles: 325671532 heartbeat IPC: 0.187538 cumulative IPC: 0.188616 (Simulation time: 0 hr 13 min 49 sec) 
Heartbeat CPU 0 instructions: 90000000 cycles: 348127710 heartbeat IPC: 0.187637 cumulative IPC: 0.206437 (Simulation time: 0 hr 14 min 32 sec) 
*** Reached end of trace for Core: 2 Repeating trace: /scratch/user/eshanbhatia22/THESIS/cloudsuite_traces/streaming_phase1_core2.trace.gz
Heartbeat CPU 2 instructions: 100000000 cycles: 352750780 heartbeat IPC: 0.158704 cumulative IPC: 0.209448 (Simulation time: 0 hr 14 min 41 sec) 
Heartbeat CPU 1 instructions: 90000000 cycles: 361347184 heartbeat IPC: 0.187246 cumulative IPC: 0.198527 (Simulation time: 0 hr 15 min 2 sec) 
Heartbeat CPU 3 instructions: 90000000 cycles: 378940610 heartbeat IPC: 0.187726 cumulative IPC: 0.188488 (Simulation time: 0 hr 15 min 38 sec) 
Heartbeat CPU 2 instructions: 110000002 cycles: 389932002 heartbeat IPC: 0.268953 cumulative IPC: 0.215257 (Simulation time: 0 hr 15 min 59 sec) 
*** Reached end of trace for Core: 0 Repeating trace: /scratch/user/eshanbhatia22/THESIS/cloudsuite_traces/streaming_phase1_core0.trace.gz
Heartbeat CPU 0 instructions: 100000000 cycles: 401946616 heartbeat IPC: 0.185808 cumulative IPC: 0.203612 (Simulation time: 0 hr 16 min 27 sec) 
Heartbeat CPU 2 instructions: 120000000 cycles: 413075430 heartbeat IPC: 0.432088 cumulative IPC: 0.227677 (Simulation time: 0 hr 16 min 55 sec) 
*** Reached end of trace for Core: 1 Repeating trace: /scratch/user/eshanbhatia22/THESIS/cloudsuite_traces/streaming_phase1_core1.trace.gz
Heartbeat CPU 1 instructions: 100000000 cycles: 414496326 heartbeat IPC: 0.18815 cumulative IPC: 0.197166 (Simulation time: 0 hr 16 min 58 sec) 
Finished CPU 2 instructions: 100000002 cycles: 420533523 cumulative IPC: 0.237793 (Simulation time: 0 hr 17 min 36 sec) 
*** Reached end of trace for Core: 3 Repeating trace: /scratch/user/eshanbhatia22/THESIS/cloudsuite_traces/streaming_phase1_core3.trace.gz
Heartbeat CPU 3 instructions: 100000000 cycles: 432643847 heartbeat IPC: 0.186209 cumulative IPC: 0.188199 (Simulation time: 0 hr 17 min 44 sec) 
Heartbeat CPU 2 instructions: 130000003 cycles: 433593871 heartbeat IPC: 0.487367 cumulative IPC: 0.240228 (Simulation time: 0 hr 17 min 46 sec) 
Heartbeat CPU 0 instructions: 110000000 cycles: 453004228 heartbeat IPC: 0.195857 cumulative IPC: 0.20272 (Simulation time: 0 hr 18 min 31 sec) 
Heartbeat CPU 1 instructions: 110000002 cycles: 466939471 heartbeat IPC: 0.190683 cumulative IPC: 0.196424 (Simulation time: 0 hr 18 min 59 sec) 
Heartbeat CPU 2 instructions: 140000000 cycles: 468915599 heartbeat IPC: 0.283112 cumulative IPC: 0.243521 (Simulation time: 0 hr 19 min 2 sec) 
Heartbeat CPU 3 instructions: 110000000 cycles: 481923573 heartbeat IPC: 0.202923 cumulative IPC: 0.189734 (Simulation time: 0 hr 19 min 27 sec) 
Heartbeat CPU 0 instructions: 120000000 cycles: 505551037 heartbeat IPC: 0.190307 cumulative IPC: 0.201406 (Simulation time: 0 hr 20 min 12 sec) 
Finished CPU 0 instructions: 100000001 cycles: 496509391 cumulative IPC: 0.201406 (Simulation time: 0 hr 20 min 12 sec) 
Heartbeat CPU 1 instructions: 120000000 cycles: 519776693 heartbeat IPC: 0.18926 cumulative IPC: 0.195683 (Simulation time: 0 hr 20 min 39 sec) 
Finished CPU 1 instructions: 100000001 cycles: 511027840 cumulative IPC: 0.195684 (Simulation time: 0 hr 20 min 39 sec) 
Heartbeat CPU 2 instructions: 150000000 cycles: 532624592 heartbeat IPC: 0.156964 cumulative IPC: 0.232989 (Simulation time: 0 hr 21 min 3 sec) 
Heartbeat CPU 3 instructions: 120000000 cycles: 534280275 heartbeat IPC: 0.190998 cumulative IPC: 0.18986 (Simulation time: 0 hr 21 min 6 sec) 
Finished CPU 3 instructions: 100000001 cycles: 526659224 cumulative IPC: 0.189876 (Simulation time: 0 hr 21 min 9 sec) 

CPU 0 Branch Prediction Accuracy: 97.3743% MPKI: 4.82918

CPU 1 Branch Prediction Accuracy: 97.3214% MPKI: 4.98137

CPU 2 Branch Prediction Accuracy: 97.1944% MPKI: 4.43041

CPU 3 Branch Prediction Accuracy: 97.2413% MPKI: 5.1541

ChampSim completed all CPUs

Total Simulation Statistics (not including warmup)

CPU 0 cumulative IPC: 0.200561 instructions: 105627169 cycles: 526659223
L1D TOTAL     ACCESS:   16961573  HIT:   14958142  MISS:    2003431
L1D LOAD      ACCESS:    9870111  HIT:    8409506  MISS:    1460605
L1D RFO       ACCESS:    7091462  HIT:    6548636  MISS:     542826
L1D PREFETCH  ACCESS:          0  HIT:          0  MISS:          0
L1D WRITEBACK ACCESS:          0  HIT:          0  MISS:          0
L1I TOTAL     ACCESS:   23980264  HIT:   19862326  MISS:    4117938
L1I LOAD      ACCESS:   23980264  HIT:   19862326  MISS:    4117938
L1I RFO       ACCESS:          0  HIT:          0  MISS:          0
L1I PREFETCH  ACCESS:          0  HIT:          0  MISS:          0
L1I WRITEBACK ACCESS:          0  HIT:          0  MISS:          0
L2C TOTAL     ACCESS:    7391855  HIT:    6287084  MISS:    1104771
L2C LOAD      ACCESS:    5578424  HIT:    5174917  MISS:     403507
L2C RFO       ACCESS:     542539  HIT:     306563  MISS:     235976
L2C PREFETCH  ACCESS:     510219  HIT:      55858  MISS:     454361
L2C WRITEBACK ACCESS:     760673  HIT:     749746  MISS:      10927

L2C Best-offset prefetcher final stats
LLC TOTAL     ACCESS:    1404826  HIT:     872337  MISS:     532489
LLC LOAD      ACCESS:     330590  HIT:     228606  MISS:     101984
LLC RFO       ACCESS:     235941  HIT:     129331  MISS:     106610
LLC PREFETCH  ACCESS:     529659  HIT:     206428  MISS:     323231
LLC WRITEBACK ACCESS:     308636  HIT:     307972  MISS:        664

CPU 1 cumulative IPC: 0.19562 instructions: 103024889 cycles: 526659224
L1D TOTAL     ACCESS:   16880156  HIT:   14915877  MISS:    1964279
L1D LOAD      ACCESS:    9722748  HIT:    8293199  MISS:    1429549
L1D RFO       ACCESS:    7157408  HIT:    6622678  MISS:     534730
L1D PREFETCH  ACCESS:          0  HIT:          0  MISS:          0
L1D WRITEBACK ACCESS:          0  HIT:          0  MISS:          0
L1I TOTAL     ACCESS:   23588786  HIT:   19473482  MISS:    4115304
L1I LOAD      ACCESS:   23588786  HIT:   19473482  MISS:    4115304
L1I RFO       ACCESS:          0  HIT:          0  MISS:          0
L1I PREFETCH  ACCESS:          0  HIT:          0  MISS:          0
L1I WRITEBACK ACCESS:          0  HIT:          0  MISS:          0
L2C TOTAL     ACCESS:    7313278  HIT:    6253577  MISS:    1059701
L2C LOAD      ACCESS:    5544748  HIT:    5157363  MISS:     387385
L2C RFO       ACCESS:     534519  HIT:     307733  MISS:     226786
L2C PREFETCH  ACCESS:     487635  HIT:      53715  MISS:     433920
L2C WRITEBACK ACCESS:     746376  HIT:     734766  MISS:      11610

L2C Best-offset prefetcher final stats
LLC TOTAL     ACCESS:    1349043  HIT:     848819  MISS:     500224
LLC LOAD      ACCESS:     327295  HIT:     224286  MISS:     103009
LLC RFO       ACCESS:     226754  HIT:     125048  MISS:     101706
LLC PREFETCH  ACCESS:     496898  HIT:     202157  MISS:     294741
LLC WRITEBACK ACCESS:     298096  HIT:     297328  MISS:        768

CPU 2 cumulative IPC: 0.232541 instructions: 122469764 cycles: 526659224
L1D TOTAL     ACCESS:   16023006  HIT:   14093911  MISS:    1929095
L1D LOAD      ACCESS:   10506392  HIT:    9002566  MISS:    1503826
L1D RFO       ACCESS:    5516614  HIT:    5091345  MISS:     425269
L1D PREFETCH  ACCESS:          0  HIT:          0  MISS:          0
L1D WRITEBACK ACCESS:          0  HIT:          0  MISS:          0
L1I TOTAL     ACCESS:   24976015  HIT:   22229436  MISS:    2746579
L1I LOAD      ACCESS:   24976015  HIT:   22229436  MISS:    2746579
L1I RFO       ACCESS:          0  HIT:          0  MISS:          0
L1I PREFETCH  ACCESS:          0  HIT:          0  MISS:          0
L1I WRITEBACK ACCESS:          0  HIT:          0  MISS:          0
L2C TOTAL     ACCESS:    6163151  HIT:    4862097  MISS:    1301054
L2C LOAD      ACCESS:    4250249  HIT:    3777048  MISS:     473201
L2C RFO       ACCESS:     425124  HIT:     287225  MISS:     137899
L2C PREFETCH  ACCESS:     762984  HIT:      87258  MISS:     675726
L2C WRITEBACK ACCESS:     724794  HIT:     710566  MISS:      14228

L2C Best-offset prefetcher final stats
LLC TOTAL     ACCESS:    1544864  HIT:     900020  MISS:     644844
LLC LOAD      ACCESS:     420458  HIT:     322976  MISS:      97482
LLC RFO       ACCESS:     137860  HIT:      79401  MISS:      58459
LLC PREFETCH  ACCESS:     729135  HIT:     241085  MISS:     488050
LLC WRITEBACK ACCESS:     257411  HIT:     256558  MISS:        853

CPU 3 cumulative IPC: 0.189876 instructions: 100000001 cycles: 526659224
L1D TOTAL     ACCESS:   16781822  HIT:   14809737  MISS:    1972085
L1D LOAD      ACCESS:    9643877  HIT:    8220650  MISS:    1423227
L1D RFO       ACCESS:    7137945  HIT:    6589087  MISS:     548858
L1D PREFETCH  ACCESS:          0  HIT:          0  MISS:          0
L1D WRITEBACK ACCESS:          0  HIT:          0  MISS:          0
L1I TOTAL     ACCESS:   23054666  HIT:   18918364  MISS:    4136302
L1I LOAD      ACCESS:   23054666  HIT:   18918364  MISS:    4136302
L1I RFO       ACCESS:          0  HIT:          0  MISS:          0
L1I PREFETCH  ACCESS:          0  HIT:          0  MISS:          0
L1I WRITEBACK ACCESS:          0  HIT:          0  MISS:          0
L2C TOTAL     ACCESS:    7337379  HIT:    6270256  MISS:    1067123
L2C LOAD      ACCESS:    5559453  HIT:    5158592  MISS:     400861
L2C RFO       ACCESS:     548580  HIT:     306906  MISS:     241674
L2C PREFETCH  ACCESS:     469449  HIT:      55957  MISS:     413492
L2C WRITEBACK ACCESS:     759897  HIT:     748801  MISS:      11096

L2C Best-offset prefetcher final stats
LLC TOTAL     ACCESS:    1371419  HIT:     883101  MISS:     488318
LLC LOAD      ACCESS:     326758  HIT:     231070  MISS:      95688
LLC RFO       ACCESS:     241647  HIT:     127705  MISS:     113942
LLC PREFETCH  ACCESS:     489680  HIT:     211707  MISS:     277973
LLC WRITEBACK ACCESS:     313334  HIT:     312619  MISS:        715

Region of Interest Statistics

CPU 0 cumulative IPC: 0.201406 instructions: 100000001 cycles: 496509391
L1D TOTAL     ACCESS:   16000697  HIT:   14098419  MISS:    1902278
L1D LOAD      ACCESS:    9329826  HIT:    7942912  MISS:    1386914
L1D RFO       ACCESS:    6670871  HIT:    6155507  MISS:     515364
L1D PREFETCH  ACCESS:          0  HIT:          0  MISS:          0
L1D WRITEBACK ACCESS:          0  HIT:          0  MISS:          0
L1D PREFETCH  REQUESTED:          0  ISSUED:          0  USEFUL:          0  USELESS:          0
L1I TOTAL     ACCESS:   22674064  HIT:   18794064  MISS:    3880000
L1I LOAD      ACCESS:   22674064  HIT:   18794064  MISS:    3880000
L1I RFO       ACCESS:          0  HIT:          0  MISS:          0
L1I PREFETCH  ACCESS:          0  HIT:          0  MISS:          0
L1I WRITEBACK ACCESS:          0  HIT:          0  MISS:          0
L1I PREFETCH  REQUESTED:          0  ISSUED:          0  USEFUL:          0  USELESS:          0
L2C TOTAL     ACCESS:    6998462  HIT:    5929785  MISS:    1068677
L2C LOAD      ACCESS:    5266809  HIT:    4875360  MISS:     391449
L2C RFO       ACCESS:     515106  HIT:     288120  MISS:     226986
L2C PREFETCH  ACCESS:     493634  HIT:      53905  MISS:     439729
L2C WRITEBACK ACCESS:     722913  HIT:     712400  MISS:      10513
L2C PREFETCH  REQUESTED:     707876  ISSUED:     707876  USEFUL:     306024  USELESS:     237274
LLC TOTAL     ACCESS:    1357712  HIT:     840219  MISS:     517493
LLC LOAD      ACCESS:     320484  HIT:     221900  MISS:      98584
LLC RFO       ACCESS:     226952  HIT:     122185  MISS:     104767
LLC PREFETCH  ACCESS:     513001  HIT:     199488  MISS:     313513
LLC WRITEBACK ACCESS:     297275  HIT:     296646  MISS:        629
LLC PREFETCH  REQUESTED:          0  ISSUED:          0  USEFUL:      61855  USELESS:    1574266
Major fault: 0 Minor fault: 17973

CPU 1 cumulative IPC: 0.195684 instructions: 100000001 cycles: 511027840
L1D TOTAL     ACCESS:   16365845  HIT:   14455030  MISS:    1910815
L1D LOAD      ACCESS:    9436104  HIT:    8044861  MISS:    1391243
L1D RFO       ACCESS:    6929741  HIT:    6410169  MISS:     519572
L1D PREFETCH  ACCESS:          0  HIT:          0  MISS:          0
L1D WRITEBACK ACCESS:          0  HIT:          0  MISS:          0
L1D PREFETCH  REQUESTED:          0  ISSUED:          0  USEFUL:          0  USELESS:          0
L1I TOTAL     ACCESS:   22884362  HIT:   18890685  MISS:    3993677
L1I LOAD      ACCESS:   22884362  HIT:   18890685  MISS:    3993677
L1I RFO       ACCESS:          0  HIT:          0  MISS:          0
L1I PREFETCH  ACCESS:          0  HIT:          0  MISS:          0
L1I WRITEBACK ACCESS:          0  HIT:          0  MISS:          0
L1I PREFETCH  REQUESTED:          0  ISSUED:          0  USEFUL:          0  USELESS:          0
L2C TOTAL     ACCESS:    7107791  HIT:    6070080  MISS:    1037711
L2C LOAD      ACCESS:    5384818  HIT:    5005017  MISS:     379801
L2C RFO       ACCESS:     519364  HIT:     298279  MISS:     221085
L2C PREFETCH  ACCESS:     478051  HIT:      52647  MISS:     425404
L2C WRITEBACK ACCESS:     725558  HIT:     714137  MISS:      11421
L2C PREFETCH  REQUESTED:     647662  ISSUED:     647662  USEFUL:     272084  USELESS:     233617
LLC TOTAL     ACCESS:    1320160  HIT:     829931  MISS:     490229
LLC LOAD      ACCESS:     321627  HIT:     220299  MISS:     101328
LLC RFO       ACCESS:     221053  HIT:     121598  MISS:      99455
LLC PREFETCH  ACCESS:     486423  HIT:     197732  MISS:     288691
LLC WRITEBACK ACCESS:     291057  HIT:     290302  MISS:        755
LLC PREFETCH  REQUESTED:          0  ISSUED:          0  USEFUL:      61855  USELESS:    1574266
Major fault: 0 Minor fault: 17503

CPU 2 cumulative IPC: 0.237793 instructions: 100000002 cycles: 420533523
L1D TOTAL     ACCESS:   12854657  HIT:   11309057  MISS:    1545600
L1D LOAD      ACCESS:    8481769  HIT:    7271735  MISS:    1210034
L1D RFO       ACCESS:    4372888  HIT:    4037322  MISS:     335566
L1D PREFETCH  ACCESS:          0  HIT:          0  MISS:          0
L1D WRITEBACK ACCESS:          0  HIT:          0  MISS:          0
L1D PREFETCH  REQUESTED:          0  ISSUED:          0  USEFUL:          0  USELESS:          0
L1I TOTAL     ACCESS:   20308336  HIT:   18165174  MISS:    2143162
L1I LOAD      ACCESS:   20308336  HIT:   18165174  MISS:    2143162
L1I RFO       ACCESS:          0  HIT:          0  MISS:          0
L1I PREFETCH  ACCESS:          0  HIT:          0  MISS:          0
L1I WRITEBACK ACCESS:          0  HIT:          0  MISS:          0
L1I PREFETCH  REQUESTED:          0  ISSUED:          0  USEFUL:          0  USELESS:          0
L2C TOTAL     ACCESS:    4894317  HIT:    3820585  MISS:    1073732
L2C LOAD      ACCESS:    3353070  HIT:    2964856  MISS:     388214
L2C RFO       ACCESS:     335451  HIT:     223035  MISS:     112416
L2C PREFETCH  ACCESS:     632329  HIT:      70567  MISS:     561762
L2C WRITEBACK ACCESS:     573467  HIT:     562127  MISS:      11340
L2C PREFETCH  REQUESTED:    1022950  ISSUED:    1022950  USEFUL:     559428  USELESS:     297570
LLC TOTAL     ACCESS:    1273078  HIT:     730687  MISS:     542391
LLC LOAD      ACCESS:     342716  HIT:     262711  MISS:      80005
LLC RFO       ACCESS:     112384  HIT:      63894  MISS:      48490
LLC PREFETCH  ACCESS:     607861  HIT:     194651  MISS:     413210
LLC WRITEBACK ACCESS:     210117  HIT:     209431  MISS:        686
LLC PREFETCH  REQUESTED:          0  ISSUED:          0  USEFUL:      61855  USELESS:    1574266
Major fault: 0 Minor fault: 15290

CPU 3 cumulative IPC: 0.189876 instructions: 100000001 cycles: 526659224
L1D TOTAL     ACCESS:   16781822  HIT:   14809737  MISS:    1972085
L1D LOAD      ACCESS:    9643877  HIT:    8220650  MISS:    1423227
L1D RFO       ACCESS:    7137945  HIT:    6589087  MISS:     548858
L1D PREFETCH  ACCESS:          0  HIT:          0  MISS:          0
L1D WRITEBACK ACCESS:          0  HIT:          0  MISS:          0
L1D PREFETCH  REQUESTED:          0  ISSUED:          0  USEFUL:          0  USELESS:          0
L1I TOTAL     ACCESS:   23054666  HIT:   18918364  MISS:    4136302
L1I LOAD      ACCESS:   23054666  HIT:   18918364  MISS:    4136302
L1I RFO       ACCESS:          0  HIT:          0  MISS:          0
L1I PREFETCH  ACCESS:          0  HIT:          0  MISS:          0
L1I WRITEBACK ACCESS:          0  HIT:          0  MISS:          0
L1I PREFETCH  REQUESTED:          0  ISSUED:          0  USEFUL:          0  USELESS:          0
L2C TOTAL     ACCESS:    7337379  HIT:    6270256  MISS:    1067123
L2C LOAD      ACCESS:    5559453  HIT:    5158592  MISS:     400861
L2C RFO       ACCESS:     548580  HIT:     306906  MISS:     241674
L2C PREFETCH  ACCESS:     469449  HIT:      55957  MISS:     413492
L2C WRITEBACK ACCESS:     759897  HIT:     748801  MISS:      11096
L2C PREFETCH  REQUESTED:     672316  ISSUED:     672316  USEFUL:     266394  USELESS:     243803
LLC TOTAL     ACCESS:    1371419  HIT:     883101  MISS:     488318
LLC LOAD      ACCESS:     326758  HIT:     231070  MISS:      95688
LLC RFO       ACCESS:     241647  HIT:     127705  MISS:     113942
LLC PREFETCH  ACCESS:     489680  HIT:     211707  MISS:     277973
LLC WRITEBACK ACCESS:     313334  HIT:     312619  MISS:        715
LLC PREFETCH  REQUESTED:          0  ISSUED:          0  USEFUL:      61855  USELESS:    1574266
Major fault: 0 Minor fault: 17867

L2C Best-offset prefetcher final stats

L2C Best-offset prefetcher final stats

L2C Best-offset prefetcher final stats

L2C Best-offset prefetcher final stats

DRAM Statistics
 CHANNEL 0
 RQ ROW_BUFFER_HIT:     574661  ROW_BUFFER_MISS:     506814
 DBUS_CONGESTED:     927362
 WQ ROW_BUFFER_HIT:      20421  ROW_BUFFER_MISS:     211956  FULL:          0

 CHANNEL 1
 RQ ROW_BUFFER_HIT:     574254  ROW_BUFFER_MISS:     506744
 DBUS_CONGESTED:     927362
 WQ ROW_BUFFER_HIT:      20586  ROW_BUFFER_MISS:     210880  FULL:          0

 AVG_CONGESTED_CYCLE: 12
