
*** ChampSim Multicore Out-of-Order Simulator ***

Warmup Instructions: 20000000
Simulation Instructions: 100000000
Number of CPUs: 4
LLC sets: 8192
LLC ways: 16
Off-chip DRAM Size: 8192 MB Channels: 2 Width: 64-bit Data Rate: 1600 MT/s

CPU 0 runs /scratch/user/eshanbhatia22/THESIS/cloudsuite_traces/streaming_phase4_core0.trace.gz
CPU 1 runs /scratch/user/eshanbhatia22/THESIS/cloudsuite_traces/streaming_phase4_core1.trace.gz
CPU 2 runs /scratch/user/eshanbhatia22/THESIS/cloudsuite_traces/streaming_phase4_core2.trace.gz
CPU 3 runs /scratch/user/eshanbhatia22/THESIS/cloudsuite_traces/streaming_phase4_core3.trace.gz
L2C Best-offset prefetcher
L2C Best-offset prefetcher
L2C Best-offset prefetcher
L2C Best-offset prefetcher
Heartbeat CPU 2 instructions: 10000003 cycles: 3397129 heartbeat IPC: 2.94366 cumulative IPC: 2.94366 (Simulation time: 0 hr 1 min 5 sec) 
Heartbeat CPU 0 instructions: 10000001 cycles: 4498369 heartbeat IPC: 2.22303 cumulative IPC: 2.22303 (Simulation time: 0 hr 1 min 27 sec) 
Heartbeat CPU 3 instructions: 10000000 cycles: 4505340 heartbeat IPC: 2.21959 cumulative IPC: 2.21959 (Simulation time: 0 hr 1 min 28 sec) 
Heartbeat CPU 1 instructions: 10000003 cycles: 4509801 heartbeat IPC: 2.21739 cumulative IPC: 2.21739 (Simulation time: 0 hr 1 min 28 sec) 
Heartbeat CPU 2 instructions: 20000000 cycles: 6819119 heartbeat IPC: 2.92228 cumulative IPC: 2.93293 (Simulation time: 0 hr 2 min 13 sec) 
Heartbeat CPU 0 instructions: 20000000 cycles: 8931797 heartbeat IPC: 2.25559 cumulative IPC: 2.23919 (Simulation time: 0 hr 2 min 54 sec) 
Heartbeat CPU 1 instructions: 20000000 cycles: 8959688 heartbeat IPC: 2.24725 cumulative IPC: 2.23222 (Simulation time: 0 hr 2 min 54 sec) 
Heartbeat CPU 3 instructions: 20000000 cycles: 8978169 heartbeat IPC: 2.23572 cumulative IPC: 2.22763 (Simulation time: 0 hr 2 min 55 sec) 

Warmup complete CPU 0 instructions: 20104525 cycles: 8978170 (Simulation time: 0 hr 2 min 55 sec) 
Warmup complete CPU 1 instructions: 20041522 cycles: 8978170 (Simulation time: 0 hr 2 min 55 sec) 
Warmup complete CPU 2 instructions: 26174486 cycles: 8978170 (Simulation time: 0 hr 2 min 55 sec) 
Warmup complete CPU 3 instructions: 20000004 cycles: 8978170 (Simulation time: 0 hr 2 min 55 sec) 

Heartbeat CPU 2 instructions: 30000003 cycles: 30581424 heartbeat IPC: 0.420835 cumulative IPC: 0.177081 (Simulation time: 0 hr 3 min 37 sec) 
Heartbeat CPU 0 instructions: 30000002 cycles: 60572730 heartbeat IPC: 0.193645 cumulative IPC: 0.191793 (Simulation time: 0 hr 4 min 45 sec) 
Heartbeat CPU 1 instructions: 30000000 cycles: 60819523 heartbeat IPC: 0.192827 cumulative IPC: 0.192095 (Simulation time: 0 hr 4 min 46 sec) 
Heartbeat CPU 3 instructions: 30000000 cycles: 61250772 heartbeat IPC: 0.191305 cumulative IPC: 0.191305 (Simulation time: 0 hr 4 min 47 sec) 
Heartbeat CPU 2 instructions: 40000000 cycles: 64924388 heartbeat IPC: 0.29118 cumulative IPC: 0.247122 (Simulation time: 0 hr 4 min 55 sec) 
Heartbeat CPU 2 instructions: 50000000 cycles: 81591803 heartbeat IPC: 0.599973 cumulative IPC: 0.328113 (Simulation time: 0 hr 5 min 41 sec) 
Heartbeat CPU 1 instructions: 40000000 cycles: 105530356 heartbeat IPC: 0.223659 cumulative IPC: 0.206712 (Simulation time: 0 hr 6 min 45 sec) 
Heartbeat CPU 2 instructions: 60000000 cycles: 107817640 heartbeat IPC: 0.381303 cumulative IPC: 0.342227 (Simulation time: 0 hr 6 min 51 sec) 
Heartbeat CPU 0 instructions: 40000000 cycles: 109643840 heartbeat IPC: 0.203786 cumulative IPC: 0.197639 (Simulation time: 0 hr 6 min 54 sec) 
Heartbeat CPU 3 instructions: 40000000 cycles: 115070600 heartbeat IPC: 0.185805 cumulative IPC: 0.188515 (Simulation time: 0 hr 7 min 11 sec) 
Heartbeat CPU 3 instructions: 50000001 cycles: 131338520 heartbeat IPC: 0.614707 cumulative IPC: 0.245177 (Simulation time: 0 hr 8 min 0 sec) 
Heartbeat CPU 1 instructions: 50000000 cycles: 136790309 heartbeat IPC: 0.319898 cumulative IPC: 0.234395 (Simulation time: 0 hr 8 min 23 sec) 
Heartbeat CPU 3 instructions: 60000000 cycles: 147306068 heartbeat IPC: 0.62627 cumulative IPC: 0.289168 (Simulation time: 0 hr 8 min 44 sec) 
Heartbeat CPU 2 instructions: 70000001 cycles: 152136353 heartbeat IPC: 0.225638 cumulative IPC: 0.306134 (Simulation time: 0 hr 8 min 54 sec) 
Heartbeat CPU 0 instructions: 50000002 cycles: 162896256 heartbeat IPC: 0.187785 cumulative IPC: 0.19423 (Simulation time: 0 hr 9 min 19 sec) 
Heartbeat CPU 1 instructions: 60000000 cycles: 188831959 heartbeat IPC: 0.192154 cumulative IPC: 0.222172 (Simulation time: 0 hr 10 min 16 sec) 
Heartbeat CPU 3 instructions: 70000000 cycles: 190044396 heartbeat IPC: 0.233982 cumulative IPC: 0.276142 (Simulation time: 0 hr 10 min 19 sec) 
Heartbeat CPU 2 instructions: 80000000 cycles: 196936992 heartbeat IPC: 0.223211 cumulative IPC: 0.286369 (Simulation time: 0 hr 10 min 35 sec) 
Heartbeat CPU 0 instructions: 60000000 cycles: 215828273 heartbeat IPC: 0.188922 cumulative IPC: 0.192871 (Simulation time: 0 hr 11 min 15 sec) 
Heartbeat CPU 1 instructions: 70000002 cycles: 230528390 heartbeat IPC: 0.239829 cumulative IPC: 0.225495 (Simulation time: 0 hr 11 min 45 sec) 
Heartbeat CPU 3 instructions: 80000000 cycles: 239776387 heartbeat IPC: 0.201078 cumulative IPC: 0.259967 (Simulation time: 0 hr 12 min 3 sec) 
Heartbeat CPU 2 instructions: 90000000 cycles: 260374023 heartbeat IPC: 0.157637 cumulative IPC: 0.253885 (Simulation time: 0 hr 12 min 45 sec) 
Heartbeat CPU 0 instructions: 70000001 cycles: 268367194 heartbeat IPC: 0.190335 cumulative IPC: 0.192358 (Simulation time: 0 hr 13 min 1 sec) 
Heartbeat CPU 1 instructions: 80000000 cycles: 282219569 heartbeat IPC: 0.193457 cumulative IPC: 0.219434 (Simulation time: 0 hr 13 min 29 sec) 
Heartbeat CPU 3 instructions: 90000000 cycles: 292800138 heartbeat IPC: 0.188595 cumulative IPC: 0.246633 (Simulation time: 0 hr 13 min 50 sec) 
Heartbeat CPU 0 instructions: 80000000 cycles: 320668597 heartbeat IPC: 0.191199 cumulative IPC: 0.192163 (Simulation time: 0 hr 14 min 46 sec) 
*** Reached end of trace for Core: 2 Repeating trace: /scratch/user/eshanbhatia22/THESIS/cloudsuite_traces/streaming_phase4_core2.trace.gz
Heartbeat CPU 2 instructions: 100000000 cycles: 323706914 heartbeat IPC: 0.157896 cumulative IPC: 0.234569 (Simulation time: 0 hr 14 min 53 sec) 
Heartbeat CPU 1 instructions: 90000003 cycles: 335342773 heartbeat IPC: 0.188242 cumulative IPC: 0.214357 (Simulation time: 0 hr 15 min 16 sec) 
*** Reached end of trace for Core: 3 Repeating trace: /scratch/user/eshanbhatia22/THESIS/cloudsuite_traces/streaming_phase4_core3.trace.gz
Heartbeat CPU 3 instructions: 100000000 cycles: 345139656 heartbeat IPC: 0.19106 cumulative IPC: 0.237981 (Simulation time: 0 hr 15 min 38 sec) 
Heartbeat CPU 2 instructions: 110000002 cycles: 355403552 heartbeat IPC: 0.315491 cumulative IPC: 0.241973 (Simulation time: 0 hr 16 min 4 sec) 
Heartbeat CPU 0 instructions: 90000003 cycles: 374638445 heartbeat IPC: 0.185289 cumulative IPC: 0.191149 (Simulation time: 0 hr 16 min 45 sec) 
*** Reached end of trace for Core: 1 Repeating trace: /scratch/user/eshanbhatia22/THESIS/cloudsuite_traces/streaming_phase4_core1.trace.gz
Heartbeat CPU 1 instructions: 100000000 cycles: 387395521 heartbeat IPC: 0.192113 cumulative IPC: 0.211297 (Simulation time: 0 hr 17 min 14 sec) 
Heartbeat CPU 2 instructions: 120000000 cycles: 388921044 heartbeat IPC: 0.298352 cumulative IPC: 0.246946 (Simulation time: 0 hr 17 min 18 sec) 
Heartbeat CPU 3 instructions: 110000001 cycles: 398322039 heartbeat IPC: 0.188032 cumulative IPC: 0.231158 (Simulation time: 0 hr 17 min 41 sec) 
Finished CPU 2 instructions: 100000003 cycles: 401127800 cumulative IPC: 0.249297 (Simulation time: 0 hr 18 min 4 sec) 
*** Reached end of trace for Core: 0 Repeating trace: /scratch/user/eshanbhatia22/THESIS/cloudsuite_traces/streaming_phase4_core0.trace.gz
Heartbeat CPU 0 instructions: 100000000 cycles: 426925306 heartbeat IPC: 0.191253 cumulative IPC: 0.191162 (Simulation time: 0 hr 18 min 38 sec) 
Heartbeat CPU 2 instructions: 130000001 cycles: 431450362 heartbeat IPC: 0.235132 cumulative IPC: 0.245757 (Simulation time: 0 hr 18 min 47 sec) 
Heartbeat CPU 1 instructions: 110000003 cycles: 440620270 heartbeat IPC: 0.187883 cumulative IPC: 0.20841 (Simulation time: 0 hr 19 min 8 sec) 
Heartbeat CPU 3 instructions: 120000000 cycles: 451564218 heartbeat IPC: 0.187821 cumulative IPC: 0.225945 (Simulation time: 0 hr 19 min 30 sec) 
Finished CPU 3 instructions: 100000000 cycles: 442586056 cumulative IPC: 0.225945 (Simulation time: 0 hr 19 min 30 sec) 
Heartbeat CPU 2 instructions: 140000000 cycles: 465692320 heartbeat IPC: 0.292039 cumulative IPC: 0.249227 (Simulation time: 0 hr 20 min 3 sec) 
Heartbeat CPU 0 instructions: 110000000 cycles: 479924875 heartbeat IPC: 0.188681 cumulative IPC: 0.190882 (Simulation time: 0 hr 20 min 42 sec) 
Heartbeat CPU 2 instructions: 150000003 cycles: 482312439 heartbeat IPC: 0.601681 cumulative IPC: 0.261603 (Simulation time: 0 hr 20 min 48 sec) 
Heartbeat CPU 1 instructions: 120000000 cycles: 493914950 heartbeat IPC: 0.187636 cumulative IPC: 0.206127 (Simulation time: 0 hr 21 min 20 sec) 
Finished CPU 1 instructions: 100000001 cycles: 485155665 cumulative IPC: 0.206119 (Simulation time: 0 hr 21 min 21 sec) 
Heartbeat CPU 3 instructions: 130000000 cycles: 503772992 heartbeat IPC: 0.191539 cumulative IPC: 0.222314 (Simulation time: 0 hr 21 min 41 sec) 
Heartbeat CPU 2 instructions: 160000000 cycles: 508739319 heartbeat IPC: 0.378402 cumulative IPC: 0.267779 (Simulation time: 0 hr 21 min 51 sec) 
Heartbeat CPU 0 instructions: 120000000 cycles: 533167718 heartbeat IPC: 0.187819 cumulative IPC: 0.190571 (Simulation time: 0 hr 22 min 43 sec) 
Finished CPU 0 instructions: 100000002 cycles: 524758918 cumulative IPC: 0.190564 (Simulation time: 0 hr 22 min 44 sec) 

CPU 0 Branch Prediction Accuracy: 97.2421% MPKI: 5.18194

CPU 1 Branch Prediction Accuracy: 97.3392% MPKI: 4.83199

CPU 2 Branch Prediction Accuracy: 97.435% MPKI: 3.95169

CPU 3 Branch Prediction Accuracy: 97.3988% MPKI: 4.61004

ChampSim completed all CPUs

Total Simulation Statistics (not including warmup)

CPU 0 cumulative IPC: 0.190564 instructions: 100000002 cycles: 524758918
L1D TOTAL     ACCESS:   16900610  HIT:   14736065  MISS:    2164545
L1D LOAD      ACCESS:    9906877  HIT:    8318058  MISS:    1588819
L1D RFO       ACCESS:    6993733  HIT:    6418007  MISS:     575726
L1D PREFETCH  ACCESS:          0  HIT:          0  MISS:          0
L1D WRITEBACK ACCESS:          0  HIT:          0  MISS:          0
L1I TOTAL     ACCESS:   23322282  HIT:   19212477  MISS:    4109805
L1I LOAD      ACCESS:   23322282  HIT:   19212477  MISS:    4109805
L1I RFO       ACCESS:          0  HIT:          0  MISS:          0
L1I PREFETCH  ACCESS:          0  HIT:          0  MISS:          0
L1I WRITEBACK ACCESS:          0  HIT:          0  MISS:          0
L2C TOTAL     ACCESS:    7582190  HIT:    6432367  MISS:    1149823
L2C LOAD      ACCESS:    5698566  HIT:    5252209  MISS:     446357
L2C RFO       ACCESS:     575423  HIT:     317939  MISS:     257484
L2C PREFETCH  ACCESS:     501242  HIT:      67113  MISS:     434129
L2C WRITEBACK ACCESS:     806959  HIT:     795106  MISS:      11853

L2C Best-offset prefetcher final stats
LLC TOTAL     ACCESS:    1472733  HIT:     951162  MISS:     521571
LLC LOAD      ACCESS:     366792  HIT:     263044  MISS:     103748
LLC RFO       ACCESS:     257441  HIT:     125600  MISS:     131841
LLC PREFETCH  ACCESS:     516525  HIT:     231627  MISS:     284898
LLC WRITEBACK ACCESS:     331975  HIT:     330891  MISS:       1084

CPU 1 cumulative IPC: 0.204796 instructions: 107468775 cycles: 524758918
L1D TOTAL     ACCESS:   17012074  HIT:   14901977  MISS:    2110097
L1D LOAD      ACCESS:   10054847  HIT:    8522148  MISS:    1532699
L1D RFO       ACCESS:    6957227  HIT:    6379829  MISS:     577398
L1D PREFETCH  ACCESS:          0  HIT:          0  MISS:          0
L1D WRITEBACK ACCESS:          0  HIT:          0  MISS:          0
L1I TOTAL     ACCESS:   24217172  HIT:   20063418  MISS:    4153754
L1I LOAD      ACCESS:   24217172  HIT:   20063418  MISS:    4153754
L1I RFO       ACCESS:          0  HIT:          0  MISS:          0
L1I PREFETCH  ACCESS:          0  HIT:          0  MISS:          0
L1I WRITEBACK ACCESS:          0  HIT:          0  MISS:          0
L2C TOTAL     ACCESS:    7665502  HIT:    6377828  MISS:    1287674
L2C LOAD      ACCESS:    5686344  HIT:    5209010  MISS:     477334
L2C RFO       ACCESS:     577154  HIT:     317757  MISS:     259397
L2C PREFETCH  ACCESS:     604831  HIT:      68067  MISS:     536764
L2C WRITEBACK ACCESS:     797173  HIT:     782994  MISS:      14179

L2C Best-offset prefetcher final stats
LLC TOTAL     ACCESS:    1616771  HIT:    1015493  MISS:     601278
LLC LOAD      ACCESS:     400557  HIT:     293981  MISS:     106576
LLC RFO       ACCESS:     259353  HIT:     129547  MISS:     129806
LLC PREFETCH  ACCESS:     617706  HIT:     253725  MISS:     363981
LLC WRITEBACK ACCESS:     339155  HIT:     338240  MISS:        915

CPU 2 cumulative IPC: 0.26836 instructions: 140824053 cycles: 524758918
L1D TOTAL     ACCESS:   16603957  HIT:   14558977  MISS:    2044980
L1D LOAD      ACCESS:   11321498  HIT:    9685939  MISS:    1635559
L1D RFO       ACCESS:    5282459  HIT:    4873038  MISS:     409421
L1D PREFETCH  ACCESS:          0  HIT:          0  MISS:          0
L1D WRITEBACK ACCESS:          0  HIT:          0  MISS:          0
L1I TOTAL     ACCESS:   27998980  HIT:   25449438  MISS:    2549542
L1I LOAD      ACCESS:   27998980  HIT:   25449438  MISS:    2549542
L1I RFO       ACCESS:          0  HIT:          0  MISS:          0
L1I PREFETCH  ACCESS:          0  HIT:          0  MISS:          0
L1I WRITEBACK ACCESS:          0  HIT:          0  MISS:          0
L2C TOTAL     ACCESS:    6194231  HIT:    4729198  MISS:    1465033
L2C LOAD      ACCESS:    4184904  HIT:    3685460  MISS:     499444
L2C RFO       ACCESS:     409306  HIT:     269341  MISS:     139965
L2C PREFETCH  ACCESS:     893116  HIT:      77144  MISS:     815972
L2C WRITEBACK ACCESS:     706905  HIT:     697253  MISS:       9652

L2C Best-offset prefetcher final stats
LLC TOTAL     ACCESS:    1717629  HIT:     854537  MISS:     863092
LLC LOAD      ACCESS:     428480  HIT:     303679  MISS:     124801
LLC RFO       ACCESS:     139914  HIT:      72808  MISS:      67106
LLC PREFETCH  ACCESS:     887944  HIT:     217805  MISS:     670139
LLC WRITEBACK ACCESS:     261291  HIT:     260245  MISS:       1046

CPU 3 cumulative IPC: 0.22028 instructions: 115593724 cycles: 524758918
L1D TOTAL     ACCESS:   17188035  HIT:   15012372  MISS:    2175663
L1D LOAD      ACCESS:   10379552  HIT:    8769968  MISS:    1609584
L1D RFO       ACCESS:    6808483  HIT:    6242404  MISS:     566079
L1D PREFETCH  ACCESS:          0  HIT:          0  MISS:          0
L1D WRITEBACK ACCESS:          0  HIT:          0  MISS:          0
L1I TOTAL     ACCESS:   25508364  HIT:   21392031  MISS:    4116333
L1I LOAD      ACCESS:   25508364  HIT:   21392031  MISS:    4116333
L1I RFO       ACCESS:          0  HIT:          0  MISS:          0
L1I PREFETCH  ACCESS:          0  HIT:          0  MISS:          0
L1I WRITEBACK ACCESS:          0  HIT:          0  MISS:          0
L2C TOTAL     ACCESS:    7738141  HIT:    6403882  MISS:    1334259
L2C LOAD      ACCESS:    5725834  HIT:    5252245  MISS:     473589
L2C RFO       ACCESS:     565794  HIT:     311241  MISS:     254553
L2C PREFETCH  ACCESS:     656898  HIT:      62909  MISS:     593989
L2C WRITEBACK ACCESS:     789615  HIT:     777487  MISS:      12128

L2C Best-offset prefetcher final stats
LLC TOTAL     ACCESS:    1659516  HIT:     986629  MISS:     672887
LLC LOAD      ACCESS:     393520  HIT:     275033  MISS:     118487
LLC RFO       ACCESS:     254516  HIT:     131709  MISS:     122807
LLC PREFETCH  ACCESS:     676975  HIT:     246144  MISS:     430831
LLC WRITEBACK ACCESS:     334505  HIT:     333743  MISS:        762

Region of Interest Statistics

CPU 0 cumulative IPC: 0.190564 instructions: 100000002 cycles: 524758918
L1D TOTAL     ACCESS:   16900610  HIT:   14736065  MISS:    2164545
L1D LOAD      ACCESS:    9906877  HIT:    8318058  MISS:    1588819
L1D RFO       ACCESS:    6993733  HIT:    6418007  MISS:     575726
L1D PREFETCH  ACCESS:          0  HIT:          0  MISS:          0
L1D WRITEBACK ACCESS:          0  HIT:          0  MISS:          0
L1D PREFETCH  REQUESTED:          0  ISSUED:          0  USEFUL:          0  USELESS:          0
L1I TOTAL     ACCESS:   23322282  HIT:   19212477  MISS:    4109805
L1I LOAD      ACCESS:   23322282  HIT:   19212477  MISS:    4109805
L1I RFO       ACCESS:          0  HIT:          0  MISS:          0
L1I PREFETCH  ACCESS:          0  HIT:          0  MISS:          0
L1I WRITEBACK ACCESS:          0  HIT:          0  MISS:          0
L1I PREFETCH  REQUESTED:          0  ISSUED:          0  USEFUL:          0  USELESS:          0
L2C TOTAL     ACCESS:    7582190  HIT:    6432367  MISS:    1149823
L2C LOAD      ACCESS:    5698566  HIT:    5252209  MISS:     446357
L2C RFO       ACCESS:     575423  HIT:     317939  MISS:     257484
L2C PREFETCH  ACCESS:     501242  HIT:      67113  MISS:     434129
L2C WRITEBACK ACCESS:     806959  HIT:     795106  MISS:      11853
L2C PREFETCH  REQUESTED:     696974  ISSUED:     696974  USEFUL:     254343  USELESS:     259030
LLC TOTAL     ACCESS:    1472733  HIT:     951162  MISS:     521571
LLC LOAD      ACCESS:     366792  HIT:     263044  MISS:     103748
LLC RFO       ACCESS:     257441  HIT:     125600  MISS:     131841
LLC PREFETCH  ACCESS:     516525  HIT:     231627  MISS:     284898
LLC WRITEBACK ACCESS:     331975  HIT:     330891  MISS:       1084
LLC PREFETCH  REQUESTED:          0  ISSUED:          0  USEFUL:      70977  USELESS:    1887560
Major fault: 0 Minor fault: 16978

CPU 1 cumulative IPC: 0.206119 instructions: 100000001 cycles: 485155665
L1D TOTAL     ACCESS:   15746619  HIT:   13794342  MISS:    1952277
L1D LOAD      ACCESS:    9319563  HIT:    7898611  MISS:    1420952
L1D RFO       ACCESS:    6427056  HIT:    5895731  MISS:     531325
L1D PREFETCH  ACCESS:          0  HIT:          0  MISS:          0
L1D WRITEBACK ACCESS:          0  HIT:          0  MISS:          0
L1D PREFETCH  REQUESTED:          0  ISSUED:          0  USEFUL:          0  USELESS:          0
L1I TOTAL     ACCESS:   22512298  HIT:   18684342  MISS:    3827956
L1I LOAD      ACCESS:   22512298  HIT:   18684342  MISS:    3827956
L1I RFO       ACCESS:          0  HIT:          0  MISS:          0
L1I PREFETCH  ACCESS:          0  HIT:          0  MISS:          0
L1I WRITEBACK ACCESS:          0  HIT:          0  MISS:          0
L1I PREFETCH  REQUESTED:          0  ISSUED:          0  USEFUL:          0  USELESS:          0
L2C TOTAL     ACCESS:    7076864  HIT:    5882265  MISS:    1194599
L2C LOAD      ACCESS:    5248819  HIT:    4806504  MISS:     442315
L2C RFO       ACCESS:     531095  HIT:     291874  MISS:     239221
L2C PREFETCH  ACCESS:     562919  HIT:      62865  MISS:     500054
L2C WRITEBACK ACCESS:     734031  HIT:     721022  MISS:      13009
L2C PREFETCH  REQUESTED:     799367  ISSUED:     799367  USEFUL:     335696  USELESS:     283342
LLC TOTAL     ACCESS:    1498511  HIT:     938356  MISS:     560155
LLC LOAD      ACCESS:     370957  HIT:     271689  MISS:      99268
LLC RFO       ACCESS:     239179  HIT:     119589  MISS:     119590
LLC PREFETCH  ACCESS:     575339  HIT:     234846  MISS:     340493
LLC WRITEBACK ACCESS:     313036  HIT:     312232  MISS:        804
LLC PREFETCH  REQUESTED:          0  ISSUED:          0  USEFUL:      70977  USELESS:    1887560
Major fault: 0 Minor fault: 16796

CPU 2 cumulative IPC: 0.249297 instructions: 100000003 cycles: 401127800
L1D TOTAL     ACCESS:   12429433  HIT:   10899607  MISS:    1529826
L1D LOAD      ACCESS:    8327284  HIT:    7120174  MISS:    1207110
L1D RFO       ACCESS:    4102149  HIT:    3779433  MISS:     322716
L1D PREFETCH  ACCESS:          0  HIT:          0  MISS:          0
L1D WRITEBACK ACCESS:          0  HIT:          0  MISS:          0
L1D PREFETCH  REQUESTED:          0  ISSUED:          0  USEFUL:          0  USELESS:          0
L1I TOTAL     ACCESS:   20138747  HIT:   18114741  MISS:    2024006
L1I LOAD      ACCESS:   20138747  HIT:   18114741  MISS:    2024006
L1I RFO       ACCESS:          0  HIT:          0  MISS:          0
L1I PREFETCH  ACCESS:          0  HIT:          0  MISS:          0
L1I WRITEBACK ACCESS:          0  HIT:          0  MISS:          0
L1I PREFETCH  REQUESTED:          0  ISSUED:          0  USEFUL:          0  USELESS:          0
L2C TOTAL     ACCESS:    4731986  HIT:    3676372  MISS:    1055614
L2C LOAD      ACCESS:    3230960  HIT:    2858583  MISS:     372377
L2C RFO       ACCESS:     322619  HIT:     213441  MISS:     109178
L2C PREFETCH  ACCESS:     625418  HIT:      58836  MISS:     566582
L2C WRITEBACK ACCESS:     552989  HIT:     545512  MISS:       7477
L2C PREFETCH  REQUESTED:    1165043  ISSUED:    1165043  USEFUL:     684888  USELESS:     296877
LLC TOTAL     ACCESS:    1249531  HIT:     652589  MISS:     596942
LLC LOAD      ACCESS:     321133  HIT:     229834  MISS:      91299
LLC RFO       ACCESS:     109141  HIT:      56708  MISS:      52433
LLC PREFETCH  ACCESS:     618667  HIT:     166387  MISS:     452280
LLC WRITEBACK ACCESS:     200590  HIT:     199660  MISS:        930
LLC PREFETCH  REQUESTED:          0  ISSUED:          0  USEFUL:      70977  USELESS:    1887560
Major fault: 0 Minor fault: 15403

CPU 3 cumulative IPC: 0.225945 instructions: 100000000 cycles: 442586056
L1D TOTAL     ACCESS:   14568756  HIT:   12718254  MISS:    1850502
L1D LOAD      ACCESS:    8849603  HIT:    7476302  MISS:    1373301
L1D RFO       ACCESS:    5719153  HIT:    5241952  MISS:     477201
L1D PREFETCH  ACCESS:          0  HIT:          0  MISS:          0
L1D WRITEBACK ACCESS:          0  HIT:          0  MISS:          0
L1D PREFETCH  REQUESTED:          0  ISSUED:          0  USEFUL:          0  USELESS:          0
L1I TOTAL     ACCESS:   21928988  HIT:   18481115  MISS:    3447873
L1I LOAD      ACCESS:   21928988  HIT:   18481115  MISS:    3447873
L1I RFO       ACCESS:          0  HIT:          0  MISS:          0
L1I PREFETCH  ACCESS:          0  HIT:          0  MISS:          0
L1I WRITEBACK ACCESS:          0  HIT:          0  MISS:          0
L1I PREFETCH  REQUESTED:          0  ISSUED:          0  USEFUL:          0  USELESS:          0
L2C TOTAL     ACCESS:    6538302  HIT:    5386426  MISS:    1151876
L2C LOAD      ACCESS:    4821097  HIT:    4416548  MISS:     404549
L2C RFO       ACCESS:     476958  HIT:     261786  MISS:     215172
L2C PREFETCH  ACCESS:     574922  HIT:      53034  MISS:     521888
L2C WRITEBACK ACCESS:     665325  HIT:     655058  MISS:      10267
L2C PREFETCH  REQUESTED:     854626  ISSUED:     854626  USEFUL:     397279  USELESS:     279367
LLC TOTAL     ACCESS:    1426989  HIT:     834450  MISS:     592539
LLC LOAD      ACCESS:     337077  HIT:     234318  MISS:     102759
LLC RFO       ACCESS:     215140  HIT:     110454  MISS:     104686
LLC PREFETCH  ACCESS:     591976  HIT:     207462  MISS:     384514
LLC WRITEBACK ACCESS:     282796  HIT:     282216  MISS:        580
LLC PREFETCH  REQUESTED:          0  ISSUED:          0  USEFUL:      70977  USELESS:    1887560
Major fault: 0 Minor fault: 16956

L2C Best-offset prefetcher final stats

L2C Best-offset prefetcher final stats

L2C Best-offset prefetcher final stats

L2C Best-offset prefetcher final stats

DRAM Statistics
 CHANNEL 0
 RQ ROW_BUFFER_HIT:     747892  ROW_BUFFER_MISS:     579486
 DBUS_CONGESTED:    1111035
 WQ ROW_BUFFER_HIT:      26180  ROW_BUFFER_MISS:     252212  FULL:          0

 CHANNEL 1
 RQ ROW_BUFFER_HIT:     747512  ROW_BUFFER_MISS:     579680
 DBUS_CONGESTED:    1111035
 WQ ROW_BUFFER_HIT:      26016  ROW_BUFFER_MISS:     251087  FULL:          0

 AVG_CONGESTED_CYCLE: 12
