Initialize SIGNATURE TABLE
ST_SET: 1
ST_WAY: 256
ST_TAG_BIT: 16
ST_TAG_MASK: ffff

Initialize PATTERN TABLE
PT_SET: 512
PT_WAY: 4
SIG_DELTA_BIT: 7
C_SIG_BIT: 4
C_DELTA_BIT: 4

Initialize PREFETCH FILTER
FILTER_SET: 1024

Initialize PERCEPTRON
PERC_ENTRIES: 4096
PERC_FEATURES: 9

*** ChampSim Multicore Out-of-Order Simulator ***

Warmup Instructions: 20000000
Simulation Instructions: 100000000
Number of CPUs: 8
LLC sets: 16384
LLC ways: 16
Off-chip DRAM Size: 8192 MB Channels: 2 Width: 64-bit Data Rate: 1600 MT/s

CPU 0 runs /scratch/user/djimenez/champsim-traces/speccpu2006/xz/482.sphinx3-1100B.champsimtrace.xz
CPU 1 runs /scratch/user/djimenez/champsim-traces/speccpu2006/xz/462.libquantum-1343B.champsimtrace.xz
CPU 2 runs /scratch/user/djimenez/champsim-traces/speccpu2006/xz/464.h264ref-64B.champsimtrace.xz
CPU 3 runs /scratch/user/djimenez/champsim-traces/speccpu2006/xz/434.zeusmp-10B.champsimtrace.xz
CPU 4 runs /scratch/user/djimenez/champsim-traces/speccpu2006/xz/482.sphinx3-417B.champsimtrace.xz
CPU 5 runs /scratch/user/djimenez/champsim-traces/speccpu2006/xz/473.astar-359B.champsimtrace.xz
CPU 6 runs /scratch/user/djimenez/champsim-traces/speccpu2006/xz/403.gcc-48B.champsimtrace.xz
CPU 7 runs /scratch/user/djimenez/champsim-traces/speccpu2006/xz/445.gobmk-30B.champsimtrace.xz
Heartbeat CPU 0 instructions: 10000000 cycles: 3879883 heartbeat IPC: 2.5774 cumulative IPC: 2.5774 (Simulation time: 0 hr 2 min 36 sec) 
Heartbeat CPU 4 instructions: 10000000 cycles: 4172202 heartbeat IPC: 2.39682 cumulative IPC: 2.39682 (Simulation time: 0 hr 2 min 49 sec) 
Heartbeat CPU 3 instructions: 10000003 cycles: 4298352 heartbeat IPC: 2.32647 cumulative IPC: 2.32647 (Simulation time: 0 hr 2 min 54 sec) 
Heartbeat CPU 2 instructions: 10000002 cycles: 4855146 heartbeat IPC: 2.05967 cumulative IPC: 2.05967 (Simulation time: 0 hr 3 min 15 sec) 
Heartbeat CPU 1 instructions: 10000002 cycles: 5185624 heartbeat IPC: 1.92841 cumulative IPC: 1.92841 (Simulation time: 0 hr 3 min 28 sec) 
Heartbeat CPU 6 instructions: 10000001 cycles: 5486053 heartbeat IPC: 1.8228 cumulative IPC: 1.8228 (Simulation time: 0 hr 3 min 39 sec) 
Heartbeat CPU 7 instructions: 10000003 cycles: 6365917 heartbeat IPC: 1.57087 cumulative IPC: 1.57087 (Simulation time: 0 hr 4 min 14 sec) 
Heartbeat CPU 5 instructions: 10000000 cycles: 7470196 heartbeat IPC: 1.33865 cumulative IPC: 1.33865 (Simulation time: 0 hr 4 min 57 sec) 
Heartbeat CPU 0 instructions: 20000000 cycles: 7693627 heartbeat IPC: 2.6221 cumulative IPC: 2.59955 (Simulation time: 0 hr 5 min 7 sec) 
Heartbeat CPU 4 instructions: 20000000 cycles: 8220597 heartbeat IPC: 2.47011 cumulative IPC: 2.43291 (Simulation time: 0 hr 5 min 26 sec) 
Heartbeat CPU 3 instructions: 20000000 cycles: 8670781 heartbeat IPC: 2.28706 cumulative IPC: 2.3066 (Simulation time: 0 hr 5 min 44 sec) 
Heartbeat CPU 2 instructions: 20000000 cycles: 10015359 heartbeat IPC: 1.9379 cumulative IPC: 1.99693 (Simulation time: 0 hr 6 min 36 sec) 
Heartbeat CPU 1 instructions: 20000000 cycles: 10330066 heartbeat IPC: 1.94385 cumulative IPC: 1.9361 (Simulation time: 0 hr 6 min 49 sec) 
Heartbeat CPU 6 instructions: 20000000 cycles: 10965285 heartbeat IPC: 1.82507 cumulative IPC: 1.82394 (Simulation time: 0 hr 7 min 16 sec) 
Heartbeat CPU 0 instructions: 30000003 cycles: 11479018 heartbeat IPC: 2.64174 cumulative IPC: 0.871155 (Simulation time: 0 hr 7 min 37 sec) 
Heartbeat CPU 4 instructions: 30000001 cycles: 12035504 heartbeat IPC: 2.6213 cumulative IPC: 0.830875 (Simulation time: 0 hr 7 min 59 sec) 
Heartbeat CPU 7 instructions: 20000000 cycles: 12699875 heartbeat IPC: 1.57879 cumulative IPC: 1.57482 (Simulation time: 0 hr 8 min 26 sec) 
Heartbeat CPU 3 instructions: 30000001 cycles: 13043233 heartbeat IPC: 2.28705 cumulative IPC: 0.766681 (Simulation time: 0 hr 8 min 41 sec) 
Heartbeat CPU 5 instructions: 20000000 cycles: 14748417 heartbeat IPC: 1.37396 cumulative IPC: 1.35608 (Simulation time: 0 hr 9 min 50 sec) 

Warmup complete CPU 0 instructions: 38701741 cycles: 14748419 (Simulation time: 0 hr 9 min 50 sec) 
Warmup complete CPU 1 instructions: 28450485 cycles: 14748419 (Simulation time: 0 hr 9 min 50 sec) 
Warmup complete CPU 2 instructions: 29497651 cycles: 14748419 (Simulation time: 0 hr 9 min 50 sec) 
Warmup complete CPU 3 instructions: 34006217 cycles: 14748419 (Simulation time: 0 hr 9 min 50 sec) 
Warmup complete CPU 4 instructions: 36997092 cycles: 14748419 (Simulation time: 0 hr 9 min 50 sec) 
Warmup complete CPU 5 instructions: 20000001 cycles: 14748419 (Simulation time: 0 hr 9 min 50 sec) 
Warmup complete CPU 6 instructions: 26912313 cycles: 14748418 (Simulation time: 0 hr 9 min 50 sec) 
Warmup complete CPU 7 instructions: 23115628 cycles: 14748418 (Simulation time: 0 hr 9 min 50 sec) 

Heartbeat CPU 2 instructions: 30000000 cycles: 15139404 heartbeat IPC: 1.95158 cumulative IPC: 1.28483 (Simulation time: 0 hr 10 min 0 sec) 
Heartbeat CPU 0 instructions: 40000000 cycles: 15634614 heartbeat IPC: 2.40639 cumulative IPC: 1.46498 (Simulation time: 0 hr 10 min 12 sec) 
Heartbeat CPU 1 instructions: 30000000 cycles: 18324125 heartbeat IPC: 1.25093 cumulative IPC: 0.433345 (Simulation time: 0 hr 11 min 5 sec) 
Heartbeat CPU 4 instructions: 40000000 cycles: 18333207 heartbeat IPC: 1.58788 cumulative IPC: 0.837681 (Simulation time: 0 hr 11 min 5 sec) 
Heartbeat CPU 6 instructions: 30000001 cycles: 19310883 heartbeat IPC: 1.19824 cumulative IPC: 0.676759 (Simulation time: 0 hr 11 min 26 sec) 
Heartbeat CPU 3 instructions: 40000000 cycles: 21047200 heartbeat IPC: 1.24938 cumulative IPC: 0.951578 (Simulation time: 0 hr 12 min 3 sec) 
Heartbeat CPU 2 instructions: 40000000 cycles: 23248779 heartbeat IPC: 1.23314 cumulative IPC: 1.23552 (Simulation time: 0 hr 12 min 52 sec) 
Heartbeat CPU 0 instructions: 50000000 cycles: 26389626 heartbeat IPC: 0.929799 cumulative IPC: 0.97054 (Simulation time: 0 hr 13 min 56 sec) 
Heartbeat CPU 4 instructions: 50000001 cycles: 27246871 heartbeat IPC: 1.12187 cumulative IPC: 1.04036 (Simulation time: 0 hr 14 min 16 sec) 
Heartbeat CPU 7 instructions: 30000002 cycles: 29408475 heartbeat IPC: 0.598494 cumulative IPC: 0.469601 (Simulation time: 0 hr 15 min 2 sec) 
Heartbeat CPU 2 instructions: 50000002 cycles: 31331948 heartbeat IPC: 1.23714 cumulative IPC: 1.23631 (Simulation time: 0 hr 15 min 44 sec) 
Heartbeat CPU 3 instructions: 50000003 cycles: 31430395 heartbeat IPC: 0.963095 cumulative IPC: 0.958746 (Simulation time: 0 hr 15 min 46 sec) 
Heartbeat CPU 6 instructions: 40000000 cycles: 34030948 heartbeat IPC: 0.679345 cumulative IPC: 0.678733 (Simulation time: 0 hr 16 min 38 sec) 
Heartbeat CPU 0 instructions: 60000000 cycles: 35519338 heartbeat IPC: 1.09532 cumulative IPC: 1.02539 (Simulation time: 0 hr 17 min 10 sec) 
Heartbeat CPU 4 instructions: 60000000 cycles: 38514485 heartbeat IPC: 0.887499 cumulative IPC: 0.967889 (Simulation time: 0 hr 18 min 7 sec) 
Heartbeat CPU 1 instructions: 40000000 cycles: 39162509 heartbeat IPC: 0.479884 cumulative IPC: 0.473068 (Simulation time: 0 hr 18 min 19 sec) 
Heartbeat CPU 3 instructions: 60000000 cycles: 42034419 heartbeat IPC: 0.943038 cumulative IPC: 0.952642 (Simulation time: 0 hr 19 min 16 sec) 
Heartbeat CPU 2 instructions: 60000000 cycles: 42762182 heartbeat IPC: 0.874873 cumulative IPC: 1.08883 (Simulation time: 0 hr 19 min 32 sec) 
Heartbeat CPU 0 instructions: 70000001 cycles: 45563171 heartbeat IPC: 0.995636 cumulative IPC: 1.01569 (Simulation time: 0 hr 20 min 26 sec) 
Heartbeat CPU 6 instructions: 50000003 cycles: 48736179 heartbeat IPC: 0.68003 cumulative IPC: 0.679294 (Simulation time: 0 hr 21 min 26 sec) 
Heartbeat CPU 7 instructions: 40000000 cycles: 51234369 heartbeat IPC: 0.458171 cumulative IPC: 0.462764 (Simulation time: 0 hr 22 min 17 sec) 
Heartbeat CPU 4 instructions: 70000002 cycles: 51546529 heartbeat IPC: 0.767339 cumulative IPC: 0.896864 (Simulation time: 0 hr 22 min 23 sec) 
Heartbeat CPU 3 instructions: 70000002 cycles: 52270372 heartbeat IPC: 0.976949 cumulative IPC: 0.959273 (Simulation time: 0 hr 22 min 38 sec) 
Heartbeat CPU 2 instructions: 70000000 cycles: 55978298 heartbeat IPC: 0.756652 cumulative IPC: 0.982354 (Simulation time: 0 hr 23 min 46 sec) 
Heartbeat CPU 0 instructions: 80000000 cycles: 56098391 heartbeat IPC: 0.949197 cumulative IPC: 0.998749 (Simulation time: 0 hr 23 min 49 sec) 
Heartbeat CPU 1 instructions: 50000001 cycles: 59178277 heartbeat IPC: 0.499606 cumulative IPC: 0.485023 (Simulation time: 0 hr 24 min 52 sec) 
Heartbeat CPU 3 instructions: 80000000 cycles: 63469252 heartbeat IPC: 0.892946 cumulative IPC: 0.944027 (Simulation time: 0 hr 26 min 17 sec) 
Heartbeat CPU 6 instructions: 60000000 cycles: 63562601 heartbeat IPC: 0.674471 cumulative IPC: 0.677829 (Simulation time: 0 hr 26 min 19 sec) 
Heartbeat CPU 2 instructions: 80000000 cycles: 66308425 heartbeat IPC: 0.968042 cumulative IPC: 0.979487 (Simulation time: 0 hr 27 min 11 sec) 
Heartbeat CPU 0 instructions: 90000003 cycles: 67180297 heartbeat IPC: 0.902372 cumulative IPC: 0.978379 (Simulation time: 0 hr 27 min 31 sec) 
Heartbeat CPU 4 instructions: 80000000 cycles: 67935258 heartbeat IPC: 0.610175 cumulative IPC: 0.808525 (Simulation time: 0 hr 27 min 49 sec) 
Heartbeat CPU 7 instructions: 50000001 cycles: 74574814 heartbeat IPC: 0.428441 cumulative IPC: 0.449373 (Simulation time: 0 hr 29 min 58 sec) 
Heartbeat CPU 3 instructions: 90000001 cycles: 74705556 heartbeat IPC: 0.889972 cumulative IPC: 0.933897 (Simulation time: 0 hr 30 min 1 sec) 
Heartbeat CPU 2 instructions: 90000002 cycles: 76581449 heartbeat IPC: 0.973423 cumulative IPC: 0.97848 (Simulation time: 0 hr 30 min 38 sec) 
Heartbeat CPU 6 instructions: 70000001 cycles: 78428694 heartbeat IPC: 0.672672 cumulative IPC: 0.676625 (Simulation time: 0 hr 31 min 15 sec) 
Heartbeat CPU 1 instructions: 60000000 cycles: 78561450 heartbeat IPC: 0.515911 cumulative IPC: 0.494406 (Simulation time: 0 hr 31 min 17 sec) 
Heartbeat CPU 0 instructions: 100000000 cycles: 78820538 heartbeat IPC: 0.859088 cumulative IPC: 0.956707 (Simulation time: 0 hr 31 min 22 sec) 
Heartbeat CPU 3 instructions: 100000000 cycles: 85059372 heartbeat IPC: 0.965827 cumulative IPC: 0.938599 (Simulation time: 0 hr 33 min 24 sec) 
Heartbeat CPU 4 instructions: 90000003 cycles: 85584312 heartbeat IPC: 0.566603 cumulative IPC: 0.748249 (Simulation time: 0 hr 33 min 34 sec) 
Heartbeat CPU 0 instructions: 110000002 cycles: 87621357 heartbeat IPC: 1.13626 cumulative IPC: 0.978391 (Simulation time: 0 hr 34 min 19 sec) 
Heartbeat CPU 2 instructions: 100000000 cycles: 90434206 heartbeat IPC: 0.721878 cumulative IPC: 0.931514 (Simulation time: 0 hr 35 min 16 sec) 
Heartbeat CPU 1 instructions: 70000003 cycles: 92442182 heartbeat IPC: 0.720423 cumulative IPC: 0.534786 (Simulation time: 0 hr 35 min 58 sec) 
Heartbeat CPU 6 instructions: 80000000 cycles: 93161595 heartbeat IPC: 0.678753 cumulative IPC: 0.677025 (Simulation time: 0 hr 36 min 11 sec) 
Heartbeat CPU 3 instructions: 110000001 cycles: 95571862 heartbeat IPC: 0.95125 cumulative IPC: 0.940244 (Simulation time: 0 hr 37 min 0 sec) 
Heartbeat CPU 5 instructions: 30000003 cycles: 96800806 heartbeat IPC: 0.121873 cumulative IPC: 0.121873 (Simulation time: 0 hr 37 min 23 sec) 
Heartbeat CPU 7 instructions: 60000000 cycles: 96803675 heartbeat IPC: 0.449866 cumulative IPC: 0.449507 (Simulation time: 0 hr 37 min 23 sec) 
Heartbeat CPU 0 instructions: 120000000 cycles: 96813645 heartbeat IPC: 1.08787 cumulative IPC: 0.990654 (Simulation time: 0 hr 37 min 23 sec) 
Heartbeat CPU 4 instructions: 100000000 cycles: 98971568 heartbeat IPC: 0.746979 cumulative IPC: 0.748047 (Simulation time: 0 hr 38 min 5 sec) 
Heartbeat CPU 2 instructions: 110000001 cycles: 103912790 heartbeat IPC: 0.741918 cumulative IPC: 0.902853 (Simulation time: 0 hr 39 min 39 sec) 
Heartbeat CPU 3 instructions: 120000000 cycles: 106226288 heartbeat IPC: 0.938577 cumulative IPC: 0.94005 (Simulation time: 0 hr 40 min 31 sec) 
Heartbeat CPU 0 instructions: 130000002 cycles: 106455255 heartbeat IPC: 1.03717 cumulative IPC: 0.995545 (Simulation time: 0 hr 40 min 35 sec) 
Heartbeat CPU 1 instructions: 80000000 cycles: 106555561 heartbeat IPC: 0.708547 cumulative IPC: 0.561498 (Simulation time: 0 hr 40 min 37 sec) 
Heartbeat CPU 6 instructions: 90000001 cycles: 107930997 heartbeat IPC: 0.677076 cumulative IPC: 0.677033 (Simulation time: 0 hr 41 min 5 sec) 
Heartbeat CPU 4 instructions: 110000002 cycles: 113277807 heartbeat IPC: 0.698996 cumulative IPC: 0.740925 (Simulation time: 0 hr 42 min 59 sec) 
Heartbeat CPU 2 instructions: 120000000 cycles: 114157061 heartbeat IPC: 0.976155 cumulative IPC: 0.910407 (Simulation time: 0 hr 43 min 19 sec) 
Finished CPU 0 instructions: 100000003 cycles: 99562199 cumulative IPC: 1.0044 (Simulation time: 0 hr 43 min 22 sec) 
Heartbeat CPU 0 instructions: 140000000 cycles: 115363518 heartbeat IPC: 1.12255 cumulative IPC: 1.00679 (Simulation time: 0 hr 43 min 45 sec) 
Heartbeat CPU 3 instructions: 130000001 cycles: 116175991 heartbeat IPC: 1.00506 cumulative IPC: 0.946427 (Simulation time: 0 hr 44 min 2 sec) 
Heartbeat CPU 1 instructions: 90000001 cycles: 118556345 heartbeat IPC: 0.833279 cumulative IPC: 0.592917 (Simulation time: 0 hr 44 min 53 sec) 
Heartbeat CPU 7 instructions: 70000000 cycles: 120010934 heartbeat IPC: 0.4309 cumulative IPC: 0.445404 (Simulation time: 0 hr 45 min 25 sec) 
Finished CPU 3 instructions: 100000001 cycles: 105797939 cumulative IPC: 0.945198 (Simulation time: 0 hr 45 min 37 sec) 
Heartbeat CPU 6 instructions: 100000000 cycles: 122633546 heartbeat IPC: 0.680154 cumulative IPC: 0.677458 (Simulation time: 0 hr 46 min 25 sec) 
Heartbeat CPU 0 instructions: 150000003 cycles: 123795479 heartbeat IPC: 1.18596 cumulative IPC: 1.02064 (Simulation time: 0 hr 46 min 50 sec) 
Finished CPU 2 instructions: 100000002 cycles: 109121637 cumulative IPC: 0.916409 (Simulation time: 0 hr 46 min 51 sec) 
Heartbeat CPU 2 instructions: 130000000 cycles: 124328764 heartbeat IPC: 0.98312 cumulative IPC: 0.917157 (Simulation time: 0 hr 47 min 0 sec) 
Heartbeat CPU 3 instructions: 140000000 cycles: 126578662 heartbeat IPC: 0.961291 cumulative IPC: 0.94781 (Simulation time: 0 hr 47 min 45 sec) 
Heartbeat CPU 4 instructions: 120000000 cycles: 127664665 heartbeat IPC: 0.695079 cumulative IPC: 0.735084 (Simulation time: 0 hr 48 min 10 sec) 
Heartbeat CPU 1 instructions: 100000000 cycles: 129804285 heartbeat IPC: 0.889052 cumulative IPC: 0.621868 (Simulation time: 0 hr 48 min 54 sec) 
Heartbeat CPU 0 instructions: 160000000 cycles: 132519018 heartbeat IPC: 1.14632 cumulative IPC: 1.02995 (Simulation time: 0 hr 49 min 51 sec) 
Heartbeat CPU 3 instructions: 150000000 cycles: 137182556 heartbeat IPC: 0.94305 cumulative IPC: 0.947397 (Simulation time: 0 hr 51 min 27 sec) 
Heartbeat CPU 6 instructions: 110000002 cycles: 137260989 heartbeat IPC: 0.683647 cumulative IPC: 0.678197 (Simulation time: 0 hr 51 min 28 sec) 
Heartbeat CPU 2 instructions: 140000000 cycles: 138537643 heartbeat IPC: 0.703785 cumulative IPC: 0.892665 (Simulation time: 0 hr 51 min 54 sec) 
Heartbeat CPU 0 instructions: 170000002 cycles: 141208626 heartbeat IPC: 1.1508 cumulative IPC: 1.03826 (Simulation time: 0 hr 52 min 47 sec) 
Heartbeat CPU 4 instructions: 130000001 cycles: 141917910 heartbeat IPC: 0.701595 cumulative IPC: 0.73133 (Simulation time: 0 hr 53 min 1 sec) 
Heartbeat CPU 7 instructions: 80000000 cycles: 141986231 heartbeat IPC: 0.455056 cumulative IPC: 0.447071 (Simulation time: 0 hr 53 min 3 sec) 
Heartbeat CPU 1 instructions: 110000000 cycles: 142062006 heartbeat IPC: 0.815812 cumulative IPC: 0.640541 (Simulation time: 0 hr 53 min 5 sec) 
Heartbeat CPU 3 instructions: 160000000 cycles: 147484681 heartbeat IPC: 0.970674 cumulative IPC: 0.949204 (Simulation time: 0 hr 54 min 55 sec) 
Heartbeat CPU 0 instructions: 180000000 cycles: 149179904 heartbeat IPC: 1.2545 cumulative IPC: 1.05108 (Simulation time: 0 hr 55 min 29 sec) 
Finished CPU 4 instructions: 100000000 cycles: 135476655 cumulative IPC: 0.738135 (Simulation time: 0 hr 55 min 53 sec) 
Heartbeat CPU 6 instructions: 120000000 cycles: 152056731 heartbeat IPC: 0.67587 cumulative IPC: 0.677946 (Simulation time: 0 hr 56 min 29 sec) 
Heartbeat CPU 2 instructions: 150000003 cycles: 152188180 heartbeat IPC: 0.732572 cumulative IPC: 0.876765 (Simulation time: 0 hr 56 min 32 sec) 
Heartbeat CPU 1 instructions: 120000000 cycles: 155704090 heartbeat IPC: 0.733026 cumulative IPC: 0.649492 (Simulation time: 0 hr 57 min 43 sec) 
Heartbeat CPU 4 instructions: 140000000 cycles: 156127107 heartbeat IPC: 0.703769 cumulative IPC: 0.72856 (Simulation time: 0 hr 57 min 52 sec) 
Heartbeat CPU 0 instructions: 190000001 cycles: 157360561 heartbeat IPC: 1.2224 cumulative IPC: 1.06091 (Simulation time: 0 hr 58 min 20 sec) 
Heartbeat CPU 3 instructions: 170000001 cycles: 158121352 heartbeat IPC: 0.940144 cumulative IPC: 0.948532 (Simulation time: 0 hr 58 min 37 sec) 
Finished CPU 6 instructions: 100000003 cycles: 147546597 cumulative IPC: 0.677752 (Simulation time: 1 hr 0 min 1 sec) 
Heartbeat CPU 2 instructions: 160000000 cycles: 162464470 heartbeat IPC: 0.973114 cumulative IPC: 0.883468 (Simulation time: 1 hr 0 min 5 sec) 
Heartbeat CPU 7 instructions: 90000002 cycles: 164883782 heartbeat IPC: 0.436728 cumulative IPC: 0.445494 (Simulation time: 1 hr 1 min 0 sec) 
Heartbeat CPU 0 instructions: 200000000 cycles: 165382426 heartbeat IPC: 1.24659 cumulative IPC: 1.0708 (Simulation time: 1 hr 1 min 10 sec) 
Heartbeat CPU 6 instructions: 130000003 cycles: 166855028 heartbeat IPC: 0.675754 cumulative IPC: 0.677733 (Simulation time: 1 hr 1 min 40 sec) 
Finished CPU 1 instructions: 100000003 cycles: 152528141 cumulative IPC: 0.655617 (Simulation time: 1 hr 1 min 48 sec) 
Heartbeat CPU 3 instructions: 180000000 cycles: 168677379 heartbeat IPC: 0.947326 cumulative IPC: 0.948449 (Simulation time: 1 hr 2 min 19 sec) 
Heartbeat CPU 1 instructions: 130000003 cycles: 169114633 heartbeat IPC: 0.745682 cumulative IPC: 0.657848 (Simulation time: 1 hr 2 min 28 sec) 
Heartbeat CPU 4 instructions: 150000000 cycles: 169952999 heartbeat IPC: 0.723281 cumulative IPC: 0.72809 (Simulation time: 1 hr 2 min 46 sec) 
Heartbeat CPU 2 instructions: 170000000 cycles: 172697342 heartbeat IPC: 0.977243 cumulative IPC: 0.889543 (Simulation time: 1 hr 3 min 49 sec) 
Heartbeat CPU 0 instructions: 210000000 cycles: 173520327 heartbeat IPC: 1.22882 cumulative IPC: 1.0789 (Simulation time: 1 hr 4 min 5 sec) 
Heartbeat CPU 5 instructions: 40000000 cycles: 174278993 heartbeat IPC: 0.129069 cumulative IPC: 0.125368 (Simulation time: 1 hr 4 min 19 sec) 
Heartbeat CPU 3 instructions: 190000003 cycles: 178737852 heartbeat IPC: 0.993989 cumulative IPC: 0.951243 (Simulation time: 1 hr 5 min 51 sec) 
Heartbeat CPU 1 instructions: 140000000 cycles: 180952889 heartbeat IPC: 0.844719 cumulative IPC: 0.671158 (Simulation time: 1 hr 6 min 36 sec) 
Heartbeat CPU 6 instructions: 140000000 cycles: 181643575 heartbeat IPC: 0.676199 cumulative IPC: 0.677597 (Simulation time: 1 hr 6 min 50 sec) 
Heartbeat CPU 0 instructions: 220000000 cycles: 182756904 heartbeat IPC: 1.08265 cumulative IPC: 1.0791 (Simulation time: 1 hr 7 min 11 sec) 
Heartbeat CPU 4 instructions: 160000000 cycles: 184669805 heartbeat IPC: 0.679495 cumulative IPC: 0.723881 (Simulation time: 1 hr 7 min 50 sec) 
Heartbeat CPU 2 instructions: 180000000 cycles: 187040296 heartbeat IPC: 0.697206 cumulative IPC: 0.873531 (Simulation time: 1 hr 8 min 43 sec) 
Heartbeat CPU 7 instructions: 100000000 cycles: 187657088 heartbeat IPC: 0.439111 cumulative IPC: 0.444653 (Simulation time: 1 hr 8 min 55 sec) 
Heartbeat CPU 3 instructions: 200000000 cycles: 189422810 heartbeat IPC: 0.935895 cumulative IPC: 0.950304 (Simulation time: 1 hr 9 min 33 sec) 
Heartbeat CPU 0 instructions: 230000001 cycles: 191092720 heartbeat IPC: 1.19964 cumulative IPC: 1.0848 (Simulation time: 1 hr 10 min 5 sec) 
Heartbeat CPU 1 instructions: 150000000 cycles: 192048235 heartbeat IPC: 0.901279 cumulative IPC: 0.685559 (Simulation time: 1 hr 10 min 27 sec) 
Heartbeat CPU 6 instructions: 150000001 cycles: 196351031 heartbeat IPC: 0.679927 cumulative IPC: 0.677786 (Simulation time: 1 hr 11 min 58 sec) 
Heartbeat CPU 4 instructions: 170000002 cycles: 197870921 heartbeat IPC: 0.757512 cumulative IPC: 0.726306 (Simulation time: 1 hr 12 min 27 sec) 
Heartbeat CPU 0 instructions: 240000000 cycles: 199011646 heartbeat IPC: 1.2628 cumulative IPC: 1.09245 (Simulation time: 1 hr 12 min 52 sec) 
Heartbeat CPU 3 instructions: 210000000 cycles: 199668587 heartbeat IPC: 0.976012 cumulative IPC: 0.951728 (Simulation time: 1 hr 13 min 7 sec) 
Heartbeat CPU 2 instructions: 190000003 cycles: 200787477 heartbeat IPC: 0.727422 cumulative IPC: 0.862735 (Simulation time: 1 hr 13 min 30 sec) 
Heartbeat CPU 1 instructions: 160000000 cycles: 204513945 heartbeat IPC: 0.802201 cumulative IPC: 0.693221 (Simulation time: 1 hr 14 min 44 sec) 
Heartbeat CPU 0 instructions: 250000002 cycles: 207192604 heartbeat IPC: 1.22235 cumulative IPC: 1.09797 (Simulation time: 1 hr 15 min 43 sec) 
Heartbeat CPU 3 instructions: 220000000 cycles: 210000219 heartbeat IPC: 0.967901 cumulative IPC: 0.952584 (Simulation time: 1 hr 16 min 39 sec) 
Heartbeat CPU 7 instructions: 110000002 cycles: 210570359 heartbeat IPC: 0.436428 cumulative IPC: 0.443691 (Simulation time: 1 hr 16 min 51 sec) 
Heartbeat CPU 6 instructions: 160000000 cycles: 211110805 heartbeat IPC: 0.677517 cumulative IPC: 0.677766 (Simulation time: 1 hr 17 min 3 sec) 
Heartbeat CPU 2 instructions: 200000000 cycles: 211125485 heartbeat IPC: 0.967304 cumulative IPC: 0.86824 (Simulation time: 1 hr 17 min 3 sec) 
Heartbeat CPU 4 instructions: 180000000 cycles: 211850413 heartbeat IPC: 0.715333 cumulative IPC: 0.725527 (Simulation time: 1 hr 17 min 17 sec) 
Heartbeat CPU 0 instructions: 260000000 cycles: 215347986 heartbeat IPC: 1.22618 cumulative IPC: 1.10318 (Simulation time: 1 hr 18 min 34 sec) 
Heartbeat CPU 1 instructions: 170000003 cycles: 218216556 heartbeat IPC: 0.729788 cumulative IPC: 0.695684 (Simulation time: 1 hr 19 min 34 sec) 
Heartbeat CPU 3 instructions: 230000001 cycles: 220422390 heartbeat IPC: 0.959493 cumulative IPC: 0.952934 (Simulation time: 1 hr 20 min 22 sec) 
Heartbeat CPU 2 instructions: 210000002 cycles: 221501189 heartbeat IPC: 0.96379 cumulative IPC: 0.873035 (Simulation time: 1 hr 20 min 44 sec) 
Heartbeat CPU 0 instructions: 270000003 cycles: 223991148 heartbeat IPC: 1.15698 cumulative IPC: 1.10541 (Simulation time: 1 hr 21 min 35 sec) 
Heartbeat CPU 4 instructions: 190000000 cycles: 224798523 heartbeat IPC: 0.772313 cumulative IPC: 0.728411 (Simulation time: 1 hr 21 min 51 sec) 
Heartbeat CPU 6 instructions: 170000002 cycles: 225779416 heartbeat IPC: 0.681728 cumulative IPC: 0.678041 (Simulation time: 1 hr 22 min 14 sec) 
Heartbeat CPU 3 instructions: 240000000 cycles: 230785227 heartbeat IPC: 0.964987 cumulative IPC: 0.953512 (Simulation time: 1 hr 23 min 57 sec) 
Heartbeat CPU 1 instructions: 180000000 cycles: 230795787 heartbeat IPC: 0.794961 cumulative IPC: 0.701464 (Simulation time: 1 hr 23 min 57 sec) 
Heartbeat CPU 0 instructions: 280000000 cycles: 231940620 heartbeat IPC: 1.25794 cumulative IPC: 1.11099 (Simulation time: 1 hr 24 min 22 sec) 
Heartbeat CPU 7 instructions: 120000000 cycles: 233918975 heartbeat IPC: 0.428291 cumulative IPC: 0.44205 (Simulation time: 1 hr 25 min 5 sec) 
Heartbeat CPU 2 instructions: 220000000 cycles: 235720947 heartbeat IPC: 0.703247 cumulative IPC: 0.862109 (Simulation time: 1 hr 25 min 45 sec) 
Heartbeat CPU 4 instructions: 200000000 cycles: 237049313 heartbeat IPC: 0.816274 cumulative IPC: 0.733253 (Simulation time: 1 hr 26 min 10 sec) 
Heartbeat CPU 6 instructions: 180000000 cycles: 240473484 heartbeat IPC: 0.680547 cumulative IPC: 0.678204 (Simulation time: 1 hr 27 min 21 sec) 
Heartbeat CPU 3 instructions: 250000003 cycles: 240629846 heartbeat IPC: 1.01578 cumulative IPC: 0.956226 (Simulation time: 1 hr 27 min 24 sec) 
Heartbeat CPU 0 instructions: 290000002 cycles: 240988717 heartbeat IPC: 1.1052 cumulative IPC: 1.11076 (Simulation time: 1 hr 27 min 32 sec) 
Finished CPU 7 instructions: 100000000 cycles: 226402351 cumulative IPC: 0.441692 (Simulation time: 1 hr 27 min 35 sec) 
Heartbeat CPU 1 instructions: 190000003 cycles: 242387815 heartbeat IPC: 0.862662 cumulative IPC: 0.709673 (Simulation time: 1 hr 28 min 0 sec) 
Heartbeat CPU 2 instructions: 230000003 cycles: 250115544 heartbeat IPC: 0.694705 cumulative IPC: 0.851871 (Simulation time: 1 hr 30 min 32 sec) 
Heartbeat CPU 4 instructions: 210000000 cycles: 250414143 heartbeat IPC: 0.748232 cumulative IPC: 0.734103 (Simulation time: 1 hr 30 min 38 sec) 
Heartbeat CPU 3 instructions: 260000000 cycles: 251079062 heartbeat IPC: 0.957009 cumulative IPC: 0.956261 (Simulation time: 1 hr 30 min 52 sec) 
Heartbeat CPU 0 instructions: 300000000 cycles: 251438127 heartbeat IPC: 0.956992 cumulative IPC: 1.10397 (Simulation time: 1 hr 31 min 0 sec) 
Heartbeat CPU 5 instructions: 50000003 cycles: 251718967 heartbeat IPC: 0.129132 cumulative IPC: 0.126598 (Simulation time: 1 hr 31 min 7 sec) 
Heartbeat CPU 6 instructions: 190000002 cycles: 255164405 heartbeat IPC: 0.680693 cumulative IPC: 0.678356 (Simulation time: 1 hr 32 min 16 sec) 
Heartbeat CPU 1 instructions: 200000000 cycles: 256217860 heartbeat IPC: 0.723063 cumulative IPC: 0.71044 (Simulation time: 1 hr 32 min 37 sec) 
Heartbeat CPU 7 instructions: 130000001 cycles: 257183584 heartbeat IPC: 0.429837 cumulative IPC: 0.440878 (Simulation time: 1 hr 32 min 57 sec) 
Heartbeat CPU 2 instructions: 240000000 cycles: 260884383 heartbeat IPC: 0.928605 cumulative IPC: 0.855228 (Simulation time: 1 hr 34 min 13 sec) 
Heartbeat CPU 4 instructions: 220000000 cycles: 261220577 heartbeat IPC: 0.925375 cumulative IPC: 0.742489 (Simulation time: 1 hr 34 min 20 sec) 
Heartbeat CPU 3 instructions: 270000000 cycles: 261352343 heartbeat IPC: 0.973399 cumulative IPC: 0.956975 (Simulation time: 1 hr 34 min 23 sec) 
Heartbeat CPU 0 instructions: 310000002 cycles: 261646773 heartbeat IPC: 0.979562 cumulative IPC: 1.09883 (Simulation time: 1 hr 34 min 29 sec) 
Heartbeat CPU 6 instructions: 200000000 cycles: 269865518 heartbeat IPC: 0.68022 cumulative IPC: 0.678464 (Simulation time: 1 hr 37 min 13 sec) 
Heartbeat CPU 4 instructions: 230000002 cycles: 270883097 heartbeat IPC: 1.03493 cumulative IPC: 0.753521 (Simulation time: 1 hr 37 min 34 sec) 
Heartbeat CPU 2 instructions: 250000002 cycles: 271166525 heartbeat IPC: 0.97256 cumulative IPC: 0.859933 (Simulation time: 1 hr 37 min 40 sec) 
Heartbeat CPU 3 instructions: 280000000 cycles: 271239936 heartbeat IPC: 1.01137 cumulative IPC: 0.959072 (Simulation time: 1 hr 37 min 41 sec) 
Heartbeat CPU 0 instructions: 320000000 cycles: 271571433 heartbeat IPC: 1.00759 cumulative IPC: 1.0953 (Simulation time: 1 hr 37 min 48 sec) 
Heartbeat CPU 1 instructions: 210000000 cycles: 276350902 heartbeat IPC: 0.496696 cumulative IPC: 0.69399 (Simulation time: 1 hr 39 min 16 sec) 
Heartbeat CPU 7 instructions: 140000000 cycles: 280582803 heartbeat IPC: 0.427365 cumulative IPC: 0.439689 (Simulation time: 1 hr 40 min 37 sec) 
Heartbeat CPU 3 instructions: 290000003 cycles: 282054786 heartbeat IPC: 0.924655 cumulative IPC: 0.957679 (Simulation time: 1 hr 41 min 2 sec) 
Heartbeat CPU 0 instructions: 330000000 cycles: 282990333 heartbeat IPC: 0.875741 cumulative IPC: 1.08595 (Simulation time: 1 hr 41 min 18 sec) 
Heartbeat CPU 4 instructions: 240000000 cycles: 283148822 heartbeat IPC: 0.81528 cumulative IPC: 0.756344 (Simulation time: 1 hr 41 min 21 sec) 
Heartbeat CPU 6 instructions: 210000001 cycles: 284672171 heartbeat IPC: 0.675372 cumulative IPC: 0.678294 (Simulation time: 1 hr 41 min 52 sec) 
Heartbeat CPU 2 instructions: 260000000 cycles: 284804328 heartbeat IPC: 0.733256 cumulative IPC: 0.853536 (Simulation time: 1 hr 41 min 55 sec) 
Heartbeat CPU 3 instructions: 300000000 cycles: 292763358 heartbeat IPC: 0.933831 cumulative IPC: 0.956761 (Simulation time: 1 hr 44 min 35 sec) 
Heartbeat CPU 0 instructions: 340000000 cycles: 293050911 heartbeat IPC: 0.993979 cumulative IPC: 1.08263 (Simulation time: 1 hr 44 min 40 sec) 
Heartbeat CPU 7 instructions: 150000000 cycles: 295110097 heartbeat IPC: 0.688359 cumulative IPC: 0.452574 (Simulation time: 1 hr 45 min 18 sec) 
Heartbeat CPU 4 instructions: 250000003 cycles: 295992530 heartbeat IPC: 0.778592 cumulative IPC: 0.75736 (Simulation time: 1 hr 45 min 34 sec) 
Heartbeat CPU 1 instructions: 220000000 cycles: 299220930 heartbeat IPC: 0.437254 cumulative IPC: 0.67335 (Simulation time: 1 hr 46 min 37 sec) 
Heartbeat CPU 2 instructions: 270000001 cycles: 299455829 heartbeat IPC: 0.682524 cumulative IPC: 0.844735 (Simulation time: 1 hr 46 min 41 sec) 
Heartbeat CPU 6 instructions: 220000000 cycles: 299583774 heartbeat IPC: 0.670619 cumulative IPC: 0.677892 (Simulation time: 1 hr 46 min 43 sec) 
Heartbeat CPU 3 instructions: 310000003 cycles: 304605883 heartbeat IPC: 0.844415 cumulative IPC: 0.952171 (Simulation time: 1 hr 48 min 10 sec) 
Heartbeat CPU 0 instructions: 350000000 cycles: 306870209 heartbeat IPC: 0.723626 cumulative IPC: 1.06565 (Simulation time: 1 hr 48 min 56 sec) 
Heartbeat CPU 2 instructions: 280000000 cycles: 311134665 heartbeat IPC: 0.85625 cumulative IPC: 0.845189 (Simulation time: 1 hr 50 min 17 sec) 
Heartbeat CPU 7 instructions: 160000000 cycles: 314152012 heartbeat IPC: 0.525157 cumulative IPC: 0.45719 (Simulation time: 1 hr 51 min 16 sec) 
Heartbeat CPU 4 instructions: 260000000 cycles: 314582280 heartbeat IPC: 0.537931 cumulative IPC: 0.743755 (Simulation time: 1 hr 51 min 24 sec) 
Heartbeat CPU 6 instructions: 230000002 cycles: 314738062 heartbeat IPC: 0.659879 cumulative IPC: 0.676982 (Simulation time: 1 hr 51 min 27 sec) 
Heartbeat CPU 3 instructions: 320000000 cycles: 317514760 heartbeat IPC: 0.77466 cumulative IPC: 0.944602 (Simulation time: 1 hr 52 min 19 sec) 
Heartbeat CPU 0 instructions: 360000000 cycles: 320911037 heartbeat IPC: 0.712209 cumulative IPC: 1.04944 (Simulation time: 1 hr 53 min 21 sec) 
Heartbeat CPU 2 instructions: 290000001 cycles: 321745611 heartbeat IPC: 0.942423 cumulative IPC: 0.84855 (Simulation time: 1 hr 53 min 36 sec) 
Heartbeat CPU 1 instructions: 230000000 cycles: 328373701 heartbeat IPC: 0.343021 cumulative IPC: 0.642644 (Simulation time: 1 hr 55 min 37 sec) 
Heartbeat CPU 6 instructions: 240000000 cycles: 329863474 heartbeat IPC: 0.661139 cumulative IPC: 0.676222 (Simulation time: 1 hr 56 min 3 sec) 
Heartbeat CPU 3 instructions: 330000003 cycles: 330165037 heartbeat IPC: 0.790497 cumulative IPC: 0.938422 (Simulation time: 1 hr 56 min 8 sec) 
Heartbeat CPU 4 instructions: 270000002 cycles: 331354922 heartbeat IPC: 0.596209 cumulative IPC: 0.735938 (Simulation time: 1 hr 56 min 32 sec) 
Heartbeat CPU 0 instructions: 370000002 cycles: 334061917 heartbeat IPC: 0.760406 cumulative IPC: 1.03753 (Simulation time: 1 hr 57 min 24 sec) 
Heartbeat CPU 2 instructions: 300000000 cycles: 335030149 heartbeat IPC: 0.752755 cumulative IPC: 0.844576 (Simulation time: 1 hr 57 min 41 sec) 
Heartbeat CPU 7 instructions: 170000003 cycles: 339751704 heartbeat IPC: 0.39063 cumulative IPC: 0.451947 (Simulation time: 1 hr 59 min 13 sec) 
Heartbeat CPU 3 instructions: 340000000 cycles: 340676035 heartbeat IPC: 0.951384 cumulative IPC: 0.93884 (Simulation time: 1 hr 59 min 30 sec) 
Heartbeat CPU 5 instructions: 60000000 cycles: 343557408 heartbeat IPC: 0.108887 cumulative IPC: 0.121651 (Simulation time: 2 hr 0 min 30 sec) 
Heartbeat CPU 4 instructions: 280000000 cycles: 344027023 heartbeat IPC: 0.789135 cumulative IPC: 0.737986 (Simulation time: 2 hr 0 min 39 sec) 
Heartbeat CPU 0 instructions: 380000000 cycles: 344220759 heartbeat IPC: 0.984364 cumulative IPC: 1.03589 (Simulation time: 2 hr 0 min 42 sec) 
Heartbeat CPU 1 instructions: 240000000 cycles: 344597087 heartbeat IPC: 0.616394 cumulative IPC: 0.641353 (Simulation time: 2 hr 0 min 49 sec) 
Heartbeat CPU 6 instructions: 250000002 cycles: 344658943 heartbeat IPC: 0.675883 cumulative IPC: 0.676207 (Simulation time: 2 hr 0 min 50 sec) 
Heartbeat CPU 2 instructions: 310000002 cycles: 349295310 heartbeat IPC: 0.701009 cumulative IPC: 0.838454 (Simulation time: 2 hr 2 min 25 sec) 
Heartbeat CPU 3 instructions: 350000002 cycles: 351064815 heartbeat IPC: 0.962577 cumulative IPC: 0.939573 (Simulation time: 2 hr 2 min 59 sec) 
Heartbeat CPU 0 instructions: 390000003 cycles: 354307527 heartbeat IPC: 0.991398 cumulative IPC: 1.03457 (Simulation time: 2 hr 4 min 4 sec) 
Heartbeat CPU 4 instructions: 290000000 cycles: 354743188 heartbeat IPC: 0.93317 cumulative IPC: 0.744138 (Simulation time: 2 hr 4 min 13 sec) 
Heartbeat CPU 1 instructions: 250000003 cycles: 357198675 heartbeat IPC: 0.793551 cumulative IPC: 0.646954 (Simulation time: 2 hr 5 min 4 sec) 
Heartbeat CPU 6 instructions: 260000000 cycles: 359396857 heartbeat IPC: 0.678522 cumulative IPC: 0.676306 (Simulation time: 2 hr 5 min 51 sec) 
Heartbeat CPU 3 instructions: 360000000 cycles: 361445476 heartbeat IPC: 0.96333 cumulative IPC: 0.940284 (Simulation time: 2 hr 6 min 31 sec) 
Heartbeat CPU 2 instructions: 320000000 cycles: 361493630 heartbeat IPC: 0.819785 cumulative IPC: 0.837798 (Simulation time: 2 hr 6 min 32 sec) 
Heartbeat CPU 7 instructions: 180000000 cycles: 362725969 heartbeat IPC: 0.43527 cumulative IPC: 0.450846 (Simulation time: 2 hr 7 min 0 sec) 
Heartbeat CPU 0 instructions: 400000000 cycles: 364154864 heartbeat IPC: 1.0155 cumulative IPC: 1.03403 (Simulation time: 2 hr 7 min 32 sec) 
Heartbeat CPU 4 instructions: 300000000 cycles: 364603278 heartbeat IPC: 1.01419 cumulative IPC: 0.751749 (Simulation time: 2 hr 7 min 41 sec) 
Heartbeat CPU 3 instructions: 370000003 cycles: 371310196 heartbeat IPC: 1.01371 cumulative IPC: 0.942316 (Simulation time: 2 hr 9 min 55 sec) 
Heartbeat CPU 2 instructions: 330000000 cycles: 371834040 heartbeat IPC: 0.96708 cumulative IPC: 0.841541 (Simulation time: 2 hr 10 min 5 sec) 
Heartbeat CPU 1 instructions: 260000000 cycles: 372126253 heartbeat IPC: 0.669901 cumulative IPC: 0.647912 (Simulation time: 2 hr 10 min 11 sec) 
Heartbeat CPU 6 instructions: 270000000 cycles: 374120653 heartbeat IPC: 0.679173 cumulative IPC: 0.676423 (Simulation time: 2 hr 10 min 51 sec) 
Heartbeat CPU 0 instructions: 410000003 cycles: 374348513 heartbeat IPC: 0.981003 cumulative IPC: 1.03253 (Simulation time: 2 hr 10 min 56 sec) 
Heartbeat CPU 4 instructions: 310000003 cycles: 376106715 heartbeat IPC: 0.869306 cumulative IPC: 0.755491 (Simulation time: 2 hr 11 min 27 sec) 
Heartbeat CPU 3 instructions: 380000000 cycles: 382261869 heartbeat IPC: 0.913102 cumulative IPC: 0.941445 (Simulation time: 2 hr 13 min 23 sec) 
Heartbeat CPU 2 instructions: 340000000 cycles: 383995805 heartbeat IPC: 0.822249 cumulative IPC: 0.840906 (Simulation time: 2 hr 13 min 55 sec) 
Heartbeat CPU 7 instructions: 190000000 cycles: 384476478 heartbeat IPC: 0.459759 cumulative IPC: 0.451371 (Simulation time: 2 hr 14 min 4 sec) 
Heartbeat CPU 0 instructions: 420000000 cycles: 385699404 heartbeat IPC: 0.880988 cumulative IPC: 1.02789 (Simulation time: 2 hr 14 min 28 sec) 
Heartbeat CPU 6 instructions: 280000000 cycles: 388892455 heartbeat IPC: 0.676965 cumulative IPC: 0.676445 (Simulation time: 2 hr 15 min 27 sec) 
Heartbeat CPU 4 instructions: 320000000 cycles: 389022750 heartbeat IPC: 0.774231 cumulative IPC: 0.756138 (Simulation time: 2 hr 15 min 30 sec) 
Heartbeat CPU 1 instructions: 270000000 cycles: 391649264 heartbeat IPC: 0.512216 cumulative IPC: 0.640883 (Simulation time: 2 hr 16 min 20 sec) 
Heartbeat CPU 3 instructions: 390000000 cycles: 392806933 heartbeat IPC: 0.948311 cumulative IPC: 0.941637 (Simulation time: 2 hr 16 min 43 sec) 
Heartbeat CPU 0 instructions: 430000001 cycles: 395483270 heartbeat IPC: 1.02209 cumulative IPC: 1.02774 (Simulation time: 2 hr 17 min 34 sec) 
Heartbeat CPU 2 instructions: 350000000 cycles: 398342606 heartbeat IPC: 0.69702 cumulative IPC: 0.835524 (Simulation time: 2 hr 18 min 28 sec) 
Heartbeat CPU 4 instructions: 330000002 cycles: 400860701 heartbeat IPC: 0.844741 cumulative IPC: 0.758854 (Simulation time: 2 hr 19 min 16 sec) 
Heartbeat CPU 3 instructions: 400000000 cycles: 402634367 heartbeat IPC: 1.01756 cumulative IPC: 0.94356 (Simulation time: 2 hr 19 min 51 sec) 
Heartbeat CPU 6 instructions: 290000002 cycles: 403583902 heartbeat IPC: 0.680668 cumulative IPC: 0.676604 (Simulation time: 2 hr 20 min 8 sec) 
Heartbeat CPU 0 instructions: 440000000 cycles: 404863817 heartbeat IPC: 1.06604 cumulative IPC: 1.02867 (Simulation time: 2 hr 20 min 34 sec) 
Heartbeat CPU 7 instructions: 200000000 cycles: 405964754 heartbeat IPC: 0.46537 cumulative IPC: 0.45214 (Simulation time: 2 hr 20 min 56 sec) 
Heartbeat CPU 1 instructions: 280000000 cycles: 409088887 heartbeat IPC: 0.573407 cumulative IPC: 0.637899 (Simulation time: 2 hr 21 min 55 sec) 
Heartbeat CPU 2 instructions: 360000000 cycles: 411371690 heartbeat IPC: 0.767514 cumulative IPC: 0.83329 (Simulation time: 2 hr 22 min 40 sec) 
Heartbeat CPU 4 instructions: 340000000 cycles: 413387010 heartbeat IPC: 0.79832 cumulative IPC: 0.760094 (Simulation time: 2 hr 23 min 22 sec) 
Heartbeat CPU 3 instructions: 410000000 cycles: 413559428 heartbeat IPC: 0.915327 cumulative IPC: 0.942787 (Simulation time: 2 hr 23 min 26 sec) 
Heartbeat CPU 0 instructions: 450000002 cycles: 415976625 heartbeat IPC: 0.899863 cumulative IPC: 1.0251 (Simulation time: 2 hr 24 min 11 sec) 
Heartbeat CPU 6 instructions: 300000000 cycles: 418416054 heartbeat IPC: 0.674211 cumulative IPC: 0.676516 (Simulation time: 2 hr 25 min 0 sec) 
Heartbeat CPU 2 instructions: 370000001 cycles: 421789479 heartbeat IPC: 0.959897 cumulative IPC: 0.836531 (Simulation time: 2 hr 26 min 6 sec) 
Heartbeat CPU 3 instructions: 420000000 cycles: 425082950 heartbeat IPC: 0.86779 cumulative IPC: 0.940681 (Simulation time: 2 hr 27 min 8 sec) 
Heartbeat CPU 5 instructions: 70000002 cycles: 426242504 heartbeat IPC: 0.120941 cumulative IPC: 0.121508 (Simulation time: 2 hr 27 min 32 sec) 
Heartbeat CPU 0 instructions: 460000000 cycles: 426833600 heartbeat IPC: 0.921067 cumulative IPC: 1.02236 (Simulation time: 2 hr 27 min 43 sec) 
Heartbeat CPU 4 instructions: 350000003 cycles: 428242260 heartbeat IPC: 0.673163 cumulative IPC: 0.756971 (Simulation time: 2 hr 28 min 9 sec) 
Heartbeat CPU 7 instructions: 210000000 cycles: 428692664 heartbeat IPC: 0.439988 cumulative IPC: 0.451472 (Simulation time: 2 hr 28 min 17 sec) 
Heartbeat CPU 1 instructions: 290000000 cycles: 429597793 heartbeat IPC: 0.487593 cumulative IPC: 0.630469 (Simulation time: 2 hr 28 min 34 sec) 
Heartbeat CPU 2 instructions: 380000000 cycles: 433115056 heartbeat IPC: 0.882957 cumulative IPC: 0.837788 (Simulation time: 2 hr 29 min 40 sec) 
Heartbeat CPU 6 instructions: 310000000 cycles: 433375782 heartbeat IPC: 0.668461 cumulative IPC: 0.676228 (Simulation time: 2 hr 29 min 45 sec) 
Heartbeat CPU 3 instructions: 430000000 cycles: 435882972 heartbeat IPC: 0.925924 cumulative IPC: 0.940302 (Simulation time: 2 hr 30 min 29 sec) 
Heartbeat CPU 0 instructions: 470000002 cycles: 437398803 heartbeat IPC: 0.946504 cumulative IPC: 1.02046 (Simulation time: 2 hr 30 min 59 sec) 
Heartbeat CPU 4 instructions: 360000000 cycles: 442046378 heartbeat IPC: 0.724421 cumulative IPC: 0.75592 (Simulation time: 2 hr 32 min 27 sec) 
Heartbeat CPU 3 instructions: 440000000 cycles: 446255685 heartbeat IPC: 0.964068 cumulative IPC: 0.940874 (Simulation time: 2 hr 33 min 49 sec) 
Heartbeat CPU 0 instructions: 480000000 cycles: 446783139 heartbeat IPC: 1.06561 cumulative IPC: 1.02144 (Simulation time: 2 hr 33 min 58 sec) 
Heartbeat CPU 2 instructions: 390000002 cycles: 447136270 heartbeat IPC: 0.713205 cumulative IPC: 0.833748 (Simulation time: 2 hr 34 min 4 sec) 
Heartbeat CPU 6 instructions: 320000000 cycles: 448128463 heartbeat IPC: 0.677843 cumulative IPC: 0.676283 (Simulation time: 2 hr 34 min 23 sec) 
Heartbeat CPU 1 instructions: 300000000 cycles: 449405051 heartbeat IPC: 0.504865 cumulative IPC: 0.624745 (Simulation time: 2 hr 34 min 46 sec) 
Heartbeat CPU 7 instructions: 220000000 cycles: 452177589 heartbeat IPC: 0.425805 cumulative IPC: 0.450094 (Simulation time: 2 hr 35 min 35 sec) 
Heartbeat CPU 4 instructions: 370000003 cycles: 455359522 heartbeat IPC: 0.751138 cumulative IPC: 0.755775 (Simulation time: 2 hr 36 min 36 sec) 
Heartbeat CPU 0 instructions: 490000000 cycles: 456584305 heartbeat IPC: 1.02029 cumulative IPC: 1.02142 (Simulation time: 2 hr 36 min 58 sec) 
Heartbeat CPU 3 instructions: 450000000 cycles: 457064196 heartbeat IPC: 0.925197 cumulative IPC: 0.94049 (Simulation time: 2 hr 37 min 7 sec) 
Heartbeat CPU 2 instructions: 400000000 cycles: 460534733 heartbeat IPC: 0.746354 cumulative IPC: 0.831121 (Simulation time: 2 hr 38 min 13 sec) 
Heartbeat CPU 6 instructions: 330000000 cycles: 462935011 heartbeat IPC: 0.675377 cumulative IPC: 0.676253 (Simulation time: 2 hr 39 min 2 sec) 
Heartbeat CPU 0 instructions: 500000000 cycles: 466518665 heartbeat IPC: 1.00661 cumulative IPC: 1.02109 (Simulation time: 2 hr 40 min 10 sec) 
Heartbeat CPU 3 instructions: 460000000 cycles: 467024100 heartbeat IPC: 1.00403 cumulative IPC: 0.94189 (Simulation time: 2 hr 40 min 20 sec) 
Heartbeat CPU 1 instructions: 310000003 cycles: 468394917 heartbeat IPC: 0.526597 cumulative IPC: 0.620636 (Simulation time: 2 hr 40 min 47 sec) 
Heartbeat CPU 4 instructions: 380000000 cycles: 469556644 heartbeat IPC: 0.704368 cumulative IPC: 0.75417 (Simulation time: 2 hr 41 min 12 sec) 
Heartbeat CPU 2 instructions: 410000001 cycles: 470667534 heartbeat IPC: 0.986894 cumulative IPC: 0.834583 (Simulation time: 2 hr 41 min 35 sec) 
Heartbeat CPU 7 instructions: 230000000 cycles: 475499490 heartbeat IPC: 0.428782 cumulative IPC: 0.449015 (Simulation time: 2 hr 43 min 7 sec) 
Heartbeat CPU 0 instructions: 510000002 cycles: 477024843 heartbeat IPC: 0.951821 cumulative IPC: 1.01952 (Simulation time: 2 hr 43 min 35 sec) 
Heartbeat CPU 6 instructions: 340000000 cycles: 477750176 heartbeat IPC: 0.674984 cumulative IPC: 0.676213 (Simulation time: 2 hr 43 min 49 sec) 
Heartbeat CPU 3 instructions: 470000000 cycles: 478261863 heartbeat IPC: 0.889857 cumulative IPC: 0.940628 (Simulation time: 2 hr 43 min 59 sec) 
Heartbeat CPU 2 instructions: 420000000 cycles: 481227201 heartbeat IPC: 0.946999 cumulative IPC: 0.837128 (Simulation time: 2 hr 44 min 57 sec) 
Heartbeat CPU 1 instructions: 320000000 cycles: 487277824 heartbeat IPC: 0.529579 cumulative IPC: 0.616998 (Simulation time: 2 hr 46 min 46 sec) 
Heartbeat CPU 4 instructions: 390000003 cycles: 487904718 heartbeat IPC: 0.545016 cumulative IPC: 0.74606 (Simulation time: 2 hr 46 min 56 sec) 
Heartbeat CPU 0 instructions: 520000000 cycles: 488923815 heartbeat IPC: 0.840409 cumulative IPC: 1.01502 (Simulation time: 2 hr 47 min 17 sec) 
Heartbeat CPU 3 instructions: 480000000 cycles: 489874846 heartbeat IPC: 0.861105 cumulative IPC: 0.938684 (Simulation time: 2 hr 47 min 37 sec) 
Heartbeat CPU 6 instructions: 350000000 cycles: 492677285 heartbeat IPC: 0.669922 cumulative IPC: 0.676016 (Simulation time: 2 hr 48 min 29 sec) 
Heartbeat CPU 2 instructions: 430000003 cycles: 495484181 heartbeat IPC: 0.701411 cumulative IPC: 0.833103 (Simulation time: 2 hr 49 min 18 sec) 
Heartbeat CPU 7 instructions: 240000000 cycles: 498216196 heartbeat IPC: 0.440205 cumulative IPC: 0.448602 (Simulation time: 2 hr 50 min 7 sec) 
Heartbeat CPU 0 instructions: 530000000 cycles: 499882055 heartbeat IPC: 0.912555 cumulative IPC: 1.01271 (Simulation time: 2 hr 50 min 38 sec) 
Heartbeat CPU 3 instructions: 490000000 cycles: 500681560 heartbeat IPC: 0.925351 cumulative IPC: 0.938388 (Simulation time: 2 hr 50 min 54 sec) 
Heartbeat CPU 4 instructions: 400000000 cycles: 503561786 heartbeat IPC: 0.638689 cumulative IPC: 0.742621 (Simulation time: 2 hr 51 min 43 sec) 
Heartbeat CPU 1 instructions: 330000001 cycles: 506892678 heartbeat IPC: 0.509818 cumulative IPC: 0.612726 (Simulation time: 2 hr 52 min 42 sec) 
Heartbeat CPU 6 instructions: 360000000 cycles: 507540919 heartbeat IPC: 0.672783 cumulative IPC: 0.675919 (Simulation time: 2 hr 52 min 55 sec) 
Heartbeat CPU 2 instructions: 440000000 cycles: 508642458 heartbeat IPC: 0.759978 cumulative IPC: 0.831155 (Simulation time: 2 hr 53 min 18 sec) 
Heartbeat CPU 5 instructions: 80000000 cycles: 510293624 heartbeat IPC: 0.118975 cumulative IPC: 0.121079 (Simulation time: 2 hr 53 min 52 sec) 
Heartbeat CPU 0 instructions: 540000000 cycles: 510938840 heartbeat IPC: 0.904422 cumulative IPC: 1.01029 (Simulation time: 2 hr 54 min 4 sec) 
Heartbeat CPU 3 instructions: 500000000 cycles: 511483042 heartbeat IPC: 0.925799 cumulative IPC: 0.938114 (Simulation time: 2 hr 54 min 15 sec) 
Heartbeat CPU 2 instructions: 450000003 cycles: 516806639 heartbeat IPC: 1.22486 cumulative IPC: 0.837557 (Simulation time: 2 hr 55 min 59 sec) 
Heartbeat CPU 4 instructions: 410000000 cycles: 517843645 heartbeat IPC: 0.700189 cumulative IPC: 0.741416 (Simulation time: 2 hr 56 min 21 sec) 
Heartbeat CPU 7 instructions: 250000000 cycles: 520752262 heartbeat IPC: 0.443733 cumulative IPC: 0.448385 (Simulation time: 2 hr 57 min 18 sec) 
Heartbeat CPU 0 instructions: 550000003 cycles: 520995407 heartbeat IPC: 0.994375 cumulative IPC: 1.00998 (Simulation time: 2 hr 57 min 23 sec) 
Heartbeat CPU 3 instructions: 510000003 cycles: 522240779 heartbeat IPC: 0.929564 cumulative IPC: 0.937933 (Simulation time: 2 hr 57 min 46 sec) 
Heartbeat CPU 6 instructions: 370000003 cycles: 522283980 heartbeat IPC: 0.678285 cumulative IPC: 0.675987 (Simulation time: 2 hr 57 min 46 sec) 
Heartbeat CPU 1 instructions: 340000000 cycles: 523515008 heartbeat IPC: 0.6016 cumulative IPC: 0.612362 (Simulation time: 2 hr 58 min 9 sec) 
Heartbeat CPU 2 instructions: 460000000 cycles: 524979986 heartbeat IPC: 1.22349 cumulative IPC: 0.843739 (Simulation time: 2 hr 58 min 37 sec) 
Heartbeat CPU 3 instructions: 520000000 cycles: 532693588 heartbeat IPC: 0.95668 cumulative IPC: 0.938311 (Simulation time: 3 hr 1 min 8 sec) 
Heartbeat CPU 0 instructions: 560000000 cycles: 532702500 heartbeat IPC: 0.854183 cumulative IPC: 1.00646 (Simulation time: 3 hr 1 min 8 sec) 
Heartbeat CPU 2 instructions: 470000001 cycles: 533180054 heartbeat IPC: 1.2195 cumulative IPC: 0.849683 (Simulation time: 3 hr 1 min 18 sec) 
Heartbeat CPU 4 instructions: 420000000 cycles: 534475943 heartbeat IPC: 0.60124 cumulative IPC: 0.73693 (Simulation time: 3 hr 1 min 44 sec) 
Heartbeat CPU 6 instructions: 380000000 cycles: 537082060 heartbeat IPC: 0.675763 cumulative IPC: 0.675981 (Simulation time: 3 hr 2 min 36 sec) 
Heartbeat CPU 1 instructions: 350000002 cycles: 539008000 heartbeat IPC: 0.645453 cumulative IPC: 0.61334 (Simulation time: 3 hr 3 min 11 sec) 
Heartbeat CPU 0 instructions: 570000002 cycles: 542846166 heartbeat IPC: 0.985837 cumulative IPC: 1.00606 (Simulation time: 3 hr 4 min 25 sec) 
Heartbeat CPU 3 instructions: 530000000 cycles: 543117707 heartbeat IPC: 0.959314 cumulative IPC: 0.938726 (Simulation time: 3 hr 4 min 30 sec) 
Heartbeat CPU 7 instructions: 260000000 cycles: 543811884 heartbeat IPC: 0.433658 cumulative IPC: 0.447743 (Simulation time: 3 hr 4 min 42 sec) 
Heartbeat CPU 2 instructions: 480000000 cycles: 546648736 heartbeat IPC: 0.742463 cumulative IPC: 0.846968 (Simulation time: 3 hr 5 min 41 sec) 
Heartbeat CPU 4 instructions: 430000002 cycles: 547464586 heartbeat IPC: 0.769904 cumulative IPC: 0.737734 (Simulation time: 3 hr 5 min 57 sec) 
Heartbeat CPU 6 instructions: 390000003 cycles: 551767445 heartbeat IPC: 0.680949 cumulative IPC: 0.676117 (Simulation time: 3 hr 7 min 16 sec) 
Heartbeat CPU 1 instructions: 360000000 cycles: 552155917 heartbeat IPC: 0.760577 cumulative IPC: 0.616942 (Simulation time: 3 hr 7 min 23 sec) 
Heartbeat CPU 0 instructions: 580000000 cycles: 553277778 heartbeat IPC: 0.958624 cumulative IPC: 1.00514 (Simulation time: 3 hr 7 min 45 sec) 
Heartbeat CPU 3 instructions: 540000000 cycles: 553700770 heartbeat IPC: 0.944906 cumulative IPC: 0.938847 (Simulation time: 3 hr 7 min 54 sec) 
Heartbeat CPU 2 instructions: 490000000 cycles: 560496679 heartbeat IPC: 0.722129 cumulative IPC: 0.8438 (Simulation time: 3 hr 10 min 5 sec) 
Heartbeat CPU 4 instructions: 440000000 cycles: 563618532 heartbeat IPC: 0.619044 cumulative IPC: 0.734241 (Simulation time: 3 hr 11 min 6 sec) 
Heartbeat CPU 3 instructions: 550000001 cycles: 563789538 heartbeat IPC: 0.991201 cumulative IPC: 0.939809 (Simulation time: 3 hr 11 min 10 sec) 
Heartbeat CPU 0 instructions: 590000001 cycles: 564059185 heartbeat IPC: 0.927523 cumulative IPC: 1.00362 (Simulation time: 3 hr 11 min 16 sec) 
Heartbeat CPU 1 instructions: 370000002 cycles: 565330797 heartbeat IPC: 0.75902 cumulative IPC: 0.620342 (Simulation time: 3 hr 11 min 42 sec) 
Heartbeat CPU 7 instructions: 270000003 cycles: 566528625 heartbeat IPC: 0.440204 cumulative IPC: 0.447432 (Simulation time: 3 hr 12 min 9 sec) 
Heartbeat CPU 6 instructions: 400000000 cycles: 566596263 heartbeat IPC: 0.674362 cumulative IPC: 0.67607 (Simulation time: 3 hr 12 min 11 sec) 
Heartbeat CPU 2 instructions: 500000000 cycles: 568627729 heartbeat IPC: 1.22985 cumulative IPC: 0.849467 (Simulation time: 3 hr 12 min 49 sec) 
Heartbeat CPU 3 instructions: 560000000 cycles: 575280725 heartbeat IPC: 0.870232 cumulative IPC: 0.938383 (Simulation time: 3 hr 14 min 53 sec) 
Heartbeat CPU 0 instructions: 600000000 cycles: 575926074 heartbeat IPC: 0.842681 cumulative IPC: 1.00021 (Simulation time: 3 hr 15 min 5 sec) 
Heartbeat CPU 2 instructions: 510000002 cycles: 576787657 heartbeat IPC: 1.2255 cumulative IPC: 0.854927 (Simulation time: 3 hr 15 min 21 sec) 
Heartbeat CPU 4 instructions: 450000002 cycles: 578440204 heartbeat IPC: 0.674688 cumulative IPC: 0.732675 (Simulation time: 3 hr 15 min 56 sec) 
Heartbeat CPU 6 instructions: 410000002 cycles: 581540287 heartbeat IPC: 0.669164 cumulative IPC: 0.675888 (Simulation time: 3 hr 16 min 58 sec) 
Heartbeat CPU 2 instructions: 520000000 cycles: 584879027 heartbeat IPC: 1.23588 cumulative IPC: 0.860333 (Simulation time: 3 hr 18 min 2 sec) 
Heartbeat CPU 1 instructions: 380000000 cycles: 586099780 heartbeat IPC: 0.481487 cumulative IPC: 0.615295 (Simulation time: 3 hr 18 min 27 sec) 
Heartbeat CPU 0 instructions: 610000000 cycles: 586215105 heartbeat IPC: 0.971909 cumulative IPC: 0.999705 (Simulation time: 3 hr 18 min 29 sec) 
Heartbeat CPU 3 instructions: 570000003 cycles: 586303156 heartbeat IPC: 0.907241 cumulative IPC: 0.937782 (Simulation time: 3 hr 18 min 31 sec) 
Heartbeat CPU 7 instructions: 280000000 cycles: 589398880 heartbeat IPC: 0.437249 cumulative IPC: 0.447027 (Simulation time: 3 hr 19 min 33 sec) 
Heartbeat CPU 5 instructions: 90000002 cycles: 592850770 heartbeat IPC: 0.121128 cumulative IPC: 0.121086 (Simulation time: 3 hr 20 min 36 sec) 
Heartbeat CPU 0 instructions: 620000000 cycles: 595195945 heartbeat IPC: 1.11348 cumulative IPC: 1.00147 (Simulation time: 3 hr 21 min 21 sec) 
Heartbeat CPU 2 instructions: 530000001 cycles: 596228159 heartbeat IPC: 0.881125 cumulative IPC: 0.860739 (Simulation time: 3 hr 21 min 40 sec) 
Heartbeat CPU 4 instructions: 460000000 cycles: 596358803 heartbeat IPC: 0.558079 cumulative IPC: 0.727296 (Simulation time: 3 hr 21 min 42 sec) 
Heartbeat CPU 6 instructions: 420000000 cycles: 596440178 heartbeat IPC: 0.671146 cumulative IPC: 0.675766 (Simulation time: 3 hr 21 min 44 sec) 
Heartbeat CPU 3 instructions: 580000000 cycles: 596613061 heartbeat IPC: 0.969941 cumulative IPC: 0.938352 (Simulation time: 3 hr 21 min 47 sec) 
Heartbeat CPU 0 instructions: 630000002 cycles: 603773900 heartbeat IPC: 1.16578 cumulative IPC: 1.00386 (Simulation time: 3 hr 24 min 5 sec) 
Heartbeat CPU 1 instructions: 390000003 cycles: 605983873 heartbeat IPC: 0.502915 cumulative IPC: 0.611515 (Simulation time: 3 hr 24 min 46 sec) 
Heartbeat CPU 3 instructions: 590000001 cycles: 607094692 heartbeat IPC: 0.95405 cumulative IPC: 0.93863 (Simulation time: 3 hr 25 min 5 sec) 
Heartbeat CPU 2 instructions: 540000000 cycles: 609632260 heartbeat IPC: 0.74604 cumulative IPC: 0.858155 (Simulation time: 3 hr 25 min 55 sec) 
Heartbeat CPU 4 instructions: 470000000 cycles: 610245272 heartbeat IPC: 0.720125 cumulative IPC: 0.727129 (Simulation time: 3 hr 26 min 8 sec) 
Heartbeat CPU 6 instructions: 430000002 cycles: 611174293 heartbeat IPC: 0.678697 cumulative IPC: 0.675839 (Simulation time: 3 hr 26 min 27 sec) 
Heartbeat CPU 7 instructions: 290000003 cycles: 611710988 heartbeat IPC: 0.448187 cumulative IPC: 0.447071 (Simulation time: 3 hr 26 min 38 sec) 
Heartbeat CPU 0 instructions: 640000000 cycles: 611979449 heartbeat IPC: 1.21869 cumulative IPC: 1.00681 (Simulation time: 3 hr 26 min 43 sec) 
Heartbeat CPU 3 instructions: 600000000 cycles: 617432098 heartbeat IPC: 0.967361 cumulative IPC: 0.939122 (Simulation time: 3 hr 28 min 27 sec) 
Heartbeat CPU 2 instructions: 550000002 cycles: 619867423 heartbeat IPC: 0.977024 cumulative IPC: 0.860165 (Simulation time: 3 hr 29 min 19 sec) 
Heartbeat CPU 0 instructions: 650000003 cycles: 620219676 heartbeat IPC: 1.21356 cumulative IPC: 1.00962 (Simulation time: 3 hr 29 min 26 sec) 
Heartbeat CPU 1 instructions: 400000000 cycles: 625456428 heartbeat IPC: 0.513543 cumulative IPC: 0.608391 (Simulation time: 3 hr 31 min 3 sec) 
Heartbeat CPU 6 instructions: 440000000 cycles: 625927677 heartbeat IPC: 0.67781 cumulative IPC: 0.675886 (Simulation time: 3 hr 31 min 12 sec) 
Heartbeat CPU 4 instructions: 480000000 cycles: 626828004 heartbeat IPC: 0.603037 cumulative IPC: 0.723767 (Simulation time: 3 hr 31 min 28 sec) 
Heartbeat CPU 3 instructions: 610000001 cycles: 627604937 heartbeat IPC: 0.98301 cumulative IPC: 0.939851 (Simulation time: 3 hr 31 min 44 sec) 
Heartbeat CPU 0 instructions: 660000000 cycles: 629141041 heartbeat IPC: 1.1209 cumulative IPC: 1.01124 (Simulation time: 3 hr 32 min 16 sec) 
Heartbeat CPU 2 instructions: 560000000 cycles: 630181142 heartbeat IPC: 0.969582 cumulative IPC: 0.861999 (Simulation time: 3 hr 32 min 38 sec) 
Heartbeat CPU 7 instructions: 300000000 cycles: 635194220 heartbeat IPC: 0.425836 cumulative IPC: 0.446267 (Simulation time: 3 hr 34 min 17 sec) 
Heartbeat CPU 3 instructions: 620000000 cycles: 638026412 heartbeat IPC: 0.959557 cumulative IPC: 0.94018 (Simulation time: 3 hr 35 min 11 sec) 
Heartbeat CPU 0 instructions: 670000002 cycles: 638140274 heartbeat IPC: 1.11121 cumulative IPC: 1.01268 (Simulation time: 3 hr 35 min 14 sec) 
Heartbeat CPU 1 instructions: 410000000 cycles: 639229172 heartbeat IPC: 0.726072 cumulative IPC: 0.610987 (Simulation time: 3 hr 35 min 35 sec) 
Heartbeat CPU 4 instructions: 490000000 cycles: 640574733 heartbeat IPC: 0.727446 cumulative IPC: 0.723848 (Simulation time: 3 hr 36 min 2 sec) 
Heartbeat CPU 6 instructions: 450000000 cycles: 640663976 heartbeat IPC: 0.678596 cumulative IPC: 0.67595 (Simulation time: 3 hr 36 min 3 sec) 
Heartbeat CPU 2 instructions: 570000002 cycles: 643934873 heartbeat IPC: 0.727076 cumulative IPC: 0.85905 (Simulation time: 3 hr 37 min 7 sec) 
Heartbeat CPU 0 instructions: 680000000 cycles: 648599400 heartbeat IPC: 0.956103 cumulative IPC: 1.01175 (Simulation time: 3 hr 38 min 32 sec) 
Heartbeat CPU 3 instructions: 630000002 cycles: 648672206 heartbeat IPC: 0.939338 cumulative IPC: 0.940166 (Simulation time: 3 hr 38 min 34 sec) 
Heartbeat CPU 1 instructions: 420000000 cycles: 653964446 heartbeat IPC: 0.678644 cumulative IPC: 0.612546 (Simulation time: 3 hr 40 min 5 sec) 
Heartbeat CPU 6 instructions: 460000000 cycles: 655438144 heartbeat IPC: 0.676857 cumulative IPC: 0.675971 (Simulation time: 3 hr 40 min 30 sec) 
Heartbeat CPU 4 instructions: 500000000 cycles: 657928338 heartbeat IPC: 0.576249 cumulative IPC: 0.719865 (Simulation time: 3 hr 41 min 11 sec) 
Heartbeat CPU 2 instructions: 580000000 cycles: 658153958 heartbeat IPC: 0.70328 cumulative IPC: 0.855607 (Simulation time: 3 hr 41 min 15 sec) 
Heartbeat CPU 7 instructions: 310000000 cycles: 658357939 heartbeat IPC: 0.43171 cumulative IPC: 0.445743 (Simulation time: 3 hr 41 min 18 sec) 
Heartbeat CPU 0 instructions: 690000000 cycles: 659709588 heartbeat IPC: 0.900075 cumulative IPC: 1.00983 (Simulation time: 3 hr 41 min 43 sec) 
Heartbeat CPU 3 instructions: 640000000 cycles: 667121912 heartbeat IPC: 0.542014 cumulative IPC: 0.928906 (Simulation time: 3 hr 43 min 48 sec) 
Heartbeat CPU 2 instructions: 590000003 cycles: 668924120 heartbeat IPC: 0.928491 cumulative IPC: 0.856807 (Simulation time: 3 hr 44 min 17 sec) 
Heartbeat CPU 1 instructions: 430000000 cycles: 668967616 heartbeat IPC: 0.666526 cumulative IPC: 0.613784 (Simulation time: 3 hr 44 min 17 sec) 
Heartbeat CPU 0 instructions: 700000000 cycles: 671287534 heartbeat IPC: 0.863711 cumulative IPC: 1.00725 (Simulation time: 3 hr 44 min 55 sec) 
Heartbeat CPU 4 instructions: 510000000 cycles: 674539190 heartbeat IPC: 0.602016 cumulative IPC: 0.716898 (Simulation time: 3 hr 45 min 51 sec) 
Heartbeat CPU 5 instructions: 100000000 cycles: 679185836 heartbeat IPC: 0.115828 cumulative IPC: 0.120403 (Simulation time: 3 hr 47 min 6 sec) 
Heartbeat CPU 2 instructions: 600000000 cycles: 679283709 heartbeat IPC: 0.965289 cumulative IPC: 0.858498 (Simulation time: 3 hr 47 min 7 sec) 
Heartbeat CPU 3 instructions: 650000003 cycles: 680212093 heartbeat IPC: 0.763932 cumulative IPC: 0.925661 (Simulation time: 3 hr 47 min 23 sec) 
Heartbeat CPU 7 instructions: 320000000 cycles: 681220539 heartbeat IPC: 0.437396 cumulative IPC: 0.445457 (Simulation time: 3 hr 47 min 38 sec) 
Heartbeat CPU 0 instructions: 710000002 cycles: 682862892 heartbeat IPC: 0.863904 cumulative IPC: 1.00477 (Simulation time: 3 hr 48 min 6 sec) 
Heartbeat CPU 1 instructions: 440000000 cycles: 685429056 heartbeat IPC: 0.60748 cumulative IPC: 0.61363 (Simulation time: 3 hr 48 min 47 sec) 
Heartbeat CPU 6 instructions: 470000002 cycles: 692348048 heartbeat IPC: 0.27093 cumulative IPC: 0.653908 (Simulation time: 3 hr 50 min 38 sec) 
Heartbeat CPU 2 instructions: 610000003 cycles: 692856419 heartbeat IPC: 0.736773 cumulative IPC: 0.856062 (Simulation time: 3 hr 50 min 47 sec) 
Heartbeat CPU 3 instructions: 660000000 cycles: 693147212 heartbeat IPC: 0.773089 cumulative IPC: 0.922752 (Simulation time: 3 hr 50 min 52 sec) 
Heartbeat CPU 4 instructions: 520000000 cycles: 693554313 heartbeat IPC: 0.525897 cumulative IPC: 0.711548 (Simulation time: 3 hr 50 min 59 sec) 
Heartbeat CPU 0 instructions: 720000000 cycles: 694883384 heartbeat IPC: 0.831913 cumulative IPC: 1.00171 (Simulation time: 3 hr 51 min 25 sec) 
Heartbeat CPU 1 instructions: 450000000 cycles: 700563860 heartbeat IPC: 0.660729 cumulative IPC: 0.614669 (Simulation time: 3 hr 53 min 6 sec) 
Heartbeat CPU 3 instructions: 670000000 cycles: 701547070 heartbeat IPC: 1.1905 cumulative IPC: 0.926027 (Simulation time: 3 hr 53 min 22 sec) 
Heartbeat CPU 7 instructions: 330000001 cycles: 702369276 heartbeat IPC: 0.472842 cumulative IPC: 0.446299 (Simulation time: 3 hr 53 min 38 sec) 
Heartbeat CPU 0 instructions: 730000003 cycles: 705612706 heartbeat IPC: 0.932026 cumulative IPC: 1.00063 (Simulation time: 3 hr 54 min 37 sec) 
Heartbeat CPU 2 instructions: 620000000 cycles: 707007632 heartbeat IPC: 0.706653 cumulative IPC: 0.853008 (Simulation time: 3 hr 55 min 0 sec) 
Heartbeat CPU 4 instructions: 530000000 cycles: 708503505 heartbeat IPC: 0.668932 cumulative IPC: 0.71063 (Simulation time: 3 hr 55 min 23 sec) 
Heartbeat CPU 3 instructions: 680000000 cycles: 710390676 heartbeat IPC: 1.13076 cumulative IPC: 0.928629 (Simulation time: 3 hr 55 min 59 sec) 
Heartbeat CPU 1 instructions: 460000000 cycles: 714108247 heartbeat IPC: 0.738313 cumulative IPC: 0.617064 (Simulation time: 3 hr 57 min 9 sec) 
Heartbeat CPU 0 instructions: 740000000 cycles: 717362650 heartbeat IPC: 0.851068 cumulative IPC: 0.998127 (Simulation time: 3 hr 58 min 7 sec) 
Heartbeat CPU 2 instructions: 630000003 cycles: 717866500 heartbeat IPC: 0.920907 cumulative IPC: 0.854056 (Simulation time: 3 hr 58 min 17 sec) 
Heartbeat CPU 3 instructions: 690000000 cycles: 718799825 heartbeat IPC: 1.18918 cumulative IPC: 0.931741 (Simulation time: 3 hr 58 min 34 sec) 
Heartbeat CPU 7 instructions: 340000000 cycles: 723647986 heartbeat IPC: 0.469953 cumulative IPC: 0.447009 (Simulation time: 4 hr 0 min 3 sec) 
Heartbeat CPU 4 instructions: 540000000 cycles: 723741357 heartbeat IPC: 0.65626 cumulative IPC: 0.709461 (Simulation time: 4 hr 0 min 4 sec) 
Heartbeat CPU 3 instructions: 700000000 cycles: 727244354 heartbeat IPC: 1.1842 cumulative IPC: 0.934733 (Simulation time: 4 hr 1 min 9 sec) 
Heartbeat CPU 1 instructions: 470000001 cycles: 727432540 heartbeat IPC: 0.750509 cumulative IPC: 0.619559 (Simulation time: 4 hr 1 min 12 sec) 
Heartbeat CPU 2 instructions: 640000000 cycles: 728209996 heartbeat IPC: 0.966791 cumulative IPC: 0.855691 (Simulation time: 4 hr 1 min 26 sec) 
Heartbeat CPU 0 instructions: 750000000 cycles: 728270873 heartbeat IPC: 0.91674 cumulative IPC: 0.996883 (Simulation time: 4 hr 1 min 27 sec) 
Heartbeat CPU 6 instructions: 480000000 cycles: 732907211 heartbeat IPC: 0.246553 cumulative IPC: 0.630902 (Simulation time: 4 hr 2 min 52 sec) 
Heartbeat CPU 3 instructions: 710000003 cycles: 735987944 heartbeat IPC: 1.1437 cumulative IPC: 0.937267 (Simulation time: 4 hr 3 min 45 sec) 
Heartbeat CPU 0 instructions: 760000000 cycles: 739506325 heartbeat IPC: 0.89004 cumulative IPC: 0.995227 (Simulation time: 4 hr 4 min 44 sec) 
Heartbeat CPU 4 instructions: 550000001 cycles: 740427463 heartbeat IPC: 0.599301 cumulative IPC: 0.706928 (Simulation time: 4 hr 5 min 3 sec) 
Heartbeat CPU 1 instructions: 480000000 cycles: 740762028 heartbeat IPC: 0.750216 cumulative IPC: 0.621957 (Simulation time: 4 hr 5 min 9 sec) 
Heartbeat CPU 2 instructions: 650000002 cycles: 741511028 heartbeat IPC: 0.751822 cumulative IPC: 0.85379 (Simulation time: 4 hr 5 min 24 sec) 
Heartbeat CPU 3 instructions: 720000000 cycles: 744448988 heartbeat IPC: 1.18189 cumulative IPC: 0.940103 (Simulation time: 4 hr 6 min 14 sec) 
Heartbeat CPU 7 instructions: 350000000 cycles: 745772967 heartbeat IPC: 0.451978 cumulative IPC: 0.447159 (Simulation time: 4 hr 6 min 35 sec) 
Heartbeat CPU 0 instructions: 770000000 cycles: 749719925 heartbeat IPC: 0.979087 cumulative IPC: 0.995002 (Simulation time: 4 hr 7 min 46 sec) 
Heartbeat CPU 3 instructions: 730000003 cycles: 752808431 heartbeat IPC: 1.19625 cumulative IPC: 0.943004 (Simulation time: 4 hr 8 min 41 sec) 
Heartbeat CPU 4 instructions: 560000000 cycles: 753584422 heartbeat IPC: 0.760054 cumulative IPC: 0.707874 (Simulation time: 4 hr 8 min 54 sec) 
Heartbeat CPU 1 instructions: 490000002 cycles: 754013527 heartbeat IPC: 0.754632 cumulative IPC: 0.624336 (Simulation time: 4 hr 9 min 2 sec) 
Heartbeat CPU 2 instructions: 660000000 cycles: 755588217 heartbeat IPC: 0.710369 cumulative IPC: 0.851064 (Simulation time: 4 hr 9 min 34 sec) 
Heartbeat CPU 0 instructions: 780000000 cycles: 761270946 heartbeat IPC: 0.865724 cumulative IPC: 0.993002 (Simulation time: 4 hr 11 min 20 sec) 
Heartbeat CPU 3 instructions: 740000000 cycles: 761528934 heartbeat IPC: 1.14672 cumulative IPC: 0.945383 (Simulation time: 4 hr 11 min 25 sec) 
Heartbeat CPU 4 instructions: 570000000 cycles: 762242897 heartbeat IPC: 1.15494 cumulative IPC: 0.713053 (Simulation time: 4 hr 11 min 38 sec) 
Heartbeat CPU 2 instructions: 670000002 cycles: 766806373 heartbeat IPC: 0.891412 cumulative IPC: 0.851666 (Simulation time: 4 hr 13 min 4 sec) 
Heartbeat CPU 1 instructions: 500000000 cycles: 767090296 heartbeat IPC: 0.764715 cumulative IPC: 0.626776 (Simulation time: 4 hr 13 min 9 sec) 
Heartbeat CPU 5 instructions: 110000002 cycles: 768307965 heartbeat IPC: 0.112206 cumulative IPC: 0.119433 (Simulation time: 4 hr 13 min 30 sec) 
Heartbeat CPU 7 instructions: 360000000 cycles: 768618596 heartbeat IPC: 0.437721 cumulative IPC: 0.446873 (Simulation time: 4 hr 13 min 35 sec) 
Heartbeat CPU 3 instructions: 750000002 cycles: 769973284 heartbeat IPC: 1.18422 cumulative IPC: 0.948054 (Simulation time: 4 hr 13 min 57 sec) 
Heartbeat CPU 0 instructions: 790000003 cycles: 771703372 heartbeat IPC: 0.95855 cumulative IPC: 0.992527 (Simulation time: 4 hr 14 min 31 sec) 
Heartbeat CPU 4 instructions: 580000000 cycles: 775956058 heartbeat IPC: 0.729226 cumulative IPC: 0.713344 (Simulation time: 4 hr 15 min 48 sec) 
Heartbeat CPU 2 instructions: 680000000 cycles: 777205998 heartbeat IPC: 0.961573 cumulative IPC: 0.853165 (Simulation time: 4 hr 16 min 10 sec) 
Heartbeat CPU 3 instructions: 760000000 cycles: 778321928 heartbeat IPC: 1.1978 cumulative IPC: 0.950784 (Simulation time: 4 hr 16 min 31 sec) 
Heartbeat CPU 6 instructions: 490000000 cycles: 779037320 heartbeat IPC: 0.216778 cumulative IPC: 0.605907 (Simulation time: 4 hr 16 min 45 sec) 
Heartbeat CPU 1 instructions: 510000000 cycles: 781792751 heartbeat IPC: 0.680158 cumulative IPC: 0.627799 (Simulation time: 4 hr 17 min 34 sec) 
Heartbeat CPU 0 instructions: 800000000 cycles: 783159382 heartbeat IPC: 0.872904 cumulative IPC: 0.990744 (Simulation time: 4 hr 17 min 57 sec) 
Heartbeat CPU 3 instructions: 770000000 cycles: 787102718 heartbeat IPC: 1.13885 cumulative IPC: 0.952922 (Simulation time: 4 hr 19 min 5 sec) 
Heartbeat CPU 4 instructions: 590000003 cycles: 789539203 heartbeat IPC: 0.736207 cumulative IPC: 0.713745 (Simulation time: 4 hr 19 min 49 sec) 
Heartbeat CPU 7 instructions: 370000000 cycles: 789886640 heartbeat IPC: 0.470189 cumulative IPC: 0.447513 (Simulation time: 4 hr 19 min 56 sec) 
Heartbeat CPU 2 instructions: 690000000 cycles: 790362814 heartbeat IPC: 0.760062 cumulative IPC: 0.851586 (Simulation time: 4 hr 20 min 5 sec) 
Heartbeat CPU 0 instructions: 810000003 cycles: 794247479 heartbeat IPC: 0.901868 cumulative IPC: 0.989479 (Simulation time: 4 hr 21 min 13 sec) 
Heartbeat CPU 1 instructions: 520000000 cycles: 795434041 heartbeat IPC: 0.733069 cumulative IPC: 0.629638 (Simulation time: 4 hr 21 min 31 sec) 
Heartbeat CPU 3 instructions: 780000000 cycles: 795528947 heartbeat IPC: 1.18677 cumulative IPC: 0.955446 (Simulation time: 4 hr 21 min 33 sec) 
Heartbeat CPU 4 instructions: 600000000 cycles: 801787134 heartbeat IPC: 0.816464 cumulative IPC: 0.715343 (Simulation time: 4 hr 23 min 25 sec) 
Heartbeat CPU 3 instructions: 790000001 cycles: 803889227 heartbeat IPC: 1.19613 cumulative IPC: 0.957996 (Simulation time: 4 hr 24 min 3 sec) 
Heartbeat CPU 2 instructions: 700000000 cycles: 804747761 heartbeat IPC: 0.695171 cumulative IPC: 0.848738 (Simulation time: 4 hr 24 min 18 sec) 
Heartbeat CPU 0 instructions: 820000000 cycles: 805561457 heartbeat IPC: 0.883862 cumulative IPC: 0.987968 (Simulation time: 4 hr 24 min 33 sec) 
Heartbeat CPU 1 instructions: 530000000 cycles: 808427915 heartbeat IPC: 0.769593 cumulative IPC: 0.63193 (Simulation time: 4 hr 25 min 21 sec) 
Heartbeat CPU 3 instructions: 800000000 cycles: 812593033 heartbeat IPC: 1.14892 cumulative IPC: 0.960079 (Simulation time: 4 hr 26 min 36 sec) 
Heartbeat CPU 7 instructions: 380000000 cycles: 813091223 heartbeat IPC: 0.430949 cumulative IPC: 0.447031 (Simulation time: 4 hr 26 min 44 sec) 
Heartbeat CPU 4 instructions: 610000001 cycles: 813815760 heartbeat IPC: 0.83135 cumulative IPC: 0.71709 (Simulation time: 4 hr 26 min 57 sec) 
Heartbeat CPU 0 instructions: 830000001 cycles: 815907813 heartbeat IPC: 0.966524 cumulative IPC: 0.987691 (Simulation time: 4 hr 27 min 38 sec) 
Heartbeat CPU 2 instructions: 710000000 cycles: 816818774 heartbeat IPC: 0.828431 cumulative IPC: 0.848432 (Simulation time: 4 hr 27 min 55 sec) 
Heartbeat CPU 3 instructions: 810000000 cycles: 821101702 heartbeat IPC: 1.17527 cumulative IPC: 0.96235 (Simulation time: 4 hr 29 min 8 sec) 
Heartbeat CPU 1 instructions: 540000000 cycles: 822837120 heartbeat IPC: 0.694001 cumulative IPC: 0.633036 (Simulation time: 4 hr 29 min 41 sec) 
Heartbeat CPU 0 instructions: 840000000 cycles: 827139010 heartbeat IPC: 0.890377 cumulative IPC: 0.986346 (Simulation time: 4 hr 30 min 59 sec) 
Heartbeat CPU 2 instructions: 720000000 cycles: 827236388 heartbeat IPC: 0.959913 cumulative IPC: 0.849862 (Simulation time: 4 hr 31 min 1 sec) 
Heartbeat CPU 4 instructions: 620000000 cycles: 827363511 heartbeat IPC: 0.73813 cumulative IPC: 0.71744 (Simulation time: 4 hr 31 min 3 sec) 
Heartbeat CPU 3 instructions: 820000000 cycles: 829550056 heartbeat IPC: 1.18366 cumulative IPC: 0.964644 (Simulation time: 4 hr 31 min 44 sec) 
Heartbeat CPU 6 instructions: 500000000 cycles: 829580292 heartbeat IPC: 0.197851 cumulative IPC: 0.580595 (Simulation time: 4 hr 31 min 45 sec) 
Heartbeat CPU 7 instructions: 390000001 cycles: 837054631 heartbeat IPC: 0.417303 cumulative IPC: 0.446165 (Simulation time: 4 hr 33 min 49 sec) 
Heartbeat CPU 3 instructions: 830000003 cycles: 838558346 heartbeat IPC: 1.11009 cumulative IPC: 0.966235 (Simulation time: 4 hr 34 min 13 sec) 
Heartbeat CPU 0 instructions: 850000003 cycles: 839483497 heartbeat IPC: 0.810078 cumulative IPC: 0.983708 (Simulation time: 4 hr 34 min 28 sec) 
Heartbeat CPU 2 instructions: 730000003 cycles: 839781201 heartbeat IPC: 0.797142 cumulative IPC: 0.84906 (Simulation time: 4 hr 34 min 33 sec) 
Heartbeat CPU 1 instructions: 550000000 cycles: 841919705 heartbeat IPC: 0.524038 cumulative IPC: 0.630522 (Simulation time: 4 hr 35 min 8 sec) 
Heartbeat CPU 4 instructions: 630000002 cycles: 841953212 heartbeat IPC: 0.685415 cumulative IPC: 0.716876 (Simulation time: 4 hr 35 min 8 sec) 
Heartbeat CPU 3 instructions: 840000000 cycles: 847170141 heartbeat IPC: 1.1612 cumulative IPC: 0.968252 (Simulation time: 4 hr 36 min 35 sec) 
Heartbeat CPU 0 instructions: 860000000 cycles: 851659722 heartbeat IPC: 0.821272 cumulative IPC: 0.981344 (Simulation time: 4 hr 37 min 50 sec) 
Heartbeat CPU 2 instructions: 740000000 cycles: 854712261 heartbeat IPC: 0.669745 cumulative IPC: 0.845873 (Simulation time: 4 hr 38 min 42 sec) 
Heartbeat CPU 4 instructions: 640000000 cycles: 855518514 heartbeat IPC: 0.737175 cumulative IPC: 0.717203 (Simulation time: 4 hr 38 min 56 sec) 
Heartbeat CPU 3 instructions: 850000000 cycles: 855720427 heartbeat IPC: 1.16955 cumulative IPC: 0.970298 (Simulation time: 4 hr 38 min 59 sec) 
Heartbeat CPU 5 instructions: 120000000 cycles: 856545091 heartbeat IPC: 0.113331 cumulative IPC: 0.118794 (Simulation time: 4 hr 39 min 12 sec) 
Finished CPU 5 instructions: 100000001 cycles: 841796685 cumulative IPC: 0.118794 (Simulation time: 4 hr 39 min 12 sec) 

CPU 0 Branch Prediction Accuracy: 97.3285% MPKI: 2.30532

CPU 1 Branch Prediction Accuracy: 96.5602% MPKI: 6.14443

CPU 2 Branch Prediction Accuracy: 97.6907% MPKI: 1.57579

CPU 3 Branch Prediction Accuracy: 99.6867% MPKI: 0.177357

CPU 4 Branch Prediction Accuracy: 96.9356% MPKI: 2.82541

CPU 5 Branch Prediction Accuracy: 88.0545% MPKI: 14.1671

CPU 6 Branch Prediction Accuracy: 99.5614% MPKI: 0.803948

CPU 7 Branch Prediction Accuracy: 85.3506% MPKI: 23.3551

ChampSim completed all CPUs

Total Simulation Statistics (not including warmup)

CPU 0 cumulative IPC: 0.98073 instructions: 825575109 cycles: 841796685
L1D TOTAL     ACCESS:  143752562  HIT:  131481219  MISS:   12271343
L1D LOAD      ACCESS:  130467411  HIT:  118867859  MISS:   11599552
L1D RFO       ACCESS:   13285151  HIT:   12613360  MISS:     671791
L1D PREFETCH  ACCESS:          0  HIT:          0  MISS:          0
L1D WRITEBACK ACCESS:          0  HIT:          0  MISS:          0
L1I TOTAL     ACCESS:  218389632  HIT:  218387975  MISS:       1657
L1I LOAD      ACCESS:  218389632  HIT:  218387975  MISS:       1657
L1I RFO       ACCESS:          0  HIT:          0  MISS:          0
L1I PREFETCH  ACCESS:          0  HIT:          0  MISS:          0
L1I WRITEBACK ACCESS:          0  HIT:          0  MISS:          0
L2C TOTAL     ACCESS:   25015346  HIT:   13081892  MISS:   11933454
L2C LOAD      ACCESS:   11601196  HIT:    9405725  MISS:    2195471
L2C RFO       ACCESS:     671768  HIT:      86850  MISS:     584918
L2C PREFETCH  ACCESS:   11790781  HIT:    2639811  MISS:    9150970
L2C WRITEBACK ACCESS:     951601  HIT:     949506  MISS:       2095

Avg Lookahead Depth:	3.6562
TOTAL: 6.92717e+07	L2C: 5.39906e+07	LLC: 1.52811e+07	GOOD_L2C: 3.68552e+07
Printing all the perceptron weights to: perc_weights_0.csv
LLC TOTAL     ACCESS:   14413504  HIT:    5996989  MISS:    8416515
LLC LOAD      ACCESS:    1960360  HIT:    1142250  MISS:     818110
LLC RFO       ACCESS:     584868  HIT:     299786  MISS:     285082
LLC PREFETCH  ACCESS:   11047732  HIT:    3735073  MISS:    7312659
LLC WRITEBACK ACCESS:     820544  HIT:     819880  MISS:        664

CPU 1 cumulative IPC: 0.62807 instructions: 528707013 cycles: 841796685
L1D TOTAL     ACCESS:   79046743  HIT:   65479646  MISS:   13567097
L1D LOAD      ACCESS:   63092515  HIT:   49525517  MISS:   13566998
L1D RFO       ACCESS:   15954228  HIT:   15954129  MISS:         99
L1D PREFETCH  ACCESS:          0  HIT:          0  MISS:          0
L1D WRITEBACK ACCESS:          0  HIT:          0  MISS:          0
L1I TOTAL     ACCESS:  141745019  HIT:  141744987  MISS:         32
L1I LOAD      ACCESS:  141745019  HIT:  141744987  MISS:         32
L1I RFO       ACCESS:          0  HIT:          0  MISS:          0
L1I PREFETCH  ACCESS:          0  HIT:          0  MISS:          0
L1I WRITEBACK ACCESS:          0  HIT:          0  MISS:          0
L2C TOTAL     ACCESS:   30440846  HIT:   16873490  MISS:   13567356
L2C LOAD      ACCESS:   13567030  HIT:   10753401  MISS:    2813629
L2C RFO       ACCESS:         99  HIT:          1  MISS:         98
L2C PREFETCH  ACCESS:   11270340  HIT:     516711  MISS:   10753629
L2C WRITEBACK ACCESS:    5603377  HIT:    5603377  MISS:          0

Avg Lookahead Depth:	3.6562
TOTAL: 6.92717e+07	L2C: 5.39906e+07	LLC: 1.52811e+07	GOOD_L2C: 3.68552e+07
Printing all the perceptron weights to: perc_weights_0.csv
LLC TOTAL     ACCESS:   19179203  HIT:    5611801  MISS:   13567402
LLC LOAD      ACCESS:     473412  HIT:        170  MISS:     473242
LLC RFO       ACCESS:         98  HIT:          3  MISS:         95
LLC PREFETCH  ACCESS:   13102535  HIT:       8470  MISS:   13094065
LLC WRITEBACK ACCESS:    5603158  HIT:    5603158  MISS:          0

CPU 2 cumulative IPC: 0.845543 instructions: 711775241 cycles: 841796685
L1D TOTAL     ACCESS:  213034665  HIT:  210910140  MISS:    2124525
L1D LOAD      ACCESS:  163047567  HIT:  161474956  MISS:    1572611
L1D RFO       ACCESS:   49987098  HIT:   49435184  MISS:     551914
L1D PREFETCH  ACCESS:          0  HIT:          0  MISS:          0
L1D WRITEBACK ACCESS:          0  HIT:          0  MISS:          0
L1I TOTAL     ACCESS:  175938209  HIT:  175890712  MISS:      47497
L1I LOAD      ACCESS:  175938209  HIT:  175890712  MISS:      47497
L1I RFO       ACCESS:          0  HIT:          0  MISS:          0
L1I PREFETCH  ACCESS:          0  HIT:          0  MISS:          0
L1I WRITEBACK ACCESS:          0  HIT:          0  MISS:          0
L2C TOTAL     ACCESS:    4372775  HIT:    2919889  MISS:    1452886
L2C LOAD      ACCESS:    1620103  HIT:    1356105  MISS:     263998
L2C RFO       ACCESS:     551895  HIT:      43689  MISS:     508206
L2C PREFETCH  ACCESS:    1631015  HIT:     952039  MISS:     678976
L2C WRITEBACK ACCESS:     569762  HIT:     568056  MISS:       1706

Avg Lookahead Depth:	3.6562
TOTAL: 6.92717e+07	L2C: 5.39906e+07	LLC: 1.52811e+07	GOOD_L2C: 3.68552e+07
Printing all the perceptron weights to: perc_weights_0.csv
LLC TOTAL     ACCESS:    2152088  HIT:     747055  MISS:    1405033
LLC LOAD      ACCESS:     235328  HIT:     102181  MISS:     133147
LLC RFO       ACCESS:     507558  HIT:      11248  MISS:     496310
LLC PREFETCH  ACCESS:     886743  HIT:     170303  MISS:     716440
LLC WRITEBACK ACCESS:     522459  HIT:     463323  MISS:      59136

CPU 3 cumulative IPC: 0.970458 instructions: 816928414 cycles: 841796685
L1D TOTAL     ACCESS:  184479322  HIT:  165991866  MISS:   18487456
L1D LOAD      ACCESS:  127658461  HIT:  114700588  MISS:   12957873
L1D RFO       ACCESS:   56820861  HIT:   51291278  MISS:    5529583
L1D PREFETCH  ACCESS:          0  HIT:          0  MISS:          0
L1D WRITEBACK ACCESS:          0  HIT:          0  MISS:          0
L1I TOTAL     ACCESS:  210562766  HIT:  210562526  MISS:        240
L1I LOAD      ACCESS:  210562766  HIT:  210562526  MISS:        240
L1I RFO       ACCESS:          0  HIT:          0  MISS:          0
L1I PREFETCH  ACCESS:          0  HIT:          0  MISS:          0
L1I WRITEBACK ACCESS:          0  HIT:          0  MISS:          0
L2C TOTAL     ACCESS:   35994307  HIT:   31926572  MISS:    4067735
L2C LOAD      ACCESS:   12958064  HIT:   11875437  MISS:    1082627
L2C RFO       ACCESS:    5496537  HIT:    4616773  MISS:     879764
L2C PREFETCH  ACCESS:    8103053  HIT:    6004387  MISS:    2098666
L2C WRITEBACK ACCESS:    9436653  HIT:    9429975  MISS:       6678

Avg Lookahead Depth:	3.6562
TOTAL: 6.92717e+07	L2C: 5.39906e+07	LLC: 1.52811e+07	GOOD_L2C: 3.68552e+07
Printing all the perceptron weights to: perc_weights_0.csv
LLC TOTAL     ACCESS:    6508369  HIT:    3315193  MISS:    3193176
LLC LOAD      ACCESS:    1006802  HIT:     436638  MISS:     570164
LLC RFO       ACCESS:     879005  HIT:     329928  MISS:     549077
LLC PREFETCH  ACCESS:    3255586  HIT:    1205111  MISS:    2050475
LLC WRITEBACK ACCESS:    1366976  HIT:    1343516  MISS:      23460

CPU 4 cumulative IPC: 0.716992 instructions: 603561596 cycles: 841796685
L1D TOTAL     ACCESS:  114097851  HIT:  102401168  MISS:   11696683
L1D LOAD      ACCESS:   98226431  HIT:   87167654  MISS:   11058777
L1D RFO       ACCESS:   15871420  HIT:   15233514  MISS:     637906
L1D PREFETCH  ACCESS:          0  HIT:          0  MISS:          0
L1D WRITEBACK ACCESS:          0  HIT:          0  MISS:          0
L1I TOTAL     ACCESS:  158165960  HIT:  158164639  MISS:       1321
L1I LOAD      ACCESS:  158165960  HIT:  158164639  MISS:       1321
L1I RFO       ACCESS:          0  HIT:          0  MISS:          0
L1I PREFETCH  ACCESS:          0  HIT:          0  MISS:          0
L1I WRITEBACK ACCESS:          0  HIT:          0  MISS:          0
L2C TOTAL     ACCESS:   23831511  HIT:   12750140  MISS:   11081371
L2C LOAD      ACCESS:   11060089  HIT:    8297628  MISS:    2762461
L2C RFO       ACCESS:     637850  HIT:     121301  MISS:     516549
L2C PREFETCH  ACCESS:   11030210  HIT:    3229634  MISS:    7800576
L2C WRITEBACK ACCESS:    1103362  HIT:    1101577  MISS:       1785

Avg Lookahead Depth:	3.6562
TOTAL: 6.92717e+07	L2C: 5.39906e+07	LLC: 1.52811e+07	GOOD_L2C: 3.68552e+07
Printing all the perceptron weights to: perc_weights_0.csv
LLC TOTAL     ACCESS:   14363501  HIT:    4923201  MISS:    9440300
LLC LOAD      ACCESS:    2457003  HIT:    1023632  MISS:    1433371
LLC RFO       ACCESS:     516469  HIT:     193414  MISS:     323055
LLC PREFETCH  ACCESS:   10470678  HIT:    2788290  MISS:    7682388
LLC WRITEBACK ACCESS:     919351  HIT:     917865  MISS:       1486

CPU 5 cumulative IPC: 0.118794 instructions: 100000001 cycles: 841796685
L1D TOTAL     ACCESS:   39765242  HIT:   34520768  MISS:    5244474
L1D LOAD      ACCESS:   27097008  HIT:   23621887  MISS:    3475121
L1D RFO       ACCESS:   12668234  HIT:   10898881  MISS:    1769353
L1D PREFETCH  ACCESS:          0  HIT:          0  MISS:          0
L1D WRITEBACK ACCESS:          0  HIT:          0  MISS:          0
L1I TOTAL     ACCESS:   24602499  HIT:   24602485  MISS:         14
L1I LOAD      ACCESS:   24602499  HIT:   24602485  MISS:         14
L1I RFO       ACCESS:          0  HIT:          0  MISS:          0
L1I PREFETCH  ACCESS:          0  HIT:          0  MISS:          0
L1I WRITEBACK ACCESS:          0  HIT:          0  MISS:          0
L2C TOTAL     ACCESS:    9040378  HIT:    4936514  MISS:    4103864
L2C LOAD      ACCESS:    3475135  HIT:    1743641  MISS:    1731494
L2C RFO       ACCESS:    1769353  HIT:      92782  MISS:    1676571
L2C PREFETCH  ACCESS:    1238138  HIT:     542467  MISS:     695671
L2C WRITEBACK ACCESS:    2557752  HIT:    2557624  MISS:        128

Avg Lookahead Depth:	3.6562
[...]
LLC RFO       ACCESS:    1676571  HIT:      70698  MISS:    1605873
LLC PREFETCH  ACCESS:    1600856  HIT:     299392  MISS:    1301464
LLC WRITEBACK ACCESS:    2464538  HIT:    2458526  MISS:       6012

CPU 6 cumulative IPC: 0.567346 instructions: 477590333 cycles: 841796686
L1D TOTAL     ACCESS:  174643552  HIT:  169786039  MISS:    4857513
L1D LOAD      ACCESS:   88786600  HIT:   84004869  MISS:    4781731
L1D RFO       ACCESS:   85856952  HIT:   85781170  MISS:      75782
L1D PREFETCH  ACCESS:          0  HIT:          0  MISS:          0
L1D WRITEBACK ACCESS:          0  HIT:          0  MISS:          0
L1I TOTAL     ACCESS:  174809521  HIT:  174809484  MISS:         37
L1I LOAD      ACCESS:  174809521  HIT:  174809484  MISS:         37
L1I RFO       ACCESS:          0  HIT:          0  MISS:          0
L1I PREFETCH  ACCESS:          0  HIT:          0  MISS:          0
L1I WRITEBACK ACCESS:          0  HIT:          0  MISS:          0
L2C TOTAL     ACCESS:   11273443  HIT:   10254646  MISS:    1018797
L2C LOAD      ACCESS:    4781761  HIT:    4168830  MISS:     612931
L2C RFO       ACCESS:      75782  HIT:       8200  MISS:      67582
L2C PREFETCH  ACCESS:    6103821  HIT:    5765975  MISS:     337846
L2C WRITEBACK ACCESS:     312079  HIT:     311641  MISS:        438

Avg Lookahead Depth:	3.6562
TOTAL: 6.92717e+07	L2C: 5.39906e+07	LLC: 1.52811e+07	GOOD_L2C: 3.68552e+07
Printing all the perceptron weights to: perc_weights_0.csv
LLC TOTAL     ACCESS:    1500770  HIT:     472619  MISS:    1028151
LLC LOAD      ACCESS:     596296  HIT:     134245  MISS:     462051
LLC RFO       ACCESS:      67571  HIT:        705  MISS:      66866
LLC PREFETCH  ACCESS:     633699  HIT:     165944  MISS:     467755
LLC WRITEBACK ACCESS:     203204  HIT:     171725  MISS:      31479

CPU 7 cumulative IPC: 0.445193 instructions: 374762039 cycles: 841796686
L1D TOTAL     ACCESS:  119268127  HIT:  117667307  MISS:    1600820
L1D LOAD      ACCESS:   68124936  HIT:   67743910  MISS:     381026
L1D RFO       ACCESS:   51143191  HIT:   49923397  MISS:    1219794
L1D PREFETCH  ACCESS:          0  HIT:          0  MISS:          0
L1D WRITEBACK ACCESS:          0  HIT:          0  MISS:          0
L1I TOTAL     ACCESS:   84268712  HIT:   82900205  MISS:    1368507
L1I LOAD      ACCESS:   84268712  HIT:   82900205  MISS:    1368507
L1I RFO       ACCESS:          0  HIT:          0  MISS:          0
L1I PREFETCH  ACCESS:          0  HIT:          0  MISS:          0
L1I WRITEBACK ACCESS:          0  HIT:          0  MISS:          0
L2C TOTAL     ACCESS:    6298063  HIT:    5256237  MISS:    1041826
L2C LOAD      ACCESS:    1749519  HIT:    1592373  MISS:     157146
L2C RFO       ACCESS:    1219765  HIT:     423407  MISS:     796358
L2C PREFETCH  ACCESS:    1948125  HIT:    1862859  MISS:      85266
L2C WRITEBACK ACCESS:    1380654  HIT:    1377598  MISS:       3056

Avg Lookahead Depth:	3.6562
TOTAL: 6.92717e+07	L2C: 5.39906e+07	LLC: 1.52811e+07	GOOD_L2C: 3.68552e+07
Printing all the perceptron weights to: perc_weights_0.csv
LLC TOTAL     ACCESS:    2013412  HIT:     880111  MISS:    1133301
LLC LOAD      ACCESS:     150538  HIT:      20640  MISS:     129898
LLC RFO       ACCESS:     796342  HIT:      25164  MISS:     771178
LLC PREFETCH  ACCESS:     174189  HIT:      41488  MISS:     132701
LLC WRITEBACK ACCESS:     892343  HIT:     792819  MISS:      99524

Region of Interest Statistics

CPU 0 cumulative IPC: 1.0044 instructions: 100000003 cycles: 99562199
L1D TOTAL     ACCESS:   17277901  HIT:   15801956  MISS:    1475945
L1D LOAD      ACCESS:   15741014  HIT:   14353221  MISS:    1387793
L1D RFO       ACCESS:    1536887  HIT:    1448735  MISS:      88152
L1D PREFETCH  ACCESS:          0  HIT:          0  MISS:          0
L1D WRITEBACK ACCESS:          0  HIT:          0  MISS:          0
L1D PREFETCH  REQUESTED:          0  ISSUED:          0  USEFUL:          0  USELESS:          0
L1I TOTAL     ACCESS:   26480678  HIT:   26479785  MISS:        893
L1I LOAD      ACCESS:   26480678  HIT:   26479785  MISS:        893
L1I RFO       ACCESS:          0  HIT:          0  MISS:          0
L1I PREFETCH  ACCESS:          0  HIT:          0  MISS:          0
L1I WRITEBACK ACCESS:          0  HIT:          0  MISS:          0
L1I PREFETCH  REQUESTED:          0  ISSUED:          0  USEFUL:          0  USELESS:          0
L2C TOTAL     ACCESS:    3007203  HIT:    1572037  MISS:    1435166
L2C LOAD      ACCESS:    1388685  HIT:    1131070  MISS:     257615
L2C RFO       ACCESS:      88149  HIT:      10191  MISS:      77958
L2C PREFETCH  ACCESS:    1410054  HIT:     310706  MISS:    1099348
L2C WRITEBACK ACCESS:     120315  HIT:     120070  MISS:        245
L2C PREFETCH  REQUESTED:   15066538  ISSUED:   15066430  USEFUL:    8214429  USELESS:    1375996
LLC TOTAL     ACCESS:    1726009  HIT:     695913  MISS:    1030096
LLC LOAD      ACCESS:     230561  HIT:     137431  MISS:      93130
LLC RFO       ACCESS:      77953  HIT:      35789  MISS:      42164
LLC PREFETCH  ACCESS:    1311612  HIT:     416899  MISS:     894713
LLC WRITEBACK ACCESS:     105883  HIT:     105794  MISS:         89
LLC PREFETCH  REQUESTED:          0  ISSUED:          0  USEFUL:    1307193  USELESS:   33166448
Major fault: 0 Minor fault: 3998

CPU 1 cumulative IPC: 0.655617 instructions: 100000003 cycles: 152528141
L1D TOTAL     ACCESS:   14656117  HIT:   12144521  MISS:    2511596
L1D LOAD      ACCESS:   11919563  HIT:    9407982  MISS:    2511581
L1D RFO       ACCESS:    2736554  HIT:    2736539  MISS:         15
L1D PREFETCH  ACCESS:          0  HIT:          0  MISS:          0
L1D WRITEBACK ACCESS:          0  HIT:          0  MISS:          0
L1D PREFETCH  REQUESTED:          0  ISSUED:          0  USEFUL:          0  USELESS:          0
L1I TOTAL     ACCESS:   27566294  HIT:   27566285  MISS:          9
L1I LOAD      ACCESS:   27566294  HIT:   27566285  MISS:          9
L1I RFO       ACCESS:          0  HIT:          0  MISS:          0
L1I PREFETCH  ACCESS:          0  HIT:          0  MISS:          0
L1I WRITEBACK ACCESS:          0  HIT:          0  MISS:          0
L1I PREFETCH  REQUESTED:          0  ISSUED:          0  USEFUL:          0  USELESS:          0
L2C TOTAL     ACCESS:    5616223  HIT:    3104570  MISS:    2511653
L2C LOAD      ACCESS:    2511590  HIT:    2018508  MISS:     493082
L2C RFO       ACCESS:         15  HIT:          0  MISS:         15
L2C PREFETCH  ACCESS:    2114317  HIT:      95761  MISS:    2018556
L2C WRITEBACK ACCESS:     990301  HIT:     990301  MISS:          0
L2C PREFETCH  REQUESTED:   14953021  ISSUED:   14953021  USEFUL:   11396104  USELESS:        272
LLC TOTAL     ACCESS:    3504201  HIT:     992539  MISS:    2511662
LLC LOAD      ACCESS:      84361  HIT:         33  MISS:      84328
LLC RFO       ACCESS:         15  HIT:          1  MISS:         14
LLC PREFETCH  ACCESS:    2428816  HIT:       1496  MISS:    2427320
LLC WRITEBACK ACCESS:     991009  HIT:     991009  MISS:          0
LLC PREFETCH  REQUESTED:          0  ISSUED:          0  USEFUL:    1307193  USELESS:   33166448
Major fault: 0 Minor fault: 8200

CPU 2 cumulative IPC: 0.916409 instructions: 100000002 cycles: 109121637
L1D TOTAL     ACCESS:   29033770  HIT:   28746307  MISS:     287463
L1D LOAD      ACCESS:   22486595  HIT:   22283330  MISS:     203265
L1D RFO       ACCESS:    6547175  HIT:    6462977  MISS:      84198
L1D PREFETCH  ACCESS:          0  HIT:          0  MISS:          0
L1D WRITEBACK ACCESS:          0  HIT:          0  MISS:          0
L1D PREFETCH  REQUESTED:          0  ISSUED:          0  USEFUL:          0  USELESS:          0
L1I TOTAL     ACCESS:   24327893  HIT:   24322822  MISS:       5071
L1I LOAD      ACCESS:   24327893  HIT:   24322822  MISS:       5071
L1I RFO       ACCESS:          0  HIT:          0  MISS:          0
L1I PREFETCH  ACCESS:          0  HIT:          0  MISS:          0
L1I WRITEBACK ACCESS:          0  HIT:          0  MISS:          0
L1I PREFETCH  REQUESTED:          0  ISSUED:          0  USEFUL:          0  USELESS:          0
L2C TOTAL     ACCESS:     593396  HIT:     401961  MISS:     191435
L2C LOAD      ACCESS:     208336  HIT:     178046  MISS:      30290
L2C RFO       ACCESS:      84195  HIT:       5617  MISS:      78578
L2C PREFETCH  ACCESS:     214691  HIT:     132318  MISS:      82373
L2C WRITEBACK ACCESS:      86174  HIT:      85980  MISS:        194
L2C PREFETCH  REQUESTED:    1990291  ISSUED:    1990204  USEFUL:     566388  USELESS:     152625
LLC TOTAL     ACCESS:     294003  HIT:     109236  MISS:     184767
LLC LOAD      ACCESS:      26626  HIT:      12609  MISS:      14017
LLC RFO       ACCESS:      78467  HIT:       1475  MISS:      76992
LLC PREFETCH  ACCESS:     108726  HIT:      23375  MISS:      85351
LLC WRITEBACK ACCESS:      80184  HIT:      71777  MISS:       8407
LLC PREFETCH  REQUESTED:          0  ISSUED:          0  USEFUL:    1307193  USELESS:   33166448
Major fault: 0 Minor fault: 1872

CPU 3 cumulative IPC: 0.945198 instructions: 100000001 cycles: 105797939
L1D TOTAL     ACCESS:   22414780  HIT:   20147009  MISS:    2267771
L1D LOAD      ACCESS:   15151233  HIT:   13500274  MISS:    1650959
L1D RFO       ACCESS:    7263547  HIT:    6646735  MISS:     616812
L1D PREFETCH  ACCESS:          0  HIT:          0  MISS:          0
L1D WRITEBACK ACCESS:          0  HIT:          0  MISS:          0
L1D PREFETCH  REQUESTED:          0  ISSUED:          0  USEFUL:          0  USELESS:          0
L1I TOTAL     ACCESS:   26117116  HIT:   26117116  MISS:          0
L1I LOAD      ACCESS:   26117116  HIT:   26117116  MISS:          0
L1I RFO       ACCESS:          0  HIT:          0  MISS:          0
L1I PREFETCH  ACCESS:          0  HIT:          0  MISS:          0
L1I WRITEBACK ACCESS:          0  HIT:          0  MISS:          0
L1I PREFETCH  REQUESTED:          0  ISSUED:          0  USEFUL:          0  USELESS:          0
L2C TOTAL     ACCESS:    4280744  HIT:    3890657  MISS:     390087
L2C LOAD      ACCESS:    1650957  HIT:    1496366  MISS:     154591
L2C RFO       ACCESS:     611275  HIT:     551474  MISS:      59801
L2C PREFETCH  ACCESS:     784794  HIT:     609637  MISS:     175157
L2C WRITEBACK ACCESS:    1233718  HIT:    1233180  MISS:        538
L2C PREFETCH  REQUESTED:    9983188  ISSUED:    9949946  USEFUL:    1904875  USELESS:     257540
LLC TOTAL     ACCESS:     655749  HIT:     358694  MISS:     297055
LLC LOAD      ACCESS:     150293  HIT:      66158  MISS:      84135
LLC RFO       ACCESS:      59801  HIT:      38494  MISS:      21307
LLC PREFETCH  ACCESS:     324437  HIT:     136093  MISS:     188344
LLC WRITEBACK ACCESS:     121218  HIT:     117949  MISS:       3269
LLC PREFETCH  REQUESTED:          0  ISSUED:          0  USEFUL:    1307193  USELESS:   33166448
Major fault: 0 Minor fault: 30660

CPU 4 cumulative IPC: 0.738135 instructions: 100000000 cycles: 135476655
L1D TOTAL     ACCESS:   18954632  HIT:   17010879  MISS:    1943753
L1D LOAD      ACCESS:   16253903  HIT:   14414900  MISS:    1839003
L1D RFO       ACCESS:    2700729  HIT:    2595979  MISS:     104750
L1D PREFETCH  ACCESS:          0  HIT:          0  MISS:          0
L1D WRITEBACK ACCESS:          0  HIT:          0  MISS:          0
L1D PREFETCH  REQUESTED:          0  ISSUED:          0  USEFUL:          0  USELESS:          0
L1I TOTAL     ACCESS:   26164840  HIT:   26164684  MISS:        156
L1I LOAD      ACCESS:   26164840  HIT:   26164684  MISS:        156
L1I RFO       ACCESS:          0  HIT:          0  MISS:          0
L1I PREFETCH  ACCESS:          0  HIT:          0  MISS:          0
L1I WRITEBACK ACCESS:          0  HIT:          0  MISS:          0
L1I PREFETCH  REQUESTED:          0  ISSUED:          0  USEFUL:          0  USELESS:          0
L2C TOTAL     ACCESS:    3992467  HIT:    2150558  MISS:    1841909
L2C LOAD      ACCESS:    1839159  HIT:    1387873  MISS:     451286
L2C RFO       ACCESS:     104738  HIT:      21415  MISS:      83323
L2C PREFETCH  ACCESS:    1866185  HIT:     559178  MISS:    1307007
L2C WRITEBACK ACCESS:     182385  HIT:     182092  MISS:        293
L2C PREFETCH  REQUESTED:   15364824  ISSUED:   15364642  USEFUL:    6027992  USELESS:    2222239
LLC TOTAL     ACCESS:    2388619  HIT:     864245  MISS:    1524374
LLC LOAD      ACCESS:     405497  HIT:     173022  MISS:     232475
LLC RFO       ACCESS:      83315  HIT:      34322  MISS:      48993
LLC PREFETCH  ACCESS:    1747455  HIT:     504754  MISS:    1242701
LLC WRITEBACK ACCESS:     152352  HIT:     152147  MISS:        205
LLC PREFETCH  REQUESTED:          0  ISSUED:          0  USEFUL:    1307193  USELESS:   33166448
Major fault: 0 Minor fault: 4591

CPU 5 cumulative IPC: 0.118794 instructions: 100000001 cycles: 841796685
L1D TOTAL     ACCESS:   39765242  HIT:   34520768  MISS:    5244474
L1D LOAD      ACCESS:   27097008  HIT:   23621887  MISS:    3475121
L1D RFO       ACCESS:   12668234  HIT:   10898881  MISS:    1769353
L1D PREFETCH  ACCESS:          0  HIT:          0  MISS:          0
L1D WRITEBACK ACCESS:          0  HIT:          0  MISS:          0
L1D PREFETCH  REQUESTED:          0  ISSUED:          0  USEFUL:          0  USELESS:          0
L1I TOTAL     ACCESS:   24602499  HIT:   24602485  MISS:         14
L1I LOAD      ACCESS:   24602499  HIT:   24602485  MISS:         14
L1I RFO       ACCESS:          0  HIT:          0  MISS:          0
L1I PREFETCH  ACCESS:          0  HIT:          0  MISS:          0
L1I WRITEBACK ACCESS:          0  HIT:          0  MISS:          0
L1I PREFETCH  REQUESTED:          0  ISSUED:          0  USEFUL:          0  USELESS:          0
L2C TOTAL     ACCESS:    9040378  HIT:    4936514  MISS:    4103864
L2C LOAD      ACCESS:    3475135  HIT:    1743641  MISS:    1731494
L2C RFO       ACCESS:    1769353  HIT:      92782  MISS:    1676571
L2C PREFETCH  ACCESS:    1238138  HIT:     542467  MISS:     695671
L2C WRITEBACK ACCESS:    2557752  HIT:    2557624  MISS:        128
L2C PREFETCH  REQUESTED:    2721751  ISSUED:    2721751  USEFUL:     437905  USELESS:     415409
LLC TOTAL     ACCESS:    7459318  HIT:    3116029  MISS:    4343289
LLC LOAD      ACCESS:    1717353  HIT:     287413  MISS:    1429940
LLC RFO       ACCESS:    1676571  HIT:      70698  MISS:    1605873
LLC PREFETCH  ACCESS:    1600856  HIT:     299392  MISS:    1301464
LLC WRITEBACK ACCESS:    2464538  HIT:    2458526  MISS:       6012
LLC PREFETCH  REQUESTED:          0  ISSUED:          0  USEFUL:    1307193  USELESS:   33166448
Major fault: 0 Minor fault: 29959

CPU 6 cumulative IPC: 0.677752 instructions: 100000003 cycles: 147546597
L1D TOTAL     ACCESS:   36884178  HIT:   36012044  MISS:     872134
L1D LOAD      ACCESS:   18705792  HIT:   17837838  MISS:     867954
L1D RFO       ACCESS:   18178386  HIT:   18174206  MISS:       4180
L1D PREFETCH  ACCESS:          0  HIT:          0  MISS:          0
L1D WRITEBACK ACCESS:          0  HIT:          0  MISS:          0
L1D PREFETCH  REQUESTED:          0  ISSUED:          0  USEFUL:          0  USELESS:          0
L1I TOTAL     ACCESS:   37412303  HIT:   37412301  MISS:          2
L1I LOAD      ACCESS:   37412303  HIT:   37412301  MISS:          2
L1I RFO       ACCESS:          0  HIT:          0  MISS:          0
L1I PREFETCH  ACCESS:          0  HIT:          0  MISS:          0
L1I WRITEBACK ACCESS:          0  HIT:          0  MISS:          0
L1I PREFETCH  REQUESTED:          0  ISSUED:          0  USEFUL:          0  USELESS:          0
L2C TOTAL     ACCESS:    2133231  HIT:    2102660  MISS:      30571
L2C LOAD      ACCESS:     867956  HIT:     849116  MISS:      18840
L2C RFO       ACCESS:       4180  HIT:       1105  MISS:       3075
L2C PREFETCH  ACCESS:    1237017  HIT:    1228369  MISS:       8648
L2C WRITEBACK ACCESS:      24078  HIT:      24070  MISS:          8
L2C PREFETCH  REQUESTED:    6861139  ISSUED:    6861139  USEFUL:     185758  USELESS:     155101
LLC TOTAL     ACCESS:      48826  HIT:       6368  MISS:      42458
LLC LOAD      ACCESS:      18810  HIT:       1659  MISS:      17151
LLC RFO       ACCESS:       3074  HIT:         24  MISS:       3050
LLC PREFETCH  ACCESS:      19326  HIT:       3817  MISS:      15509
LLC WRITEBACK ACCESS:       7616  HIT:        868  MISS:       6748
LLC PREFETCH  REQUESTED:          0  ISSUED:          0  USEFUL:    1307193  USELESS:   33166448
Major fault: 0 Minor fault: 10660

CPU 7 cumulative IPC: 0.441692 instructions: 100000000 cycles: 226402351
L1D TOTAL     ACCESS:   32740918  HIT:   32521983  MISS:     218935
L1D LOAD      ACCESS:   18793987  HIT:   18678644  MISS:     115343
L1D RFO       ACCESS:   13946931  HIT:   13843339  MISS:     103592
L1D PREFETCH  ACCESS:          0  HIT:          0  MISS:          0
L1D WRITEBACK ACCESS:          0  HIT:          0  MISS:          0
L1D PREFETCH  REQUESTED:          0  ISSUED:          0  USEFUL:          0  USELESS:          0
L1I TOTAL     ACCESS:   22231816  HIT:   21867014  MISS:     364802
L1I LOAD      ACCESS:   22231816  HIT:   21867014  MISS:     364802
L1I RFO       ACCESS:          0  HIT:          0  MISS:          0
L1I PREFETCH  ACCESS:          0  HIT:          0  MISS:          0
L1I WRITEBACK ACCESS:          0  HIT:          0  MISS:          0
L1I PREFETCH  REQUESTED:          0  ISSUED:          0  USEFUL:          0  USELESS:          0
L2C TOTAL     ACCESS:    1278552  HIT:    1183311  MISS:      95241
L2C LOAD      ACCESS:     480142  HIT:     432673  MISS:      47469
L2C RFO       ACCESS:     103587  HIT:      85156  MISS:      18431
L2C PREFETCH  ACCESS:     546719  HIT:     518546  MISS:      28173
L2C WRITEBACK ACCESS:     148104  HIT:     146936  MISS:       1168
L2C PREFETCH  REQUESTED:    2330975  ISSUED:    2330033  USEFUL:      42810  USELESS:      56451
LLC TOTAL     ACCESS:     166184  HIT:      47444  MISS:     118740
LLC LOAD      ACCESS:      45113  HIT:       6642  MISS:      38471
LLC RFO       ACCESS:      18426  HIT:       8258  MISS:      10168
LLC PREFETCH  ACCESS:      58318  HIT:      14139  MISS:      44179
LLC WRITEBACK ACCESS:      44327  HIT:      18405  MISS:      25922
LLC PREFETCH  REQUESTED:          0  ISSUED:          0  USEFUL:    1307193  USELESS:   33166448
Major fault: 0 Minor fault: 6511

Avg Lookahead Depth:	3.6562
TOTAL: 6.92717e+07	L2C: 5.39906e+07	LLC: 1.52811e+07	GOOD_L2C: 3.68552e+07
Printing all the perceptron weights to: perc_weights_0.csv

Avg Lookahead Depth:	3.6562
TOTAL: 6.92717e+07	L2C: 5.39906e+07	LLC: 1.52811e+07	GOOD_L2C: 3.68552e+07
Printing all the perceptron weights to: perc_weights_0.csv

Avg Lookahead Depth:	3.6562
TOTAL: 6.92717e+07	L2C: 5.39906e+07	LLC: 1.52811e+07	GOOD_L2C: 3.68552e+07
Printing all the perceptron weights to: perc_weights_0.csv

Avg Lookahead Depth:	3.6562
TOTAL: 6.92717e+07	L2C: 5.39906e+07	LLC: 1.52811e+07	GOOD_L2C: 3.68552e+07
Printing all the perceptron weights to: perc_weights_0.csv

Avg Lookahead Depth:	3.6562
TOTAL: 6.92717e+07	L2C: 5.39906e+07	LLC: 1.52811e+07	GOOD_L2C: 3.68552e+07
Printing all the perceptron weights to: perc_weights_0.csv

Avg Lookahead Depth:	3.6562
TOTAL: 6.92717e+07	L2C: 5.39906e+07	LLC: 1.52811e+07	GOOD_L2C: 3.68552e+07
Printing all the perceptron weights to: perc_weights_0.csv

Avg Lookahead Depth:	3.6562
TOTAL: 6.92717e+07	L2C: 5.39906e+07	LLC: 1.52811e+07	GOOD_L2C: 3.68552e+07
Printing all the perceptron weights to: perc_weights_0.csv

Avg Lookahead Depth:	3.6562
TOTAL: 6.92717e+07	L2C: 5.39906e+07	LLC: 1.52811e+07	GOOD_L2C: 3.68552e+07
Printing all the perceptron weights to: perc_weights_0.csv

DRAM Statistics
 CHANNEL 0
 RQ ROW_BUFFER_HIT:    8650563  ROW_BUFFER_MISS:   12470734
 DBUS_CONGESTED:   35595812
 WQ ROW_BUFFER_HIT:     480246  ROW_BUFFER_MISS:    5393073  FULL:          0

 CHANNEL 1
 RQ ROW_BUFFER_HIT:    8658428  ROW_BUFFER_MISS:   12523815
 DBUS_CONGESTED:   35595812
 WQ ROW_BUFFER_HIT:     482375  ROW_BUFFER_MISS:    5401376  FULL:          0

 AVG_CONGESTED_CYCLE: 13
