Initialize SIGNATURE TABLE
ST_SET: 1
ST_WAY: 256
ST_TAG_BIT: 16
ST_TAG_MASK: ffff

Initialize PATTERN TABLE
PT_SET: 512
PT_WAY: 4
SIG_DELTA_BIT: 7
C_SIG_BIT: 4
C_DELTA_BIT: 4

Initialize PREFETCH FILTER
FILTER_SET: 1024

Initialize PERCEPTRON
PERC_ENTRIES: 4096
PERC_FEATURES: 9

*** ChampSim Multicore Out-of-Order Simulator ***

Warmup Instructions: 20000000
Simulation Instructions: 100000000
Number of CPUs: 8
LLC sets: 16384
LLC ways: 16
Off-chip DRAM Size: 8192 MB Channels: 2 Width: 64-bit Data Rate: 1600 MT/s

CPU 0 runs /scratch/user/djimenez/champsim-traces/speccpu2006/xz/454.calculix-104B.champsimtrace.xz
CPU 1 runs /scratch/user/djimenez/champsim-traces/speccpu2006/xz/458.sjeng-1088B.champsimtrace.xz
CPU 2 runs /scratch/user/djimenez/champsim-traces/speccpu2006/xz/456.hmmer-88B.champsimtrace.xz
CPU 3 runs /scratch/user/djimenez/champsim-traces/speccpu2006/xz/445.gobmk-30B.champsimtrace.xz
CPU 4 runs /scratch/user/djimenez/champsim-traces/speccpu2006/xz/444.namd-426B.champsimtrace.xz
CPU 5 runs /scratch/user/djimenez/champsim-traces/speccpu2006/xz/435.gromacs-111B.champsimtrace.xz
CPU 6 runs /scratch/user/djimenez/champsim-traces/speccpu2006/xz/445.gobmk-36B.champsimtrace.xz
CPU 7 runs /scratch/user/djimenez/champsim-traces/speccpu2006/xz/435.gromacs-228B.champsimtrace.xz
Heartbeat CPU 0 instructions: 10000001 cycles: 4099535 heartbeat IPC: 2.4393 cumulative IPC: 2.4393 (Simulation time: 0 hr 2 min 39 sec) 
Heartbeat CPU 4 instructions: 10000002 cycles: 4313968 heartbeat IPC: 2.31805 cumulative IPC: 2.31805 (Simulation time: 0 hr 2 min 47 sec) 
Heartbeat CPU 7 instructions: 10000000 cycles: 4738481 heartbeat IPC: 2.11038 cumulative IPC: 2.11038 (Simulation time: 0 hr 3 min 3 sec) 
Heartbeat CPU 5 instructions: 10000001 cycles: 5263619 heartbeat IPC: 1.89983 cumulative IPC: 1.89983 (Simulation time: 0 hr 3 min 24 sec) 
Heartbeat CPU 1 instructions: 10000000 cycles: 5578326 heartbeat IPC: 1.79265 cumulative IPC: 1.79265 (Simulation time: 0 hr 3 min 37 sec) 
Heartbeat CPU 2 instructions: 10000001 cycles: 6239476 heartbeat IPC: 1.6027 cumulative IPC: 1.6027 (Simulation time: 0 hr 4 min 4 sec) 
Heartbeat CPU 3 instructions: 10000003 cycles: 6364934 heartbeat IPC: 1.57111 cumulative IPC: 1.57111 (Simulation time: 0 hr 4 min 9 sec) 
Heartbeat CPU 6 instructions: 10000000 cycles: 6463293 heartbeat IPC: 1.5472 cumulative IPC: 1.5472 (Simulation time: 0 hr 4 min 13 sec) 
Heartbeat CPU 0 instructions: 20000000 cycles: 8199747 heartbeat IPC: 2.4389 cumulative IPC: 2.4391 (Simulation time: 0 hr 5 min 21 sec) 
Heartbeat CPU 4 instructions: 20000000 cycles: 9190235 heartbeat IPC: 2.05075 cumulative IPC: 2.17622 (Simulation time: 0 hr 6 min 1 sec) 
Heartbeat CPU 7 instructions: 20000000 cycles: 9478137 heartbeat IPC: 2.10986 cumulative IPC: 2.11012 (Simulation time: 0 hr 6 min 13 sec) 
Heartbeat CPU 5 instructions: 20000000 cycles: 10295621 heartbeat IPC: 1.98728 cumulative IPC: 1.94257 (Simulation time: 0 hr 6 min 45 sec) 
Heartbeat CPU 1 instructions: 20000000 cycles: 11127957 heartbeat IPC: 1.80192 cumulative IPC: 1.79728 (Simulation time: 0 hr 7 min 18 sec) 
Heartbeat CPU 0 instructions: 30000002 cycles: 12298902 heartbeat IPC: 2.43953 cumulative IPC: 0.813081 (Simulation time: 0 hr 8 min 5 sec) 
Heartbeat CPU 2 instructions: 20000000 cycles: 12503343 heartbeat IPC: 1.59646 cumulative IPC: 1.59957 (Simulation time: 0 hr 8 min 13 sec) 
Heartbeat CPU 3 instructions: 20000000 cycles: 12697421 heartbeat IPC: 1.57916 cumulative IPC: 1.57512 (Simulation time: 0 hr 8 min 21 sec) 
Heartbeat CPU 6 instructions: 20000000 cycles: 12887595 heartbeat IPC: 1.55659 cumulative IPC: 1.55188 (Simulation time: 0 hr 8 min 29 sec) 

Warmup complete CPU 0 instructions: 31434563 cycles: 12887596 (Simulation time: 0 hr 8 min 29 sec) 
Warmup complete CPU 1 instructions: 23169960 cycles: 12887596 (Simulation time: 0 hr 8 min 29 sec) 
Warmup complete CPU 2 instructions: 20613381 cycles: 12887596 (Simulation time: 0 hr 8 min 29 sec) 
Warmup complete CPU 3 instructions: 20286508 cycles: 12887596 (Simulation time: 0 hr 8 min 29 sec) 
Warmup complete CPU 4 instructions: 27727459 cycles: 12887596 (Simulation time: 0 hr 8 min 29 sec) 
Warmup complete CPU 5 instructions: 25002711 cycles: 12887596 (Simulation time: 0 hr 8 min 29 sec) 
Warmup complete CPU 6 instructions: 20000001 cycles: 12887596 (Simulation time: 0 hr 8 min 29 sec) 
Warmup complete CPU 7 instructions: 27194684 cycles: 12887595 (Simulation time: 0 hr 8 min 29 sec) 

Heartbeat CPU 7 instructions: 30000002 cycles: 14677194 heartbeat IPC: 1.92343 cumulative IPC: 1.56757 (Simulation time: 0 hr 9 min 16 sec) 
Heartbeat CPU 4 instructions: 30000002 cycles: 14870305 heartbeat IPC: 1.76054 cumulative IPC: 1.14618 (Simulation time: 0 hr 9 min 21 sec) 
Heartbeat CPU 5 instructions: 30000000 cycles: 18543952 heartbeat IPC: 1.21237 cumulative IPC: 0.883482 (Simulation time: 0 hr 10 min 55 sec) 
Heartbeat CPU 0 instructions: 40000000 cycles: 19295910 heartbeat IPC: 1.42918 cumulative IPC: 1.33661 (Simulation time: 0 hr 11 min 16 sec) 
Heartbeat CPU 7 instructions: 40000000 cycles: 21062090 heartbeat IPC: 1.5662 cumulative IPC: 1.5665 (Simulation time: 0 hr 12 min 4 sec) 
Heartbeat CPU 2 instructions: 30000002 cycles: 21790288 heartbeat IPC: 1.07678 cumulative IPC: 1.05436 (Simulation time: 0 hr 12 min 23 sec) 
Heartbeat CPU 4 instructions: 40000000 cycles: 22942254 heartbeat IPC: 1.23886 cumulative IPC: 1.22058 (Simulation time: 0 hr 12 min 53 sec) 
Heartbeat CPU 1 instructions: 30000000 cycles: 24183177 heartbeat IPC: 0.765977 cumulative IPC: 0.604665 (Simulation time: 0 hr 13 min 25 sec) 
Heartbeat CPU 0 instructions: 50000002 cycles: 26777265 heartbeat IPC: 1.33666 cumulative IPC: 1.33664 (Simulation time: 0 hr 14 min 38 sec) 
Heartbeat CPU 7 instructions: 50000001 cycles: 27460443 heartbeat IPC: 1.5629 cumulative IPC: 1.56492 (Simulation time: 0 hr 14 min 57 sec) 
Heartbeat CPU 5 instructions: 40000000 cycles: 27843574 heartbeat IPC: 1.07531 cumulative IPC: 1.00276 (Simulation time: 0 hr 15 min 6 sec) 
Heartbeat CPU 2 instructions: 40000000 cycles: 30608655 heartbeat IPC: 1.134 cumulative IPC: 1.09399 (Simulation time: 0 hr 16 min 16 sec) 
Heartbeat CPU 4 instructions: 50000000 cycles: 30865014 heartbeat IPC: 1.26219 cumulative IPC: 1.23892 (Simulation time: 0 hr 16 min 22 sec) 
Heartbeat CPU 3 instructions: 30000002 cycles: 33454592 heartbeat IPC: 0.481761 cumulative IPC: 0.472286 (Simulation time: 0 hr 17 min 33 sec) 
Heartbeat CPU 0 instructions: 60000000 cycles: 34364848 heartbeat IPC: 1.31794 cumulative IPC: 1.33003 (Simulation time: 0 hr 17 min 54 sec) 
Heartbeat CPU 6 instructions: 30000001 cycles: 35206585 heartbeat IPC: 0.448049 cumulative IPC: 0.448049 (Simulation time: 0 hr 18 min 13 sec) 
Heartbeat CPU 7 instructions: 60000000 cycles: 35836964 heartbeat IPC: 1.19381 cumulative IPC: 1.42946 (Simulation time: 0 hr 18 min 28 sec) 
Heartbeat CPU 5 instructions: 50000002 cycles: 38462836 heartbeat IPC: 0.941685 cumulative IPC: 0.977402 (Simulation time: 0 hr 19 min 36 sec) 
Heartbeat CPU 4 instructions: 60000000 cycles: 39239800 heartbeat IPC: 1.19406 cumulative IPC: 1.22466 (Simulation time: 0 hr 19 min 58 sec) 
Heartbeat CPU 2 instructions: 50000000 cycles: 39321954 heartbeat IPC: 1.14767 cumulative IPC: 1.11168 (Simulation time: 0 hr 20 min 1 sec) 
Heartbeat CPU 1 instructions: 40000000 cycles: 40736923 heartbeat IPC: 0.604093 cumulative IPC: 0.604325 (Simulation time: 0 hr 20 min 37 sec) 
Heartbeat CPU 0 instructions: 70000000 cycles: 41846051 heartbeat IPC: 1.33668 cumulative IPC: 1.33175 (Simulation time: 0 hr 21 min 4 sec) 
Heartbeat CPU 7 instructions: 70000000 cycles: 43740332 heartbeat IPC: 1.26528 cumulative IPC: 1.38741 (Simulation time: 0 hr 21 min 50 sec) 
Heartbeat CPU 4 instructions: 70000003 cycles: 47587465 heartbeat IPC: 1.19794 cumulative IPC: 1.21823 (Simulation time: 0 hr 23 min 35 sec) 
Heartbeat CPU 2 instructions: 60000000 cycles: 48137744 heartbeat IPC: 1.13433 cumulative IPC: 1.11735 (Simulation time: 0 hr 23 min 48 sec) 
Heartbeat CPU 5 instructions: 60000000 cycles: 48469988 heartbeat IPC: 0.999285 cumulative IPC: 0.983556 (Simulation time: 0 hr 23 min 56 sec) 
Heartbeat CPU 0 instructions: 80000000 cycles: 49326608 heartbeat IPC: 1.3368 cumulative IPC: 1.33279 (Simulation time: 0 hr 24 min 17 sec) 
Heartbeat CPU 7 instructions: 80000000 cycles: 51229506 heartbeat IPC: 1.33526 cumulative IPC: 1.37722 (Simulation time: 0 hr 25 min 6 sec) 
Heartbeat CPU 3 instructions: 40000000 cycles: 54572082 heartbeat IPC: 0.473541 cumulative IPC: 0.472922 (Simulation time: 0 hr 26 min 33 sec) 
Heartbeat CPU 4 instructions: 80000000 cycles: 56269242 heartbeat IPC: 1.15184 cumulative IPC: 1.20495 (Simulation time: 0 hr 27 min 13 sec) 
Heartbeat CPU 0 instructions: 90000001 cycles: 56808550 heartbeat IPC: 1.33655 cumulative IPC: 1.33343 (Simulation time: 0 hr 27 min 27 sec) 
Heartbeat CPU 2 instructions: 70000000 cycles: 56920699 heartbeat IPC: 1.13857 cumulative IPC: 1.12158 (Simulation time: 0 hr 27 min 30 sec) 
Heartbeat CPU 6 instructions: 40000000 cycles: 57523141 heartbeat IPC: 0.448098 cumulative IPC: 0.448073 (Simulation time: 0 hr 27 min 46 sec) 
Heartbeat CPU 1 instructions: 50000000 cycles: 57868776 heartbeat IPC: 0.583708 cumulative IPC: 0.596473 (Simulation time: 0 hr 27 min 56 sec) 
Heartbeat CPU 5 instructions: 70000001 cycles: 58329509 heartbeat IPC: 1.01425 cumulative IPC: 0.990216 (Simulation time: 0 hr 28 min 8 sec) 
Heartbeat CPU 7 instructions: 90000001 cycles: 59804995 heartbeat IPC: 1.16611 cumulative IPC: 1.33864 (Simulation time: 0 hr 28 min 47 sec) 
Heartbeat CPU 0 instructions: 100000000 cycles: 64289040 heartbeat IPC: 1.33681 cumulative IPC: 1.33392 (Simulation time: 0 hr 30 min 41 sec) 
Heartbeat CPU 4 instructions: 90000002 cycles: 65515552 heartbeat IPC: 1.08151 cumulative IPC: 1.18326 (Simulation time: 0 hr 31 min 15 sec) 
Heartbeat CPU 2 instructions: 80000000 cycles: 65629613 heartbeat IPC: 1.14825 cumulative IPC: 1.12598 (Simulation time: 0 hr 31 min 19 sec) 
Heartbeat CPU 7 instructions: 100000000 cycles: 66319710 heartbeat IPC: 1.53499 cumulative IPC: 1.36258 (Simulation time: 0 hr 31 min 37 sec) 
Heartbeat CPU 5 instructions: 80000000 cycles: 69133849 heartbeat IPC: 0.925554 cumulative IPC: 0.977795 (Simulation time: 0 hr 32 min 49 sec) 
Heartbeat CPU 0 instructions: 110000001 cycles: 71769896 heartbeat IPC: 1.33675 cumulative IPC: 1.33428 (Simulation time: 0 hr 34 min 2 sec) 
Heartbeat CPU 4 instructions: 100000000 cycles: 72696173 heartbeat IPC: 1.39264 cumulative IPC: 1.2084 (Simulation time: 0 hr 34 min 29 sec) 
Heartbeat CPU 7 instructions: 110000001 cycles: 72742443 heartbeat IPC: 1.55697 cumulative IPC: 1.38344 (Simulation time: 0 hr 34 min 30 sec) 
Heartbeat CPU 2 instructions: 90000000 cycles: 74368931 heartbeat IPC: 1.14425 cumulative IPC: 1.12858 (Simulation time: 0 hr 35 min 11 sec) 
Heartbeat CPU 1 instructions: 60000000 cycles: 74981788 heartbeat IPC: 0.584351 cumulative IPC: 0.593132 (Simulation time: 0 hr 35 min 27 sec) 
Heartbeat CPU 3 instructions: 50000001 cycles: 77010132 heartbeat IPC: 0.445672 cumulative IPC: 0.463386 (Simulation time: 0 hr 36 min 21 sec) 
Heartbeat CPU 5 instructions: 90000001 cycles: 78161792 heartbeat IPC: 1.10767 cumulative IPC: 0.995758 (Simulation time: 0 hr 36 min 54 sec) 
Heartbeat CPU 7 instructions: 120000000 cycles: 79162845 heartbeat IPC: 1.55753 cumulative IPC: 1.4003 (Simulation time: 0 hr 37 min 20 sec) 
Heartbeat CPU 0 instructions: 120000000 cycles: 79251094 heartbeat IPC: 1.33668 cumulative IPC: 1.33455 (Simulation time: 0 hr 37 min 23 sec) 
Heartbeat CPU 6 instructions: 50000001 cycles: 79670346 heartbeat IPC: 0.451524 cumulative IPC: 0.449218 (Simulation time: 0 hr 37 min 33 sec) 
Heartbeat CPU 4 instructions: 110000000 cycles: 80919619 heartbeat IPC: 1.21604 cumulative IPC: 1.20932 (Simulation time: 0 hr 38 min 4 sec) 
Heartbeat CPU 2 instructions: 100000000 cycles: 83077169 heartbeat IPC: 1.14834 cumulative IPC: 1.13103 (Simulation time: 0 hr 39 min 0 sec) 
Finished CPU 7 instructions: 100000000 cycles: 70886729 cumulative IPC: 1.4107 (Simulation time: 0 hr 39 min 20 sec) 
Heartbeat CPU 7 instructions: 130000002 cycles: 85565101 heartbeat IPC: 1.56195 cumulative IPC: 1.41454 (Simulation time: 0 hr 40 min 9 sec) 
Heartbeat CPU 0 instructions: 130000000 cycles: 86733395 heartbeat IPC: 1.33649 cumulative IPC: 1.33475 (Simulation time: 0 hr 40 min 38 sec) 
Finished CPU 0 instructions: 100000002 cycles: 74918948 cumulative IPC: 1.33478 (Simulation time: 0 hr 41 min 6 sec) 
Heartbeat CPU 4 instructions: 120000000 cycles: 89185129 heartbeat IPC: 1.20985 cumulative IPC: 1.20938 (Simulation time: 0 hr 41 min 42 sec) 
Heartbeat CPU 5 instructions: 100000000 cycles: 89189330 heartbeat IPC: 0.906821 cumulative IPC: 0.982904 (Simulation time: 0 hr 41 min 43 sec) 
Heartbeat CPU 2 instructions: 110000002 cycles: 91777473 heartbeat IPC: 1.14939 cumulative IPC: 1.13306 (Simulation time: 0 hr 42 min 55 sec) 
Heartbeat CPU 1 instructions: 70000003 cycles: 91858777 heartbeat IPC: 0.592523 cumulative IPC: 0.593002 (Simulation time: 0 hr 42 min 57 sec) 
Heartbeat CPU 7 instructions: 140000000 cycles: 91954774 heartbeat IPC: 1.56502 cumulative IPC: 1.4267 (Simulation time: 0 hr 43 min 0 sec) 
Heartbeat CPU 0 instructions: 140000000 cycles: 94459065 heartbeat IPC: 1.29439 cumulative IPC: 1.33092 (Simulation time: 0 hr 44 min 4 sec) 
Finished CPU 4 instructions: 100000002 cycles: 81833780 cumulative IPC: 1.22199 (Simulation time: 0 hr 44 min 11 sec) 
Heartbeat CPU 4 instructions: 130000001 cycles: 96818977 heartbeat IPC: 1.30996 cumulative IPC: 1.21853 (Simulation time: 0 hr 45 min 9 sec) 
Heartbeat CPU 5 instructions: 110000002 cycles: 97997375 heartbeat IPC: 1.13533 cumulative IPC: 0.998678 (Simulation time: 0 hr 45 min 42 sec) 
Heartbeat CPU 7 instructions: 150000000 cycles: 98329427 heartbeat IPC: 1.56871 cumulative IPC: 1.4373 (Simulation time: 0 hr 45 min 50 sec) 
Heartbeat CPU 3 instructions: 60000000 cycles: 98587755 heartbeat IPC: 0.463443 cumulative IPC: 0.4634 (Simulation time: 0 hr 45 min 57 sec) 
Heartbeat CPU 2 instructions: 120000000 cycles: 100515967 heartbeat IPC: 1.14436 cumulative IPC: 1.13418 (Simulation time: 0 hr 46 min 45 sec) 
Finished CPU 2 instructions: 100000000 cycles: 88161383 cumulative IPC: 1.13428 (Simulation time: 0 hr 46 min 59 sec) 
Heartbeat CPU 0 instructions: 150000002 cycles: 101940911 heartbeat IPC: 1.33657 cumulative IPC: 1.3314 (Simulation time: 0 hr 47 min 23 sec) 
Heartbeat CPU 6 instructions: 60000000 cycles: 102422996 heartbeat IPC: 0.439509 cumulative IPC: 0.446751 (Simulation time: 0 hr 47 min 36 sec) 
Heartbeat CPU 7 instructions: 160000000 cycles: 104718343 heartbeat IPC: 1.56521 cumulative IPC: 1.4462 (Simulation time: 0 hr 48 min 39 sec) 
Heartbeat CPU 4 instructions: 140000000 cycles: 105803133 heartbeat IPC: 1.11307 cumulative IPC: 1.20833 (Simulation time: 0 hr 49 min 7 sec) 
Heartbeat CPU 1 instructions: 80000000 cycles: 108507420 heartbeat IPC: 0.600649 cumulative IPC: 0.594333 (Simulation time: 0 hr 50 min 18 sec) 
Heartbeat CPU 5 instructions: 120000000 cycles: 108791037 heartbeat IPC: 0.926469 cumulative IPC: 0.990551 (Simulation time: 0 hr 50 min 26 sec) 
Heartbeat CPU 2 instructions: 130000003 cycles: 109231459 heartbeat IPC: 1.14738 cumulative IPC: 1.13538 (Simulation time: 0 hr 50 min 39 sec) 
Heartbeat CPU 0 instructions: 160000000 cycles: 109422420 heartbeat IPC: 1.33663 cumulative IPC: 1.3318 (Simulation time: 0 hr 50 min 44 sec) 
Heartbeat CPU 7 instructions: 170000000 cycles: 111107438 heartbeat IPC: 1.56517 cumulative IPC: 1.45394 (Simulation time: 0 hr 51 min 30 sec) 
Heartbeat CPU 4 instructions: 150000000 cycles: 113269890 heartbeat IPC: 1.33927 cumulative IPC: 1.21807 (Simulation time: 0 hr 52 min 24 sec) 
Finished CPU 5 instructions: 100000000 cycles: 101469418 cumulative IPC: 0.985519 (Simulation time: 0 hr 52 min 51 sec) 
Heartbeat CPU 0 instructions: 170000000 cycles: 116903372 heartbeat IPC: 1.33673 cumulative IPC: 1.33216 (Simulation time: 0 hr 54 min 3 sec) 
Heartbeat CPU 7 instructions: 180000000 cycles: 117515074 heartbeat IPC: 1.56064 cumulative IPC: 1.46047 (Simulation time: 0 hr 54 min 18 sec) 
Heartbeat CPU 2 instructions: 140000000 cycles: 117990606 heartbeat IPC: 1.14166 cumulative IPC: 1.1359 (Simulation time: 0 hr 54 min 30 sec) 
Heartbeat CPU 5 instructions: 130000002 cycles: 118420689 heartbeat IPC: 1.03846 cumulative IPC: 0.994923 (Simulation time: 0 hr 54 min 41 sec) 
Heartbeat CPU 3 instructions: 70000000 cycles: 121142171 heartbeat IPC: 0.443372 cumulative IPC: 0.459228 (Simulation time: 0 hr 55 min 50 sec) 
Heartbeat CPU 4 instructions: 160000000 cycles: 122207460 heartbeat IPC: 1.11887 cumulative IPC: 1.20996 (Simulation time: 0 hr 56 min 20 sec) 
Heartbeat CPU 7 instructions: 190000003 cycles: 123882930 heartbeat IPC: 1.57039 cumulative IPC: 1.46678 (Simulation time: 0 hr 57 min 5 sec) 
Heartbeat CPU 0 instructions: 180000000 cycles: 124384114 heartbeat IPC: 1.33677 cumulative IPC: 1.33247 (Simulation time: 0 hr 57 min 18 sec) 
Heartbeat CPU 6 instructions: 70000001 cycles: 125014822 heartbeat IPC: 0.442638 cumulative IPC: 0.445922 (Simulation time: 0 hr 57 min 34 sec) 
Heartbeat CPU 1 instructions: 90000003 cycles: 125417271 heartbeat IPC: 0.591371 cumulative IPC: 0.593888 (Simulation time: 0 hr 57 min 44 sec) 
Heartbeat CPU 2 instructions: 150000002 cycles: 127417701 heartbeat IPC: 1.06077 cumulative IPC: 1.12972 (Simulation time: 0 hr 58 min 35 sec) 
Heartbeat CPU 5 instructions: 140000000 cycles: 128453214 heartbeat IPC: 0.996758 cumulative IPC: 0.995082 (Simulation time: 0 hr 59 min 4 sec) 
Heartbeat CPU 4 instructions: 170000003 cycles: 130193381 heartbeat IPC: 1.2522 cumulative IPC: 1.21283 (Simulation time: 0 hr 59 min 50 sec) 
Heartbeat CPU 7 instructions: 200000000 cycles: 130252152 heartbeat IPC: 1.57005 cumulative IPC: 1.47238 (Simulation time: 0 hr 59 min 52 sec) 
Heartbeat CPU 0 instructions: 190000003 cycles: 131867014 heartbeat IPC: 1.33638 cumulative IPC: 1.33271 (Simulation time: 1 hr 0 min 32 sec) 
Heartbeat CPU 7 instructions: 210000002 cycles: 136605182 heartbeat IPC: 1.57405 cumulative IPC: 1.4776 (Simulation time: 1 hr 2 min 38 sec) 
Heartbeat CPU 2 instructions: 160000000 cycles: 137003007 heartbeat IPC: 1.04326 cumulative IPC: 1.12304 (Simulation time: 1 hr 2 min 48 sec) 
Heartbeat CPU 5 instructions: 150000001 cycles: 138765071 heartbeat IPC: 0.969758 cumulative IPC: 0.993008 (Simulation time: 1 hr 3 min 31 sec) 
Heartbeat CPU 0 instructions: 200000000 cycles: 139347441 heartbeat IPC: 1.33682 cumulative IPC: 1.33296 (Simulation time: 1 hr 3 min 46 sec) 
Heartbeat CPU 4 instructions: 180000000 cycles: 139554198 heartbeat IPC: 1.06828 cumulative IPC: 1.20215 (Simulation time: 1 hr 3 min 51 sec) 
Heartbeat CPU 1 instructions: 100000000 cycles: 142174355 heartbeat IPC: 0.596762 cumulative IPC: 0.594261 (Simulation time: 1 hr 5 min 3 sec) 
Heartbeat CPU 3 instructions: 80000000 cycles: 142678874 heartbeat IPC: 0.464324 cumulative IPC: 0.460073 (Simulation time: 1 hr 5 min 17 sec) 
Heartbeat CPU 7 instructions: 220000000 cycles: 142966841 heartbeat IPC: 1.57192 cumulative IPC: 1.48221 (Simulation time: 1 hr 5 min 25 sec) 
Heartbeat CPU 2 instructions: 170000000 cycles: 145872342 heartbeat IPC: 1.12748 cumulative IPC: 1.12334 (Simulation time: 1 hr 6 min 37 sec) 
Heartbeat CPU 0 instructions: 210000000 cycles: 146828478 heartbeat IPC: 1.33671 cumulative IPC: 1.33317 (Simulation time: 1 hr 7 min 1 sec) 
Heartbeat CPU 6 instructions: 80000000 cycles: 147303721 heartbeat IPC: 0.448654 cumulative IPC: 0.446375 (Simulation time: 1 hr 7 min 15 sec) 
Heartbeat CPU 4 instructions: 190000003 cycles: 148272004 heartbeat IPC: 1.14708 cumulative IPC: 1.19861 (Simulation time: 1 hr 7 min 44 sec) 
Heartbeat CPU 5 instructions: 160000000 cycles: 148337995 heartbeat IPC: 1.04461 cumulative IPC: 0.996655 (Simulation time: 1 hr 7 min 45 sec) 
Heartbeat CPU 7 instructions: 230000000 cycles: 149313136 heartbeat IPC: 1.57572 cumulative IPC: 1.48656 (Simulation time: 1 hr 8 min 13 sec) 
Heartbeat CPU 0 instructions: 220000000 cycles: 154309785 heartbeat IPC: 1.33666 cumulative IPC: 1.33335 (Simulation time: 1 hr 10 min 24 sec) 
Heartbeat CPU 2 instructions: 180000000 cycles: 154579383 heartbeat IPC: 1.1485 cumulative IPC: 1.12488 (Simulation time: 1 hr 10 min 32 sec) 
Heartbeat CPU 7 instructions: 240000000 cycles: 155659568 heartbeat IPC: 1.57569 cumulative IPC: 1.49053 (Simulation time: 1 hr 11 min 1 sec) 
Heartbeat CPU 4 instructions: 200000000 cycles: 156453707 heartbeat IPC: 1.22224 cumulative IPC: 1.19995 (Simulation time: 1 hr 11 min 21 sec) 
Heartbeat CPU 1 instructions: 110000001 cycles: 159026377 heartbeat IPC: 0.593401 cumulative IPC: 0.594162 (Simulation time: 1 hr 12 min 26 sec) 
Heartbeat CPU 5 instructions: 170000001 cycles: 159198518 heartbeat IPC: 0.920766 cumulative IPC: 0.991022 (Simulation time: 1 hr 12 min 30 sec) 
Heartbeat CPU 0 instructions: 230000000 cycles: 161867378 heartbeat IPC: 1.32317 cumulative IPC: 1.33283 (Simulation time: 1 hr 13 min 43 sec) 
Heartbeat CPU 7 instructions: 250000001 cycles: 162027518 heartbeat IPC: 1.57036 cumulative IPC: 1.49393 (Simulation time: 1 hr 13 min 47 sec) 
Heartbeat CPU 2 instructions: 190000000 cycles: 163332286 heartbeat IPC: 1.14248 cumulative IPC: 1.12591 (Simulation time: 1 hr 14 min 20 sec) 
Heartbeat CPU 3 instructions: 90000002 cycles: 164858860 heartbeat IPC: 0.450857 cumulative IPC: 0.458728 (Simulation time: 1 hr 14 min 59 sec) 
Heartbeat CPU 4 instructions: 210000000 cycles: 164886208 heartbeat IPC: 1.18589 cumulative IPC: 1.19917 (Simulation time: 1 hr 15 min 0 sec) 
Heartbeat CPU 5 instructions: 180000000 cycles: 168749434 heartbeat IPC: 1.04702 cumulative IPC: 0.994453 (Simulation time: 1 hr 16 min 38 sec) 
Heartbeat CPU 0 instructions: 240000000 cycles: 169348655 heartbeat IPC: 1.33667 cumulative IPC: 1.33302 (Simulation time: 1 hr 16 min 51 sec) 
Heartbeat CPU 6 instructions: 90000001 cycles: 169988006 heartbeat IPC: 0.440834 cumulative IPC: 0.445575 (Simulation time: 1 hr 17 min 6 sec) 
Heartbeat CPU 7 instructions: 260000000 cycles: 170927136 heartbeat IPC: 1.12364 cumulative IPC: 1.47308 (Simulation time: 1 hr 17 min 29 sec) 
Heartbeat CPU 2 instructions: 200000000 cycles: 172075544 heartbeat IPC: 1.14374 cumulative IPC: 1.12689 (Simulation time: 1 hr 17 min 59 sec) 
Heartbeat CPU 4 instructions: 220000000 cycles: 173493837 heartbeat IPC: 1.16176 cumulative IPC: 1.19717 (Simulation time: 1 hr 18 min 38 sec) 
Heartbeat CPU 1 instructions: 120000000 cycles: 176243577 heartbeat IPC: 0.580814 cumulative IPC: 0.592755 (Simulation time: 1 hr 19 min 47 sec) 
Heartbeat CPU 0 instructions: 250000001 cycles: 176829797 heartbeat IPC: 1.33669 cumulative IPC: 1.33319 (Simulation time: 1 hr 20 min 1 sec) 
Heartbeat CPU 7 instructions: 270000003 cycles: 178334260 heartbeat IPC: 1.35005 cumulative IPC: 1.46757 (Simulation time: 1 hr 20 min 40 sec) 
Heartbeat CPU 5 instructions: 190000000 cycles: 179199243 heartbeat IPC: 0.956955 cumulative IPC: 0.992097 (Simulation time: 1 hr 21 min 3 sec) 
Heartbeat CPU 2 instructions: 210000000 cycles: 180788512 heartbeat IPC: 1.14771 cumulative IPC: 1.12797 (Simulation time: 1 hr 21 min 49 sec) 
Heartbeat CPU 4 instructions: 230000001 cycles: 181153952 heartbeat IPC: 1.30546 cumulative IPC: 1.2021 (Simulation time: 1 hr 21 min 58 sec) 
Finished CPU 1 instructions: 100000000 cycles: 168600962 cumulative IPC: 0.593116 (Simulation time: 1 hr 22 min 6 sec) 
Heartbeat CPU 0 instructions: 260000000 cycles: 184310380 heartbeat IPC: 1.33679 cumulative IPC: 1.33334 (Simulation time: 1 hr 23 min 16 sec) 
Heartbeat CPU 7 instructions: 280000000 cycles: 186217704 heartbeat IPC: 1.26848 cumulative IPC: 1.45852 (Simulation time: 1 hr 24 min 7 sec) 
Heartbeat CPU 3 instructions: 100000000 cycles: 187120315 heartbeat IPC: 0.449207 cumulative IPC: 0.457512 (Simulation time: 1 hr 24 min 30 sec) 
Heartbeat CPU 2 instructions: 220000000 cycles: 189504198 heartbeat IPC: 1.14736 cumulative IPC: 1.12892 (Simulation time: 1 hr 25 min 27 sec) 
Heartbeat CPU 5 instructions: 200000000 cycles: 189678172 heartbeat IPC: 0.954296 cumulative IPC: 0.989856 (Simulation time: 1 hr 25 min 31 sec) 
Heartbeat CPU 4 instructions: 240000000 cycles: 190296775 heartbeat IPC: 1.09375 cumulative IPC: 1.19651 (Simulation time: 1 hr 25 min 46 sec) 
Heartbeat CPU 0 instructions: 270000000 cycles: 191790845 heartbeat IPC: 1.33682 cumulative IPC: 1.33349 (Simulation time: 1 hr 26 min 27 sec) 
Heartbeat CPU 1 instructions: 130000003 cycles: 192612541 heartbeat IPC: 0.610912 cumulative IPC: 0.594409 (Simulation time: 1 hr 26 min 49 sec) 
Heartbeat CPU 6 instructions: 100000000 cycles: 192627810 heartbeat IPC: 0.4417 cumulative IPC: 0.445087 (Simulation time: 1 hr 26 min 50 sec) 
Heartbeat CPU 7 instructions: 290000001 cycles: 194295187 heartbeat IPC: 1.23801 cumulative IPC: 1.4487 (Simulation time: 1 hr 27 min 32 sec) 
Heartbeat CPU 4 instructions: 250000002 cycles: 198091366 heartbeat IPC: 1.28294 cumulative IPC: 1.20015 (Simulation time: 1 hr 29 min 10 sec) 
Heartbeat CPU 2 instructions: 230000001 cycles: 198219065 heartbeat IPC: 1.14746 cumulative IPC: 1.1298 (Simulation time: 1 hr 29 min 14 sec) 
Heartbeat CPU 5 instructions: 210000003 cycles: 198901910 heartbeat IPC: 1.08416 cumulative IPC: 0.994533 (Simulation time: 1 hr 29 min 33 sec) 
Heartbeat CPU 0 instructions: 280000000 cycles: 199272321 heartbeat IPC: 1.33663 cumulative IPC: 1.33361 (Simulation time: 1 hr 29 min 42 sec) 
Heartbeat CPU 7 instructions: 300000000 cycles: 200853685 heartbeat IPC: 1.52474 cumulative IPC: 1.45135 (Simulation time: 1 hr 30 min 23 sec) 
Heartbeat CPU 0 instructions: 290000001 cycles: 206752537 heartbeat IPC: 1.33686 cumulative IPC: 1.33374 (Simulation time: 1 hr 32 min 59 sec) 
Heartbeat CPU 4 instructions: 260000000 cycles: 206778899 heartbeat IPC: 1.15107 cumulative IPC: 1.19795 (Simulation time: 1 hr 33 min 0 sec) 
Heartbeat CPU 2 instructions: 240000000 cycles: 206902055 heartbeat IPC: 1.15168 cumulative IPC: 1.13077 (Simulation time: 1 hr 33 min 3 sec) 
Heartbeat CPU 7 instructions: 310000002 cycles: 207269909 heartbeat IPC: 1.55855 cumulative IPC: 1.45489 (Simulation time: 1 hr 33 min 12 sec) 
Heartbeat CPU 1 instructions: 140000000 cycles: 209195208 heartbeat IPC: 0.603039 cumulative IPC: 0.595138 (Simulation time: 1 hr 34 min 1 sec) 
Heartbeat CPU 3 instructions: 110000002 cycles: 209552818 heartbeat IPC: 0.445782 cumulative IPC: 0.456174 (Simulation time: 1 hr 34 min 10 sec) 
Heartbeat CPU 5 instructions: 220000000 cycles: 210337411 heartbeat IPC: 0.87447 cumulative IPC: 0.987579 (Simulation time: 1 hr 34 min 31 sec) 
Heartbeat CPU 7 instructions: 320000000 cycles: 213689329 heartbeat IPC: 1.55777 cumulative IPC: 1.45818 (Simulation time: 1 hr 36 min 2 sec) 
Heartbeat CPU 0 instructions: 300000000 cycles: 214232896 heartbeat IPC: 1.33683 cumulative IPC: 1.33386 (Simulation time: 1 hr 36 min 16 sec) 
Heartbeat CPU 4 instructions: 270000000 cycles: 214401553 heartbeat IPC: 1.31188 cumulative IPC: 1.20226 (Simulation time: 1 hr 36 min 20 sec) 
Heartbeat CPU 6 instructions: 110000002 cycles: 214921738 heartbeat IPC: 0.448553 cumulative IPC: 0.445469 (Simulation time: 1 hr 36 min 33 sec) 
Heartbeat CPU 2 instructions: 250000003 cycles: 215621202 heartbeat IPC: 1.1469 cumulative IPC: 1.13147 (Simulation time: 1 hr 36 min 50 sec) 
Heartbeat CPU 7 instructions: 330000001 cycles: 220089808 heartbeat IPC: 1.56238 cumulative IPC: 1.4614 (Simulation time: 1 hr 38 min 47 sec) 
Heartbeat CPU 5 instructions: 230000000 cycles: 220506047 heartbeat IPC: 0.983416 cumulative IPC: 0.987375 (Simulation time: 1 hr 38 min 57 sec) 
Heartbeat CPU 0 instructions: 310000001 cycles: 221930002 heartbeat IPC: 1.29919 cumulative IPC: 1.33258 (Simulation time: 1 hr 39 min 33 sec) 
Heartbeat CPU 4 instructions: 280000000 cycles: 223077454 heartbeat IPC: 1.15262 cumulative IPC: 1.20021 (Simulation time: 1 hr 40 min 6 sec) 
Heartbeat CPU 2 instructions: 260000000 cycles: 224339800 heartbeat IPC: 1.14697 cumulative IPC: 1.13211 (Simulation time: 1 hr 40 min 42 sec) 
Heartbeat CPU 1 instructions: 150000000 cycles: 225821054 heartbeat IPC: 0.601473 cumulative IPC: 0.595632 (Simulation time: 1 hr 41 min 21 sec) 
Heartbeat CPU 7 instructions: 340000000 cycles: 226470063 heartbeat IPC: 1.56734 cumulative IPC: 1.46456 (Simulation time: 1 hr 41 min 37 sec) 
Heartbeat CPU 0 instructions: 320000000 cycles: 229411747 heartbeat IPC: 1.33659 cumulative IPC: 1.33272 (Simulation time: 1 hr 42 min 51 sec) 
Heartbeat CPU 5 instructions: 240000000 cycles: 230549669 heartbeat IPC: 0.995657 cumulative IPC: 0.987757 (Simulation time: 1 hr 43 min 23 sec) 
Heartbeat CPU 4 instructions: 290000001 cycles: 231130832 heartbeat IPC: 1.24172 cumulative IPC: 1.20174 (Simulation time: 1 hr 43 min 39 sec) 
Heartbeat CPU 3 instructions: 120000000 cycles: 232456832 heartbeat IPC: 0.436605 cumulative IPC: 0.454132 (Simulation time: 1 hr 44 min 13 sec) 
Heartbeat CPU 7 instructions: 350000002 cycles: 232846362 heartbeat IPC: 1.56831 cumulative IPC: 1.46757 (Simulation time: 1 hr 44 min 23 sec) 
Heartbeat CPU 2 instructions: 270000000 cycles: 233071492 heartbeat IPC: 1.14525 cumulative IPC: 1.13263 (Simulation time: 1 hr 44 min 29 sec) 
Finished CPU 3 instructions: 100000001 cycles: 220211680 cumulative IPC: 0.454109 (Simulation time: 1 hr 44 min 29 sec) 
Heartbeat CPU 0 instructions: 330000002 cycles: 236893457 heartbeat IPC: 1.33659 cumulative IPC: 1.33285 (Simulation time: 1 hr 46 min 10 sec) 
Heartbeat CPU 6 instructions: 120000000 cycles: 237455987 heartbeat IPC: 0.443769 cumulative IPC: 0.445299 (Simulation time: 1 hr 46 min 25 sec) 
Finished CPU 6 instructions: 100000001 cycles: 224568399 cumulative IPC: 0.445299 (Simulation time: 1 hr 46 min 25 sec) 

CPU 0 Branch Prediction Accuracy: 96.964% MPKI: 2.63288

CPU 1 Branch Prediction Accuracy: 92.3015% MPKI: 15.1001

CPU 2 Branch Prediction Accuracy: 99.5778% MPKI: 0.184881

CPU 3 Branch Prediction Accuracy: 84.4833% MPKI: 24.3851

CPU 4 Branch Prediction Accuracy: 96.6003% MPKI: 1.65023

CPU 5 Branch Prediction Accuracy: 93.2405% MPKI: 4.3577

CPU 6 Branch Prediction Accuracy: 84.9778% MPKI: 23.6763

CPU 7 Branch Prediction Accuracy: 98.2603% MPKI: 0.171462

ChampSim completed all CPUs

Total Simulation Statistics (not including warmup)

CPU 0 cumulative IPC: 1.33286 instructions: 299317196 cycles: 224568399
L1D TOTAL     ACCESS:   70235142  HIT:   70220826  MISS:      14316
L1D LOAD      ACCESS:   64478284  HIT:   64466439  MISS:      11845
L1D RFO       ACCESS:    5756858  HIT:    5754387  MISS:       2471
L1D PREFETCH  ACCESS:          0  HIT:          0  MISS:          0
L1D WRITEBACK ACCESS:          0  HIT:          0  MISS:          0
L1I TOTAL     ACCESS:   71603734  HIT:   71603625  MISS:        109
L1I LOAD      ACCESS:   71603734  HIT:   71603625  MISS:        109
L1I RFO       ACCESS:          0  HIT:          0  MISS:          0
L1I PREFETCH  ACCESS:          0  HIT:          0  MISS:          0
L1I WRITEBACK ACCESS:          0  HIT:          0  MISS:          0
L2C TOTAL     ACCESS:      37952  HIT:      34954  MISS:       2998
L2C LOAD      ACCESS:      11954  HIT:      10592  MISS:       1362
L2C RFO       ACCESS:       2470  HIT:       2363  MISS:        107
L2C PREFETCH  ACCESS:      14077  HIT:      12549  MISS:       1528
L2C WRITEBACK ACCESS:       9451  HIT:       9450  MISS:          1

Avg Lookahead Depth:	1.49403
TOTAL: 1.08399e+07	L2C: 8.64499e+06	LLC: 2.19492e+06	GOOD_L2C: 3.4331e+06
Printing all the perceptron weights to: perc_weights_0.csv
LLC TOTAL     ACCESS:       3727  HIT:        463  MISS:       3264
LLC LOAD      ACCESS:       1304  HIT:        233  MISS:       1071
LLC RFO       ACCESS:        107  HIT:         16  MISS:         91
LLC PREFETCH  ACCESS:       2229  HIT:        207  MISS:       2022
LLC WRITEBACK ACCESS:         87  HIT:          7  MISS:         80

CPU 1 cumulative IPC: 0.596007 instructions: 133844386 cycles: 224568399
L1D TOTAL     ACCESS:   35839931  HIT:   35697450  MISS:     142481
L1D LOAD      ACCESS:   25566784  HIT:   25469807  MISS:      96977
L1D RFO       ACCESS:   10273147  HIT:   10227643  MISS:      45504
L1D PREFETCH  ACCESS:          0  HIT:          0  MISS:          0
L1D WRITEBACK ACCESS:          0  HIT:          0  MISS:          0
L1I TOTAL     ACCESS:   30755699  HIT:   30753986  MISS:       1713
L1I LOAD      ACCESS:   30755699  HIT:   30753986  MISS:       1713
L1I RFO       ACCESS:          0  HIT:          0  MISS:          0
L1I PREFETCH  ACCESS:          0  HIT:          0  MISS:          0
L1I WRITEBACK ACCESS:          0  HIT:          0  MISS:          0
L2C TOTAL     ACCESS:     290960  HIT:     234199  MISS:      56761
L2C LOAD      ACCESS:      98688  HIT:      53882  MISS:      44806
L2C RFO       ACCESS:      45479  HIT:      42136  MISS:       3343
L2C PREFETCH  ACCESS:      56789  HIT:      48411  MISS:       8378
L2C WRITEBACK ACCESS:      90004  HIT:      89770  MISS:        234

Avg Lookahead Depth:	1.49403
TOTAL: 1.08399e+07	L2C: 8.64499e+06	LLC: 2.19492e+06	GOOD_L2C: 3.4331e+06
Printing all the perceptron weights to: perc_weights_0.csv
LLC TOTAL     ACCESS:     116609  HIT:      55204  MISS:      61405
LLC LOAD      ACCESS:      44796  HIT:       2875  MISS:      41921
LLC RFO       ACCESS:       3332  HIT:       1530  MISS:       1802
LLC PREFETCH  ACCESS:      24455  HIT:       7096  MISS:      17359
LLC WRITEBACK ACCESS:      44026  HIT:      43703  MISS:        323

CPU 2 cumulative IPC: 1.13281 instructions: 254393375 cycles: 224568399
L1D TOTAL     ACCESS:   98001670  HIT:   96801038  MISS:    1200632
L1D LOAD      ACCESS:   76834546  HIT:   76311598  MISS:     522948
L1D RFO       ACCESS:   21167124  HIT:   20489440  MISS:     677684
L1D PREFETCH  ACCESS:          0  HIT:          0  MISS:          0
L1D WRITEBACK ACCESS:          0  HIT:          0  MISS:          0
L1I TOTAL     ACCESS:   68822902  HIT:   68822875  MISS:         27
L1I LOAD      ACCESS:   68822902  HIT:   68822875  MISS:         27
L1I RFO       ACCESS:          0  HIT:          0  MISS:          0
L1I PREFETCH  ACCESS:          0  HIT:          0  MISS:          0
L1I WRITEBACK ACCESS:          0  HIT:          0  MISS:          0
L2C TOTAL     ACCESS:    2494355  HIT:    1745765  MISS:     748590
L2C LOAD      ACCESS:     522385  HIT:     507320  MISS:      15065
L2C RFO       ACCESS:     677684  HIT:       2596  MISS:     675088
L2C PREFETCH  ACCESS:     614287  HIT:     555927  MISS:      58360
L2C WRITEBACK ACCESS:     679999  HIT:     679922  MISS:         77

Avg Lookahead Depth:	1.49403
TOTAL: 1.08399e+07	L2C: 8.64499e+06	LLC: 2.19492e+06	GOOD_L2C: 3.4331e+06
Printing all the perceptron weights to: perc_weights_0.csv
LLC TOTAL     ACCESS:    1438864  HIT:    1374566  MISS:      64298
LLC LOAD      ACCESS:      14712  HIT:      14431  MISS:        281
LLC RFO       ACCESS:     675050  HIT:     612726  MISS:      62324
LLC PREFETCH  ACCESS:      70930  HIT:      69249  MISS:       1681
LLC WRITEBACK ACCESS:     678172  HIT:     678160  MISS:         12

CPU 3 cumulative IPC: 0.453837 instructions: 101917508 cycles: 224568399
L1D TOTAL     ACCESS:   33405346  HIT:   33180425  MISS:     224921
L1D LOAD      ACCESS:   19162632  HIT:   19043758  MISS:     118874
L1D RFO       ACCESS:   14242714  HIT:   14136667  MISS:     106047
L1D PREFETCH  ACCESS:          0  HIT:          0  MISS:          0
L1D WRITEBACK ACCESS:          0  HIT:          0  MISS:          0
L1I TOTAL     ACCESS:   22652330  HIT:   22279853  MISS:     372477
L1I LOAD      ACCESS:   22652330  HIT:   22279853  MISS:     372477
L1I RFO       ACCESS:          0  HIT:          0  MISS:          0
L1I PREFETCH  ACCESS:          0  HIT:          0  MISS:          0
L1I WRITEBACK ACCESS:          0  HIT:          0  MISS:          0
L2C TOTAL     ACCESS:    1292955  HIT:    1198412  MISS:      94543
L2C LOAD      ACCESS:     491348  HIT:     451293  MISS:      40055
L2C RFO       ACCESS:     106041  HIT:      90330  MISS:      15711
L2C PREFETCH  ACCESS:     544127  HIT:     506323  MISS:      37804
L2C WRITEBACK ACCESS:     151439  HIT:     150466  MISS:        973

Avg Lookahead Depth:	1.49403
TOTAL: 1.08399e+07	L2C: 8.64499e+06	LLC: 2.19492e+06	GOOD_L2C: 3.4331e+06
Printing all the perceptron weights to: perc_weights_0.csv
LLC TOTAL     ACCESS:     159393  HIT:     113334  MISS:      46059
LLC LOAD      ACCESS:      39327  HIT:      17648  MISS:      21679
LLC RFO       ACCESS:      15707  HIT:      14014  MISS:       1693
LLC PREFETCH  ACCESS:      62048  HIT:      39627  MISS:      22421
LLC WRITEBACK ACCESS:      42311  HIT:      42045  MISS:        266

CPU 4 cumulative IPC: 1.20257 instructions: 270060097 cycles: 224568399
L1D TOTAL     ACCESS:   59711067  HIT:   57873514  MISS:    1837553
L1D LOAD      ACCESS:   43533684  HIT:   41756961  MISS:    1776723
L1D RFO       ACCESS:   16177383  HIT:   16116553  MISS:      60830
L1D PREFETCH  ACCESS:          0  HIT:          0  MISS:          0
L1D WRITEBACK ACCESS:          0  HIT:          0  MISS:          0
L1I TOTAL     ACCESS:   67240992  HIT:   67240992  MISS:          0
L1I LOAD      ACCESS:   67240992  HIT:   67240992  MISS:          0
L1I RFO       ACCESS:          0  HIT:          0  MISS:          0
L1I PREFETCH  ACCESS:          0  HIT:          0  MISS:          0
L1I WRITEBACK ACCESS:          0  HIT:          0  MISS:          0
L2C TOTAL     ACCESS:    4360022  HIT:    4280067  MISS:      79955
L2C LOAD      ACCESS:    1776678  HIT:    1745191  MISS:      31487
L2C RFO       ACCESS:      60822  HIT:      60576  MISS:        246
L2C PREFETCH  ACCESS:    2036459  HIT:    1988268  MISS:      48191
L2C WRITEBACK ACCESS:     486063  HIT:     486032  MISS:         31

Avg Lookahead Depth:	1.49403
TOTAL: 1.08399e+07	L2C: 8.64499e+06	LLC: 2.19492e+06	GOOD_L2C: 3.4331e+06
Printing all the perceptron weights to: perc_weights_0.csv
LLC TOTAL     ACCESS:     118201  HIT:      85750  MISS:      32451
LLC LOAD      ACCESS:      23454  HIT:      16143  MISS:       7311
LLC RFO       ACCESS:        246  HIT:        244  MISS:          2
LLC PREFETCH  ACCESS:      75983  HIT:      50906  MISS:      25077
LLC WRITEBACK ACCESS:      18518  HIT:      18457  MISS:         61

CPU 5 cumulative IPC: 0.98826 instructions: 221932017 cycles: 224568399
L1D TOTAL     ACCESS:   64743756  HIT:   61367821  MISS:    3375935
L1D LOAD      ACCESS:   36539941  HIT:   33291521  MISS:    3248420
L1D RFO       ACCESS:   28203815  HIT:   28076300  MISS:     127515
L1D PREFETCH  ACCESS:          0  HIT:          0  MISS:          0
L1D WRITEBACK ACCESS:          0  HIT:          0  MISS:          0
L1I TOTAL     ACCESS:   52873471  HIT:   52873384  MISS:         87
L1I LOAD      ACCESS:   52873471  HIT:   52873384  MISS:         87
L1I RFO       ACCESS:          0  HIT:          0  MISS:          0
L1I PREFETCH  ACCESS:          0  HIT:          0  MISS:          0
L1I WRITEBACK ACCESS:          0  HIT:          0  MISS:          0
L2C TOTAL     ACCESS:    7378920  HIT:    6932686  MISS:     446234
L2C LOAD      ACCESS:    3248289  HIT:    3008684  MISS:     239605
L2C RFO       ACCESS:     127500  HIT:      99037  MISS:      28463
L2C PREFETCH  ACCESS:    3345990  HIT:    3168273  MISS:     177717
L2C WRITEBACK ACCESS:     657141  HIT:     656692  MISS:        449

Avg Lookahead Depth:	1.49403
TOTAL: 1.08399e+07	L2C: 8.64499e+06	LLC: 2.19492e+06	GOOD_L2C: 3.4331e+06
Printing all the perceptron weights to: perc_weights_0.csv
LLC TOTAL     ACCESS:     718196  HIT:     700288  MISS:      17908
LLC LOAD      ACCESS:     236656  HIT:     234928  MISS:       1728
LLC RFO       ACCESS:      28445  HIT:      20765  MISS:       7680
LLC PREFETCH  ACCESS:     290246  HIT:     281750  MISS:       8496
LLC WRITEBACK ACCESS:     162849  HIT:     162845  MISS:          4

CPU 6 cumulative IPC: 0.445299 instructions: 100000001 cycles: 224568399
L1D TOTAL     ACCESS:   33023828  HIT:   32669016  MISS:     354812
L1D LOAD      ACCESS:   18741049  HIT:   18523322  MISS:     217727
L1D RFO       ACCESS:   14282779  HIT:   14145694  MISS:     137085
L1D PREFETCH  ACCESS:          0  HIT:          0  MISS:          0
L1D WRITEBACK ACCESS:          0  HIT:          0  MISS:          0
L1I TOTAL     ACCESS:   22589201  HIT:   22257035  MISS:     332166
L1I LOAD      ACCESS:   22589201  HIT:   22257035  MISS:     332166
L1I RFO       ACCESS:          0  HIT:          0  MISS:          0
L1I PREFETCH  ACCESS:          0  HIT:          0  MISS:          0
L1I WRITEBACK ACCESS:          0  HIT:          0  MISS:          0
L2C TOTAL     ACCESS:    1467663  HIT:    1211415  MISS:     256248
L2C LOAD      ACCESS:     549892  HIT:     452212  MISS:      97680
L2C RFO       ACCESS:     137078  HIT:      98244  MISS:      38834
L2C PREFETCH  ACCESS:     568137  HIT:     450177  MISS:     117960
L2C WRITEBACK ACCESS:     212556  HIT:     210782  MISS:       1774

Avg Lookahead Depth:	1.49403
TOTAL: 1.08399e+07	L2C: 8.64499e+06	LLC: 2.19492e+06	GOOD_L2C: 3.4331e+06
Printing all the perceptron weights to: perc_weights_0.csv
LLC TOTAL     ACCESS:     395682  HIT:     331324  MISS:      64358
LLC LOAD      ACCESS:      94720  HIT:      66304  MISS:      28416
LLC RFO       ACCESS:      38831  HIT:      37548  MISS:       1283
LLC PREFETCH  ACCESS:     170663  HIT:     136023  MISS:      34640
LLC WRITEBACK ACCESS:      91468  HIT:      91449  MISS:         19

CPU 7 cumulative IPC: 1.46956 instructions: 330016328 cycles: 224568400
L1D TOTAL     ACCESS:   85252198  HIT:   83276029  MISS:    1976169
L1D LOAD      ACCESS:   41133259  HIT:   39230995  MISS:    1902264
L1D RFO       ACCESS:   44118939  HIT:   44045034  MISS:      73905
L1D PREFETCH  ACCESS:          0  HIT:          0  MISS:          0
L1D WRITEBACK ACCESS:          0  HIT:          0  MISS:          0
L1I TOTAL     ACCESS:   77523399  HIT:   77521636  MISS:       1763
L1I LOAD      ACCESS:   77523399  HIT:   77521636  MISS:       1763
L1I RFO       ACCESS:          0  HIT:          0  MISS:          0
L1I PREFETCH  ACCESS:          0  HIT:          0  MISS:          0
L1I WRITEBACK ACCESS:          0  HIT:          0  MISS:          0
L2C TOTAL     ACCESS:    4845312  HIT:    4064212  MISS:     781100
L2C LOAD      ACCESS:    1903557  HIT:    1646867  MISS:     256690
L2C RFO       ACCESS:      73905  HIT:       1990  MISS:      71915
L2C PREFETCH  ACCESS:    1993673  HIT:    1541758  MISS:     451915
L2C WRITEBACK ACCESS:     874177  HIT:     873597  MISS:        580

Avg Lookahead Depth:	1.49403
TOTAL: 1.08399e+07	L2C: 8.64499e+06	LLC: 2.19492e+06	GOOD_L2C: 3.4331e+06
Printing all the perceptron weights to: perc_weights_0.csv
LLC TOTAL     ACCESS:    1149114  HIT:     978494  MISS:     170620
LLC LOAD      ACCESS:     252368  HIT:     244564  MISS:       7804
LLC RFO       ACCESS:      71913  HIT:      28986  MISS:      42927
LLC PREFETCH  ACCESS:     544313  HIT:     424431  MISS:     119882
LLC WRITEBACK ACCESS:     280520  HIT:     280513  MISS:          7

Region of Interest Statistics

CPU 0 cumulative IPC: 1.33478 instructions: 100000002 cycles: 74918948
L1D TOTAL     ACCESS:   23484935  HIT:   23480692  MISS:       4243
L1D LOAD      ACCESS:   21582874  HIT:   21579261  MISS:       3613
L1D RFO       ACCESS:    1902061  HIT:    1901431  MISS:        630
L1D PREFETCH  ACCESS:          0  HIT:          0  MISS:          0
L1D WRITEBACK ACCESS:          0  HIT:          0  MISS:          0
L1D PREFETCH  REQUESTED:          0  ISSUED:          0  USEFUL:          0  USELESS:          0
L1I TOTAL     ACCESS:   23936992  HIT:   23936925  MISS:         67
L1I LOAD      ACCESS:   23936992  HIT:   23936925  MISS:         67
L1I RFO       ACCESS:          0  HIT:          0  MISS:          0
L1I PREFETCH  ACCESS:          0  HIT:          0  MISS:          0
L1I WRITEBACK ACCESS:          0  HIT:          0  MISS:          0
L1I PREFETCH  REQUESTED:          0  ISSUED:          0  USEFUL:          0  USELESS:          0
L2C TOTAL     ACCESS:      11259  HIT:       9944  MISS:       1315
L2C LOAD      ACCESS:       3680  HIT:       3125  MISS:        555
L2C RFO       ACCESS:        629  HIT:        523  MISS:        106
L2C PREFETCH  ACCESS:       4051  HIT:       3397  MISS:        654
L2C WRITEBACK ACCESS:       2899  HIT:       2899  MISS:          0
L2C PREFETCH  REQUESTED:      16581  ISSUED:      16581  USEFUL:       1393  USELESS:         74
LLC TOTAL     ACCESS:       1507  HIT:        140  MISS:       1367
LLC LOAD      ACCESS:        534  HIT:         67  MISS:        467
LLC RFO       ACCESS:        106  HIT:         15  MISS:         91
LLC PREFETCH  ACCESS:        866  HIT:         58  MISS:        808
LLC WRITEBACK ACCESS:          1  HIT:          0  MISS:          1
LLC PREFETCH  REQUESTED:          0  ISSUED:          0  USEFUL:      47864  USELESS:     138100
Major fault: 0 Minor fault: 122

CPU 1 cumulative IPC: 0.593116 instructions: 100000000 cycles: 168600962
L1D TOTAL     ACCESS:   26888467  HIT:   26781197  MISS:     107270
L1D LOAD      ACCESS:   19198947  HIT:   19127830  MISS:      71117
L1D RFO       ACCESS:    7689520  HIT:    7653367  MISS:      36153
L1D PREFETCH  ACCESS:          0  HIT:          0  MISS:          0
L1D WRITEBACK ACCESS:          0  HIT:          0  MISS:          0
L1D PREFETCH  REQUESTED:          0  ISSUED:          0  USEFUL:          0  USELESS:          0
L1I TOTAL     ACCESS:   23007386  HIT:   23006179  MISS:       1207
L1I LOAD      ACCESS:   23007386  HIT:   23006179  MISS:       1207
L1I RFO       ACCESS:          0  HIT:          0  MISS:          0
L1I PREFETCH  ACCESS:          0  HIT:          0  MISS:          0
L1I WRITEBACK ACCESS:          0  HIT:          0  MISS:          0
L1I PREFETCH  REQUESTED:          0  ISSUED:          0  USEFUL:          0  USELESS:          0
L2C TOTAL     ACCESS:     220199  HIT:     177323  MISS:      42876
L2C LOAD      ACCESS:      72323  HIT:      38496  MISS:      33827
L2C RFO       ACCESS:      36131  HIT:      33518  MISS:       2613
L2C PREFETCH  ACCESS:      42023  HIT:      35770  MISS:       6253
L2C WRITEBACK ACCESS:      69722  HIT:      69539  MISS:        183
L2C PREFETCH  REQUESTED:      87162  ISSUED:      87162  USEFUL:       1052  USELESS:       9160
LLC TOTAL     ACCESS:      88542  HIT:      41881  MISS:      46661
LLC LOAD      ACCESS:      33818  HIT:       2145  MISS:      31673
LLC RFO       ACCESS:       2604  HIT:       1197  MISS:       1407
LLC PREFETCH  ACCESS:      18558  HIT:       5215  MISS:      13343
LLC WRITEBACK ACCESS:      33562  HIT:      33324  MISS:        238
LLC PREFETCH  REQUESTED:          0  ISSUED:          0  USEFUL:      47864  USELESS:     138100
Major fault: 0 Minor fault: 17195

CPU 2 cumulative IPC: 1.13428 instructions: 100000000 cycles: 88161383
L1D TOTAL     ACCESS:   38513202  HIT:   38044888  MISS:     468314
L1D LOAD      ACCESS:   30199642  HIT:   29997818  MISS:     201824
L1D RFO       ACCESS:    8313560  HIT:    8047070  MISS:     266490
L1D PREFETCH  ACCESS:          0  HIT:          0  MISS:          0
L1D WRITEBACK ACCESS:          0  HIT:          0  MISS:          0
L1D PREFETCH  REQUESTED:          0  ISSUED:          0  USEFUL:          0  USELESS:          0
L1I TOTAL     ACCESS:   27054156  HIT:   27054133  MISS:         23
L1I LOAD      ACCESS:   27054156  HIT:   27054133  MISS:         23
L1I RFO       ACCESS:          0  HIT:          0  MISS:          0
L1I PREFETCH  ACCESS:          0  HIT:          0  MISS:          0
L1I WRITEBACK ACCESS:          0  HIT:          0  MISS:          0
L1I PREFETCH  REQUESTED:          0  ISSUED:          0  USEFUL:          0  USELESS:          0
L2C TOTAL     ACCESS:     970706  HIT:     676662  MISS:     294044
L2C LOAD      ACCESS:     201634  HIT:     195696  MISS:       5938
L2C RFO       ACCESS:     266490  HIT:        885  MISS:     265605
L2C PREFETCH  ACCESS:     235156  HIT:     212685  MISS:      22471
L2C WRITEBACK ACCESS:     267426  HIT:     267396  MISS:         30
L2C PREFETCH  REQUESTED:     681946  ISSUED:     681946  USEFUL:      54184  USELESS:       9542
LLC TOTAL     ACCESS:     565619  HIT:     535740  MISS:      29879
LLC LOAD      ACCESS:       5802  HIT:       5648  MISS:        154
LLC RFO       ACCESS:     265590  HIT:     236622  MISS:      28968
LLC PREFETCH  ACCESS:      27255  HIT:      26504  MISS:        751
LLC WRITEBACK ACCESS:     266972  HIT:     266966  MISS:          6
LLC PREFETCH  REQUESTED:          0  ISSUED:          0  USEFUL:      47864  USELESS:     138100
Major fault: 0 Minor fault: 1355

CPU 3 cumulative IPC: 0.454109 instructions: 100000001 cycles: 220211680
L1D TOTAL     ACCESS:   32762708  HIT:   32541371  MISS:     221337
L1D LOAD      ACCESS:   18801229  HIT:   18683971  MISS:     117258
L1D RFO       ACCESS:   13961479  HIT:   13857400  MISS:     104079
L1D PREFETCH  ACCESS:          0  HIT:          0  MISS:          0
L1D WRITEBACK ACCESS:          0  HIT:          0  MISS:          0
L1D PREFETCH  REQUESTED:          0  ISSUED:          0  USEFUL:          0  USELESS:          0
L1I TOTAL     ACCESS:   22228816  HIT:   21863594  MISS:     365222
L1I LOAD      ACCESS:   22228816  HIT:   21863594  MISS:     365222
L1I RFO       ACCESS:          0  HIT:          0  MISS:          0
L1I PREFETCH  ACCESS:          0  HIT:          0  MISS:          0
L1I WRITEBACK ACCESS:          0  HIT:          0  MISS:          0
L1I PREFETCH  REQUESTED:          0  ISSUED:          0  USEFUL:          0  USELESS:          0
L2C TOTAL     ACCESS:    1270008  HIT:    1177428  MISS:      92580
L2C LOAD      ACCESS:     482477  HIT:     443291  MISS:      39186
L2C RFO       ACCESS:     104073  HIT:      88884  MISS:      15189
L2C PREFETCH  ACCESS:     534825  HIT:     497564  MISS:      37261
L2C WRITEBACK ACCESS:     148633  HIT:     147689  MISS:        944
L2C PREFETCH  REQUESTED:     715217  ISSUED:     714900  USEFUL:      28015  USELESS:      25938
LLC TOTAL     ACCESS:     155812  HIT:     110646  MISS:      45166
LLC LOAD      ACCESS:      38461  HIT:      17238  MISS:      21223
LLC RFO       ACCESS:      15185  HIT:      13519  MISS:       1666
LLC PREFETCH  ACCESS:      61042  HIT:      39025  MISS:      22017
LLC WRITEBACK ACCESS:      41124  HIT:      40864  MISS:        260
LLC PREFETCH  REQUESTED:          0  ISSUED:          0  USEFUL:      47864  USELESS:     138100
Major fault: 0 Minor fault: 3137

CPU 4 cumulative IPC: 1.22199 instructions: 100000002 cycles: 81833780
L1D TOTAL     ACCESS:   21666433  HIT:   21048228  MISS:     618205
L1D LOAD      ACCESS:   15873925  HIT:   15278698  MISS:     595227
L1D RFO       ACCESS:    5792508  HIT:    5769530  MISS:      22978
L1D PREFETCH  ACCESS:          0  HIT:          0  MISS:          0
L1D WRITEBACK ACCESS:          0  HIT:          0  MISS:          0
L1D PREFETCH  REQUESTED:          0  ISSUED:          0  USEFUL:          0  USELESS:          0
L1I TOTAL     ACCESS:   24821405  HIT:   24821405  MISS:          0
L1I LOAD      ACCESS:   24821405  HIT:   24821405  MISS:          0
L1I RFO       ACCESS:          0  HIT:          0  MISS:          0
L1I PREFETCH  ACCESS:          0  HIT:          0  MISS:          0
L1I WRITEBACK ACCESS:          0  HIT:          0  MISS:          0
L1I PREFETCH  REQUESTED:          0  ISSUED:          0  USEFUL:          0  USELESS:          0
L2C TOTAL     ACCESS:    1452524  HIT:    1421726  MISS:      30798
L2C LOAD      ACCESS:     595212  HIT:     583338  MISS:      11874
L2C RFO       ACCESS:      22976  HIT:      22864  MISS:        112
L2C PREFETCH  ACCESS:     670612  HIT:     651811  MISS:      18801
L2C WRITEBACK ACCESS:     163724  HIT:     163713  MISS:         11
L2C PREFETCH  REQUESTED:    2303031  ISSUED:    2303031  USEFUL:      34185  USELESS:      21834
LLC TOTAL     ACCESS:      45064  HIT:      33124  MISS:      11940
LLC LOAD      ACCESS:       9004  HIT:       6372  MISS:       2632
LLC RFO       ACCESS:        112  HIT:        111  MISS:          1
LLC PREFETCH  ACCESS:      29362  HIT:      20085  MISS:       9277
LLC WRITEBACK ACCESS:       6586  HIT:       6556  MISS:         30
LLC PREFETCH  REQUESTED:          0  ISSUED:          0  USEFUL:      47864  USELESS:     138100
Major fault: 0 Minor fault: 699

CPU 5 cumulative IPC: 0.985519 instructions: 100000000 cycles: 101469418
L1D TOTAL     ACCESS:   29294067  HIT:   27709595  MISS:    1584472
L1D LOAD      ACCESS:   16545301  HIT:   15020980  MISS:    1524321
L1D RFO       ACCESS:   12748766  HIT:   12688615  MISS:      60151
L1D PREFETCH  ACCESS:          0  HIT:          0  MISS:          0
L1D WRITEBACK ACCESS:          0  HIT:          0  MISS:          0
L1D PREFETCH  REQUESTED:          0  ISSUED:          0  USEFUL:          0  USELESS:          0
L1I TOTAL     ACCESS:   23914092  HIT:   23914092  MISS:          0
L1I LOAD      ACCESS:   23914092  HIT:   23914092  MISS:          0
L1I RFO       ACCESS:          0  HIT:          0  MISS:          0
L1I PREFETCH  ACCESS:          0  HIT:          0  MISS:          0
L1I WRITEBACK ACCESS:          0  HIT:          0  MISS:          0
L1I PREFETCH  REQUESTED:          0  ISSUED:          0  USEFUL:          0  USELESS:          0
L2C TOTAL     ACCESS:    3383713  HIT:    3184134  MISS:     199579
L2C LOAD      ACCESS:    1524230  HIT:    1413411  MISS:     110819
L2C RFO       ACCESS:      60144  HIT:      47472  MISS:      12672
L2C PREFETCH  ACCESS:    1497378  HIT:    1421480  MISS:      75898
L2C WRITEBACK ACCESS:     301961  HIT:     301771  MISS:        190
L2C PREFETCH  REQUESTED:    3914571  ISSUED:    3914571  USEFUL:     149923  USELESS:      51083
LLC TOTAL     ACCESS:     324720  HIT:     317717  MISS:       7003
LLC LOAD      ACCESS:     109500  HIT:     109046  MISS:        454
LLC RFO       ACCESS:      12664  HIT:       9409  MISS:       3255
LLC PREFETCH  ACCESS:     127620  HIT:     124328  MISS:       3292
LLC WRITEBACK ACCESS:      74936  HIT:      74934  MISS:          2
LLC PREFETCH  REQUESTED:          0  ISSUED:          0  USEFUL:      47864  USELESS:     138100
Major fault: 0 Minor fault: 499

CPU 6 cumulative IPC: 0.445299 instructions: 100000001 cycles: 224568399
L1D TOTAL     ACCESS:   33023828  HIT:   32669016  MISS:     354812
L1D LOAD      ACCESS:   18741049  HIT:   18523322  MISS:     217727
L1D RFO       ACCESS:   14282779  HIT:   14145694  MISS:     137085
L1D PREFETCH  ACCESS:          0  HIT:          0  MISS:          0
L1D WRITEBACK ACCESS:          0  HIT:          0  MISS:          0
L1D PREFETCH  REQUESTED:          0  ISSUED:          0  USEFUL:          0  USELESS:          0
L1I TOTAL     ACCESS:   22589201  HIT:   22257035  MISS:     332166
L1I LOAD      ACCESS:   22589201  HIT:   22257035  MISS:     332166
L1I RFO       ACCESS:          0  HIT:          0  MISS:          0
L1I PREFETCH  ACCESS:          0  HIT:          0  MISS:          0
L1I WRITEBACK ACCESS:          0  HIT:          0  MISS:          0
L1I PREFETCH  REQUESTED:          0  ISSUED:          0  USEFUL:          0  USELESS:          0
L2C TOTAL     ACCESS:    1467663  HIT:    1211415  MISS:     256248
L2C LOAD      ACCESS:     549892  HIT:     452212  MISS:      97680
L2C RFO       ACCESS:     137078  HIT:      98244  MISS:      38834
L2C PREFETCH  ACCESS:     568137  HIT:     450177  MISS:     117960
L2C WRITEBACK ACCESS:     212556  HIT:     210782  MISS:       1774
L2C PREFETCH  REQUESTED:     761003  ISSUED:     760980  USEFUL:      84552  USELESS:      51400
LLC TOTAL     ACCESS:     395682  HIT:     331324  MISS:      64358
LLC LOAD      ACCESS:      94720  HIT:      66304  MISS:      28416
LLC RFO       ACCESS:      38831  HIT:      37548  MISS:       1283
LLC PREFETCH  ACCESS:     170663  HIT:     136023  MISS:      34640
LLC WRITEBACK ACCESS:      91468  HIT:      91449  MISS:         19
LLC PREFETCH  REQUESTED:          0  ISSUED:          0  USEFUL:      47864  USELESS:     138100
Major fault: 0 Minor fault: 3325

CPU 7 cumulative IPC: 1.4107 instructions: 100000000 cycles: 70886729
L1D TOTAL     ACCESS:   25073829  HIT:   24474053  MISS:     599776
L1D LOAD      ACCESS:   13007257  HIT:   12444434  MISS:     562823
L1D RFO       ACCESS:   12066572  HIT:   12029619  MISS:      36953
L1D PREFETCH  ACCESS:          0  HIT:          0  MISS:          0
L1D WRITEBACK ACCESS:          0  HIT:          0  MISS:          0
L1D PREFETCH  REQUESTED:          0  ISSUED:          0  USEFUL:          0  USELESS:          0
L1I TOTAL     ACCESS:   23925617  HIT:   23924691  MISS:        926
L1I LOAD      ACCESS:   23925617  HIT:   23924691  MISS:        926
L1I RFO       ACCESS:          0  HIT:          0  MISS:          0
L1I PREFETCH  ACCESS:          0  HIT:          0  MISS:          0
L1I WRITEBACK ACCESS:          0  HIT:          0  MISS:          0
L1I PREFETCH  REQUESTED:          0  ISSUED:          0  USEFUL:          0  USELESS:          0
L2C TOTAL     ACCESS:    1417006  HIT:    1127260  MISS:     289746
L2C LOAD      ACCESS:     563529  HIT:     492887  MISS:      70642
L2C RFO       ACCESS:      36953  HIT:        994  MISS:      35959
L2C PREFETCH  ACCESS:     568412  HIT:     385403  MISS:     183009
L2C WRITEBACK ACCESS:     248112  HIT:     247976  MISS:        136
L2C PREFETCH  REQUESTED:    2360403  ISSUED:    2360403  USEFUL:     413295  USELESS:      59788
LLC TOTAL     ACCESS:     411078  HIT:     329329  MISS:      81749
LLC LOAD      ACCESS:      69457  HIT:      65381  MISS:       4076
LLC RFO       ACCESS:      35957  HIT:      13122  MISS:      22835
LLC PREFETCH  ACCESS:     209049  HIT:     154215  MISS:      54834
LLC WRITEBACK ACCESS:      96615  HIT:      96611  MISS:          4
LLC PREFETCH  REQUESTED:          0  ISSUED:          0  USEFUL:      47864  USELESS:     138100
Major fault: 0 Minor fault: 1697

Avg Lookahead Depth:	1.49403
TOTAL: 1.08399e+07	L2C: 8.64499e+06	LLC: 2.19492e+06	GOOD_L2C: 3.4331e+06
Printing all the perceptron weights to: perc_weights_0.csv

Avg Lookahead Depth:	1.49403
TOTAL: 1.08399e+07	L2C: 8.64499e+06	LLC: 2.19492e+06	GOOD_L2C: 3.4331e+06
Printing all the perceptron weights to: perc_weights_0.csv

Avg Lookahead Depth:	1.49403
TOTAL: 1.08399e+07	L2C: 8.64499e+06	LLC: 2.19492e+06	GOOD_L2C: 3.4331e+06
Printing all the perceptron weights to: perc_weights_0.csv

Avg Lookahead Depth:	1.49403
TOTAL: 1.08399e+07	L2C: 8.64499e+06	LLC: 2.19492e+06	GOOD_L2C: 3.4331e+06
Printing all the perceptron weights to: perc_weights_0.csv

Avg Lookahead Depth:	1.49403
TOTAL: 1.08399e+07	L2C: 8.64499e+06	LLC: 2.19492e+06	GOOD_L2C: 3.4331e+06
Printing all the perceptron weights to: perc_weights_0.csv

Avg Lookahead Depth:	1.49403
TOTAL: 1.08399e+07	L2C: 8.64499e+06	LLC: 2.19492e+06	GOOD_L2C: 3.4331e+06
Printing all the perceptron weights to: perc_weights_0.csv

Avg Lookahead Depth:	1.49403
TOTAL: 1.08399e+07	L2C: 8.64499e+06	LLC: 2.19492e+06	GOOD_L2C: 3.4331e+06
Printing all the perceptron weights to: perc_weights_0.csv

Avg Lookahead Depth:	1.49403
TOTAL: 1.08399e+07	L2C: 8.64499e+06	LLC: 2.19492e+06	GOOD_L2C: 3.4331e+06
Printing all the perceptron weights to: perc_weights_0.csv

DRAM Statistics
 CHANNEL 0
 RQ ROW_BUFFER_HIT:      88196  ROW_BUFFER_MISS:     141053
 DBUS_CONGESTED:     215975
 WQ ROW_BUFFER_HIT:       7558  ROW_BUFFER_MISS:      85197  FULL:          0

 CHANNEL 1
 RQ ROW_BUFFER_HIT:      88271  ROW_BUFFER_MISS:     141972
 DBUS_CONGESTED:     215975
 WQ ROW_BUFFER_HIT:       7855  ROW_BUFFER_MISS:      85518  FULL:          0

 AVG_CONGESTED_CYCLE: 13
