Initialize SIGNATURE TABLE
ST_SET: 1
ST_WAY: 256
ST_TAG_BIT: 16
ST_TAG_MASK: ffff

Initialize PATTERN TABLE
PT_SET: 512
PT_WAY: 4
SIG_DELTA_BIT: 7
C_SIG_BIT: 4
C_DELTA_BIT: 4

Initialize PREFETCH FILTER
FILTER_SET: 1024

Initialize PERCEPTRON
PERC_ENTRIES: 4096
PERC_FEATURES: 9

*** ChampSim Multicore Out-of-Order Simulator ***

Warmup Instructions: 20000000
Simulation Instructions: 100000000
Number of CPUs: 8
LLC sets: 16384
LLC ways: 16
Off-chip DRAM Size: 8192 MB Channels: 2 Width: 64-bit Data Rate: 1600 MT/s

CPU 0 runs /scratch/user/djimenez/champsim-traces/speccpu2006/xz/483.xalancbmk-127B.champsimtrace.xz
CPU 1 runs /scratch/user/djimenez/champsim-traces/speccpu2006/xz/436.cactusADM-1804B.champsimtrace.xz
CPU 2 runs /scratch/user/djimenez/champsim-traces/speccpu2006/xz/444.namd-44B.champsimtrace.xz
CPU 3 runs /scratch/user/djimenez/champsim-traces/speccpu2006/xz/400.perlbench-41B.champsimtrace.xz
CPU 4 runs /scratch/user/djimenez/champsim-traces/speccpu2006/xz/453.povray-887B.champsimtrace.xz
CPU 5 runs /scratch/user/djimenez/champsim-traces/speccpu2006/xz/410.bwaves-945B.champsimtrace.xz
CPU 6 runs /scratch/user/djimenez/champsim-traces/speccpu2006/xz/459.GemsFDTD-1418B.champsimtrace.xz
CPU 7 runs /scratch/user/djimenez/champsim-traces/speccpu2006/xz/482.sphinx3-417B.champsimtrace.xz
Heartbeat CPU 5 instructions: 10000002 cycles: 3637393 heartbeat IPC: 2.74922 cumulative IPC: 2.74922 (Simulation time: 0 hr 2 min 36 sec) 
Heartbeat CPU 7 instructions: 10000000 cycles: 4171482 heartbeat IPC: 2.39723 cumulative IPC: 2.39723 (Simulation time: 0 hr 2 min 58 sec) 
Heartbeat CPU 0 instructions: 10000002 cycles: 4504365 heartbeat IPC: 2.22007 cumulative IPC: 2.22007 (Simulation time: 0 hr 3 min 12 sec) 
Heartbeat CPU 2 instructions: 10000000 cycles: 5087926 heartbeat IPC: 1.96544 cumulative IPC: 1.96544 (Simulation time: 0 hr 3 min 37 sec) 
Heartbeat CPU 4 instructions: 10000002 cycles: 6626711 heartbeat IPC: 1.50904 cumulative IPC: 1.50904 (Simulation time: 0 hr 4 min 41 sec) 
Heartbeat CPU 3 instructions: 10000002 cycles: 6689246 heartbeat IPC: 1.49494 cumulative IPC: 1.49494 (Simulation time: 0 hr 4 min 44 sec) 
Heartbeat CPU 5 instructions: 20000000 cycles: 7269164 heartbeat IPC: 2.75348 cumulative IPC: 2.75135 (Simulation time: 0 hr 5 min 9 sec) 
Heartbeat CPU 1 instructions: 10000003 cycles: 7592399 heartbeat IPC: 1.31711 cumulative IPC: 1.31711 (Simulation time: 0 hr 5 min 23 sec) 
Heartbeat CPU 6 instructions: 10000003 cycles: 7881014 heartbeat IPC: 1.26887 cumulative IPC: 1.26887 (Simulation time: 0 hr 5 min 35 sec) 
Heartbeat CPU 7 instructions: 20000000 cycles: 8218842 heartbeat IPC: 2.47075 cumulative IPC: 2.43343 (Simulation time: 0 hr 5 min 49 sec) 
Heartbeat CPU 0 instructions: 20000000 cycles: 9005299 heartbeat IPC: 2.22176 cumulative IPC: 2.22091 (Simulation time: 0 hr 6 min 23 sec) 
Heartbeat CPU 2 instructions: 20000000 cycles: 10161939 heartbeat IPC: 1.97083 cumulative IPC: 1.96813 (Simulation time: 0 hr 7 min 13 sec) 
Heartbeat CPU 5 instructions: 30000000 cycles: 10894767 heartbeat IPC: 2.75816 cumulative IPC: 0.917872 (Simulation time: 0 hr 7 min 46 sec) 
Heartbeat CPU 7 instructions: 30000001 cycles: 12032671 heartbeat IPC: 2.62204 cumulative IPC: 0.831071 (Simulation time: 0 hr 8 min 35 sec) 
Heartbeat CPU 4 instructions: 20000000 cycles: 13242151 heartbeat IPC: 1.51161 cumulative IPC: 1.51033 (Simulation time: 0 hr 9 min 27 sec) 
Heartbeat CPU 3 instructions: 20000000 cycles: 13304349 heartbeat IPC: 1.51169 cumulative IPC: 1.50327 (Simulation time: 0 hr 9 min 30 sec) 
Heartbeat CPU 0 instructions: 30000002 cycles: 13551770 heartbeat IPC: 2.19951 cumulative IPC: 0.737911 (Simulation time: 0 hr 9 min 41 sec) 
Heartbeat CPU 5 instructions: 40000000 cycles: 14523813 heartbeat IPC: 2.75555 cumulative IPC: 1.37705 (Simulation time: 0 hr 10 min 23 sec) 
Heartbeat CPU 1 instructions: 20000000 cycles: 15234333 heartbeat IPC: 1.30857 cumulative IPC: 1.31282 (Simulation time: 0 hr 10 min 55 sec) 
Heartbeat CPU 2 instructions: 30000000 cycles: 15256407 heartbeat IPC: 1.96291 cumulative IPC: 0.655462 (Simulation time: 0 hr 10 min 56 sec) 
Heartbeat CPU 6 instructions: 20000000 cycles: 15761039 heartbeat IPC: 1.26903 cumulative IPC: 1.26895 (Simulation time: 0 hr 11 min 18 sec) 

Warmup complete CPU 0 instructions: 34968468 cycles: 15761045 (Simulation time: 0 hr 11 min 18 sec) 
Warmup complete CPU 1 instructions: 20693980 cycles: 15761045 (Simulation time: 0 hr 11 min 18 sec) 
Warmup complete CPU 2 instructions: 30991157 cycles: 15761045 (Simulation time: 0 hr 11 min 18 sec) 
Warmup complete CPU 3 instructions: 24080302 cycles: 15761045 (Simulation time: 0 hr 11 min 18 sec) 
Warmup complete CPU 4 instructions: 23801406 cycles: 15761045 (Simulation time: 0 hr 11 min 18 sec) 
Warmup complete CPU 5 instructions: 43404012 cycles: 15761045 (Simulation time: 0 hr 11 min 18 sec) 
Warmup complete CPU 6 instructions: 20000002 cycles: 15761045 (Simulation time: 0 hr 11 min 18 sec) 
Warmup complete CPU 7 instructions: 39717090 cycles: 15761044 (Simulation time: 0 hr 11 min 18 sec) 

Heartbeat CPU 7 instructions: 40000000 cycles: 16136862 heartbeat IPC: 2.43653 cumulative IPC: 0.752785 (Simulation time: 0 hr 11 min 26 sec) 
Heartbeat CPU 5 instructions: 50000000 cycles: 23154484 heartbeat IPC: 1.15866 cumulative IPC: 0.892141 (Simulation time: 0 hr 14 min 9 sec) 
Heartbeat CPU 2 instructions: 40000000 cycles: 24399173 heartbeat IPC: 1.09376 cumulative IPC: 1.04292 (Simulation time: 0 hr 14 min 39 sec) 
Heartbeat CPU 7 instructions: 50000001 cycles: 24411584 heartbeat IPC: 1.2085 cumulative IPC: 1.1887 (Simulation time: 0 hr 14 min 39 sec) 
Heartbeat CPU 3 instructions: 30000000 cycles: 26383908 heartbeat IPC: 0.764552 cumulative IPC: 0.55726 (Simulation time: 0 hr 15 min 23 sec) 
Heartbeat CPU 0 instructions: 40000000 cycles: 28670773 heartbeat IPC: 0.661419 cumulative IPC: 0.389747 (Simulation time: 0 hr 16 min 18 sec) 
Heartbeat CPU 6 instructions: 30000002 cycles: 29452297 heartbeat IPC: 0.730393 cumulative IPC: 0.730393 (Simulation time: 0 hr 16 min 36 sec) 
Heartbeat CPU 4 instructions: 30000000 cycles: 30486731 heartbeat IPC: 0.579892 cumulative IPC: 0.420938 (Simulation time: 0 hr 16 min 59 sec) 
Heartbeat CPU 2 instructions: 50000002 cycles: 33908488 heartbeat IPC: 1.0516 cumulative IPC: 1.04747 (Simulation time: 0 hr 18 min 20 sec) 
Heartbeat CPU 7 instructions: 60000000 cycles: 34270803 heartbeat IPC: 1.01428 cumulative IPC: 1.0958 (Simulation time: 0 hr 18 min 28 sec) 
Heartbeat CPU 5 instructions: 60000000 cycles: 34386055 heartbeat IPC: 0.890347 cumulative IPC: 0.891059 (Simulation time: 0 hr 18 min 30 sec) 
Heartbeat CPU 1 instructions: 30000001 cycles: 34688707 heartbeat IPC: 0.514023 cumulative IPC: 0.491662 (Simulation time: 0 hr 18 min 37 sec) 
Heartbeat CPU 6 instructions: 40000000 cycles: 43268824 heartbeat IPC: 0.723771 cumulative IPC: 0.727067 (Simulation time: 0 hr 21 min 49 sec) 
Heartbeat CPU 2 instructions: 60000000 cycles: 43424858 heartbeat IPC: 1.05082 cumulative IPC: 1.04862 (Simulation time: 0 hr 21 min 53 sec) 
Heartbeat CPU 7 instructions: 70000002 cycles: 44550068 heartbeat IPC: 0.972832 cumulative IPC: 1.05189 (Simulation time: 0 hr 22 min 18 sec) 
Heartbeat CPU 5 instructions: 70000002 cycles: 45582501 heartbeat IPC: 0.893141 cumulative IPC: 0.891841 (Simulation time: 0 hr 22 min 40 sec) 
Heartbeat CPU 3 instructions: 40000000 cycles: 46387525 heartbeat IPC: 0.49991 cumulative IPC: 0.519802 (Simulation time: 0 hr 22 min 58 sec) 
Heartbeat CPU 2 instructions: 70000000 cycles: 52935607 heartbeat IPC: 1.05144 cumulative IPC: 1.04934 (Simulation time: 0 hr 25 min 25 sec) 
Heartbeat CPU 4 instructions: 40000000 cycles: 54279390 heartbeat IPC: 0.420298 cumulative IPC: 0.420542 (Simulation time: 0 hr 25 min 55 sec) 
Heartbeat CPU 1 instructions: 40000000 cycles: 54992329 heartbeat IPC: 0.492523 cumulative IPC: 0.492108 (Simulation time: 0 hr 26 min 12 sec) 
Heartbeat CPU 7 instructions: 80000000 cycles: 55057952 heartbeat IPC: 0.951666 cumulative IPC: 1.02509 (Simulation time: 0 hr 26 min 14 sec) 
Heartbeat CPU 5 instructions: 80000000 cycles: 56724998 heartbeat IPC: 0.897465 cumulative IPC: 0.893371 (Simulation time: 0 hr 26 min 47 sec) 
Heartbeat CPU 6 instructions: 50000002 cycles: 57190605 heartbeat IPC: 0.718299 cumulative IPC: 0.724121 (Simulation time: 0 hr 26 min 57 sec) 
Heartbeat CPU 0 instructions: 50000000 cycles: 59740392 heartbeat IPC: 0.321858 cumulative IPC: 0.341786 (Simulation time: 0 hr 27 min 46 sec) 
Heartbeat CPU 2 instructions: 80000000 cycles: 62389708 heartbeat IPC: 1.05774 cumulative IPC: 1.05105 (Simulation time: 0 hr 28 min 42 sec) 
Heartbeat CPU 3 instructions: 50000000 cycles: 66250515 heartbeat IPC: 0.503449 cumulative IPC: 0.513368 (Simulation time: 0 hr 29 min 56 sec) 
Heartbeat CPU 7 instructions: 90000003 cycles: 67384207 heartbeat IPC: 0.811277 cumulative IPC: 0.974038 (Simulation time: 0 hr 30 min 18 sec) 
Heartbeat CPU 5 instructions: 90000000 cycles: 67907949 heartbeat IPC: 0.894218 cumulative IPC: 0.893552 (Simulation time: 0 hr 30 min 30 sec) 
Heartbeat CPU 6 instructions: 60000000 cycles: 71068481 heartbeat IPC: 0.720571 cumulative IPC: 0.72323 (Simulation time: 0 hr 31 min 34 sec) 
Heartbeat CPU 2 instructions: 90000000 cycles: 71813694 heartbeat IPC: 1.06112 cumulative IPC: 1.05274 (Simulation time: 0 hr 31 min 49 sec) 
Heartbeat CPU 4 instructions: 50000001 cycles: 78041022 heartbeat IPC: 0.420847 cumulative IPC: 0.420658 (Simulation time: 0 hr 34 min 11 sec) 
Heartbeat CPU 7 instructions: 100000000 cycles: 78422876 heartbeat IPC: 0.905906 cumulative IPC: 0.962036 (Simulation time: 0 hr 34 min 19 sec) 
Heartbeat CPU 5 instructions: 100000000 cycles: 79118461 heartbeat IPC: 0.89202 cumulative IPC: 0.893281 (Simulation time: 0 hr 34 min 34 sec) 
Heartbeat CPU 2 instructions: 100000000 cycles: 81319681 heartbeat IPC: 1.05197 cumulative IPC: 1.05263 (Simulation time: 0 hr 35 min 22 sec) 
Heartbeat CPU 3 instructions: 60000000 cycles: 83101661 heartbeat IPC: 0.593431 cumulative IPC: 0.533403 (Simulation time: 0 hr 36 min 3 sec) 
Heartbeat CPU 6 instructions: 70000001 cycles: 85028738 heartbeat IPC: 0.716319 cumulative IPC: 0.721837 (Simulation time: 0 hr 36 min 46 sec) 
Heartbeat CPU 0 instructions: 60000000 cycles: 88627423 heartbeat IPC: 0.346176 cumulative IPC: 0.343527 (Simulation time: 0 hr 38 min 4 sec) 
Heartbeat CPU 1 instructions: 50000000 cycles: 89454541 heartbeat IPC: 0.290173 cumulative IPC: 0.397674 (Simulation time: 0 hr 38 min 23 sec) 
Heartbeat CPU 7 instructions: 110000002 cycles: 90194564 heartbeat IPC: 0.849496 cumulative IPC: 0.944237 (Simulation time: 0 hr 38 min 41 sec) 
Heartbeat CPU 5 instructions: 110000000 cycles: 90317623 heartbeat IPC: 0.892924 cumulative IPC: 0.893228 (Simulation time: 0 hr 38 min 44 sec) 
Heartbeat CPU 2 instructions: 110000000 cycles: 90773480 heartbeat IPC: 1.05778 cumulative IPC: 1.05328 (Simulation time: 0 hr 38 min 55 sec) 
Heartbeat CPU 6 instructions: 80000000 cycles: 98946529 heartbeat IPC: 0.718505 cumulative IPC: 0.72128 (Simulation time: 0 hr 41 min 56 sec) 
Heartbeat CPU 2 instructions: 120000000 cycles: 100222378 heartbeat IPC: 1.05832 cumulative IPC: 1.05384 (Simulation time: 0 hr 42 min 23 sec) 
Heartbeat CPU 7 instructions: 120000000 cycles: 101386046 heartbeat IPC: 0.893537 cumulative IPC: 0.937611 (Simulation time: 0 hr 42 min 50 sec) 
Heartbeat CPU 5 instructions: 120000000 cycles: 101472959 heartbeat IPC: 0.896432 cumulative IPC: 0.893645 (Simulation time: 0 hr 42 min 52 sec) 
Heartbeat CPU 4 instructions: 60000000 cycles: 101805049 heartbeat IPC: 0.420804 cumulative IPC: 0.420699 (Simulation time: 0 hr 43 min 0 sec) 
Heartbeat CPU 3 instructions: 70000002 cycles: 102509123 heartbeat IPC: 0.515266 cumulative IPC: 0.529345 (Simulation time: 0 hr 43 min 16 sec) 
Heartbeat CPU 2 instructions: 130000000 cycles: 109685345 heartbeat IPC: 1.05675 cumulative IPC: 1.05413 (Simulation time: 0 hr 45 min 57 sec) 
Heartbeat CPU 1 instructions: 60000000 cycles: 109774434 heartbeat IPC: 0.492129 cumulative IPC: 0.41809 (Simulation time: 0 hr 45 min 59 sec) 
Finished CPU 2 instructions: 100000003 cycles: 94858595 cumulative IPC: 1.0542 (Simulation time: 0 hr 46 min 17 sec) 
Heartbeat CPU 7 instructions: 130000001 cycles: 112249194 heartbeat IPC: 0.920544 cumulative IPC: 0.935689 (Simulation time: 0 hr 46 min 54 sec) 
Heartbeat CPU 5 instructions: 130000002 cycles: 112660970 heartbeat IPC: 0.893814 cumulative IPC: 0.893664 (Simulation time: 0 hr 47 min 4 sec) 
Heartbeat CPU 6 instructions: 90000003 cycles: 112799745 heartbeat IPC: 0.721854 cumulative IPC: 0.721362 (Simulation time: 0 hr 47 min 8 sec) 
Heartbeat CPU 2 instructions: 140000000 cycles: 119204849 heartbeat IPC: 1.05047 cumulative IPC: 1.0538 (Simulation time: 0 hr 49 min 22 sec) 
Heartbeat CPU 3 instructions: 80000000 cycles: 120797584 heartbeat IPC: 0.546793 cumulative IPC: 0.532383 (Simulation time: 0 hr 49 min 53 sec) 
Heartbeat CPU 0 instructions: 70000002 cycles: 121138931 heartbeat IPC: 0.307583 cumulative IPC: 0.332437 (Simulation time: 0 hr 50 min 0 sec) 
Finished CPU 7 instructions: 100000001 cycles: 106975492 cumulative IPC: 0.934794 (Simulation time: 0 hr 50 min 31 sec) 
Heartbeat CPU 7 instructions: 140000000 cycles: 123106489 heartbeat IPC: 0.92104 cumulative IPC: 0.934207 (Simulation time: 0 hr 50 min 38 sec) 
Heartbeat CPU 5 instructions: 140000000 cycles: 123901995 heartbeat IPC: 0.889598 cumulative IPC: 0.893242 (Simulation time: 0 hr 50 min 55 sec) 
Heartbeat CPU 4 instructions: 70000000 cycles: 125550670 heartbeat IPC: 0.42113 cumulative IPC: 0.420792 (Simulation time: 0 hr 51 min 28 sec) 
Heartbeat CPU 6 instructions: 100000000 cycles: 126691208 heartbeat IPC: 0.719866 cumulative IPC: 0.721174 (Simulation time: 0 hr 51 min 51 sec) 
Finished CPU 5 instructions: 100000001 cycles: 111950460 cumulative IPC: 0.893252 (Simulation time: 0 hr 52 min 11 sec) 
Heartbeat CPU 2 instructions: 150000002 cycles: 128629625 heartbeat IPC: 1.06103 cumulative IPC: 1.0544 (Simulation time: 0 hr 52 min 29 sec) 
Heartbeat CPU 7 instructions: 150000000 cycles: 133724231 heartbeat IPC: 0.94182 cumulative IPC: 0.934893 (Simulation time: 0 hr 54 min 19 sec) 
Heartbeat CPU 5 instructions: 150000002 cycles: 135087513 heartbeat IPC: 0.894013 cumulative IPC: 0.893314 (Simulation time: 0 hr 54 min 51 sec) 
Heartbeat CPU 2 instructions: 160000000 cycles: 138244381 heartbeat IPC: 1.04007 cumulative IPC: 1.05328 (Simulation time: 0 hr 56 min 1 sec) 
Heartbeat CPU 3 instructions: 90000001 cycles: 139509870 heartbeat IPC: 0.534408 cumulative IPC: 0.53269 (Simulation time: 0 hr 56 min 29 sec) 
Heartbeat CPU 6 instructions: 110000001 cycles: 140662433 heartbeat IPC: 0.715757 cumulative IPC: 0.720568 (Simulation time: 0 hr 56 min 56 sec) 
Heartbeat CPU 1 instructions: 70000000 cycles: 144073125 heartbeat IPC: 0.291556 cumulative IPC: 0.384266 (Simulation time: 0 hr 58 min 12 sec) 
Heartbeat CPU 7 instructions: 160000000 cycles: 144613178 heartbeat IPC: 0.918362 cumulative IPC: 0.933496 (Simulation time: 0 hr 58 min 24 sec) 
Heartbeat CPU 5 instructions: 160000000 cycles: 146393135 heartbeat IPC: 0.884516 cumulative IPC: 0.892552 (Simulation time: 0 hr 59 min 6 sec) 
Heartbeat CPU 2 instructions: 170000002 cycles: 147727533 heartbeat IPC: 1.0545 cumulative IPC: 1.05336 (Simulation time: 0 hr 59 min 35 sec) 
Heartbeat CPU 4 instructions: 80000000 cycles: 149297326 heartbeat IPC: 0.421112 cumulative IPC: 0.420849 (Simulation time: 1 hr 0 min 10 sec) 
Heartbeat CPU 0 instructions: 80000000 cycles: 151129656 heartbeat IPC: 0.333436 cumulative IPC: 0.332659 (Simulation time: 1 hr 0 min 53 sec) 
Heartbeat CPU 6 instructions: 120000000 cycles: 154510553 heartbeat IPC: 0.72212 cumulative IPC: 0.720723 (Simulation time: 1 hr 2 min 8 sec) 
Finished CPU 6 instructions: 100000000 cycles: 138749525 cumulative IPC: 0.720723 (Simulation time: 1 hr 2 min 8 sec) 
Heartbeat CPU 7 instructions: 170000002 cycles: 155143338 heartbeat IPC: 0.949653 cumulative IPC: 0.934716 (Simulation time: 1 hr 2 min 21 sec) 
Heartbeat CPU 2 instructions: 180000000 cycles: 157299088 heartbeat IPC: 1.04476 cumulative IPC: 1.05278 (Simulation time: 1 hr 3 min 11 sec) 
Heartbeat CPU 5 instructions: 170000002 cycles: 157671339 heartbeat IPC: 0.886666 cumulative IPC: 0.892085 (Simulation time: 1 hr 3 min 19 sec) 
Heartbeat CPU 3 instructions: 100000000 cycles: 158589791 heartbeat IPC: 0.524111 cumulative IPC: 0.531544 (Simulation time: 1 hr 3 min 39 sec) 
Heartbeat CPU 1 instructions: 80000000 cycles: 164814683 heartbeat IPC: 0.482124 cumulative IPC: 0.397884 (Simulation time: 1 hr 6 min 2 sec) 
Heartbeat CPU 7 instructions: 180000000 cycles: 165690227 heartbeat IPC: 0.948147 cumulative IPC: 0.935661 (Simulation time: 1 hr 6 min 21 sec) 
Heartbeat CPU 2 instructions: 190000003 cycles: 166840003 heartbeat IPC: 1.04812 cumulative IPC: 1.05249 (Simulation time: 1 hr 6 min 48 sec) 
Heartbeat CPU 6 instructions: 130000003 cycles: 168412373 heartbeat IPC: 0.71933 cumulative IPC: 0.720596 (Simulation time: 1 hr 7 min 24 sec) 
Heartbeat CPU 5 instructions: 180000000 cycles: 168893560 heartbeat IPC: 0.891089 cumulative IPC: 0.892012 (Simulation time: 1 hr 7 min 35 sec) 
Heartbeat CPU 4 instructions: 90000001 cycles: 173313742 heartbeat IPC: 0.416382 cumulative IPC: 0.420168 (Simulation time: 1 hr 9 min 14 sec) 
Heartbeat CPU 7 instructions: 190000000 cycles: 176087608 heartbeat IPC: 0.961781 cumulative IPC: 0.937355 (Simulation time: 1 hr 10 min 12 sec) 
Heartbeat CPU 3 instructions: 110000000 cycles: 176291250 heartbeat IPC: 0.564925 cumulative IPC: 0.535224 (Simulation time: 1 hr 10 min 16 sec) 
Heartbeat CPU 2 instructions: 200000000 cycles: 176392014 heartbeat IPC: 1.0469 cumulative IPC: 1.05216 (Simulation time: 1 hr 10 min 18 sec) 
Heartbeat CPU 5 instructions: 190000001 cycles: 180071287 heartbeat IPC: 0.894636 cumulative IPC: 0.89219 (Simulation time: 1 hr 11 min 33 sec) 
Heartbeat CPU 6 instructions: 140000000 cycles: 180281670 heartbeat IPC: 0.84251 cumulative IPC: 0.729392 (Simulation time: 1 hr 11 min 37 sec) 
Heartbeat CPU 0 instructions: 90000001 cycles: 182740185 heartbeat IPC: 0.31635 cumulative IPC: 0.329571 (Simulation time: 1 hr 12 min 25 sec) 
Heartbeat CPU 2 instructions: 210000001 cycles: 185943907 heartbeat IPC: 1.04691 cumulative IPC: 1.05186 (Simulation time: 1 hr 13 min 31 sec) 
Heartbeat CPU 7 instructions: 200000000 cycles: 186410760 heartbeat IPC: 0.968696 cumulative IPC: 0.939251 (Simulation time: 1 hr 13 min 40 sec) 
Heartbeat CPU 5 instructions: 200000000 cycles: 191304587 heartbeat IPC: 0.89021 cumulative IPC: 0.892063 (Simulation time: 1 hr 15 min 19 sec) 
Heartbeat CPU 6 instructions: 150000003 cycles: 193398701 heartbeat IPC: 0.762368 cumulative IPC: 0.731827 (Simulation time: 1 hr 16 min 6 sec) 
Heartbeat CPU 2 instructions: 220000000 cycles: 195404923 heartbeat IPC: 1.05697 cumulative IPC: 1.05213 (Simulation time: 1 hr 16 min 52 sec) 
Heartbeat CPU 3 instructions: 120000000 cycles: 195889508 heartbeat IPC: 0.510249 cumulative IPC: 0.532507 (Simulation time: 1 hr 17 min 3 sec) 
Heartbeat CPU 7 instructions: 210000000 cycles: 196463110 heartbeat IPC: 0.994792 cumulative IPC: 0.942341 (Simulation time: 1 hr 17 min 16 sec) 
Heartbeat CPU 4 instructions: 100000000 cycles: 197590552 heartbeat IPC: 0.411916 cumulative IPC: 0.419066 (Simulation time: 1 hr 17 min 43 sec) 
Heartbeat CPU 1 instructions: 90000003 cycles: 199190422 heartbeat IPC: 0.290903 cumulative IPC: 0.377835 (Simulation time: 1 hr 18 min 20 sec) 
Heartbeat CPU 5 instructions: 210000000 cycles: 202500875 heartbeat IPC: 0.893153 cumulative IPC: 0.892129 (Simulation time: 1 hr 19 min 36 sec) 
Finished CPU 3 instructions: 100000001 cycles: 189018753 cumulative IPC: 0.529048 (Simulation time: 1 hr 20 min 27 sec) 
Heartbeat CPU 2 instructions: 230000000 cycles: 204935003 heartbeat IPC: 1.04931 cumulative IPC: 1.05199 (Simulation time: 1 hr 20 min 30 sec) 
Heartbeat CPU 7 instructions: 220000000 cycles: 205508109 heartbeat IPC: 1.10558 cumulative IPC: 0.950122 (Simulation time: 1 hr 20 min 44 sec) 
Heartbeat CPU 6 instructions: 160000000 cycles: 207268683 heartbeat IPC: 0.720981 cumulative IPC: 0.731041 (Simulation time: 1 hr 21 min 25 sec) 
Heartbeat CPU 0 instructions: 100000000 cycles: 211405289 heartbeat IPC: 0.348856 cumulative IPC: 0.332397 (Simulation time: 1 hr 23 min 1 sec) 
Heartbeat CPU 5 instructions: 220000000 cycles: 213661736 heartbeat IPC: 0.895988 cumulative IPC: 0.892347 (Simulation time: 1 hr 23 min 55 sec) 
Heartbeat CPU 7 instructions: 230000002 cycles: 214183368 heartbeat IPC: 1.1527 cumulative IPC: 0.958979 (Simulation time: 1 hr 24 min 6 sec) 
Heartbeat CPU 2 instructions: 240000000 cycles: 214434617 heartbeat IPC: 1.05267 cumulative IPC: 1.05202 (Simulation time: 1 hr 24 min 12 sec) 
Heartbeat CPU 3 instructions: 130000001 cycles: 216763369 heartbeat IPC: 0.479068 cumulative IPC: 0.526958 (Simulation time: 1 hr 25 min 7 sec) 
Heartbeat CPU 4 instructions: 110000000 cycles: 216967729 heartbeat IPC: 0.516071 cumulative IPC: 0.428408 (Simulation time: 1 hr 25 min 12 sec) 
Heartbeat CPU 1 instructions: 100000000 cycles: 219504989 heartbeat IPC: 0.492257 cumulative IPC: 0.389244 (Simulation time: 1 hr 26 min 8 sec) 
Heartbeat CPU 6 instructions: 170000003 cycles: 221143929 heartbeat IPC: 0.720708 cumulative IPC: 0.730343 (Simulation time: 1 hr 26 min 47 sec) 
Heartbeat CPU 7 instructions: 240000000 cycles: 223797319 heartbeat IPC: 1.04015 cumulative IPC: 0.962731 (Simulation time: 1 hr 27 min 45 sec) 
Heartbeat CPU 2 instructions: 250000000 cycles: 223911993 heartbeat IPC: 1.05514 cumulative IPC: 1.05216 (Simulation time: 1 hr 27 min 47 sec) 
Heartbeat CPU 5 instructions: 230000001 cycles: 224892988 heartbeat IPC: 0.890373 cumulative IPC: 0.892241 (Simulation time: 1 hr 28 min 10 sec) 
Heartbeat CPU 7 instructions: 250000003 cycles: 233313655 heartbeat IPC: 1.05082 cumulative IPC: 0.966584 (Simulation time: 1 hr 31 min 19 sec) 
Heartbeat CPU 2 instructions: 260000000 cycles: 233415571 heartbeat IPC: 1.05224 cumulative IPC: 1.05217 (Simulation time: 1 hr 31 min 22 sec) 
Heartbeat CPU 6 instructions: 180000000 cycles: 234890674 heartbeat IPC: 0.727445 cumulative IPC: 0.730161 (Simulation time: 1 hr 31 min 55 sec) 
Heartbeat CPU 3 instructions: 140000000 cycles: 235354343 heartbeat IPC: 0.537895 cumulative IPC: 0.527884 (Simulation time: 1 hr 32 min 4 sec) 
Heartbeat CPU 5 instructions: 240000000 cycles: 236345723 heartbeat IPC: 0.873154 cumulative IPC: 0.89125 (Simulation time: 1 hr 32 min 24 sec) 
Heartbeat CPU 4 instructions: 120000000 cycles: 238933834 heartbeat IPC: 0.455247 cumulative IPC: 0.43105 (Simulation time: 1 hr 33 min 16 sec) 
Heartbeat CPU 2 instructions: 270000001 cycles: 242899669 heartbeat IPC: 1.0544 cumulative IPC: 1.05226 (Simulation time: 1 hr 34 min 35 sec) 
Heartbeat CPU 7 instructions: 260000000 cycles: 243146226 heartbeat IPC: 1.01703 cumulative IPC: 0.968765 (Simulation time: 1 hr 34 min 40 sec) 
Heartbeat CPU 0 instructions: 110000003 cycles: 244546070 heartbeat IPC: 0.301743 cumulative IPC: 0.327956 (Simulation time: 1 hr 35 min 10 sec) 
Heartbeat CPU 5 instructions: 250000002 cycles: 247634116 heartbeat IPC: 0.885866 cumulative IPC: 0.890987 (Simulation time: 1 hr 36 min 10 sec) 
Finished CPU 4 instructions: 100000000 cycles: 232416004 cumulative IPC: 0.430263 (Simulation time: 1 hr 36 min 22 sec) 
Heartbeat CPU 6 instructions: 190000003 cycles: 248757760 heartbeat IPC: 0.721132 cumulative IPC: 0.729624 (Simulation time: 1 hr 36 min 34 sec) 
Heartbeat CPU 7 instructions: 270000002 cycles: 252035896 heartbeat IPC: 1.1249 cumulative IPC: 0.97464 (Simulation time: 1 hr 37 min 42 sec) 
Heartbeat CPU 2 instructions: 280000000 cycles: 252487451 heartbeat IPC: 1.04299 cumulative IPC: 1.05188 (Simulation time: 1 hr 37 min 53 sec) 
Heartbeat CPU 1 instructions: 110000001 cycles: 253841260 heartbeat IPC: 0.291237 cumulative IPC: 0.375109 (Simulation time: 1 hr 38 min 22 sec) 
Heartbeat CPU 3 instructions: 150000000 cycles: 253987298 heartbeat IPC: 0.536683 cumulative IPC: 0.528572 (Simulation time: 1 hr 38 min 25 sec) 
Heartbeat CPU 5 instructions: 260000000 cycles: 258981555 heartbeat IPC: 0.881256 cumulative IPC: 0.890533 (Simulation time: 1 hr 40 min 16 sec) 
Heartbeat CPU 7 instructions: 280000000 cycles: 261548993 heartbeat IPC: 1.05118 cumulative IPC: 0.977602 (Simulation time: 1 hr 41 min 15 sec) 
Heartbeat CPU 2 instructions: 290000001 cycles: 261957434 heartbeat IPC: 1.05597 cumulative IPC: 1.05204 (Simulation time: 1 hr 41 min 23 sec) 
Heartbeat CPU 6 instructions: 200000000 cycles: 262626362 heartbeat IPC: 0.721053 cumulative IPC: 0.729142 (Simulation time: 1 hr 41 min 37 sec) 
Heartbeat CPU 4 instructions: 130000003 cycles: 263278872 heartbeat IPC: 0.410761 cumulative IPC: 0.429054 (Simulation time: 1 hr 41 min 52 sec) 
Heartbeat CPU 5 instructions: 270000003 cycles: 270194636 heartbeat IPC: 0.891816 cumulative IPC: 0.89059 (Simulation time: 1 hr 44 min 24 sec) 
Heartbeat CPU 7 instructions: 290000000 cycles: 270770913 heartbeat IPC: 1.08437 cumulative IPC: 0.981464 (Simulation time: 1 hr 44 min 38 sec) 
Heartbeat CPU 2 instructions: 300000000 cycles: 271581700 heartbeat IPC: 1.03904 cumulative IPC: 1.05155 (Simulation time: 1 hr 44 min 57 sec) 
Heartbeat CPU 3 instructions: 160000000 cycles: 272167323 heartbeat IPC: 0.550054 cumulative IPC: 0.530095 (Simulation time: 1 hr 45 min 10 sec) 
Heartbeat CPU 1 instructions: 120000000 cycles: 274250080 heartbeat IPC: 0.489984 cumulative IPC: 0.384179 (Simulation time: 1 hr 45 min 55 sec) 
Finished CPU 1 instructions: 100000000 cycles: 259870681 cumulative IPC: 0.384807 (Simulation time: 1 hr 46 min 27 sec) 
Heartbeat CPU 0 instructions: 120000000 cycles: 275892941 heartbeat IPC: 0.319011 cumulative IPC: 0.326879 (Simulation time: 1 hr 46 min 32 sec) 
Heartbeat CPU 6 instructions: 210000000 cycles: 276386153 heartbeat IPC: 0.726755 cumulative IPC: 0.729016 (Simulation time: 1 hr 46 min 42 sec) 
Heartbeat CPU 7 instructions: 300000000 cycles: 279625129 heartbeat IPC: 1.12941 cumulative IPC: 0.986428 (Simulation time: 1 hr 47 min 53 sec) 
Heartbeat CPU 2 instructions: 310000003 cycles: 281089463 heartbeat IPC: 1.05177 cumulative IPC: 1.05156 (Simulation time: 1 hr 48 min 25 sec) 
Heartbeat CPU 5 instructions: 280000000 cycles: 281511372 heartbeat IPC: 0.883647 cumulative IPC: 0.890294 (Simulation time: 1 hr 48 min 35 sec) 
Heartbeat CPU 4 instructions: 140000000 cycles: 287632142 heartbeat IPC: 0.410622 cumulative IPC: 0.427403 (Simulation time: 1 hr 50 min 51 sec) 
Heartbeat CPU 7 instructions: 310000003 cycles: 289324793 heartbeat IPC: 1.03096 cumulative IPC: 0.988007 (Simulation time: 1 hr 51 min 25 sec) 
Heartbeat CPU 6 instructions: 220000000 cycles: 290273436 heartbeat IPC: 0.720083 cumulative IPC: 0.728565 (Simulation time: 1 hr 51 min 45 sec) 
Heartbeat CPU 2 instructions: 320000000 cycles: 290649734 heartbeat IPC: 1.046 cumulative IPC: 1.05137 (Simulation time: 1 hr 51 min 53 sec) 
Heartbeat CPU 5 instructions: 290000001 cycles: 292812989 heartbeat IPC: 0.884829 cumulative IPC: 0.890071 (Simulation time: 1 hr 52 min 39 sec) 
Heartbeat CPU 3 instructions: 170000001 cycles: 296505441 heartbeat IPC: 0.410878 cumulative IPC: 0.51976 (Simulation time: 1 hr 53 min 52 sec) 
Heartbeat CPU 1 instructions: 130000000 cycles: 298651383 heartbeat IPC: 0.409814 cumulative IPC: 0.38639 (Simulation time: 1 hr 54 min 31 sec) 
Heartbeat CPU 7 instructions: 320000000 cycles: 299260312 heartbeat IPC: 1.00649 cumulative IPC: 0.988655 (Simulation time: 1 hr 54 min 42 sec) 
Heartbeat CPU 2 instructions: 330000000 cycles: 300233298 heartbeat IPC: 1.04345 cumulative IPC: 1.0511 (Simulation time: 1 hr 55 min 2 sec) 
Heartbeat CPU 6 instructions: 230000002 cycles: 304155475 heartbeat IPC: 0.720355 cumulative IPC: 0.728169 (Simulation time: 1 hr 56 min 15 sec) 
Heartbeat CPU 5 instructions: 300000000 cycles: 304388462 heartbeat IPC: 0.863895 cumulative IPC: 0.889022 (Simulation time: 1 hr 56 min 20 sec) 
Heartbeat CPU 0 instructions: 130000001 cycles: 308444747 heartbeat IPC: 0.307203 cumulative IPC: 0.32469 (Simulation time: 1 hr 57 min 39 sec) 
Heartbeat CPU 7 instructions: 330000002 cycles: 308836585 heartbeat IPC: 1.04425 cumulative IPC: 0.990471 (Simulation time: 1 hr 57 min 48 sec) 
Heartbeat CPU 2 instructions: 340000000 cycles: 309741837 heartbeat IPC: 1.05169 cumulative IPC: 1.05112 (Simulation time: 1 hr 58 min 7 sec) 
Heartbeat CPU 4 instructions: 150000001 cycles: 312009272 heartbeat IPC: 0.410221 cumulative IPC: 0.425989 (Simulation time: 1 hr 58 min 53 sec) 
Heartbeat CPU 5 instructions: 310000002 cycles: 315587042 heartbeat IPC: 0.892971 cumulative IPC: 0.889169 (Simulation time: 2 hr 0 min 11 sec) 
Heartbeat CPU 6 instructions: 240000000 cycles: 317965059 heartbeat IPC: 0.724135 cumulative IPC: 0.727985 (Simulation time: 2 hr 1 min 4 sec) 
Heartbeat CPU 7 instructions: 340000000 cycles: 317996527 heartbeat IPC: 1.09171 cumulative IPC: 0.99354 (Simulation time: 2 hr 1 min 5 sec) 
Heartbeat CPU 2 instructions: 350000003 cycles: 319337521 heartbeat IPC: 1.04214 cumulative IPC: 1.05084 (Simulation time: 2 hr 1 min 32 sec) 
Heartbeat CPU 3 instructions: 180000000 cycles: 323009414 heartbeat IPC: 0.377302 cumulative IPC: 0.507471 (Simulation time: 2 hr 2 min 51 sec) 
Finished CPU 0 instructions: 100000001 cycles: 307349400 cumulative IPC: 0.325363 (Simulation time: 2 hr 2 min 53 sec) 

CPU 0 Branch Prediction Accuracy: 99.101% MPKI: 2.02125

CPU 1 Branch Prediction Accuracy: 99.1703% MPKI: 0.0105004

CPU 2 Branch Prediction Accuracy: 96.0898% MPKI: 1.24187

CPU 3 Branch Prediction Accuracy: 97.6724% MPKI: 4.26522

CPU 4 Branch Prediction Accuracy: 97.6276% MPKI: 2.27257

CPU 5 Branch Prediction Accuracy: 94.2758% MPKI: 5.76261

CPU 6 Branch Prediction Accuracy: 99.522% MPKI: 0.0255094

CPU 7 Branch Prediction Accuracy: 97.2024% MPKI: 2.47024

ChampSim completed all CPUs

Total Simulation Statistics (not including warmup)

CPU 0 cumulative IPC: 0.325363 instructions: 100000001 cycles: 307349400
L1D TOTAL     ACCESS:   20623326  HIT:   17827523  MISS:    2795803
L1D LOAD      ACCESS:   17229127  HIT:   14452512  MISS:    2776615
L1D RFO       ACCESS:    3394199  HIT:    3375011  MISS:      19188
L1D PREFETCH  ACCESS:          0  HIT:          0  MISS:          0
L1D WRITEBACK ACCESS:          0  HIT:          0  MISS:          0
L1I TOTAL     ACCESS:   32738937  HIT:   32607024  MISS:     131913
L1I LOAD      ACCESS:   32738937  HIT:   32607024  MISS:     131913
L1I RFO       ACCESS:          0  HIT:          0  MISS:          0
L1I PREFETCH  ACCESS:          0  HIT:          0  MISS:          0
L1I WRITEBACK ACCESS:          0  HIT:          0  MISS:          0
L2C TOTAL     ACCESS:    5339117  HIT:    1520498  MISS:    3818619
L2C LOAD      ACCESS:    2908523  HIT:     878482  MISS:    2030041
L2C RFO       ACCESS:      19188  HIT:       8464  MISS:      10724
L2C PREFETCH  ACCESS:    2365860  HIT:     589164  MISS:    1776696
L2C WRITEBACK ACCESS:      45546  HIT:      44388  MISS:       1158

Avg Lookahead Depth:	2.12042
TOTAL: 2.66869e+07	L2C: 1.93101e+07	LLC: 7.37681e+06	GOOD_L2C: 1.01948e+07
Printing all the perceptron weights to: perc_weights_0.csv
LLC TOTAL     ACCESS:    4561367  HIT:    1122558  MISS:    3438809
LLC LOAD      ACCESS:    1846265  HIT:     469514  MISS:    1376751
LLC RFO       ACCESS:      10671  HIT:       3223  MISS:       7448
LLC PREFETCH  ACCESS:    2682390  HIT:     627909  MISS:    2054481
LLC WRITEBACK ACCESS:      22041  HIT:      21912  MISS:        129

CPU 1 cumulative IPC: 0.377938 instructions: 116158992 cycles: 307349400
L1D TOTAL     ACCESS:   60842721  HIT:   59920261  MISS:     922460
L1D LOAD      ACCESS:   41456198  HIT:   40706025  MISS:     750173
L1D RFO       ACCESS:   19386523  HIT:   19214236  MISS:     172287
L1D PREFETCH  ACCESS:          0  HIT:          0  MISS:          0
L1D WRITEBACK ACCESS:          0  HIT:          0  MISS:          0
L1I TOTAL     ACCESS:   33191737  HIT:   33191737  MISS:          0
L1I LOAD      ACCESS:   33191737  HIT:   33191737  MISS:          0
L1I RFO       ACCESS:          0  HIT:          0  MISS:          0
L1I PREFETCH  ACCESS:          0  HIT:          0  MISS:          0
L1I WRITEBACK ACCESS:          0  HIT:          0  MISS:          0
L2C TOTAL     ACCESS:    1983311  HIT:    1386599  MISS:     596712
L2C LOAD      ACCESS:     750173  HIT:     596201  MISS:     153972
L2C RFO       ACCESS:     172287  HIT:         97  MISS:     172190
L2C PREFETCH  ACCESS:     880677  HIT:     610253  MISS:     270424
L2C WRITEBACK ACCESS:     180174  HIT:     180048  MISS:        126

Avg Lookahead Depth:	2.12042
TOTAL: 2.66869e+07	L2C: 1.93101e+07	LLC: 7.37681e+06	GOOD_L2C: 1.01948e+07
Printing all the perceptron weights to: perc_weights_0.csv
LLC TOTAL     ACCESS:     986580  HIT:     390623  MISS:     595957
LLC LOAD      ACCESS:     144904  HIT:      78151  MISS:      66753
LLC RFO       ACCESS:     172190  HIT:         83  MISS:     172107
LLC PREFETCH  ACCESS:     497021  HIT:     140171  MISS:     356850
LLC WRITEBACK ACCESS:     172465  HIT:     172218  MISS:        247

CPU 2 cumulative IPC: 1.0508 instructions: 322964088 cycles: 307349400
L1D TOTAL     ACCESS:   86780944  HIT:   83344502  MISS:    3436442
L1D LOAD      ACCESS:   55928762  HIT:   52597141  MISS:    3331621
L1D RFO       ACCESS:   30852182  HIT:   30747361  MISS:     104821
L1D PREFETCH  ACCESS:          0  HIT:          0  MISS:          0
L1D WRITEBACK ACCESS:          0  HIT:          0  MISS:          0
L1I TOTAL     ACCESS:   82475241  HIT:   82475241  MISS:          0
L1I LOAD      ACCESS:   82475241  HIT:   82475241  MISS:          0
L1I RFO       ACCESS:          0  HIT:          0  MISS:          0
L1I PREFETCH  ACCESS:          0  HIT:          0  MISS:          0
L1I WRITEBACK ACCESS:          0  HIT:          0  MISS:          0
L2C TOTAL     ACCESS:    8906847  HIT:    8885504  MISS:      21343
L2C LOAD      ACCESS:    3331541  HIT:    3322995  MISS:       8546
L2C RFO       ACCESS:     104796  HIT:     104765  MISS:         31
L2C PREFETCH  ACCESS:    4401122  HIT:    4388356  MISS:      12766
L2C WRITEBACK ACCESS:    1069388  HIT:    1069388  MISS:          0

Avg Lookahead Depth:	2.12042
TOTAL: 2.66869e+07	L2C: 1.93101e+07	LLC: 7.37681e+06	GOOD_L2C: 1.01948e+07
Printing all the perceptron weights to: perc_weights_0.csv
LLC TOTAL     ACCESS:      36942  HIT:       6983  MISS:      29959
LLC LOAD      ACCESS:       6433  HIT:       1062  MISS:       5371
LLC RFO       ACCESS:         31  HIT:         20  MISS:         11
LLC PREFETCH  ACCESS:      24297  HIT:       5886  MISS:      18411
LLC WRITEBACK ACCESS:       6181  HIT:         15  MISS:       6166

CPU 3 cumulative IPC: 0.507369 instructions: 155939517 cycles: 307349400
L1D TOTAL     ACCESS:   48702784  HIT:   48510632  MISS:     192152
L1D LOAD      ACCESS:   27353993  HIT:   27180036  MISS:     173957
L1D RFO       ACCESS:   21348791  HIT:   21330596  MISS:      18195
L1D PREFETCH  ACCESS:          0  HIT:          0  MISS:          0
L1D WRITEBACK ACCESS:          0  HIT:          0  MISS:          0
L1I TOTAL     ACCESS:   45540801  HIT:   45394682  MISS:     146119
L1I LOAD      ACCESS:   45540801  HIT:   45394682  MISS:     146119
L1I RFO       ACCESS:          0  HIT:          0  MISS:          0
L1I PREFETCH  ACCESS:          0  HIT:          0  MISS:          0
L1I WRITEBACK ACCESS:          0  HIT:          0  MISS:          0
L2C TOTAL     ACCESS:     745459  HIT:     583109  MISS:     162350
L2C LOAD      ACCESS:     320069  HIT:     244507  MISS:      75562
L2C RFO       ACCESS:      18195  HIT:      10901  MISS:       7294
L2C PREFETCH  ACCESS:     352305  HIT:     273762  MISS:      78543
L2C WRITEBACK ACCESS:      54890  HIT:      53939  MISS:        951

Avg Lookahead Depth:	2.12042
TOTAL: 2.66869e+07	L2C: 1.93101e+07	LLC: 7.37681e+06	GOOD_L2C: 1.01948e+07
Printing all the perceptron weights to: perc_weights_0.csv
LLC TOTAL     ACCESS:     235329  HIT:     116450  MISS:     118879
LLC LOAD      ACCESS:      73336  HIT:      34109  MISS:      39227
LLC RFO       ACCESS:       7290  HIT:       2947  MISS:       4343
LLC PREFETCH  ACCESS:     132139  HIT:      60822  MISS:      71317
LLC WRITEBACK ACCESS:      22564  HIT:      18572  MISS:       3992

CPU 4 cumulative IPC: 0.425424 instructions: 130753755 cycles: 307349400
L1D TOTAL     ACCESS:   49021993  HIT:   46929560  MISS:    2092433
L1D LOAD      ACCESS:   30001677  HIT:   28211172  MISS:    1790505
L1D RFO       ACCESS:   19020316  HIT:   18718388  MISS:     301928
L1D PREFETCH  ACCESS:          0  HIT:          0  MISS:          0
L1D WRITEBACK ACCESS:          0  HIT:          0  MISS:          0
L1I TOTAL     ACCESS:   42502602  HIT:   41962039  MISS:     540563
L1I LOAD      ACCESS:   42502602  HIT:   41962039  MISS:     540563
L1I RFO       ACCESS:          0  HIT:          0  MISS:          0
L1I PREFETCH  ACCESS:          0  HIT:          0  MISS:          0
L1I WRITEBACK ACCESS:          0  HIT:          0  MISS:          0
L2C TOTAL     ACCESS:    5726319  HIT:    5684335  MISS:      41984
L2C LOAD      ACCESS:    2331069  HIT:    2310984  MISS:      20085
L2C RFO       ACCESS:     301928  HIT:     301604  MISS:        324
L2C PREFETCH  ACCESS:    2675931  HIT:    2654387  MISS:      21544
L2C WRITEBACK ACCESS:     417391  HIT:     417360  MISS:         31

Avg Lookahead Depth:	2.12042
TOTAL: 2.66869e+07	L2C: 1.93101e+07	LLC: 7.37681e+06	GOOD_L2C: 1.01948e+07
Printing all the perceptron weights to: perc_weights_0.csv
LLC TOTAL     ACCESS:      73026  HIT:      52820  MISS:      20206
LLC LOAD      ACCESS:      19798  HIT:      17940  MISS:       1858
LLC RFO       ACCESS:        324  HIT:        132  MISS:        192
LLC PREFETCH  ACCESS:      52542  HIT:      34558  MISS:      17984
LLC WRITEBACK ACCESS:        362  HIT:        190  MISS:        172

CPU 5 cumulative IPC: 0.889264 instructions: 273314839 cycles: 307349400
L1D TOTAL     ACCESS:   62215529  HIT:   62204590  MISS:      10939
L1D LOAD      ACCESS:   34297358  HIT:   34295451  MISS:       1907
L1D RFO       ACCESS:   27918171  HIT:   27909139  MISS:       9032
L1D PREFETCH  ACCESS:          0  HIT:          0  MISS:          0
L1D WRITEBACK ACCESS:          0  HIT:          0  MISS:          0
L1I TOTAL     ACCESS:   67988971  HIT:   67988971  MISS:          0
L1I LOAD      ACCESS:   67988971  HIT:   67988971  MISS:          0
L1I RFO       ACCESS:          0  HIT:          0  MISS:          0
L1I PREFETCH  ACCESS:          0  HIT:          0  MISS:          0
L1I WRITEBACK ACCESS:          0  HIT:          0  MISS:          0
L2C TOTAL     ACCESS:      22704  HIT:      12880  MISS:       9824
L2C LOAD      ACCESS:       1907  HIT:       1761  MISS:        146
L2C RFO       ACCESS:       9032  HIT:        177  MISS:       8855
L2C PREFETCH  ACCESS:       2610  HIT:       1830  MISS:        780
L2C WRITEBACK ACCESS:       9155  HIT:       9112  MISS:         43

Avg Lookahead Depth:	2.12042
TOTAL: 2.66869e+07	L2C: 1.93101e+07	LLC: 7.37681e+06	GOOD_L2C: 1.01948e+07
Printing all the perceptron weights to: perc_weights_0.csv
LLC TOTAL     ACCESS:      15683  HIT:        323  MISS:      15360
LLC LOAD      ACCESS:        145  HIT:         46  MISS:         99
LLC RFO       ACCESS:       8855  HIT:         20  MISS:       8835
LLC PREFETCH  ACCESS:       1088  HIT:        240  MISS:        848
LLC WRITEBACK ACCESS:       5595  HIT:         17  MISS:       5578

CPU 6 cumulative IPC: 0.727905 instructions: 223721040 cycles: 307349400
L1D TOTAL     ACCESS:  130453189  HIT:  128563382  MISS:    1889807
L1D LOAD      ACCESS:  117522465  HIT:  115632875  MISS:    1889590
L1D RFO       ACCESS:   12930724  HIT:   12930507  MISS:        217
L1D PREFETCH  ACCESS:          0  HIT:          0  MISS:          0
L1D WRITEBACK ACCESS:          0  HIT:          0  MISS:          0
L1I TOTAL     ACCESS:   61934682  HIT:   61934554  MISS:        128
L1I LOAD      ACCESS:   61934682  HIT:   61934554  MISS:        128
L1I RFO       ACCESS:          0  HIT:          0  MISS:          0
L1I PREFETCH  ACCESS:          0  HIT:          0  MISS:          0
L1I WRITEBACK ACCESS:          0  HIT:          0  MISS:          0
L2C TOTAL     ACCESS:    5622967  HIT:    3979459  MISS:    1643508
L2C LOAD      ACCESS:    1889369  HIT:    1835043  MISS:      54326
L2C RFO       ACCESS:        186  HIT:        172  MISS:         14
L2C PREFETCH  ACCESS:    2890238  HIT:    1301147  MISS:    1589091
L2C WRITEBACK ACCESS:     843174  HIT:     843097  MISS:         77

Avg Lookahead Depth:	2.12042
TOTAL: 2.66869e+07	L2C: 1.93101e+07	LLC: 7.37681e+06	GOOD_L2C: 1.01948e+07
Printing all the perceptron weights to: perc_weights_0.csv
LLC TOTAL     ACCESS:    2841731  HIT:    1243630  MISS:    1598101
LLC LOAD      ACCESS:      53954  HIT:       9154  MISS:      44800
LLC RFO       ACCESS:         14  HIT:          8  MISS:          6
LLC PREFETCH  ACCESS:    1954384  HIT:     401120  MISS:    1553264
LLC WRITEBACK ACCESS:     833379  HIT:     833348  MISS:         31

CPU 7 cumulative IPC: 0.994439 instructions: 305640249 cycles: 307349401
L1D TOTAL     ACCESS:   57774100  HIT:   51994563  MISS:    5779537
L1D LOAD      ACCESS:   49850261  HIT:   44400048  MISS:    5450213
L1D RFO       ACCESS:    7923839  HIT:    7594515  MISS:     329324
L1D PREFETCH  ACCESS:          0  HIT:          0  MISS:          0
L1D WRITEBACK ACCESS:          0  HIT:          0  MISS:          0
L1I TOTAL     ACCESS:   80529178  HIT:   80528804  MISS:        374
L1I LOAD      ACCESS:   80529178  HIT:   80528804  MISS:        374
L1I RFO       ACCESS:          0  HIT:          0  MISS:          0
L1I PREFETCH  ACCESS:          0  HIT:          0  MISS:          0
L1I WRITEBACK ACCESS:          0  HIT:          0  MISS:          0
L2C TOTAL     ACCESS:   12047532  HIT:    6750247  MISS:    5297285
L2C LOAD      ACCESS:    5450586  HIT:    4318464  MISS:    1132122
L2C RFO       ACCESS:     329288  HIT:      58286  MISS:     271002
L2C PREFETCH  ACCESS:    5728830  HIT:    1835581  MISS:    3893249
L2C WRITEBACK ACCESS:     538828  HIT:     537916  MISS:        912

Avg Lookahead Depth:	2.12042
TOTAL: 2.66869e+07	L2C: 1.93101e+07	LLC: 7.37681e+06	GOOD_L2C: 1.01948e+07
Printing all the perceptron weights to: perc_weights_0.csv
LLC TOTAL     ACCESS:    6539728  HIT:    5322205  MISS:    1217523
LLC LOAD      ACCESS:    1083144  HIT:     891796  MISS:     191348
LLC RFO       ACCESS:     270985  HIT:     244534  MISS:      26451
LLC PREFETCH  ACCESS:    4737515  HIT:    3737798  MISS:     999717
LLC WRITEBACK ACCESS:     448084  HIT:     448077  MISS:          7

Region of Interest Statistics

CPU 0 cumulative IPC: 0.325363 instructions: 100000001 cycles: 307349400
L1D TOTAL     ACCESS:   20623326  HIT:   17827523  MISS:    2795803
L1D LOAD      ACCESS:   17229127  HIT:   14452512  MISS:    2776615
L1D RFO       ACCESS:    3394199  HIT:    3375011  MISS:      19188
L1D PREFETCH  ACCESS:          0  HIT:          0  MISS:          0
L1D WRITEBACK ACCESS:          0  HIT:          0  MISS:          0
L1D PREFETCH  REQUESTED:          0  ISSUED:          0  USEFUL:          0  USELESS:          0
L1I TOTAL     ACCESS:   32738937  HIT:   32607024  MISS:     131913
L1I LOAD      ACCESS:   32738937  HIT:   32607024  MISS:     131913
L1I RFO       ACCESS:          0  HIT:          0  MISS:          0
L1I PREFETCH  ACCESS:          0  HIT:          0  MISS:          0
L1I WRITEBACK ACCESS:          0  HIT:          0  MISS:          0
L1I PREFETCH  REQUESTED:          0  ISSUED:          0  USEFUL:          0  USELESS:          0
L2C TOTAL     ACCESS:    5339117  HIT:    1520498  MISS:    3818619
L2C LOAD      ACCESS:    2908523  HIT:     878482  MISS:    2030041
L2C RFO       ACCESS:      19188  HIT:       8464  MISS:      10724
L2C PREFETCH  ACCESS:    2365860  HIT:     589164  MISS:    1776696
L2C WRITEBACK ACCESS:      45546  HIT:      44388  MISS:       1158
L2C PREFETCH  REQUESTED:    5143025  ISSUED:    5142077  USEFUL:    1118285  USELESS:    1368148
LLC TOTAL     ACCESS:    4561367  HIT:    1122558  MISS:    3438809
LLC LOAD      ACCESS:    1846265  HIT:     469514  MISS:    1376751
LLC RFO       ACCESS:      10671  HIT:       3223  MISS:       7448
LLC PREFETCH  ACCESS:    2682390  HIT:     627909  MISS:    2054481
LLC WRITEBACK ACCESS:      22041  HIT:      21912  MISS:        129
LLC PREFETCH  REQUESTED:          0  ISSUED:          0  USEFUL:     501675  USELESS:    5627283
Major fault: 0 Minor fault: 21544

CPU 1 cumulative IPC: 0.384807 instructions: 100000000 cycles: 259870681
L1D TOTAL     ACCESS:   52366008  HIT:   51584358  MISS:     781650
L1D LOAD      ACCESS:   35737337  HIT:   35097042  MISS:     640295
L1D RFO       ACCESS:   16628671  HIT:   16487316  MISS:     141355
L1D PREFETCH  ACCESS:          0  HIT:          0  MISS:          0
L1D WRITEBACK ACCESS:          0  HIT:          0  MISS:          0
L1D PREFETCH  REQUESTED:          0  ISSUED:          0  USEFUL:          0  USELESS:          0
L1I TOTAL     ACCESS:   28576152  HIT:   28576152  MISS:          0
L1I LOAD      ACCESS:   28576152  HIT:   28576152  MISS:          0
L1I RFO       ACCESS:          0  HIT:          0  MISS:          0
L1I PREFETCH  ACCESS:          0  HIT:          0  MISS:          0
L1I WRITEBACK ACCESS:          0  HIT:          0  MISS:          0
L1I PREFETCH  REQUESTED:          0  ISSUED:          0  USEFUL:          0  USELESS:          0
L2C TOTAL     ACCESS:    1685382  HIT:    1185032  MISS:     500350
L2C LOAD      ACCESS:     640295  HIT:     511561  MISS:     128734
L2C RFO       ACCESS:     141355  HIT:         77  MISS:     141278
L2C PREFETCH  ACCESS:     755646  HIT:     525410  MISS:     230236
L2C WRITEBACK ACCESS:     148086  HIT:     147984  MISS:        102
L2C PREFETCH  REQUESTED:    1300421  ISSUED:    1300218  USEFUL:     308903  USELESS:       1726
LLC TOTAL     ACCESS:     826725  HIT:     327049  MISS:     499676
LLC LOAD      ACCESS:     120460  HIT:      66340  MISS:      54120
LLC RFO       ACCESS:     141278  HIT:         58  MISS:     141220
LLC PREFETCH  ACCESS:     423476  HIT:     119346  MISS:     304130
LLC WRITEBACK ACCESS:     141511  HIT:     141305  MISS:        206
LLC PREFETCH  REQUESTED:          0  ISSUED:          0  USEFUL:     501675  USELESS:    5627283
Major fault: 0 Minor fault: 6210

CPU 2 cumulative IPC: 1.0542 instructions: 100000003 cycles: 94858595
L1D TOTAL     ACCESS:   26752627  HIT:   25706682  MISS:    1045945
L1D LOAD      ACCESS:   17236683  HIT:   16225179  MISS:    1011504
L1D RFO       ACCESS:    9515944  HIT:    9481503  MISS:      34441
L1D PREFETCH  ACCESS:          0  HIT:          0  MISS:          0
L1D WRITEBACK ACCESS:          0  HIT:          0  MISS:          0
L1D PREFETCH  REQUESTED:          0  ISSUED:          0  USEFUL:          0  USELESS:          0
L1I TOTAL     ACCESS:   25494740  HIT:   25494740  MISS:          0
L1I LOAD      ACCESS:   25494740  HIT:   25494740  MISS:          0
L1I RFO       ACCESS:          0  HIT:          0  MISS:          0
L1I PREFETCH  ACCESS:          0  HIT:          0  MISS:          0
L1I WRITEBACK ACCESS:          0  HIT:          0  MISS:          0
L1I PREFETCH  REQUESTED:          0  ISSUED:          0  USEFUL:          0  USELESS:          0
L2C TOTAL     ACCESS:    2675888  HIT:    2667696  MISS:       8192
L2C LOAD      ACCESS:    1011470  HIT:    1008423  MISS:       3047
L2C RFO       ACCESS:      34436  HIT:      34419  MISS:         17
L2C PREFETCH  ACCESS:    1310820  HIT:    1305692  MISS:       5128
L2C WRITEBACK ACCESS:     319162  HIT:     319162  MISS:          0
L2C PREFETCH  REQUESTED:    4896617  ISSUED:    4896617  USEFUL:      10182  USELESS:       4179
LLC TOTAL     ACCESS:      14107  HIT:       2852  MISS:      11255
LLC LOAD      ACCESS:       2376  HIT:        389  MISS:       1987
LLC RFO       ACCESS:         17  HIT:         12  MISS:          5
LLC PREFETCH  ACCESS:       9662  HIT:       2439  MISS:       7223
LLC WRITEBACK ACCESS:       2052  HIT:         12  MISS:       2040
LLC PREFETCH  REQUESTED:          0  ISSUED:          0  USEFUL:     501675  USELESS:    5627283
Major fault: 0 Minor fault: 505

CPU 3 cumulative IPC: 0.529048 instructions: 100000001 cycles: 189018753
L1D TOTAL     ACCESS:   30312313  HIT:   30293360  MISS:      18953
L1D LOAD      ACCESS:   17071891  HIT:   17053752  MISS:      18139
L1D RFO       ACCESS:   13240422  HIT:   13239608  MISS:        814
L1D PREFETCH  ACCESS:          0  HIT:          0  MISS:          0
L1D WRITEBACK ACCESS:          0  HIT:          0  MISS:          0
L1D PREFETCH  REQUESTED:          0  ISSUED:          0  USEFUL:          0  USELESS:          0
L1I TOTAL     ACCESS:   29141255  HIT:   29126904  MISS:      14351
L1I LOAD      ACCESS:   29141255  HIT:   29126904  MISS:      14351
L1I RFO       ACCESS:          0  HIT:          0  MISS:          0
L1I PREFETCH  ACCESS:          0  HIT:          0  MISS:          0
L1I WRITEBACK ACCESS:          0  HIT:          0  MISS:          0
L1I PREFETCH  REQUESTED:          0  ISSUED:          0  USEFUL:          0  USELESS:          0
L2C TOTAL     ACCESS:      69253  HIT:      46365  MISS:      22888
L2C LOAD      ACCESS:      32490  HIT:      21244  MISS:      11246
L2C RFO       ACCESS:        814  HIT:        289  MISS:        525
L2C PREFETCH  ACCESS:      33842  HIT:      22767  MISS:      11075
L2C WRITEBACK ACCESS:       2107  HIT:       2065  MISS:         42
L2C PREFETCH  REQUESTED:     814469  ISSUED:     814279  USEFUL:      72376  USELESS:      92153
LLC TOTAL     ACCESS:      30522  HIT:       2851  MISS:      27671
LLC LOAD      ACCESS:      10825  HIT:       1347  MISS:       9478
LLC RFO       ACCESS:        525  HIT:         28  MISS:        497
LLC PREFETCH  ACCESS:      16968  HIT:       1448  MISS:      15520
LLC WRITEBACK ACCESS:       2204  HIT:         28  MISS:       2176
LLC PREFETCH  REQUESTED:          0  ISSUED:          0  USEFUL:     501675  USELESS:    5627283
Major fault: 0 Minor fault: 4634

CPU 4 cumulative IPC: 0.430263 instructions: 100000000 cycles: 232416004
L1D TOTAL     ACCESS:   37265743  HIT:   35698142  MISS:    1567601
L1D LOAD      ACCESS:   22783243  HIT:   21434310  MISS:    1348933
L1D RFO       ACCESS:   14482500  HIT:   14263832  MISS:     218668
L1D PREFETCH  ACCESS:          0  HIT:          0  MISS:          0
L1D WRITEBACK ACCESS:          0  HIT:          0  MISS:          0
L1D PREFETCH  REQUESTED:          0  ISSUED:          0  USEFUL:          0  USELESS:          0
L1I TOTAL     ACCESS:   32340329  HIT:   31911010  MISS:     429319
L1I LOAD      ACCESS:   32340329  HIT:   31911010  MISS:     429319
L1I RFO       ACCESS:          0  HIT:          0  MISS:          0
L1I PREFETCH  ACCESS:          0  HIT:          0  MISS:          0
L1I WRITEBACK ACCESS:          0  HIT:          0  MISS:          0
L1I PREFETCH  REQUESTED:          0  ISSUED:          0  USEFUL:          0  USELESS:          0
L2C TOTAL     ACCESS:    4320791  HIT:    4289245  MISS:      31546
L2C LOAD      ACCESS:    1778252  HIT:    1762641  MISS:      15611
L2C RFO       ACCESS:     218668  HIT:     218376  MISS:        292
L2C PREFETCH  ACCESS:    2016320  HIT:    2000700  MISS:      15620
L2C WRITEBACK ACCESS:     307551  HIT:     307528  MISS:         23
L2C PREFETCH  REQUESTED:    3327383  ISSUED:    3327112  USEFUL:       4221  USELESS:      21117
LLC TOTAL     ACCESS:      54200  HIT:      39376  MISS:      14824
LLC LOAD      ACCESS:      15361  HIT:      14074  MISS:       1287
LLC RFO       ACCESS:        292  HIT:        109  MISS:        183
LLC PREFETCH  ACCESS:      38268  HIT:      25033  MISS:      13235
LLC WRITEBACK ACCESS:        279  HIT:        160  MISS:        119
LLC PREFETCH  REQUESTED:          0  ISSUED:          0  USEFUL:     501675  USELESS:    5627283
Major fault: 0 Minor fault: 189

CPU 5 cumulative IPC: 0.893252 instructions: 100000001 cycles: 111950460
L1D TOTAL     ACCESS:   22818122  HIT:   22817022  MISS:       1100
L1D LOAD      ACCESS:   12640212  HIT:   12640013  MISS:        199
L1D RFO       ACCESS:   10177910  HIT:   10177009  MISS:        901
L1D PREFETCH  ACCESS:          0  HIT:          0  MISS:          0
L1D WRITEBACK ACCESS:          0  HIT:          0  MISS:          0
L1D PREFETCH  REQUESTED:          0  ISSUED:          0  USEFUL:          0  USELESS:          0
L1I TOTAL     ACCESS:   24903632  HIT:   24903632  MISS:          0
L1I LOAD      ACCESS:   24903632  HIT:   24903632  MISS:          0
L1I RFO       ACCESS:          0  HIT:          0  MISS:          0
L1I PREFETCH  ACCESS:          0  HIT:          0  MISS:          0
L1I WRITEBACK ACCESS:          0  HIT:          0  MISS:          0
L1I PREFETCH  REQUESTED:          0  ISSUED:          0  USEFUL:          0  USELESS:          0
L2C TOTAL     ACCESS:       2236  HIT:       1247  MISS:        989
L2C LOAD      ACCESS:        199  HIT:        184  MISS:         15
L2C RFO       ACCESS:        901  HIT:          7  MISS:        894
L2C PREFETCH  ACCESS:        229  HIT:        149  MISS:         80
L2C WRITEBACK ACCESS:        907  HIT:        907  MISS:          0
L2C PREFETCH  REQUESTED:       3577  ISSUED:       3577  USEFUL:        965  USELESS:         79
LLC TOTAL     ACCESS:       1011  HIT:         21  MISS:        990
LLC LOAD      ACCESS:         15  HIT:          6  MISS:          9
LLC RFO       ACCESS:        894  HIT:          0  MISS:        894
LLC PREFETCH  ACCESS:        102  HIT:         15  MISS:         87
LLC WRITEBACK ACCESS:          0  HIT:          0  MISS:          0
LLC PREFETCH  REQUESTED:          0  ISSUED:          0  USEFUL:     501675  USELESS:    5627283
Major fault: 0 Minor fault: 183

CPU 6 cumulative IPC: 0.720723 instructions: 100000000 cycles: 138749525
L1D TOTAL     ACCESS:   58719594  HIT:   57868293  MISS:     851301
L1D LOAD      ACCESS:   52813143  HIT:   51961923  MISS:     851220
L1D RFO       ACCESS:    5906451  HIT:    5906370  MISS:         81
L1D PREFETCH  ACCESS:          0  HIT:          0  MISS:          0
L1D WRITEBACK ACCESS:          0  HIT:          0  MISS:          0
L1D PREFETCH  REQUESTED:          0  ISSUED:          0  USEFUL:          0  USELESS:          0
L1I TOTAL     ACCESS:   28047035  HIT:   28046979  MISS:         56
L1I LOAD      ACCESS:   28047035  HIT:   28046979  MISS:         56
L1I RFO       ACCESS:          0  HIT:          0  MISS:          0
L1I PREFETCH  ACCESS:          0  HIT:          0  MISS:          0
L1I WRITEBACK ACCESS:          0  HIT:          0  MISS:          0
L1I PREFETCH  REQUESTED:          0  ISSUED:          0  USEFUL:          0  USELESS:          0
L2C TOTAL     ACCESS:    2527811  HIT:    1806167  MISS:     721644
L2C LOAD      ACCESS:     851173  HIT:     826393  MISS:      24780
L2C RFO       ACCESS:         75  HIT:         70  MISS:          5
L2C PREFETCH  ACCESS:    1299708  HIT:     602863  MISS:     696845
L2C WRITEBACK ACCESS:     376855  HIT:     376841  MISS:         14
L2C PREFETCH  REQUESTED:    3607968  ISSUED:    3607968  USEFUL:    1612611  USELESS:     100271
LLC TOTAL     ACCESS:    1257042  HIT:     551050  MISS:     705992
LLC LOAD      ACCESS:      24656  HIT:       3938  MISS:      20718
LLC RFO       ACCESS:          5  HIT:          4  MISS:          1
LLC PREFETCH  ACCESS:     859261  HIT:     174004  MISS:     685257
LLC WRITEBACK ACCESS:     373120  HIT:     373104  MISS:         16
LLC PREFETCH  REQUESTED:          0  ISSUED:          0  USEFUL:     501675  USELESS:    5627283
Major fault: 0 Minor fault: 23603

CPU 7 cumulative IPC: 0.934794 instructions: 100000001 cycles: 106975492
L1D TOTAL     ACCESS:   19160438  HIT:   17196067  MISS:    1964371
L1D LOAD      ACCESS:   16359875  HIT:   14500028  MISS:    1859847
L1D RFO       ACCESS:    2800563  HIT:    2696039  MISS:     104524
L1D PREFETCH  ACCESS:          0  HIT:          0  MISS:          0
L1D WRITEBACK ACCESS:          0  HIT:          0  MISS:          0
L1D PREFETCH  REQUESTED:          0  ISSUED:          0  USEFUL:          0  USELESS:          0
L1I TOTAL     ACCESS:   26107929  HIT:   26107773  MISS:        156
L1I LOAD      ACCESS:   26107929  HIT:   26107773  MISS:        156
L1I RFO       ACCESS:          0  HIT:          0  MISS:          0
L1I PREFETCH  ACCESS:          0  HIT:          0  MISS:          0
L1I WRITEBACK ACCESS:          0  HIT:          0  MISS:          0
L1I PREFETCH  REQUESTED:          0  ISSUED:          0  USEFUL:          0  USELESS:          0
L2C TOTAL     ACCESS:    4088007  HIT:    2290288  MISS:    1797719
L2C LOAD      ACCESS:    1860003  HIT:    1443211  MISS:     416792
L2C RFO       ACCESS:     104511  HIT:      21233  MISS:      83278
L2C PREFETCH  ACCESS:    1937642  HIT:     640288  MISS:    1297354
L2C WRITEBACK ACCESS:     185851  HIT:     185556  MISS:        295
L2C PREFETCH  REQUESTED:    7593414  ISSUED:    7593289  USEFUL:    3399728  USELESS:     968647
LLC TOTAL     ACCESS:    2233634  HIT:    1646615  MISS:     587019
LLC LOAD      ACCESS:     394304  HIT:     302336  MISS:      91968
LLC RFO       ACCESS:      83273  HIT:      70088  MISS:      13185
LLC PREFETCH  ACCESS:    1602407  HIT:    1120548  MISS:     481859
LLC WRITEBACK ACCESS:     153650  HIT:     153643  MISS:          7
LLC PREFETCH  REQUESTED:          0  ISSUED:          0  USEFUL:     501675  USELESS:    5627283
Major fault: 0 Minor fault: 4324

Avg Lookahead Depth:	2.12042
TOTAL: 2.66869e+07	L2C: 1.93101e+07	LLC: 7.37681e+06	GOOD_L2C: 1.01948e+07
Printing all the perceptron weights to: perc_weights_0.csv

Avg Lookahead Depth:	2.12042
TOTAL: 2.66869e+07	L2C: 1.93101e+07	LLC: 7.37681e+06	GOOD_L2C: 1.01948e+07
Printing all the perceptron weights to: perc_weights_0.csv

Avg Lookahead Depth:	2.12042
TOTAL: 2.66869e+07	L2C: 1.93101e+07	LLC: 7.37681e+06	GOOD_L2C: 1.01948e+07
Printing all the perceptron weights to: perc_weights_0.csv

Avg Lookahead Depth:	2.12042
TOTAL: 2.66869e+07	L2C: 1.93101e+07	LLC: 7.37681e+06	GOOD_L2C: 1.01948e+07
Printing all the perceptron weights to: perc_weights_0.csv

Avg Lookahead Depth:	2.12042
TOTAL: 2.66869e+07	L2C: 1.93101e+07	LLC: 7.37681e+06	GOOD_L2C: 1.01948e+07
Printing all the perceptron weights to: perc_weights_0.csv

Avg Lookahead Depth:	2.12042
TOTAL: 2.66869e+07	L2C: 1.93101e+07	LLC: 7.37681e+06	GOOD_L2C: 1.01948e+07
Printing all the perceptron weights to: perc_weights_0.csv

Avg Lookahead Depth:	2.12042
TOTAL: 2.66869e+07	L2C: 1.93101e+07	LLC: 7.37681e+06	GOOD_L2C: 1.01948e+07
Printing all the perceptron weights to: perc_weights_0.csv

Avg Lookahead Depth:	2.12042
TOTAL: 2.66869e+07	L2C: 1.93101e+07	LLC: 7.37681e+06	GOOD_L2C: 1.01948e+07
Printing all the perceptron weights to: perc_weights_0.csv

DRAM Statistics
 CHANNEL 0
 RQ ROW_BUFFER_HIT:    1771426  ROW_BUFFER_MISS:    1731851
 DBUS_CONGESTED:    3587286
 WQ ROW_BUFFER_HIT:      50096  ROW_BUFFER_MISS:     493883  FULL:          0

 CHANNEL 1
 RQ ROW_BUFFER_HIT:    1776548  ROW_BUFFER_MISS:    1738220
 DBUS_CONGESTED:    3587286
 WQ ROW_BUFFER_HIT:      50077  ROW_BUFFER_MISS:     494143  FULL:          0

 AVG_CONGESTED_CYCLE: 12
