Initialize SIGNATURE TABLE
ST_SET: 1
ST_WAY: 256
ST_TAG_BIT: 16
ST_TAG_MASK: ffff

Initialize PATTERN TABLE
PT_SET: 512
PT_WAY: 4
SIG_DELTA_BIT: 7
C_SIG_BIT: 4
C_DELTA_BIT: 4

Initialize PREFETCH FILTER
FILTER_SET: 1024

Initialize PERCEPTRON
PERC_ENTRIES: 4096
PERC_FEATURES: 9

*** ChampSim Multicore Out-of-Order Simulator ***

Warmup Instructions: 20000000
Simulation Instructions: 100000000
Number of CPUs: 8
LLC sets: 16384
LLC ways: 16
Off-chip DRAM Size: 8192 MB Channels: 2 Width: 64-bit Data Rate: 1600 MT/s

CPU 0 runs /scratch/user/djimenez/champsim-traces/speccpu2006/xz/410.bwaves-2097B.champsimtrace.xz
CPU 1 runs /scratch/user/djimenez/champsim-traces/speccpu2006/xz/482.sphinx3-1395B.champsimtrace.xz
CPU 2 runs /scratch/user/djimenez/champsim-traces/speccpu2006/xz/433.milc-337B.champsimtrace.xz
CPU 3 runs /scratch/user/djimenez/champsim-traces/speccpu2006/xz/444.namd-166B.champsimtrace.xz
CPU 4 runs /scratch/user/djimenez/champsim-traces/speccpu2006/xz/456.hmmer-191B.champsimtrace.xz
CPU 5 runs /scratch/user/djimenez/champsim-traces/speccpu2006/xz/401.bzip2-7B.champsimtrace.xz
CPU 6 runs /scratch/user/djimenez/champsim-traces/speccpu2006/xz/462.libquantum-714B.champsimtrace.xz
CPU 7 runs /scratch/user/djimenez/champsim-traces/speccpu2006/xz/433.milc-274B.champsimtrace.xz
Heartbeat CPU 7 instructions: 10000002 cycles: 3369080 heartbeat IPC: 2.96817 cumulative IPC: 2.96817 (Simulation time: 0 hr 2 min 27 sec) 
Heartbeat CPU 1 instructions: 10000001 cycles: 3944587 heartbeat IPC: 2.53512 cumulative IPC: 2.53512 (Simulation time: 0 hr 2 min 53 sec) 
Heartbeat CPU 2 instructions: 10000000 cycles: 4405790 heartbeat IPC: 2.26974 cumulative IPC: 2.26974 (Simulation time: 0 hr 3 min 13 sec) 
Heartbeat CPU 3 instructions: 10000001 cycles: 4868347 heartbeat IPC: 2.05409 cumulative IPC: 2.05409 (Simulation time: 0 hr 3 min 33 sec) 
Heartbeat CPU 5 instructions: 10000002 cycles: 5474035 heartbeat IPC: 1.82681 cumulative IPC: 1.82681 (Simulation time: 0 hr 4 min 1 sec) 
Heartbeat CPU 6 instructions: 10000001 cycles: 5914152 heartbeat IPC: 1.69086 cumulative IPC: 1.69086 (Simulation time: 0 hr 4 min 21 sec) 
Heartbeat CPU 4 instructions: 10000001 cycles: 6263992 heartbeat IPC: 1.59643 cumulative IPC: 1.59643 (Simulation time: 0 hr 4 min 37 sec) 
Heartbeat CPU 0 instructions: 10000000 cycles: 6590706 heartbeat IPC: 1.51729 cumulative IPC: 1.51729 (Simulation time: 0 hr 4 min 53 sec) 
Heartbeat CPU 7 instructions: 20000000 cycles: 6738247 heartbeat IPC: 2.96809 cumulative IPC: 2.96813 (Simulation time: 0 hr 5 min 0 sec) 
Heartbeat CPU 1 instructions: 20000000 cycles: 7941066 heartbeat IPC: 2.5022 cumulative IPC: 2.51855 (Simulation time: 0 hr 5 min 55 sec) 
Heartbeat CPU 2 instructions: 20000000 cycles: 8812951 heartbeat IPC: 2.26903 cumulative IPC: 2.26939 (Simulation time: 0 hr 6 min 36 sec) 
Heartbeat CPU 3 instructions: 20000000 cycles: 9780554 heartbeat IPC: 2.03574 cumulative IPC: 2.04487 (Simulation time: 0 hr 7 min 20 sec) 
Heartbeat CPU 7 instructions: 30000003 cycles: 10107835 heartbeat IPC: 2.96772 cumulative IPC: 0.989332 (Simulation time: 0 hr 7 min 36 sec) 
Heartbeat CPU 5 instructions: 20000000 cycles: 10927942 heartbeat IPC: 1.83355 cumulative IPC: 1.83017 (Simulation time: 0 hr 8 min 15 sec) 
Heartbeat CPU 6 instructions: 20000000 cycles: 10930530 heartbeat IPC: 1.99347 cumulative IPC: 1.82974 (Simulation time: 0 hr 8 min 15 sec) 
Heartbeat CPU 1 instructions: 30000000 cycles: 11792706 heartbeat IPC: 2.5963 cumulative IPC: 0.847982 (Simulation time: 0 hr 8 min 56 sec) 
Heartbeat CPU 4 instructions: 20000000 cycles: 12528896 heartbeat IPC: 1.59619 cumulative IPC: 1.59631 (Simulation time: 0 hr 9 min 30 sec) 
Heartbeat CPU 0 instructions: 20000000 cycles: 13181778 heartbeat IPC: 1.5172 cumulative IPC: 1.51725 (Simulation time: 0 hr 10 min 1 sec) 

Warmup complete CPU 0 instructions: 20000004 cycles: 13181790 (Simulation time: 0 hr 10 min 1 sec) 
Warmup complete CPU 1 instructions: 33670443 cycles: 13181789 (Simulation time: 0 hr 10 min 1 sec) 
Warmup complete CPU 2 instructions: 29918539 cycles: 13181789 (Simulation time: 0 hr 10 min 1 sec) 
Warmup complete CPU 3 instructions: 27985015 cycles: 13181789 (Simulation time: 0 hr 10 min 1 sec) 
Warmup complete CPU 4 instructions: 21041838 cycles: 13181789 (Simulation time: 0 hr 10 min 1 sec) 
Warmup complete CPU 5 instructions: 24397165 cycles: 13181789 (Simulation time: 0 hr 10 min 1 sec) 
Warmup complete CPU 6 instructions: 24846236 cycles: 13181789 (Simulation time: 0 hr 10 min 1 sec) 
Warmup complete CPU 7 instructions: 39121847 cycles: 13181789 (Simulation time: 0 hr 10 min 1 sec) 

Heartbeat CPU 2 instructions: 30000001 cycles: 13303613 heartbeat IPC: 2.22684 cumulative IPC: 0.668686 (Simulation time: 0 hr 10 min 4 sec) 
Heartbeat CPU 7 instructions: 40000000 cycles: 14650820 heartbeat IPC: 2.2012 cumulative IPC: 0.597777 (Simulation time: 0 hr 10 min 36 sec) 
Heartbeat CPU 3 instructions: 30000000 cycles: 14739448 heartbeat IPC: 2.01658 cumulative IPC: 1.2936 (Simulation time: 0 hr 10 min 38 sec) 
Heartbeat CPU 1 instructions: 40000000 cycles: 20820003 heartbeat IPC: 1.10775 cumulative IPC: 0.82867 (Simulation time: 0 hr 13 min 14 sec) 
Heartbeat CPU 6 instructions: 30000003 cycles: 21280892 heartbeat IPC: 0.96615 cumulative IPC: 0.636338 (Simulation time: 0 hr 13 min 26 sec) 
Heartbeat CPU 5 instructions: 30000000 cycles: 21651799 heartbeat IPC: 0.9325 cumulative IPC: 0.661491 (Simulation time: 0 hr 13 min 36 sec) 
Heartbeat CPU 0 instructions: 30000002 cycles: 22351881 heartbeat IPC: 1.0905 cumulative IPC: 1.0905 (Simulation time: 0 hr 13 min 55 sec) 
Heartbeat CPU 3 instructions: 40000000 cycles: 23767944 heartbeat IPC: 1.1076 cumulative IPC: 1.13497 (Simulation time: 0 hr 14 min 31 sec) 
Heartbeat CPU 4 instructions: 30000001 cycles: 24025379 heartbeat IPC: 0.869831 cumulative IPC: 0.826125 (Simulation time: 0 hr 14 min 37 sec) 
Heartbeat CPU 2 instructions: 40000000 cycles: 26033436 heartbeat IPC: 0.785557 cumulative IPC: 0.784449 (Simulation time: 0 hr 15 min 31 sec) 
Heartbeat CPU 7 instructions: 50000000 cycles: 29095744 heartbeat IPC: 0.692285 cumulative IPC: 0.683561 (Simulation time: 0 hr 16 min 51 sec) 
Heartbeat CPU 3 instructions: 50000002 cycles: 30971327 heartbeat IPC: 1.38824 cumulative IPC: 1.23752 (Simulation time: 0 hr 17 min 44 sec) 
Heartbeat CPU 0 instructions: 40000000 cycles: 31426432 heartbeat IPC: 1.10198 cumulative IPC: 1.09621 (Simulation time: 0 hr 17 min 56 sec) 
Heartbeat CPU 1 instructions: 50000000 cycles: 31738806 heartbeat IPC: 0.915851 cumulative IPC: 0.879967 (Simulation time: 0 hr 18 min 4 sec) 
Heartbeat CPU 5 instructions: 40000000 cycles: 35694494 heartbeat IPC: 0.712114 cumulative IPC: 0.693068 (Simulation time: 0 hr 19 min 46 sec) 
Heartbeat CPU 6 instructions: 40000000 cycles: 35754944 heartbeat IPC: 0.690891 cumulative IPC: 0.671318 (Simulation time: 0 hr 19 min 47 sec) 
Heartbeat CPU 4 instructions: 40000000 cycles: 35828164 heartbeat IPC: 0.847258 cumulative IPC: 0.837139 (Simulation time: 0 hr 19 min 49 sec) 
Heartbeat CPU 2 instructions: 50000001 cycles: 38096775 heartbeat IPC: 0.828958 cumulative IPC: 0.805999 (Simulation time: 0 hr 20 min 49 sec) 
Heartbeat CPU 3 instructions: 60000000 cycles: 40085223 heartbeat IPC: 1.09723 cumulative IPC: 1.19 (Simulation time: 0 hr 21 min 44 sec) 
Heartbeat CPU 0 instructions: 50000000 cycles: 40361008 heartbeat IPC: 1.11925 cumulative IPC: 1.10378 (Simulation time: 0 hr 21 min 51 sec) 
Heartbeat CPU 1 instructions: 60000000 cycles: 41494344 heartbeat IPC: 1.02506 cumulative IPC: 0.92996 (Simulation time: 0 hr 22 min 23 sec) 
Heartbeat CPU 7 instructions: 60000000 cycles: 42605503 heartbeat IPC: 0.740206 cumulative IPC: 0.709569 (Simulation time: 0 hr 22 min 52 sec) 
Heartbeat CPU 4 instructions: 50000000 cycles: 47415017 heartbeat IPC: 0.863047 cumulative IPC: 0.845908 (Simulation time: 0 hr 24 min 49 sec) 
Heartbeat CPU 3 instructions: 70000000 cycles: 49052186 heartbeat IPC: 1.1152 cumulative IPC: 1.1713 (Simulation time: 0 hr 25 min 29 sec) 
Heartbeat CPU 0 instructions: 60000000 cycles: 50052966 heartbeat IPC: 1.03178 cumulative IPC: 1.08486 (Simulation time: 0 hr 25 min 54 sec) 
Heartbeat CPU 5 instructions: 50000001 cycles: 51182521 heartbeat IPC: 0.64566 cumulative IPC: 0.673746 (Simulation time: 0 hr 26 min 21 sec) 
Heartbeat CPU 6 instructions: 50000003 cycles: 52348073 heartbeat IPC: 0.602659 cumulative IPC: 0.64223 (Simulation time: 0 hr 26 min 47 sec) 
Heartbeat CPU 2 instructions: 60000000 cycles: 55030244 heartbeat IPC: 0.590546 cumulative IPC: 0.718819 (Simulation time: 0 hr 27 min 50 sec) 
Heartbeat CPU 1 instructions: 70000000 cycles: 55264206 heartbeat IPC: 0.726224 cumulative IPC: 0.863295 (Simulation time: 0 hr 27 min 55 sec) 
Heartbeat CPU 3 instructions: 80000000 cycles: 56951868 heartbeat IPC: 1.26587 cumulative IPC: 1.18837 (Simulation time: 0 hr 28 min 35 sec) 
Heartbeat CPU 0 instructions: 70000001 cycles: 60250401 heartbeat IPC: 0.980639 cumulative IPC: 1.06228 (Simulation time: 0 hr 29 min 56 sec) 
Heartbeat CPU 4 instructions: 60000000 cycles: 60584560 heartbeat IPC: 0.759328 cumulative IPC: 0.821854 (Simulation time: 0 hr 30 min 5 sec) 
Heartbeat CPU 3 instructions: 90000003 cycles: 65337481 heartbeat IPC: 1.19252 cumulative IPC: 1.18904 (Simulation time: 0 hr 32 min 7 sec) 
Heartbeat CPU 7 instructions: 70000000 cycles: 66502123 heartbeat IPC: 0.418469 cumulative IPC: 0.579107 (Simulation time: 0 hr 32 min 36 sec) 
Heartbeat CPU 5 instructions: 60000000 cycles: 67386989 heartbeat IPC: 0.617114 cumulative IPC: 0.656816 (Simulation time: 0 hr 32 min 59 sec) 
Heartbeat CPU 1 instructions: 80000000 cycles: 68197245 heartbeat IPC: 0.773213 cumulative IPC: 0.842119 (Simulation time: 0 hr 33 min 20 sec) 
Heartbeat CPU 6 instructions: 60000000 cycles: 68959169 heartbeat IPC: 0.602007 cumulative IPC: 0.630251 (Simulation time: 0 hr 33 min 42 sec) 
Heartbeat CPU 0 instructions: 80000000 cycles: 69463605 heartbeat IPC: 1.0854 cumulative IPC: 1.06606 (Simulation time: 0 hr 33 min 56 sec) 
Heartbeat CPU 2 instructions: 70000003 cycles: 69939619 heartbeat IPC: 0.670719 cumulative IPC: 0.706184 (Simulation time: 0 hr 34 min 8 sec) 
Heartbeat CPU 4 instructions: 70000000 cycles: 72548928 heartbeat IPC: 0.835815 cumulative IPC: 0.824668 (Simulation time: 0 hr 35 min 17 sec) 
Heartbeat CPU 3 instructions: 100000000 cycles: 73397255 heartbeat IPC: 1.24073 cumulative IPC: 1.19595 (Simulation time: 0 hr 35 min 41 sec) 
Heartbeat CPU 1 instructions: 90000000 cycles: 77089934 heartbeat IPC: 1.12452 cumulative IPC: 0.881414 (Simulation time: 0 hr 37 min 24 sec) 
Heartbeat CPU 0 instructions: 90000001 cycles: 78503840 heartbeat IPC: 1.10617 cumulative IPC: 1.07161 (Simulation time: 0 hr 38 min 4 sec) 
Heartbeat CPU 7 instructions: 80000000 cycles: 78555131 heartbeat IPC: 0.829668 cumulative IPC: 0.625303 (Simulation time: 0 hr 38 min 5 sec) 
Heartbeat CPU 5 instructions: 70000000 cycles: 80573766 heartbeat IPC: 0.758335 cumulative IPC: 0.67668 (Simulation time: 0 hr 39 min 1 sec) 
Heartbeat CPU 3 instructions: 110000003 cycles: 81979351 heartbeat IPC: 1.16522 cumulative IPC: 1.19212 (Simulation time: 0 hr 39 min 40 sec) 
Heartbeat CPU 6 instructions: 70000002 cycles: 82675855 heartbeat IPC: 0.729039 cumulative IPC: 0.64975 (Simulation time: 0 hr 40 min 0 sec) 
Heartbeat CPU 2 instructions: 80000000 cycles: 83284611 heartbeat IPC: 0.749345 cumulative IPC: 0.7144 (Simulation time: 0 hr 40 min 16 sec) 
Heartbeat CPU 4 instructions: 80000000 cycles: 84151877 heartbeat IPC: 0.86185 cumulative IPC: 0.830747 (Simulation time: 0 hr 40 min 40 sec) 
Heartbeat CPU 1 instructions: 100000000 cycles: 84498217 heartbeat IPC: 1.34984 cumulative IPC: 0.930074 (Simulation time: 0 hr 40 min 50 sec) 
Heartbeat CPU 0 instructions: 100000000 cycles: 87820751 heartbeat IPC: 1.07332 cumulative IPC: 1.07183 (Simulation time: 0 hr 42 min 19 sec) 
Heartbeat CPU 3 instructions: 120000000 cycles: 91144868 heartbeat IPC: 1.09105 cumulative IPC: 1.18024 (Simulation time: 0 hr 43 min 39 sec) 
Heartbeat CPU 5 instructions: 80000000 cycles: 91377859 heartbeat IPC: 0.925575 cumulative IPC: 0.711069 (Simulation time: 0 hr 43 min 45 sec) 
Heartbeat CPU 7 instructions: 90000001 cycles: 92321781 heartbeat IPC: 0.726393 cumulative IPC: 0.642888 (Simulation time: 0 hr 44 min 10 sec) 
Heartbeat CPU 1 instructions: 110000000 cycles: 95159268 heartbeat IPC: 0.937994 cumulative IPC: 0.931104 (Simulation time: 0 hr 45 min 20 sec) 
Heartbeat CPU 4 instructions: 90000003 cycles: 96574306 heartbeat IPC: 0.804996 cumulative IPC: 0.826911 (Simulation time: 0 hr 45 min 57 sec) 
Heartbeat CPU 0 instructions: 110000001 cycles: 97260550 heartbeat IPC: 1.05934 cumulative IPC: 1.07042 (Simulation time: 0 hr 46 min 14 sec) 
Finished CPU 3 instructions: 100000001 cycles: 84457943 cumulative IPC: 1.18402 (Simulation time: 0 hr 46 min 24 sec) 
Heartbeat CPU 2 instructions: 90000003 cycles: 98605080 heartbeat IPC: 0.652722 cumulative IPC: 0.703338 (Simulation time: 0 hr 46 min 48 sec) 
Heartbeat CPU 3 instructions: 130000003 cycles: 99139544 heartbeat IPC: 1.25083 cumulative IPC: 1.1868 (Simulation time: 0 hr 47 min 1 sec) 
Heartbeat CPU 5 instructions: 90000003 cycles: 103619965 heartbeat IPC: 0.816853 cumulative IPC: 0.725389 (Simulation time: 0 hr 48 min 54 sec) 
Heartbeat CPU 1 instructions: 120000000 cycles: 105368794 heartbeat IPC: 0.979477 cumulative IPC: 0.936461 (Simulation time: 0 hr 49 min 38 sec) 
Heartbeat CPU 6 instructions: 80000000 cycles: 105442681 heartbeat IPC: 0.439235 cumulative IPC: 0.597802 (Simulation time: 0 hr 49 min 40 sec) 
Heartbeat CPU 0 instructions: 120000000 cycles: 106858064 heartbeat IPC: 1.04194 cumulative IPC: 1.06751 (Simulation time: 0 hr 50 min 18 sec) 
Finished CPU 0 instructions: 100000000 cycles: 93676297 cumulative IPC: 1.06751 (Simulation time: 0 hr 50 min 18 sec) 
Heartbeat CPU 3 instructions: 140000000 cycles: 107443049 heartbeat IPC: 1.20431 cumulative IPC: 1.18835 (Simulation time: 0 hr 50 min 32 sec) 
Heartbeat CPU 7 instructions: 100000000 cycles: 107444228 heartbeat IPC: 0.661269 cumulative IPC: 0.645837 (Simulation time: 0 hr 50 min 32 sec) 
Heartbeat CPU 4 instructions: 100000000 cycles: 108731242 heartbeat IPC: 0.822575 cumulative IPC: 0.826359 (Simulation time: 0 hr 51 min 7 sec) 
Heartbeat CPU 1 instructions: 130000001 cycles: 113382933 heartbeat IPC: 1.24779 cumulative IPC: 0.961362 (Simulation time: 0 hr 53 min 7 sec) 
Heartbeat CPU 2 instructions: 100000000 cycles: 114167833 heartbeat IPC: 0.64256 cumulative IPC: 0.693972 (Simulation time: 0 hr 53 min 29 sec) 
Heartbeat CPU 3 instructions: 150000001 cycles: 115723820 heartbeat IPC: 1.20762 cumulative IPC: 1.1899 (Simulation time: 0 hr 54 min 10 sec) 
Finished CPU 1 instructions: 100000001 cycles: 102811813 cumulative IPC: 0.972651 (Simulation time: 0 hr 54 min 18 sec) 
Heartbeat CPU 5 instructions: 100000000 cycles: 116026888 heartbeat IPC: 0.806001 cumulative IPC: 0.735114 (Simulation time: 0 hr 54 min 19 sec) 
Heartbeat CPU 0 instructions: 130000000 cycles: 116204191 heartbeat IPC: 1.06996 cumulative IPC: 1.06773 (Simulation time: 0 hr 54 min 24 sec) 
Heartbeat CPU 1 instructions: 140000000 cycles: 120377036 heartbeat IPC: 1.42978 cumulative IPC: 0.991924 (Simulation time: 0 hr 56 min 20 sec) 
Heartbeat CPU 4 instructions: 110000003 cycles: 120699318 heartbeat IPC: 0.835556 cumulative IPC: 0.827383 (Simulation time: 0 hr 56 min 29 sec) 
Heartbeat CPU 7 instructions: 110000001 cycles: 121496702 heartbeat IPC: 0.711619 cumulative IPC: 0.654371 (Simulation time: 0 hr 56 min 51 sec) 
Heartbeat CPU 6 instructions: 90000002 cycles: 122734801 heartbeat IPC: 0.578298 cumulative IPC: 0.594724 (Simulation time: 0 hr 57 min 23 sec) 
Heartbeat CPU 3 instructions: 160000000 cycles: 124044374 heartbeat IPC: 1.20184 cumulative IPC: 1.1908 (Simulation time: 0 hr 58 min 0 sec) 
Heartbeat CPU 0 instructions: 140000000 cycles: 125299318 heartbeat IPC: 1.09949 cumulative IPC: 1.07031 (Simulation time: 0 hr 58 min 33 sec) 
Heartbeat CPU 2 instructions: 110000000 cycles: 127786531 heartbeat IPC: 0.734285 cumulative IPC: 0.698762 (Simulation time: 0 hr 59 min 41 sec) 
Heartbeat CPU 1 instructions: 150000000 cycles: 127941258 heartbeat IPC: 1.32201 cumulative IPC: 1.01368 (Simulation time: 0 hr 59 min 46 sec) 
Heartbeat CPU 5 instructions: 110000001 cycles: 130339782 heartbeat IPC: 0.698671 cumulative IPC: 0.730662 (Simulation time: 1 hr 0 min 54 sec) 
Heartbeat CPU 3 instructions: 170000002 cycles: 132109939 heartbeat IPC: 1.23984 cumulative IPC: 1.19412 (Simulation time: 1 hr 1 min 44 sec) 
Heartbeat CPU 4 instructions: 120000000 cycles: 132229561 heartbeat IPC: 0.867284 cumulative IPC: 0.831248 (Simulation time: 1 hr 1 min 48 sec) 
Finished CPU 4 instructions: 100000003 cycles: 120267920 cumulative IPC: 0.831477 (Simulation time: 1 hr 2 min 22 sec) 
Heartbeat CPU 7 instructions: 120000000 cycles: 134336947 heartbeat IPC: 0.778801 cumulative IPC: 0.667558 (Simulation time: 1 hr 2 min 47 sec) 
Heartbeat CPU 0 instructions: 150000002 cycles: 134419225 heartbeat IPC: 1.0965 cumulative IPC: 1.07228 (Simulation time: 1 hr 2 min 49 sec) 
Heartbeat CPU 1 instructions: 160000000 cycles: 134838552 heartbeat IPC: 1.44984 cumulative IPC: 1.03841 (Simulation time: 1 hr 3 min 2 sec) 
Heartbeat CPU 6 instructions: 100000000 cycles: 135764172 heartbeat IPC: 0.767497 cumulative IPC: 0.613088 (Simulation time: 1 hr 3 min 27 sec) 
Heartbeat CPU 3 instructions: 180000000 cycles: 140662600 heartbeat IPC: 1.16923 cumulative IPC: 1.19245 (Simulation time: 1 hr 5 min 43 sec) 
Heartbeat CPU 2 instructions: 120000000 cycles: 140960194 heartbeat IPC: 0.75909 cumulative IPC: 0.704982 (Simulation time: 1 hr 5 min 51 sec) 
Heartbeat CPU 1 instructions: 170000003 cycles: 141986232 heartbeat IPC: 1.39906 cumulative IPC: 1.05842 (Simulation time: 1 hr 6 min 20 sec) 
Heartbeat CPU 5 instructions: 120000000 cycles: 143359997 heartbeat IPC: 0.768036 cumulative IPC: 0.7344 (Simulation time: 1 hr 6 min 58 sec) 
Heartbeat CPU 0 instructions: 160000000 cycles: 143480187 heartbeat IPC: 1.10364 cumulative IPC: 1.07446 (Simulation time: 1 hr 7 min 2 sec) 
Heartbeat CPU 4 instructions: 130000002 cycles: 143797547 heartbeat IPC: 0.864455 cumulative IPC: 0.834189 (Simulation time: 1 hr 7 min 11 sec) 
Heartbeat CPU 7 instructions: 130000003 cycles: 146953291 heartbeat IPC: 0.792623 cumulative IPC: 0.679354 (Simulation time: 1 hr 8 min 39 sec) 
Heartbeat CPU 3 instructions: 190000000 cycles: 148179227 heartbeat IPC: 1.33038 cumulative IPC: 1.20013 (Simulation time: 1 hr 9 min 13 sec) 
Heartbeat CPU 6 instructions: 110000001 cycles: 148870307 heartbeat IPC: 0.763002 cumulative IPC: 0.627568 (Simulation time: 1 hr 9 min 30 sec) 
Finished CPU 5 instructions: 100000001 cycles: 136999985 cumulative IPC: 0.729927 (Simulation time: 1 hr 10 min 5 sec) 
Heartbeat CPU 1 instructions: 180000000 cycles: 150290861 heartbeat IPC: 1.20415 cumulative IPC: 1.06725 (Simulation time: 1 hr 10 min 8 sec) 
Heartbeat CPU 0 instructions: 170000000 cycles: 152568076 heartbeat IPC: 1.10037 cumulative IPC: 1.07615 (Simulation time: 1 hr 11 min 7 sec) 
Finished CPU 2 instructions: 100000000 cycles: 141084832 cumulative IPC: 0.708793 (Simulation time: 1 hr 11 min 51 sec) 
Heartbeat CPU 2 instructions: 130000002 cycles: 154363767 heartbeat IPC: 0.74607 cumulative IPC: 0.708883 (Simulation time: 1 hr 11 min 54 sec) 
Heartbeat CPU 4 instructions: 140000000 cycles: 155654993 heartbeat IPC: 0.843352 cumulative IPC: 0.834951 (Simulation time: 1 hr 12 min 28 sec) 
Heartbeat CPU 5 instructions: 130000000 cycles: 156669320 heartbeat IPC: 0.751353 cumulative IPC: 0.735972 (Simulation time: 1 hr 12 min 56 sec) 
Heartbeat CPU 3 instructions: 200000000 cycles: 157853635 heartbeat IPC: 1.03365 cumulative IPC: 1.189 (Simulation time: 1 hr 13 min 26 sec) 
Finished CPU 7 instructions: 100000000 cycles: 146419616 cumulative IPC: 0.682969 (Simulation time: 1 hr 14 min 13 sec) 
Heartbeat CPU 7 instructions: 140000000 cycles: 160777054 heartbeat IPC: 0.723392 cumulative IPC: 0.683478 (Simulation time: 1 hr 14 min 44 sec) 
Heartbeat CPU 1 instructions: 190000003 cycles: 160818594 heartbeat IPC: 0.949872 cumulative IPC: 1.05888 (Simulation time: 1 hr 14 min 45 sec) 
Heartbeat CPU 0 instructions: 180000000 cycles: 161831131 heartbeat IPC: 1.07956 cumulative IPC: 1.07636 (Simulation time: 1 hr 15 min 13 sec) 
Heartbeat CPU 6 instructions: 120000000 cycles: 164082482 heartbeat IPC: 0.657368 cumulative IPC: 0.630572 (Simulation time: 1 hr 16 min 15 sec) 
Heartbeat CPU 2 instructions: 140000000 cycles: 166203674 heartbeat IPC: 0.844601 cumulative IPC: 0.719384 (Simulation time: 1 hr 17 min 9 sec) 
Heartbeat CPU 3 instructions: 210000000 cycles: 166627354 heartbeat IPC: 1.13977 cumulative IPC: 1.18619 (Simulation time: 1 hr 17 min 20 sec) 
Heartbeat CPU 4 instructions: 150000003 cycles: 167508742 heartbeat IPC: 0.843615 cumulative IPC: 0.835617 (Simulation time: 1 hr 17 min 45 sec) 
Heartbeat CPU 5 instructions: 140000000 cycles: 168313977 heartbeat IPC: 0.858763 cumulative IPC: 0.745189 (Simulation time: 1 hr 18 min 6 sec) 
Heartbeat CPU 0 instructions: 190000003 cycles: 170876057 heartbeat IPC: 1.10559 cumulative IPC: 1.07804 (Simulation time: 1 hr 19 min 13 sec) 
Finished CPU 6 instructions: 100000000 cycles: 157963908 cumulative IPC: 0.633056 (Simulation time: 1 hr 19 min 20 sec) 

CPU 0 Branch Prediction Accuracy: 97.2574% MPKI: 0.764621

CPU 1 Branch Prediction Accuracy: 98.4982% MPKI: 1.19448

CPU 2 Branch Prediction Accuracy: 99.9994% MPKI: 0.000160919

CPU 3 Branch Prediction Accuracy: 96.6917% MPKI: 1.8548

CPU 4 Branch Prediction Accuracy: 99.5482% MPKI: 0.197194

CPU 5 Branch Prediction Accuracy: 93.6965% MPKI: 8.33273

CPU 6 Branch Prediction Accuracy: 99.6766% MPKI: 0.54248

CPU 7 Branch Prediction Accuracy: 99.9989% MPKI: 0.00025003

ChampSim completed all CPUs

Total Simulation Statistics (not including warmup)

CPU 0 cumulative IPC: 1.07806 instructions: 170294899 cycles: 157963907
L1D TOTAL     ACCESS:   83701907  HIT:   80273096  MISS:    3428811
L1D LOAD      ACCESS:   71150954  HIT:   67808322  MISS:    3342632
L1D RFO       ACCESS:   12550953  HIT:   12464774  MISS:      86179
L1D PREFETCH  ACCESS:          0  HIT:          0  MISS:          0
L1D WRITEBACK ACCESS:          0  HIT:          0  MISS:          0
L1I TOTAL     ACCESS:   39758031  HIT:   39758031  MISS:          0
L1I LOAD      ACCESS:   39758031  HIT:   39758031  MISS:          0
L1I RFO       ACCESS:          0  HIT:          0  MISS:          0
L1I PREFETCH  ACCESS:          0  HIT:          0  MISS:          0
L1I WRITEBACK ACCESS:          0  HIT:          0  MISS:          0
L2C TOTAL     ACCESS:    8126690  HIT:    4999069  MISS:    3127621
L2C LOAD      ACCESS:    3341553  HIT:    3174803  MISS:     166750
L2C RFO       ACCESS:      85585  HIT:       5455  MISS:      80130
L2C PREFETCH  ACCESS:    4598848  HIT:    1718825  MISS:    2880023
L2C WRITEBACK ACCESS:     100704  HIT:      99986  MISS:        718

Avg Lookahead Depth:	5.04703
TOTAL: 2.22491e+07	L2C: 1.88245e+07	LLC: 3.42465e+06	GOOD_L2C: 1.25947e+07
Printing all the perceptron weights to: perc_weights_0.csv
LLC TOTAL     ACCESS:    3514886  HIT:     409445  MISS:    3105441
LLC LOAD      ACCESS:     141253  HIT:       5895  MISS:     135358
LLC RFO       ACCESS:      80130  HIT:          0  MISS:      80130
LLC PREFETCH  ACCESS:    3212397  HIT:     322530  MISS:    2889867
LLC WRITEBACK ACCESS:      81106  HIT:      81020  MISS:         86

CPU 1 cumulative IPC: 1.04876 instructions: 165665990 cycles: 157963908
L1D TOTAL     ACCESS:   28774131  HIT:   26399298  MISS:    2374833
L1D LOAD      ACCESS:   26323819  HIT:   24154855  MISS:    2168964
L1D RFO       ACCESS:    2450312  HIT:    2244443  MISS:     205869
L1D PREFETCH  ACCESS:          0  HIT:          0  MISS:          0
L1D WRITEBACK ACCESS:          0  HIT:          0  MISS:          0
L1I TOTAL     ACCESS:   45557977  HIT:   45557724  MISS:        253
L1I LOAD      ACCESS:   45557977  HIT:   45557724  MISS:        253
L1I RFO       ACCESS:          0  HIT:          0  MISS:          0
L1I PREFETCH  ACCESS:          0  HIT:          0  MISS:          0
L1I WRITEBACK ACCESS:          0  HIT:          0  MISS:          0
L2C TOTAL     ACCESS:    5069587  HIT:    2812697  MISS:    2256890
L2C LOAD      ACCESS:    2169217  HIT:    1851449  MISS:     317768
L2C RFO       ACCESS:     205869  HIT:      16829  MISS:     189040
L2C PREFETCH  ACCESS:    2463521  HIT:     713944  MISS:    1749577
L2C WRITEBACK ACCESS:     230980  HIT:     230475  MISS:        505

Avg Lookahead Depth:	5.04703
TOTAL: 2.22491e+07	L2C: 1.88245e+07	LLC: 3.42465e+06	GOOD_L2C: 1.25947e+07
Printing all the perceptron weights to: perc_weights_0.csv
LLC TOTAL     ACCESS:    2796414  HIT:    1660021  MISS:    1136393
LLC LOAD      ACCESS:     255725  HIT:     134118  MISS:     121607
LLC RFO       ACCESS:     189029  HIT:     118361  MISS:      70668
LLC PREFETCH  ACCESS:    2141059  HIT:    1197093  MISS:     943966
LLC WRITEBACK ACCESS:     210601  HIT:     210449  MISS:        152

CPU 2 cumulative IPC: 0.724013 instructions: 114367885 cycles: 157963908
L1D TOTAL     ACCESS:   11558878  HIT:    9433953  MISS:    2124925
L1D LOAD      ACCESS:   10394729  HIT:    8929370  MISS:    1465359
L1D RFO       ACCESS:    1164149  HIT:     504583  MISS:     659566
L1D PREFETCH  ACCESS:          0  HIT:          0  MISS:          0
L1D WRITEBACK ACCESS:          0  HIT:          0  MISS:          0
L1I TOTAL     ACCESS:   26013262  HIT:   26013242  MISS:         20
L1I LOAD      ACCESS:   26013262  HIT:   26013242  MISS:         20
L1I RFO       ACCESS:          0  HIT:          0  MISS:          0
L1I PREFETCH  ACCESS:          0  HIT:          0  MISS:          0
L1I WRITEBACK ACCESS:          0  HIT:          0  MISS:          0
L2C TOTAL     ACCESS:    3909187  HIT:    1736139  MISS:    2173048
L2C LOAD      ACCESS:    1465379  HIT:     914461  MISS:     550918
L2C RFO       ACCESS:     659566  HIT:         17  MISS:     659549
L2C PREFETCH  ACCESS:    1124672  HIT:     162166  MISS:     962506
L2C WRITEBACK ACCESS:     659570  HIT:     659495  MISS:         75

Avg Lookahead Depth:	5.04703
TOTAL: 2.22491e+07	L2C: 1.88245e+07	LLC: 3.42465e+06	GOOD_L2C: 1.25947e+07
Printing all the perceptron weights to: perc_weights_0.csv
LLC TOTAL     ACCESS:    2940548  HIT:     701071  MISS:    2239477
LLC LOAD      ACCESS:     494800  HIT:       2343  MISS:     492457
LLC RFO       ACCESS:     659515  HIT:        218  MISS:     659297
LLC PREFETCH  ACCESS:    1126662  HIT:      40118  MISS:    1086544
LLC WRITEBACK ACCESS:     659571  HIT:     658392  MISS:       1179

CPU 3 cumulative IPC: 1.18199 instructions: 186711740 cycles: 157963908
L1D TOTAL     ACCESS:   39520050  HIT:   38470517  MISS:    1049533
L1D LOAD      ACCESS:   32434563  HIT:   31434582  MISS:     999981
L1D RFO       ACCESS:    7085487  HIT:    7035935  MISS:      49552
L1D PREFETCH  ACCESS:          0  HIT:          0  MISS:          0
L1D WRITEBACK ACCESS:          0  HIT:          0  MISS:          0
L1I TOTAL     ACCESS:   47895018  HIT:   47895018  MISS:          0
L1I LOAD      ACCESS:   47895018  HIT:   47895018  MISS:          0
L1I RFO       ACCESS:          0  HIT:          0  MISS:          0
L1I PREFETCH  ACCESS:          0  HIT:          0  MISS:          0
L1I WRITEBACK ACCESS:          0  HIT:          0  MISS:          0
L2C TOTAL     ACCESS:    2686424  HIT:    2646273  MISS:      40151
L2C LOAD      ACCESS:     999923  HIT:     981542  MISS:      18381
L2C RFO       ACCESS:      49539  HIT:      49374  MISS:        165
L2C PREFETCH  ACCESS:    1448700  HIT:    1427099  MISS:      21601
L2C WRITEBACK ACCESS:     188262  HIT:     188258  MISS:          4

Avg Lookahead Depth:	5.04703
TOTAL: 2.22491e+07	L2C: 1.88245e+07	LLC: 3.42465e+06	GOOD_L2C: 1.25947e+07
Printing all the perceptron weights to: perc_weights_0.csv
LLC TOTAL     ACCESS:      64246  HIT:      14406  MISS:      49840
LLC LOAD      ACCESS:      11364  HIT:       2899  MISS:       8465
LLC RFO       ACCESS:        165  HIT:         91  MISS:         74
LLC PREFETCH  ACCESS:      46097  HIT:      10813  MISS:      35284
LLC WRITEBACK ACCESS:       6620  HIT:        603  MISS:       6017

CPU 4 cumulative IPC: 0.835955 instructions: 132050652 cycles: 157963908
L1D TOTAL     ACCESS:   49885322  HIT:   49252965  MISS:     632357
L1D LOAD      ACCESS:   39715260  HIT:   39435188  MISS:     280072
L1D RFO       ACCESS:   10170062  HIT:    9817777  MISS:     352285
L1D PREFETCH  ACCESS:          0  HIT:          0  MISS:          0
L1D WRITEBACK ACCESS:          0  HIT:          0  MISS:          0
L1I TOTAL     ACCESS:   35833303  HIT:   35832982  MISS:        321
L1I LOAD      ACCESS:   35833303  HIT:   35832982  MISS:        321
L1I RFO       ACCESS:          0  HIT:          0  MISS:          0
L1I PREFETCH  ACCESS:          0  HIT:          0  MISS:          0
L1I WRITEBACK ACCESS:          0  HIT:          0  MISS:          0
L2C TOTAL     ACCESS:    1564776  HIT:    1175803  MISS:     388973
L2C LOAD      ACCESS:     280101  HIT:     269963  MISS:      10138
L2C RFO       ACCESS:     352285  HIT:       2103  MISS:     350182
L2C PREFETCH  ACCESS:     578622  HIT:     550018  MISS:      28604
L2C WRITEBACK ACCESS:     353768  HIT:     353719  MISS:         49

Avg Lookahead Depth:	5.04703
TOTAL: 2.22491e+07	L2C: 1.88245e+07	LLC: 3.42465e+06	GOOD_L2C: 1.25947e+07
Printing all the perceptron weights to: perc_weights_0.csv
LLC TOTAL     ACCESS:     763159  HIT:     382244  MISS:     380915
LLC LOAD      ACCESS:       9641  HIT:       3780  MISS:       5861
LLC RFO       ACCESS:     350160  HIT:      11429  MISS:     338731
LLC PREFETCH  ACCESS:      50640  HIT:      27538  MISS:      23102
LLC WRITEBACK ACCESS:     352718  HIT:     339497  MISS:      13221

CPU 5 cumulative IPC: 0.746413 instructions: 117906263 cycles: 157963908
L1D TOTAL     ACCESS:   33838026  HIT:   32083968  MISS:    1754058
L1D LOAD      ACCESS:   22666187  HIT:   21175266  MISS:    1490921
L1D RFO       ACCESS:   11171839  HIT:   10908702  MISS:     263137
L1D PREFETCH  ACCESS:          0  HIT:          0  MISS:          0
L1D WRITEBACK ACCESS:          0  HIT:          0  MISS:          0
L1I TOTAL     ACCESS:   27770121  HIT:   27770121  MISS:          0
L1I LOAD      ACCESS:   27770121  HIT:   27770121  MISS:          0
L1I RFO       ACCESS:          0  HIT:          0  MISS:          0
L1I PREFETCH  ACCESS:          0  HIT:          0  MISS:          0
L1I WRITEBACK ACCESS:          0  HIT:          0  MISS:          0
L2C TOTAL     ACCESS:    3830592  HIT:    2936273  MISS:     894319
L2C LOAD      ACCESS:    1490916  HIT:    1308367  MISS:     182549
L2C RFO       ACCESS:     263128  HIT:      21230  MISS:     241898
L2C PREFETCH  ACCESS:    1698282  HIT:    1228533  MISS:     469749
L2C WRITEBACK ACCESS:     378266  HIT:     378143  MISS:        123

Avg Lookahead Depth:	5.04703
TOTAL: 2.22491e+07	L2C: 1.88245e+07	LLC: 3.42465e+06	GOOD_L2C: 1.25947e+07
Printing all the perceptron weights to: perc_weights_0.csv
LLC TOTAL     ACCESS:    1285258  HIT:     977794  MISS:     307464
LLC LOAD      ACCESS:     146661  HIT:     107708  MISS:      38953
LLC RFO       ACCESS:     241893  HIT:      80939  MISS:     160954
LLC PREFETCH  ACCESS:     600488  HIT:     496749  MISS:     103739
LLC WRITEBACK ACCESS:     296216  HIT:     292398  MISS:       3818

CPU 6 cumulative IPC: 0.633056 instructions: 100000000 cycles: 157963908
L1D TOTAL     ACCESS:   13750412  HIT:   11289597  MISS:    2460815
L1D LOAD      ACCESS:   11596340  HIT:    9135541  MISS:    2460799
L1D RFO       ACCESS:    2154072  HIT:    2154056  MISS:         16
L1D PREFETCH  ACCESS:          0  HIT:          0  MISS:          0
L1D WRITEBACK ACCESS:          0  HIT:          0  MISS:          0
L1I TOTAL     ACCESS:   33760703  HIT:   33760703  MISS:          0
L1I LOAD      ACCESS:   33760703  HIT:   33760703  MISS:          0
L1I RFO       ACCESS:          0  HIT:          0  MISS:          0
L1I PREFETCH  ACCESS:          0  HIT:          0  MISS:          0
L1I WRITEBACK ACCESS:          0  HIT:          0  MISS:          0
L2C TOTAL     ACCESS:    4907783  HIT:    2446956  MISS:    2460827
L2C LOAD      ACCESS:    2460799  HIT:    1729082  MISS:     731717
L2C RFO       ACCESS:         16  HIT:          0  MISS:         16
L2C PREFETCH  ACCESS:    1865808  HIT:     136714  MISS:    1729094
L2C WRITEBACK ACCESS:     581160  HIT:     581160  MISS:          0

Avg Lookahead Depth:	5.04703
TOTAL: 2.22491e+07	L2C: 1.88245e+07	LLC: 3.42465e+06	GOOD_L2C: 1.25947e+07
Printing all the perceptron weights to: perc_weights_0.csv
LLC TOTAL     ACCESS:    3044590  HIT:     583756  MISS:    2460834
LLC LOAD      ACCESS:      93919  HIT:         15  MISS:      93904
LLC RFO       ACCESS:         16  HIT:          0  MISS:         16
LLC PREFETCH  ACCESS:    2369606  HIT:       2692  MISS:    2366914
LLC WRITEBACK ACCESS:     581049  HIT:     581049  MISS:          0

CPU 7 cumulative IPC: 0.689163 instructions: 108862851 cycles: 157963908
L1D TOTAL     ACCESS:   15167684  HIT:   13423981  MISS:    1743703
L1D LOAD      ACCESS:   11185241  HIT:   10040865  MISS:    1144376
L1D RFO       ACCESS:    3982443  HIT:    3383116  MISS:     599327
L1D PREFETCH  ACCESS:          0  HIT:          0  MISS:          0
L1D WRITEBACK ACCESS:          0  HIT:          0  MISS:          0
L1I TOTAL     ACCESS:   24344901  HIT:   24344851  MISS:         50
L1I LOAD      ACCESS:   24344901  HIT:   24344851  MISS:         50
L1I RFO       ACCESS:          0  HIT:          0  MISS:          0
L1I PREFETCH  ACCESS:          0  HIT:          0  MISS:          0
L1I WRITEBACK ACCESS:          0  HIT:          0  MISS:          0
L2C TOTAL     ACCESS:    3399135  HIT:    1575285  MISS:    1823850
L2C LOAD      ACCESS:    1144426  HIT:     784721  MISS:     359705
L2C RFO       ACCESS:     599327  HIT:          0  MISS:     599327
L2C PREFETCH  ACCESS:     996092  HIT:     131932  MISS:     864160
L2C WRITEBACK ACCESS:     659290  HIT:     658632  MISS:        658

Avg Lookahead Depth:	5.04703
TOTAL: 2.22491e+07	L2C: 1.88245e+07	LLC: 3.42465e+06	GOOD_L2C: 1.25947e+07
Printing all the perceptron weights to: perc_weights_0.csv
LLC TOTAL     ACCESS:    2658553  HIT:     701091  MISS:    1957462
LLC LOAD      ACCESS:     295763  HIT:       7065  MISS:     288698
LLC RFO       ACCESS:     599327  HIT:          0  MISS:     599327
LLC PREFETCH  ACCESS:    1104440  HIT:      46579  MISS:    1057861
LLC WRITEBACK ACCESS:     659023  HIT:     647447  MISS:      11576

Region of Interest Statistics

CPU 0 cumulative IPC: 1.06751 instructions: 100000000 cycles: 93676297
L1D TOTAL     ACCESS:   49144642  HIT:   47131394  MISS:    2013248
L1D LOAD      ACCESS:   41780674  HIT:   39818005  MISS:    1962669
L1D RFO       ACCESS:    7363968  HIT:    7313389  MISS:      50579
L1D PREFETCH  ACCESS:          0  HIT:          0  MISS:          0
L1D WRITEBACK ACCESS:          0  HIT:          0  MISS:          0
L1D PREFETCH  REQUESTED:          0  ISSUED:          0  USEFUL:          0  USELESS:          0
L1I TOTAL     ACCESS:   23346516  HIT:   23346516  MISS:          0
L1I LOAD      ACCESS:   23346516  HIT:   23346516  MISS:          0
L1I RFO       ACCESS:          0  HIT:          0  MISS:          0
L1I PREFETCH  ACCESS:          0  HIT:          0  MISS:          0
L1I WRITEBACK ACCESS:          0  HIT:          0  MISS:          0
L1I PREFETCH  REQUESTED:          0  ISSUED:          0  USEFUL:          0  USELESS:          0
L2C TOTAL     ACCESS:    4730609  HIT:    2893981  MISS:    1836628
L2C LOAD      ACCESS:    1962079  HIT:    1861319  MISS:     100760
L2C RFO       ACCESS:      50212  HIT:       3158  MISS:      47054
L2C PREFETCH  ACCESS:    2659216  HIT:     970841  MISS:    1688375
L2C WRITEBACK ACCESS:      59102  HIT:      58663  MISS:        439
L2C PREFETCH  REQUESTED:    6240727  ISSUED:    6132543  USEFUL:    3226745  USELESS:       1363
LLC TOTAL     ACCESS:    2057392  HIT:     231831  MISS:    1825561
LLC LOAD      ACCESS:      83835  HIT:       3506  MISS:      80329
LLC RFO       ACCESS:      47054  HIT:          0  MISS:      47054
LLC PREFETCH  ACCESS:    1878888  HIT:     180761  MISS:    1698127
LLC WRITEBACK ACCESS:      47615  HIT:      47564  MISS:         51
LLC PREFETCH  REQUESTED:          0  ISSUED:          0  USEFUL:     101928  USELESS:   10415066
Major fault: 0 Minor fault: 51858

CPU 1 cumulative IPC: 0.972651 instructions: 100000001 cycles: 102811813
L1D TOTAL     ACCESS:   17414046  HIT:   15937161  MISS:    1476885
L1D LOAD      ACCESS:   15905093  HIT:   14550551  MISS:    1354542
L1D RFO       ACCESS:    1508953  HIT:    1386610  MISS:     122343
L1D PREFETCH  ACCESS:          0  HIT:          0  MISS:          0
L1D WRITEBACK ACCESS:          0  HIT:          0  MISS:          0
L1D PREFETCH  REQUESTED:          0  ISSUED:          0  USEFUL:          0  USELESS:          0
L1I TOTAL     ACCESS:   27399722  HIT:   27399576  MISS:        146
L1I LOAD      ACCESS:   27399722  HIT:   27399576  MISS:        146
L1I RFO       ACCESS:          0  HIT:          0  MISS:          0
L1I PREFETCH  ACCESS:          0  HIT:          0  MISS:          0
L1I WRITEBACK ACCESS:          0  HIT:          0  MISS:          0
L1I PREFETCH  REQUESTED:          0  ISSUED:          0  USEFUL:          0  USELESS:          0
L2C TOTAL     ACCESS:    3116319  HIT:    1712359  MISS:    1403960
L2C LOAD      ACCESS:    1354688  HIT:    1130095  MISS:     224593
L2C RFO       ACCESS:     122343  HIT:      10043  MISS:     112300
L2C PREFETCH  ACCESS:    1498636  HIT:     431926  MISS:    1066710
L2C WRITEBACK ACCESS:     140652  HIT:     140295  MISS:        357
L2C PREFETCH  REQUESTED:    3633394  ISSUED:    3633389  USEFUL:    1934226  USELESS:     191805
LLC TOTAL     ACCESS:    1752061  HIT:     938989  MISS:     813072
LLC LOAD      ACCESS:     177984  HIT:      89226  MISS:      88758
LLC RFO       ACCESS:     112291  HIT:      63486  MISS:      48805
LLC PREFETCH  ACCESS:    1333849  HIT:     658448  MISS:     675401
LLC WRITEBACK ACCESS:     127937  HIT:     127829  MISS:        108
LLC PREFETCH  REQUESTED:          0  ISSUED:          0  USEFUL:     101928  USELESS:   10415066
Major fault: 0 Minor fault: 2790

CPU 2 cumulative IPC: 0.708793 instructions: 100000000 cycles: 141084832
L1D TOTAL     ACCESS:   10268775  HIT:    8411864  MISS:    1856911
L1D LOAD      ACCESS:    9241223  HIT:    7947878  MISS:    1293345
L1D RFO       ACCESS:    1027552  HIT:     463986  MISS:     563566
L1D PREFETCH  ACCESS:          0  HIT:          0  MISS:          0
L1D WRITEBACK ACCESS:          0  HIT:          0  MISS:          0
L1D PREFETCH  REQUESTED:          0  ISSUED:          0  USEFUL:          0  USELESS:          0
L1I TOTAL     ACCESS:   22823992  HIT:   22823972  MISS:         20
L1I LOAD      ACCESS:   22823992  HIT:   22823972  MISS:         20
L1I RFO       ACCESS:          0  HIT:          0  MISS:          0
L1I PREFETCH  ACCESS:          0  HIT:          0  MISS:          0
L1I WRITEBACK ACCESS:          0  HIT:          0  MISS:          0
L1I PREFETCH  REQUESTED:          0  ISSUED:          0  USEFUL:          0  USELESS:          0
L2C TOTAL     ACCESS:    3391360  HIT:    1491015  MISS:    1900345
L2C LOAD      ACCESS:    1293365  HIT:     791843  MISS:     501522
L2C RFO       ACCESS:     563566  HIT:         14  MISS:     563552
L2C PREFETCH  ACCESS:     970859  HIT:     135663  MISS:     835196
L2C WRITEBACK ACCESS:     563570  HIT:     563495  MISS:         75
L2C PREFETCH  REQUESTED:    2086261  ISSUED:    2086261  USEFUL:    1223130  USELESS:      72088
LLC TOTAL     ACCESS:    2559981  HIT:     599077  MISS:    1960904
LLC LOAD      ACCESS:     449075  HIT:       2083  MISS:     446992
LLC RFO       ACCESS:     563523  HIT:        212  MISS:     563311
LLC PREFETCH  ACCESS:     983810  HIT:      34388  MISS:     949422
LLC WRITEBACK ACCESS:     563573  HIT:     562394  MISS:       1179
LLC PREFETCH  REQUESTED:          0  ISSUED:          0  USEFUL:     101928  USELESS:   10415066
Major fault: 0 Minor fault: 90029

CPU 3 cumulative IPC: 1.18402 instructions: 100000001 cycles: 84457943
L1D TOTAL     ACCESS:   21206962  HIT:   20645752  MISS:     561210
L1D LOAD      ACCESS:   17355972  HIT:   16822524  MISS:     533448
L1D RFO       ACCESS:    3850990  HIT:    3823228  MISS:      27762
L1D PREFETCH  ACCESS:          0  HIT:          0  MISS:          0
L1D WRITEBACK ACCESS:          0  HIT:          0  MISS:          0
L1D PREFETCH  REQUESTED:          0  ISSUED:          0  USEFUL:          0  USELESS:          0
L1I TOTAL     ACCESS:   25722668  HIT:   25722668  MISS:          0
L1I LOAD      ACCESS:   25722668  HIT:   25722668  MISS:          0
L1I RFO       ACCESS:          0  HIT:          0  MISS:          0
L1I PREFETCH  ACCESS:          0  HIT:          0  MISS:          0
L1I WRITEBACK ACCESS:          0  HIT:          0  MISS:          0
L1I PREFETCH  REQUESTED:          0  ISSUED:          0  USEFUL:          0  USELESS:          0
L2C TOTAL     ACCESS:    1428091  HIT:    1408368  MISS:      19723
L2C LOAD      ACCESS:     533411  HIT:     524801  MISS:       8610
L2C RFO       ACCESS:      27755  HIT:      27665  MISS:         90
L2C PREFETCH  ACCESS:     764569  HIT:     753548  MISS:      11021
L2C WRITEBACK ACCESS:     102356  HIT:     102354  MISS:          2
L2C PREFETCH  REQUESTED:    1803573  ISSUED:    1803573  USEFUL:      17412  USELESS:       8280
LLC TOTAL     ACCESS:      31274  HIT:       6790  MISS:      24484
LLC LOAD      ACCESS:       5227  HIT:       1421  MISS:       3806
LLC RFO       ACCESS:         90  HIT:         45  MISS:         45
LLC PREFETCH  ACCESS:      22521  HIT:       5069  MISS:      17452
LLC WRITEBACK ACCESS:       3436  HIT:        255  MISS:       3181
LLC PREFETCH  REQUESTED:          0  ISSUED:          0  USEFUL:     101928  USELESS:   10415066
Major fault: 0 Minor fault: 503

CPU 4 cumulative IPC: 0.831477 instructions: 100000003 cycles: 120267920
L1D TOTAL     ACCESS:   37773146  HIT:   37295522  MISS:     477624
L1D LOAD      ACCESS:   30073699  HIT:   29862962  MISS:     210737
L1D RFO       ACCESS:    7699447  HIT:    7432560  MISS:     266887
L1D PREFETCH  ACCESS:          0  HIT:          0  MISS:          0
L1D WRITEBACK ACCESS:          0  HIT:          0  MISS:          0
L1D PREFETCH  REQUESTED:          0  ISSUED:          0  USEFUL:          0  USELESS:          0
L1I TOTAL     ACCESS:   27140022  HIT:   27139701  MISS:        321
L1I LOAD      ACCESS:   27140022  HIT:   27139701  MISS:        321
L1I RFO       ACCESS:          0  HIT:          0  MISS:          0
L1I PREFETCH  ACCESS:          0  HIT:          0  MISS:          0
L1I WRITEBACK ACCESS:          0  HIT:          0  MISS:          0
L1I PREFETCH  REQUESTED:          0  ISSUED:          0  USEFUL:          0  USELESS:          0
L2C TOTAL     ACCESS:    1178321  HIT:     883229  MISS:     295092
L2C LOAD      ACCESS:     210830  HIT:     203107  MISS:       7723
L2C RFO       ACCESS:     266887  HIT:       1698  MISS:     265189
L2C PREFETCH  ACCESS:     432603  HIT:     410464  MISS:      22139
L2C WRITEBACK ACCESS:     268001  HIT:     267960  MISS:         41
L2C PREFETCH  REQUESTED:     701889  ISSUED:     701889  USEFUL:      27295  USELESS:       5499
LLC TOTAL     ACCESS:     578939  HIT:     291559  MISS:     287380
LLC LOAD      ACCESS:       7322  HIT:       2714  MISS:       4608
LLC RFO       ACCESS:     265173  HIT:      10185  MISS:     254988
LLC PREFETCH  ACCESS:      39052  HIT:      21054  MISS:      17998
LLC WRITEBACK ACCESS:     267392  HIT:     257606  MISS:       9786
LLC PREFETCH  REQUESTED:          0  ISSUED:          0  USEFUL:     101928  USELESS:   10415066
Major fault: 0 Minor fault: 1276

CPU 5 cumulative IPC: 0.729927 instructions: 100000001 cycles: 136999985
L1D TOTAL     ACCESS:   29093620  HIT:   27627756  MISS:    1465864
L1D LOAD      ACCESS:   19458488  HIT:   18207938  MISS:    1250550
L1D RFO       ACCESS:    9635132  HIT:    9419818  MISS:     215314
L1D PREFETCH  ACCESS:          0  HIT:          0  MISS:          0
L1D WRITEBACK ACCESS:          0  HIT:          0  MISS:          0
L1D PREFETCH  REQUESTED:          0  ISSUED:          0  USEFUL:          0  USELESS:          0
L1I TOTAL     ACCESS:   23606399  HIT:   23606399  MISS:          0
L1I LOAD      ACCESS:   23606399  HIT:   23606399  MISS:          0
L1I RFO       ACCESS:          0  HIT:          0  MISS:          0
L1I PREFETCH  ACCESS:          0  HIT:          0  MISS:          0
L1I WRITEBACK ACCESS:          0  HIT:          0  MISS:          0
L1I PREFETCH  REQUESTED:          0  ISSUED:          0  USEFUL:          0  USELESS:          0
L2C TOTAL     ACCESS:    3187450  HIT:    2436784  MISS:     750666
L2C LOAD      ACCESS:    1250545  HIT:    1094891  MISS:     155654
L2C RFO       ACCESS:     215307  HIT:      15771  MISS:     199536
L2C PREFETCH  ACCESS:    1410014  HIT:    1014649  MISS:     395365
L2C WRITEBACK ACCESS:     311584  HIT:     311473  MISS:        111
L2C PREFETCH  REQUESTED:    2296863  ISSUED:    2295898  USEFUL:     505648  USELESS:      60432
LLC TOTAL     ACCESS:    1073369  HIT:     791609  MISS:     281760
LLC LOAD      ACCESS:     124346  HIT:      88290  MISS:      36056
LLC RFO       ACCESS:     199531  HIT:      50102  MISS:     149429
LLC PREFETCH  ACCESS:     505601  HIT:     412632  MISS:      92969
LLC WRITEBACK ACCESS:     243891  HIT:     240585  MISS:       3306
LLC PREFETCH  REQUESTED:          0  ISSUED:          0  USEFUL:     101928  USELESS:   10415066
Major fault: 0 Minor fault: 879

CPU 6 cumulative IPC: 0.633056 instructions: 100000000 cycles: 157963908
L1D TOTAL     ACCESS:   13750412  HIT:   11289597  MISS:    2460815
L1D LOAD      ACCESS:   11596340  HIT:    9135541  MISS:    2460799
L1D RFO       ACCESS:    2154072  HIT:    2154056  MISS:         16
L1D PREFETCH  ACCESS:          0  HIT:          0  MISS:          0
L1D WRITEBACK ACCESS:          0  HIT:          0  MISS:          0
L1D PREFETCH  REQUESTED:          0  ISSUED:          0  USEFUL:          0  USELESS:          0
L1I TOTAL     ACCESS:   33760703  HIT:   33760703  MISS:          0
L1I LOAD      ACCESS:   33760703  HIT:   33760703  MISS:          0
L1I RFO       ACCESS:          0  HIT:          0  MISS:          0
L1I PREFETCH  ACCESS:          0  HIT:          0  MISS:          0
L1I WRITEBACK ACCESS:          0  HIT:          0  MISS:          0
L1I PREFETCH  REQUESTED:          0  ISSUED:          0  USEFUL:          0  USELESS:          0
L2C TOTAL     ACCESS:    4907783  HIT:    2446956  MISS:    2460827
L2C LOAD      ACCESS:    2460799  HIT:    1729082  MISS:     731717
L2C RFO       ACCESS:         16  HIT:          0  MISS:         16
L2C PREFETCH  ACCESS:    1865808  HIT:     136714  MISS:    1729094
L2C WRITEBACK ACCESS:     581160  HIT:     581160  MISS:          0
L2C PREFETCH  REQUESTED:    3499596  ISSUED:    3499596  USEFUL:    2466415  USELESS:         58
LLC TOTAL     ACCESS:    3044589  HIT:     583756  MISS:    2460833
LLC LOAD      ACCESS:      93919  HIT:         15  MISS:      93904
LLC RFO       ACCESS:         16  HIT:          0  MISS:         16
LLC PREFETCH  ACCESS:    2369605  HIT:       2692  MISS:    2366913
LLC WRITEBACK ACCESS:     581049  HIT:     581049  MISS:          0
LLC PREFETCH  REQUESTED:          0  ISSUED:          0  USEFUL:     101928  USELESS:   10415066
Major fault: 0 Minor fault: 8199

CPU 7 cumulative IPC: 0.682969 instructions: 100000000 cycles: 146419616
L1D TOTAL     ACCESS:   13988380  HIT:   12364265  MISS:    1624115
L1D LOAD      ACCESS:   10271040  HIT:    9222597  MISS:    1048443
L1D RFO       ACCESS:    3717340  HIT:    3141668  MISS:     575672
L1D PREFETCH  ACCESS:          0  HIT:          0  MISS:          0
L1D WRITEBACK ACCESS:          0  HIT:          0  MISS:          0
L1D PREFETCH  REQUESTED:          0  ISSUED:          0  USEFUL:          0  USELESS:          0
L1I TOTAL     ACCESS:   22447388  HIT:   22447338  MISS:         50
L1I LOAD      ACCESS:   22447388  HIT:   22447338  MISS:         50
L1I RFO       ACCESS:          0  HIT:          0  MISS:          0
L1I PREFETCH  ACCESS:          0  HIT:          0  MISS:          0
L1I WRITEBACK ACCESS:          0  HIT:          0  MISS:          0
L1I PREFETCH  REQUESTED:          0  ISSUED:          0  USEFUL:          0  USELESS:          0
L2C TOTAL     ACCESS:    3177378  HIT:    1478207  MISS:    1699171
L2C LOAD      ACCESS:    1048493  HIT:     720356  MISS:     328137
L2C RFO       ACCESS:     575672  HIT:          0  MISS:     575672
L2C PREFETCH  ACCESS:     917580  HIT:     122842  MISS:     794738
L2C WRITEBACK ACCESS:     635633  HIT:     635009  MISS:        624
L2C PREFETCH  REQUESTED:    1986829  ISSUED:    1986829  USEFUL:    1144872  USELESS:     133044
LLC TOTAL     ACCESS:    2495896  HIT:     675855  MISS:    1820041
LLC LOAD      ACCESS:     270194  HIT:       6555  MISS:     263639
LLC RFO       ACCESS:     575672  HIT:          0  MISS:     575672
LLC PREFETCH  ACCESS:    1014560  HIT:      44189  MISS:     970371
LLC WRITEBACK ACCESS:     635470  HIT:     625111  MISS:      10359
LLC PREFETCH  REQUESTED:          0  ISSUED:          0  USEFUL:     101928  USELESS:   10415066
Major fault: 0 Minor fault: 94281

Avg Lookahead Depth:	5.04703
TOTAL: 2.22491e+07	L2C: 1.88245e+07	LLC: 3.42465e+06	GOOD_L2C: 1.25947e+07
Printing all the perceptron weights to: perc_weights_0.csv

Avg Lookahead Depth:	5.04703
TOTAL: 2.22491e+07	L2C: 1.88245e+07	LLC: 3.42465e+06	GOOD_L2C: 1.25947e+07
Printing all the perceptron weights to: perc_weights_0.csv

Avg Lookahead Depth:	5.04703
TOTAL: 2.22491e+07	L2C: 1.88245e+07	LLC: 3.42465e+06	GOOD_L2C: 1.25947e+07
Printing all the perceptron weights to: perc_weights_0.csv

Avg Lookahead Depth:	5.04703
TOTAL: 2.22491e+07	L2C: 1.88245e+07	LLC: 3.42465e+06	GOOD_L2C: 1.25947e+07
Printing all the perceptron weights to: perc_weights_0.csv

Avg Lookahead Depth:	5.04703
TOTAL: 2.22491e+07	L2C: 1.88245e+07	LLC: 3.42465e+06	GOOD_L2C: 1.25947e+07
Printing all the perceptron weights to: perc_weights_0.csv

Avg Lookahead Depth:	5.04703
TOTAL: 2.22491e+07	L2C: 1.88245e+07	LLC: 3.42465e+06	GOOD_L2C: 1.25947e+07
Printing all the perceptron weights to: perc_weights_0.csv

Avg Lookahead Depth:	5.04703
TOTAL: 2.22491e+07	L2C: 1.88245e+07	LLC: 3.42465e+06	GOOD_L2C: 1.25947e+07
Printing all the perceptron weights to: perc_weights_0.csv

Avg Lookahead Depth:	5.04703
TOTAL: 2.22491e+07	L2C: 1.88245e+07	LLC: 3.42465e+06	GOOD_L2C: 1.25947e+07
Printing all the perceptron weights to: perc_weights_0.csv

DRAM Statistics
 CHANNEL 0
 RQ ROW_BUFFER_HIT:    3287271  ROW_BUFFER_MISS:    2635970
 DBUS_CONGESTED:   11422501
 WQ ROW_BUFFER_HIT:     132939  ROW_BUFFER_MISS:    1154317  FULL:          0

 CHANNEL 1
 RQ ROW_BUFFER_HIT:    3100549  ROW_BUFFER_MISS:    2577727
 DBUS_CONGESTED:   11422501
 WQ ROW_BUFFER_HIT:     140725  ROW_BUFFER_MISS:    1217789  FULL:          0

 AVG_CONGESTED_CYCLE: 13
