Initialize SIGNATURE TABLE
ST_SET: 1
ST_WAY: 256
ST_TAG_BIT: 16
ST_TAG_MASK: ffff

Initialize PATTERN TABLE
PT_SET: 512
PT_WAY: 4
SIG_DELTA_BIT: 7
C_SIG_BIT: 4
C_DELTA_BIT: 4

Initialize PREFETCH FILTER
FILTER_SET: 1024

Initialize PERCEPTRON
PERC_ENTRIES: 4096
PERC_FEATURES: 9

*** ChampSim Multicore Out-of-Order Simulator ***

Warmup Instructions: 20000000
Simulation Instructions: 100000000
Number of CPUs: 8
LLC sets: 16384
LLC ways: 16
Off-chip DRAM Size: 8192 MB Channels: 2 Width: 64-bit Data Rate: 1600 MT/s

CPU 0 runs /scratch/user/djimenez/champsim-traces/speccpu2006/xz/445.gobmk-17B.champsimtrace.xz
CPU 1 runs /scratch/user/djimenez/champsim-traces/speccpu2006/xz/454.calculix-460B.champsimtrace.xz
CPU 2 runs /scratch/user/djimenez/champsim-traces/speccpu2006/xz/434.zeusmp-10B.champsimtrace.xz
CPU 3 runs /scratch/user/djimenez/champsim-traces/speccpu2006/xz/410.bwaves-1963B.champsimtrace.xz
CPU 4 runs /scratch/user/djimenez/champsim-traces/speccpu2006/xz/481.wrf-1170B.champsimtrace.xz
CPU 5 runs /scratch/user/djimenez/champsim-traces/speccpu2006/xz/429.mcf-217B.champsimtrace.xz
CPU 6 runs /scratch/user/djimenez/champsim-traces/speccpu2006/xz/481.wrf-455B.champsimtrace.xz
CPU 7 runs /scratch/user/djimenez/champsim-traces/speccpu2006/xz/482.sphinx3-1395B.champsimtrace.xz
Heartbeat CPU 1 instructions: 10000000 cycles: 3327123 heartbeat IPC: 3.0056 cumulative IPC: 3.0056 (Simulation time: 0 hr 2 min 26 sec) 
Heartbeat CPU 7 instructions: 10000001 cycles: 3944961 heartbeat IPC: 2.53488 cumulative IPC: 2.53488 (Simulation time: 0 hr 2 min 53 sec) 
Heartbeat CPU 2 instructions: 10000003 cycles: 4296822 heartbeat IPC: 2.3273 cumulative IPC: 2.3273 (Simulation time: 0 hr 3 min 8 sec) 
Heartbeat CPU 5 instructions: 10000003 cycles: 5763269 heartbeat IPC: 1.73513 cumulative IPC: 1.73513 (Simulation time: 0 hr 4 min 12 sec) 
Heartbeat CPU 4 instructions: 10000001 cycles: 6135111 heartbeat IPC: 1.62996 cumulative IPC: 1.62996 (Simulation time: 0 hr 4 min 28 sec) 
Heartbeat CPU 6 instructions: 10000001 cycles: 6205581 heartbeat IPC: 1.61145 cumulative IPC: 1.61145 (Simulation time: 0 hr 4 min 31 sec) 
Heartbeat CPU 1 instructions: 20000000 cycles: 6535080 heartbeat IPC: 3.11725 cumulative IPC: 3.06041 (Simulation time: 0 hr 4 min 46 sec) 
Heartbeat CPU 3 instructions: 10000002 cycles: 6624001 heartbeat IPC: 1.50966 cumulative IPC: 1.50966 (Simulation time: 0 hr 4 min 50 sec) 
Heartbeat CPU 0 instructions: 10000000 cycles: 6723631 heartbeat IPC: 1.48729 cumulative IPC: 1.48729 (Simulation time: 0 hr 4 min 55 sec) 
Heartbeat CPU 7 instructions: 20000000 cycles: 7942215 heartbeat IPC: 2.50172 cumulative IPC: 2.51819 (Simulation time: 0 hr 5 min 51 sec) 
Heartbeat CPU 2 instructions: 20000000 cycles: 8667290 heartbeat IPC: 2.28808 cumulative IPC: 2.30753 (Simulation time: 0 hr 6 min 24 sec) 
Heartbeat CPU 1 instructions: 30000001 cycles: 9822531 heartbeat IPC: 3.04187 cumulative IPC: 1.01807 (Simulation time: 0 hr 7 min 14 sec) 
Heartbeat CPU 7 instructions: 30000000 cycles: 11793255 heartbeat IPC: 2.5967 cumulative IPC: 0.847942 (Simulation time: 0 hr 8 min 41 sec) 
Heartbeat CPU 5 instructions: 20000000 cycles: 12183231 heartbeat IPC: 1.55764 cumulative IPC: 1.6416 (Simulation time: 0 hr 8 min 59 sec) 
Heartbeat CPU 4 instructions: 20000000 cycles: 12264591 heartbeat IPC: 1.63146 cumulative IPC: 1.63071 (Simulation time: 0 hr 9 min 3 sec) 
Heartbeat CPU 2 instructions: 30000001 cycles: 13037493 heartbeat IPC: 2.28822 cumulative IPC: 0.767019 (Simulation time: 0 hr 9 min 37 sec) 
Heartbeat CPU 1 instructions: 40000000 cycles: 13048435 heartbeat IPC: 3.09991 cumulative IPC: 1.53275 (Simulation time: 0 hr 9 min 37 sec) 
Heartbeat CPU 6 instructions: 20000000 cycles: 13080080 heartbeat IPC: 1.45465 cumulative IPC: 1.52904 (Simulation time: 0 hr 9 min 39 sec) 
Heartbeat CPU 3 instructions: 20000000 cycles: 13247053 heartbeat IPC: 1.50988 cumulative IPC: 1.50977 (Simulation time: 0 hr 9 min 46 sec) 
Heartbeat CPU 0 instructions: 20000000 cycles: 13374209 heartbeat IPC: 1.50363 cumulative IPC: 1.49542 (Simulation time: 0 hr 9 min 52 sec) 

Warmup complete CPU 0 instructions: 20000001 cycles: 13374214 (Simulation time: 0 hr 9 min 52 sec) 
Warmup complete CPU 1 instructions: 41017856 cycles: 13374213 (Simulation time: 0 hr 9 min 52 sec) 
Warmup complete CPU 2 instructions: 30808637 cycles: 13374213 (Simulation time: 0 hr 9 min 52 sec) 
Warmup complete CPU 3 instructions: 20192148 cycles: 13374213 (Simulation time: 0 hr 9 min 52 sec) 
Warmup complete CPU 4 instructions: 21810001 cycles: 13374213 (Simulation time: 0 hr 9 min 52 sec) 
Warmup complete CPU 5 instructions: 22011666 cycles: 13374213 (Simulation time: 0 hr 9 min 52 sec) 
Warmup complete CPU 6 instructions: 20419730 cycles: 13374213 (Simulation time: 0 hr 9 min 52 sec) 
Warmup complete CPU 7 instructions: 34228741 cycles: 13374213 (Simulation time: 0 hr 9 min 52 sec) 

Heartbeat CPU 1 instructions: 50000001 cycles: 17841016 heartbeat IPC: 2.08656 cumulative IPC: 2.01087 (Simulation time: 0 hr 12 min 6 sec) 
Heartbeat CPU 7 instructions: 40000000 cycles: 18664743 heartbeat IPC: 1.45529 cumulative IPC: 1.09087 (Simulation time: 0 hr 12 min 29 sec) 
Heartbeat CPU 3 instructions: 30000000 cycles: 21818620 heartbeat IPC: 1.16665 cumulative IPC: 1.16146 (Simulation time: 0 hr 13 min 59 sec) 
Heartbeat CPU 2 instructions: 40000000 cycles: 22110811 heartbeat IPC: 1.10213 cumulative IPC: 1.05205 (Simulation time: 0 hr 14 min 7 sec) 
Heartbeat CPU 6 instructions: 30000003 cycles: 22435065 heartbeat IPC: 1.06895 cumulative IPC: 1.05733 (Simulation time: 0 hr 14 min 17 sec) 
Heartbeat CPU 1 instructions: 60000000 cycles: 22913388 heartbeat IPC: 1.97146 cumulative IPC: 1.98991 (Simulation time: 0 hr 14 min 30 sec) 
Heartbeat CPU 4 instructions: 30000003 cycles: 25846046 heartbeat IPC: 0.736298 cumulative IPC: 0.65668 (Simulation time: 0 hr 15 min 50 sec) 
Heartbeat CPU 7 instructions: 50000000 cycles: 27761827 heartbeat IPC: 1.09925 cumulative IPC: 1.09617 (Simulation time: 0 hr 16 min 42 sec) 
Heartbeat CPU 1 instructions: 70000000 cycles: 30101459 heartbeat IPC: 1.39119 cumulative IPC: 1.73263 (Simulation time: 0 hr 17 min 51 sec) 
Heartbeat CPU 3 instructions: 40000000 cycles: 30388425 heartbeat IPC: 1.16689 cumulative IPC: 1.16419 (Simulation time: 0 hr 17 min 59 sec) 
Heartbeat CPU 5 instructions: 30000002 cycles: 30542521 heartbeat IPC: 0.544683 cumulative IPC: 0.465295 (Simulation time: 0 hr 18 min 4 sec) 
Heartbeat CPU 6 instructions: 40000000 cycles: 31899500 heartbeat IPC: 1.05659 cumulative IPC: 1.05695 (Simulation time: 0 hr 18 min 45 sec) 
Heartbeat CPU 2 instructions: 50000003 cycles: 31921816 heartbeat IPC: 1.01926 cumulative IPC: 1.03471 (Simulation time: 0 hr 18 min 46 sec) 
Heartbeat CPU 0 instructions: 30000001 cycles: 35034381 heartbeat IPC: 0.461677 cumulative IPC: 0.461677 (Simulation time: 0 hr 20 min 15 sec) 
Heartbeat CPU 7 instructions: 60000000 cycles: 36239121 heartbeat IPC: 1.17962 cumulative IPC: 1.12711 (Simulation time: 0 hr 20 min 52 sec) 
Heartbeat CPU 1 instructions: 80000000 cycles: 37412505 heartbeat IPC: 1.36779 cumulative IPC: 1.62167 (Simulation time: 0 hr 21 min 26 sec) 
Heartbeat CPU 3 instructions: 50000001 cycles: 38973635 heartbeat IPC: 1.16479 cumulative IPC: 1.1644 (Simulation time: 0 hr 22 min 13 sec) 
Heartbeat CPU 4 instructions: 40000000 cycles: 41065130 heartbeat IPC: 0.65707 cumulative IPC: 0.656894 (Simulation time: 0 hr 23 min 13 sec) 
Heartbeat CPU 6 instructions: 50000000 cycles: 41336167 heartbeat IPC: 1.0597 cumulative IPC: 1.05788 (Simulation time: 0 hr 23 min 20 sec) 
Heartbeat CPU 2 instructions: 60000000 cycles: 41795804 heartbeat IPC: 1.01276 cumulative IPC: 1.02708 (Simulation time: 0 hr 23 min 33 sec) 
Heartbeat CPU 1 instructions: 90000002 cycles: 42979117 heartbeat IPC: 1.79643 cumulative IPC: 1.65453 (Simulation time: 0 hr 24 min 9 sec) 
Heartbeat CPU 5 instructions: 40000000 cycles: 44357177 heartbeat IPC: 0.723869 cumulative IPC: 0.580588 (Simulation time: 0 hr 24 min 49 sec) 
Heartbeat CPU 7 instructions: 70000000 cycles: 45307491 heartbeat IPC: 1.10273 cumulative IPC: 1.12019 (Simulation time: 0 hr 25 min 19 sec) 
Heartbeat CPU 3 instructions: 60000000 cycles: 47563349 heartbeat IPC: 1.16418 cumulative IPC: 1.16434 (Simulation time: 0 hr 26 min 27 sec) 
Heartbeat CPU 1 instructions: 100000000 cycles: 47622713 heartbeat IPC: 2.1535 cumulative IPC: 1.72218 (Simulation time: 0 hr 26 min 28 sec) 
Heartbeat CPU 6 instructions: 60000000 cycles: 49575126 heartbeat IPC: 1.21375 cumulative IPC: 1.09335 (Simulation time: 0 hr 27 min 24 sec) 
Heartbeat CPU 2 instructions: 70000000 cycles: 51531197 heartbeat IPC: 1.02718 cumulative IPC: 1.02711 (Simulation time: 0 hr 28 min 18 sec) 
Heartbeat CPU 1 instructions: 110000003 cycles: 52658596 heartbeat IPC: 1.98575 cumulative IPC: 1.75597 (Simulation time: 0 hr 28 min 53 sec) 
Heartbeat CPU 7 instructions: 80000000 cycles: 54775658 heartbeat IPC: 1.05617 cumulative IPC: 1.10555 (Simulation time: 0 hr 29 min 55 sec) 
Heartbeat CPU 0 instructions: 40000000 cycles: 55059616 heartbeat IPC: 0.49937 cumulative IPC: 0.479784 (Simulation time: 0 hr 30 min 4 sec) 
Heartbeat CPU 3 instructions: 70000003 cycles: 56317946 heartbeat IPC: 1.14226 cumulative IPC: 1.15984 (Simulation time: 0 hr 30 min 41 sec) 
Heartbeat CPU 4 instructions: 50000001 cycles: 56326301 heartbeat IPC: 0.655258 cumulative IPC: 0.656313 (Simulation time: 0 hr 30 min 42 sec) 
Heartbeat CPU 1 instructions: 120000000 cycles: 57546754 heartbeat IPC: 2.04576 cumulative IPC: 1.78804 (Simulation time: 0 hr 31 min 15 sec) 
Heartbeat CPU 6 instructions: 70000000 cycles: 58929080 heartbeat IPC: 1.06907 cumulative IPC: 1.08836 (Simulation time: 0 hr 31 min 56 sec) 
Heartbeat CPU 2 instructions: 80000000 cycles: 61434082 heartbeat IPC: 1.00981 cumulative IPC: 1.02354 (Simulation time: 0 hr 33 min 9 sec) 
Heartbeat CPU 7 instructions: 90000000 cycles: 62332323 heartbeat IPC: 1.32334 cumulative IPC: 1.13916 (Simulation time: 0 hr 33 min 35 sec) 
Heartbeat CPU 1 instructions: 130000000 cycles: 62416471 heartbeat IPC: 2.05351 cumulative IPC: 1.8144 (Simulation time: 0 hr 33 min 38 sec) 
Heartbeat CPU 5 instructions: 50000001 cycles: 63315878 heartbeat IPC: 0.527462 cumulative IPC: 0.560421 (Simulation time: 0 hr 34 min 5 sec) 
Heartbeat CPU 3 instructions: 80000000 cycles: 64971701 heartbeat IPC: 1.15557 cumulative IPC: 1.15912 (Simulation time: 0 hr 34 min 54 sec) 
Heartbeat CPU 1 instructions: 140000000 cycles: 67266404 heartbeat IPC: 2.06188 cumulative IPC: 1.83667 (Simulation time: 0 hr 36 min 2 sec) 
Finished CPU 1 instructions: 100000000 cycles: 54377490 cumulative IPC: 1.839 (Simulation time: 0 hr 36 min 16 sec) 
Heartbeat CPU 6 instructions: 80000000 cycles: 68714374 heartbeat IPC: 1.02194 cumulative IPC: 1.07662 (Simulation time: 0 hr 36 min 44 sec) 
Heartbeat CPU 7 instructions: 100000000 cycles: 69065661 heartbeat IPC: 1.48515 cumulative IPC: 1.18099 (Simulation time: 0 hr 36 min 55 sec) 
Heartbeat CPU 2 instructions: 90000001 cycles: 71176557 heartbeat IPC: 1.02643 cumulative IPC: 1.02403 (Simulation time: 0 hr 37 min 58 sec) 
Heartbeat CPU 4 instructions: 60000000 cycles: 71603380 heartbeat IPC: 0.654575 cumulative IPC: 0.655857 (Simulation time: 0 hr 38 min 12 sec) 
Heartbeat CPU 1 instructions: 150000003 cycles: 71954367 heartbeat IPC: 2.13312 cumulative IPC: 1.86039 (Simulation time: 0 hr 38 min 23 sec) 
Heartbeat CPU 3 instructions: 90000000 cycles: 73533583 heartbeat IPC: 1.16797 cumulative IPC: 1.16038 (Simulation time: 0 hr 39 min 12 sec) 
Heartbeat CPU 0 instructions: 50000000 cycles: 74849343 heartbeat IPC: 0.505313 cumulative IPC: 0.488002 (Simulation time: 0 hr 39 min 51 sec) 
Heartbeat CPU 1 instructions: 160000000 cycles: 76796845 heartbeat IPC: 2.06506 cumulative IPC: 1.87602 (Simulation time: 0 hr 40 min 48 sec) 
Heartbeat CPU 7 instructions: 110000000 cycles: 77627434 heartbeat IPC: 1.16798 cumulative IPC: 1.17926 (Simulation time: 0 hr 41 min 11 sec) 
Heartbeat CPU 6 instructions: 90000002 cycles: 78492549 heartbeat IPC: 1.02269 cumulative IPC: 1.06852 (Simulation time: 0 hr 41 min 37 sec) 
Heartbeat CPU 2 instructions: 100000000 cycles: 80754818 heartbeat IPC: 1.04403 cumulative IPC: 1.02687 (Simulation time: 0 hr 42 min 41 sec) 
Heartbeat CPU 1 instructions: 170000000 cycles: 81755854 heartbeat IPC: 2.01653 cumulative IPC: 1.88621 (Simulation time: 0 hr 43 min 10 sec) 
Heartbeat CPU 3 instructions: 100000000 cycles: 82165482 heartbeat IPC: 1.15849 cumulative IPC: 1.16015 (Simulation time: 0 hr 43 min 22 sec) 
Heartbeat CPU 7 instructions: 120000000 cycles: 85855405 heartbeat IPC: 1.21537 cumulative IPC: 1.18336 (Simulation time: 0 hr 45 min 10 sec) 
Heartbeat CPU 6 instructions: 100000000 cycles: 86539150 heartbeat IPC: 1.24276 cumulative IPC: 1.08768 (Simulation time: 0 hr 45 min 32 sec) 
Heartbeat CPU 1 instructions: 180000000 cycles: 86579447 heartbeat IPC: 2.07314 cumulative IPC: 1.89853 (Simulation time: 0 hr 45 min 33 sec) 
Heartbeat CPU 4 instructions: 70000000 cycles: 86839259 heartbeat IPC: 0.656345 cumulative IPC: 0.655958 (Simulation time: 0 hr 45 min 41 sec) 
Heartbeat CPU 5 instructions: 60000000 cycles: 87030198 heartbeat IPC: 0.421686 cumulative IPC: 0.515754 (Simulation time: 0 hr 45 min 48 sec) 
Heartbeat CPU 2 instructions: 110000001 cycles: 90482495 heartbeat IPC: 1.02799 cumulative IPC: 1.02701 (Simulation time: 0 hr 47 min 37 sec) 
Heartbeat CPU 3 instructions: 110000001 cycles: 90702933 heartbeat IPC: 1.17131 cumulative IPC: 1.16138 (Simulation time: 0 hr 47 min 44 sec) 
Heartbeat CPU 1 instructions: 190000002 cycles: 91338784 heartbeat IPC: 2.10113 cumulative IPC: 1.9109 (Simulation time: 0 hr 48 min 4 sec) 
Heartbeat CPU 7 instructions: 130000001 cycles: 92808745 heartbeat IPC: 1.43816 cumulative IPC: 1.20566 (Simulation time: 0 hr 48 min 46 sec) 
Heartbeat CPU 6 instructions: 110000003 cycles: 93998104 heartbeat IPC: 1.34067 cumulative IPC: 1.11109 (Simulation time: 0 hr 49 min 24 sec) 
Heartbeat CPU 0 instructions: 60000000 cycles: 94557270 heartbeat IPC: 0.50741 cumulative IPC: 0.492714 (Simulation time: 0 hr 49 min 41 sec) 
Finished CPU 7 instructions: 100000000 cycles: 82135488 cumulative IPC: 1.2175 (Simulation time: 0 hr 50 min 11 sec) 
Heartbeat CPU 1 instructions: 200000000 cycles: 96471330 heartbeat IPC: 1.94835 cumulative IPC: 1.91321 (Simulation time: 0 hr 50 min 41 sec) 
Heartbeat CPU 3 instructions: 120000000 cycles: 99303150 heartbeat IPC: 1.16276 cumulative IPC: 1.16152 (Simulation time: 0 hr 52 min 5 sec) 
Heartbeat CPU 7 instructions: 140000000 cycles: 99305479 heartbeat IPC: 1.53923 cumulative IPC: 1.23088 (Simulation time: 0 hr 52 min 5 sec) 
Finished CPU 3 instructions: 100000000 cycles: 86093731 cumulative IPC: 1.16152 (Simulation time: 0 hr 52 min 10 sec) 
Heartbeat CPU 2 instructions: 120000000 cycles: 100149897 heartbeat IPC: 1.0344 cumulative IPC: 1.02784 (Simulation time: 0 hr 52 min 28 sec) 
Heartbeat CPU 4 instructions: 80000000 cycles: 102087414 heartbeat IPC: 0.655817 cumulative IPC: 0.655934 (Simulation time: 0 hr 53 min 23 sec) 
Heartbeat CPU 1 instructions: 210000001 cycles: 102146069 heartbeat IPC: 1.7622 cumulative IPC: 1.90356 (Simulation time: 0 hr 53 min 25 sec) 
Heartbeat CPU 6 instructions: 120000000 cycles: 102805946 heartbeat IPC: 1.13535 cumulative IPC: 1.11348 (Simulation time: 0 hr 53 min 44 sec) 
Finished CPU 6 instructions: 100000000 cycles: 89809091 cumulative IPC: 1.11347 (Simulation time: 0 hr 53 min 55 sec) 
Heartbeat CPU 5 instructions: 70000000 cycles: 104655998 heartbeat IPC: 0.56735 cumulative IPC: 0.525716 (Simulation time: 0 hr 54 min 37 sec) 
Heartbeat CPU 7 instructions: 150000000 cycles: 106414687 heartbeat IPC: 1.40663 cumulative IPC: 1.24431 (Simulation time: 0 hr 55 min 27 sec) 
Heartbeat CPU 1 instructions: 220000000 cycles: 107633234 heartbeat IPC: 1.82243 cumulative IPC: 1.89883 (Simulation time: 0 hr 56 min 2 sec) 
Heartbeat CPU 3 instructions: 130000001 cycles: 107977420 heartbeat IPC: 1.15283 cumulative IPC: 1.16072 (Simulation time: 0 hr 56 min 12 sec) 
Heartbeat CPU 2 instructions: 130000001 cycles: 109573731 heartbeat IPC: 1.06114 cumulative IPC: 1.0311 (Simulation time: 0 hr 56 min 59 sec) 
Finished CPU 2 instructions: 100000001 cycles: 97036469 cumulative IPC: 1.03054 (Simulation time: 0 hr 57 min 23 sec) 
Heartbeat CPU 6 instructions: 130000002 cycles: 111415891 heartbeat IPC: 1.16145 cumulative IPC: 1.11769 (Simulation time: 0 hr 57 min 53 sec) 
Heartbeat CPU 1 instructions: 230000003 cycles: 112591693 heartbeat IPC: 2.01676 cumulative IPC: 1.90473 (Simulation time: 0 hr 58 min 28 sec) 
Heartbeat CPU 7 instructions: 160000000 cycles: 112979339 heartbeat IPC: 1.52331 cumulative IPC: 1.2627 (Simulation time: 0 hr 58 min 40 sec) 
Heartbeat CPU 0 instructions: 70000000 cycles: 114200979 heartbeat IPC: 0.509069 cumulative IPC: 0.4959 (Simulation time: 0 hr 59 min 16 sec) 
Heartbeat CPU 3 instructions: 140000000 cycles: 116616268 heartbeat IPC: 1.15756 cumulative IPC: 1.16046 (Simulation time: 1 hr 0 min 27 sec) 
Heartbeat CPU 4 instructions: 90000001 cycles: 117362005 heartbeat IPC: 0.654682 cumulative IPC: 0.65575 (Simulation time: 1 hr 0 min 50 sec) 
Heartbeat CPU 6 instructions: 140000000 cycles: 117797545 heartbeat IPC: 1.56699 cumulative IPC: 1.14515 (Simulation time: 1 hr 1 min 3 sec) 
Heartbeat CPU 1 instructions: 240000000 cycles: 118007503 heartbeat IPC: 1.84645 cumulative IPC: 1.90171 (Simulation time: 1 hr 1 min 10 sec) 
Heartbeat CPU 2 instructions: 140000000 cycles: 119454094 heartbeat IPC: 1.01211 cumulative IPC: 1.02933 (Simulation time: 1 hr 1 min 55 sec) 
Heartbeat CPU 7 instructions: 170000003 cycles: 119760210 heartbeat IPC: 1.47474 cumulative IPC: 1.27621 (Simulation time: 1 hr 2 min 5 sec) 
Heartbeat CPU 1 instructions: 250000000 cycles: 122966598 heartbeat IPC: 2.0165 cumulative IPC: 1.9069 (Simulation time: 1 hr 3 min 45 sec) 
Heartbeat CPU 3 instructions: 150000002 cycles: 125270910 heartbeat IPC: 1.15545 cumulative IPC: 1.16007 (Simulation time: 1 hr 4 min 52 sec) 
Heartbeat CPU 5 instructions: 80000000 cycles: 126429347 heartbeat IPC: 0.459277 cumulative IPC: 0.512921 (Simulation time: 1 hr 5 min 26 sec) 
Heartbeat CPU 6 instructions: 150000000 cycles: 126605568 heartbeat IPC: 1.13533 cumulative IPC: 1.14439 (Simulation time: 1 hr 5 min 31 sec) 
Heartbeat CPU 7 instructions: 180000000 cycles: 127252543 heartbeat IPC: 1.3347 cumulative IPC: 1.28006 (Simulation time: 1 hr 5 min 51 sec) 
Heartbeat CPU 1 instructions: 260000000 cycles: 127951351 heartbeat IPC: 2.00612 cumulative IPC: 1.91122 (Simulation time: 1 hr 6 min 13 sec) 
Heartbeat CPU 2 instructions: 150000000 cycles: 129297125 heartbeat IPC: 1.01595 cumulative IPC: 1.0282 (Simulation time: 1 hr 6 min 53 sec) 
Heartbeat CPU 4 instructions: 100000000 cycles: 132590594 heartbeat IPC: 0.65666 cumulative IPC: 0.655866 (Simulation time: 1 hr 8 min 29 sec) 
Heartbeat CPU 0 instructions: 80000000 cycles: 133546975 heartbeat IPC: 0.516903 cumulative IPC: 0.499281 (Simulation time: 1 hr 8 min 52 sec) 
Heartbeat CPU 1 instructions: 270000000 cycles: 133578703 heartbeat IPC: 1.77703 cumulative IPC: 1.90494 (Simulation time: 1 hr 8 min 53 sec) 
Heartbeat CPU 3 instructions: 160000000 cycles: 134015430 heartbeat IPC: 1.14357 cumulative IPC: 1.15887 (Simulation time: 1 hr 9 min 4 sec) 
Heartbeat CPU 6 instructions: 160000000 cycles: 135473679 heartbeat IPC: 1.12764 cumulative IPC: 1.14317 (Simulation time: 1 hr 9 min 46 sec) 
Heartbeat CPU 7 instructions: 190000003 cycles: 136017175 heartbeat IPC: 1.14095 cumulative IPC: 1.27012 (Simulation time: 1 hr 10 min 1 sec) 
Heartbeat CPU 2 instructions: 160000000 cycles: 138828785 heartbeat IPC: 1.04914 cumulative IPC: 1.02979 (Simulation time: 1 hr 11 min 20 sec) 
Heartbeat CPU 1 instructions: 280000000 cycles: 141103532 heartbeat IPC: 1.32893 cumulative IPC: 1.871 (Simulation time: 1 hr 12 min 21 sec) 
Heartbeat CPU 3 instructions: 170000000 cycles: 142701800 heartbeat IPC: 1.15123 cumulative IPC: 1.15836 (Simulation time: 1 hr 13 min 8 sec) 
Heartbeat CPU 6 instructions: 170000000 cycles: 143463441 heartbeat IPC: 1.2516 cumulative IPC: 1.14983 (Simulation time: 1 hr 13 min 30 sec) 
Heartbeat CPU 7 instructions: 200000000 cycles: 145721946 heartbeat IPC: 1.03042 cumulative IPC: 1.25254 (Simulation time: 1 hr 14 min 38 sec) 
Heartbeat CPU 5 instructions: 90000000 cycles: 145846775 heartbeat IPC: 0.515001 cumulative IPC: 0.513226 (Simulation time: 1 hr 14 min 42 sec) 
Heartbeat CPU 4 instructions: 110000001 cycles: 147842978 heartbeat IPC: 0.655635 cumulative IPC: 0.65584 (Simulation time: 1 hr 15 min 39 sec) 
Heartbeat CPU 1 instructions: 290000003 cycles: 148414995 heartbeat IPC: 1.36772 cumulative IPC: 1.84376 (Simulation time: 1 hr 15 min 54 sec) 
Heartbeat CPU 2 instructions: 170000001 cycles: 148726608 heartbeat IPC: 1.01032 cumulative IPC: 1.02836 (Simulation time: 1 hr 16 min 3 sec) 
Heartbeat CPU 6 instructions: 180000000 cycles: 151002166 heartbeat IPC: 1.32648 cumulative IPC: 1.1595 (Simulation time: 1 hr 17 min 6 sec) 
Heartbeat CPU 3 instructions: 180000000 cycles: 151417123 heartbeat IPC: 1.1474 cumulative IPC: 1.15767 (Simulation time: 1 hr 17 min 18 sec) 
Heartbeat CPU 1 instructions: 300000000 cycles: 153063379 heartbeat IPC: 2.15128 cumulative IPC: 1.85399 (Simulation time: 1 hr 18 min 6 sec) 
Heartbeat CPU 0 instructions: 90000002 cycles: 153122780 heartbeat IPC: 0.510835 cumulative IPC: 0.5009 (Simulation time: 1 hr 18 min 8 sec) 
Heartbeat CPU 7 instructions: 210000003 cycles: 155920735 heartbeat IPC: 0.980509 cumulative IPC: 1.23308 (Simulation time: 1 hr 19 min 26 sec) 
Heartbeat CPU 1 instructions: 310000002 cycles: 158037973 heartbeat IPC: 2.01021 cumulative IPC: 1.85936 (Simulation time: 1 hr 20 min 28 sec) 
Heartbeat CPU 6 instructions: 190000001 cycles: 158364580 heartbeat IPC: 1.35825 cumulative IPC: 1.1696 (Simulation time: 1 hr 20 min 37 sec) 
Heartbeat CPU 2 instructions: 180000000 cycles: 158719688 heartbeat IPC: 1.00069 cumulative IPC: 1.02646 (Simulation time: 1 hr 20 min 48 sec) 
Heartbeat CPU 3 instructions: 190000003 cycles: 160072936 heartbeat IPC: 1.15529 cumulative IPC: 1.15753 (Simulation time: 1 hr 21 min 30 sec) 
Heartbeat CPU 1 instructions: 320000000 cycles: 162690998 heartbeat IPC: 2.14914 cumulative IPC: 1.86839 (Simulation time: 1 hr 22 min 49 sec) 
Heartbeat CPU 4 instructions: 120000000 cycles: 163123495 heartbeat IPC: 0.654428 cumulative IPC: 0.655696 (Simulation time: 1 hr 23 min 2 sec) 
Heartbeat CPU 7 instructions: 220000000 cycles: 165587384 heartbeat IPC: 1.03448 cumulative IPC: 1.22047 (Simulation time: 1 hr 24 min 9 sec) 
Heartbeat CPU 6 instructions: 200000000 cycles: 165671997 heartbeat IPC: 1.36847 cumulative IPC: 1.17914 (Simulation time: 1 hr 24 min 12 sec) 
Finished CPU 4 instructions: 100000001 cycles: 152513251 cumulative IPC: 0.655681 (Simulation time: 1 hr 24 min 19 sec) 
Heartbeat CPU 5 instructions: 100000000 cycles: 166560949 heartbeat IPC: 0.482761 cumulative IPC: 0.509106 (Simulation time: 1 hr 24 min 39 sec) 
Heartbeat CPU 1 instructions: 330000002 cycles: 167714527 heartbeat IPC: 1.99063 cumulative IPC: 1.87237 (Simulation time: 1 hr 25 min 16 sec) 
Heartbeat CPU 2 instructions: 190000003 cycles: 168357961 heartbeat IPC: 1.03753 cumulative IPC: 1.02715 (Simulation time: 1 hr 25 min 35 sec) 
Heartbeat CPU 3 instructions: 200000000 cycles: 168728967 heartbeat IPC: 1.15526 cumulative IPC: 1.1574 (Simulation time: 1 hr 25 min 46 sec) 
Heartbeat CPU 0 instructions: 100000000 cycles: 172493745 heartbeat IPC: 0.516236 cumulative IPC: 0.502767 (Simulation time: 1 hr 27 min 31 sec) 
Heartbeat CPU 1 instructions: 340000000 cycles: 172675098 heartbeat IPC: 2.0159 cumulative IPC: 1.87684 (Simulation time: 1 hr 27 min 36 sec) 
Heartbeat CPU 6 instructions: 210000002 cycles: 172676415 heartbeat IPC: 1.42767 cumulative IPC: 1.19007 (Simulation time: 1 hr 27 min 36 sec) 
Heartbeat CPU 7 instructions: 230000001 cycles: 175629921 heartbeat IPC: 0.995764 cumulative IPC: 1.20656 (Simulation time: 1 hr 29 min 0 sec) 
Heartbeat CPU 3 instructions: 210000001 cycles: 177521426 heartbeat IPC: 1.13734 cumulative IPC: 1.15633 (Simulation time: 1 hr 29 min 56 sec) 
Heartbeat CPU 1 instructions: 350000001 cycles: 177637917 heartbeat IPC: 2.01498 cumulative IPC: 1.88101 (Simulation time: 1 hr 29 min 59 sec) 
Heartbeat CPU 4 instructions: 130000000 cycles: 178392373 heartbeat IPC: 0.654927 cumulative IPC: 0.655625 (Simulation time: 1 hr 30 min 21 sec) 
Heartbeat CPU 2 instructions: 200000000 cycles: 178431484 heartbeat IPC: 0.992701 cumulative IPC: 1.02505 (Simulation time: 1 hr 30 min 22 sec) 
Heartbeat CPU 6 instructions: 220000000 cycles: 179965685 heartbeat IPC: 1.37188 cumulative IPC: 1.19802 (Simulation time: 1 hr 31 min 6 sec) 
Heartbeat CPU 1 instructions: 360000000 cycles: 182647653 heartbeat IPC: 1.99611 cumulative IPC: 1.88442 (Simulation time: 1 hr 32 min 18 sec) 
Heartbeat CPU 3 instructions: 220000000 cycles: 186371004 heartbeat IPC: 1.13 cumulative IPC: 1.15498 (Simulation time: 1 hr 34 min 2 sec) 
Heartbeat CPU 5 instructions: 110000002 cycles: 186376792 heartbeat IPC: 0.504647 cumulative IPC: 0.508596 (Simulation time: 1 hr 34 min 2 sec) 
Heartbeat CPU 1 instructions: 370000000 cycles: 187445589 heartbeat IPC: 2.08423 cumulative IPC: 1.88993 (Simulation time: 1 hr 34 min 33 sec) 
Heartbeat CPU 7 instructions: 240000000 cycles: 187570010 heartbeat IPC: 0.837515 cumulative IPC: 1.18126 (Simulation time: 1 hr 34 min 36 sec) 
Heartbeat CPU 6 instructions: 230000002 cycles: 188155402 heartbeat IPC: 1.22104 cumulative IPC: 1.1991 (Simulation time: 1 hr 34 min 53 sec) 
Heartbeat CPU 2 instructions: 210000000 cycles: 188621046 heartbeat IPC: 0.981396 cumulative IPC: 1.02251 (Simulation time: 1 hr 35 min 5 sec) 
Heartbeat CPU 0 instructions: 110000002 cycles: 191884160 heartbeat IPC: 0.515719 cumulative IPC: 0.504174 (Simulation time: 1 hr 36 min 42 sec) 
Heartbeat CPU 1 instructions: 380000000 cycles: 192463866 heartbeat IPC: 1.99272 cumulative IPC: 1.89281 (Simulation time: 1 hr 36 min 58 sec) 
Heartbeat CPU 4 instructions: 140000000 cycles: 193661952 heartbeat IPC: 0.654897 cumulative IPC: 0.655563 (Simulation time: 1 hr 37 min 30 sec) 
Heartbeat CPU 3 instructions: 230000002 cycles: 195134729 heartbeat IPC: 1.14107 cumulative IPC: 1.15431 (Simulation time: 1 hr 38 min 14 sec) 
Heartbeat CPU 6 instructions: 240000000 cycles: 196059876 heartbeat IPC: 1.26511 cumulative IPC: 1.20196 (Simulation time: 1 hr 38 min 41 sec) 
Heartbeat CPU 1 instructions: 390000002 cycles: 197428860 heartbeat IPC: 2.0141 cumulative IPC: 1.89608 (Simulation time: 1 hr 39 min 21 sec) 
Heartbeat CPU 2 instructions: 220000000 cycles: 198276617 heartbeat IPC: 1.03567 cumulative IPC: 1.0232 (Simulation time: 1 hr 39 min 47 sec) 
Heartbeat CPU 7 instructions: 250000001 cycles: 198816054 heartbeat IPC: 0.889202 cumulative IPC: 1.16355 (Simulation time: 1 hr 40 min 4 sec) 
Heartbeat CPU 5 instructions: 120000000 cycles: 199160224 heartbeat IPC: 0.782262 cumulative IPC: 0.527426 (Simulation time: 1 hr 40 min 14 sec) 
Heartbeat CPU 1 instructions: 400000000 cycles: 202486354 heartbeat IPC: 1.97726 cumulative IPC: 1.89825 (Simulation time: 1 hr 41 min 36 sec) 
Heartbeat CPU 3 instructions: 240000000 cycles: 203981920 heartbeat IPC: 1.1303 cumulative IPC: 1.1532 (Simulation time: 1 hr 42 min 15 sec) 
Heartbeat CPU 6 instructions: 250000001 cycles: 205791293 heartbeat IPC: 1.0276 cumulative IPC: 1.19314 (Simulation time: 1 hr 43 min 0 sec) 
Heartbeat CPU 1 instructions: 410000000 cycles: 207835505 heartbeat IPC: 1.86946 cumulative IPC: 1.89746 (Simulation time: 1 hr 43 min 51 sec) 
Heartbeat CPU 2 instructions: 230000001 cycles: 208516755 heartbeat IPC: 0.976549 cumulative IPC: 1.02075 (Simulation time: 1 hr 44 min 9 sec) 
Heartbeat CPU 4 instructions: 150000003 cycles: 208928511 heartbeat IPC: 0.655027 cumulative IPC: 0.655521 (Simulation time: 1 hr 44 min 21 sec) 
Heartbeat CPU 0 instructions: 120000000 cycles: 211085962 heartbeat IPC: 0.520784 cumulative IPC: 0.505787 (Simulation time: 1 hr 45 min 19 sec) 
Finished CPU 0 instructions: 100000000 cycles: 197711756 cumulative IPC: 0.505787 (Simulation time: 1 hr 45 min 19 sec) 
Finished CPU 5 instructions: 100000000 cycles: 197852290 cumulative IPC: 0.505428 (Simulation time: 1 hr 45 min 23 sec) 

CPU 0 Branch Prediction Accuracy: 86.2335% MPKI: 21.156

CPU 1 Branch Prediction Accuracy: 98.938% MPKI: 0.508215

CPU 2 Branch Prediction Accuracy: 99.6705% MPKI: 0.175133

CPU 3 Branch Prediction Accuracy: 97.2574% MPKI: 0.763979

CPU 4 Branch Prediction Accuracy: 98.8546% MPKI: 1.30701

CPU 5 Branch Prediction Accuracy: 98.1593% MPKI: 2.01188

CPU 6 Branch Prediction Accuracy: 99.3784% MPKI: 0.22823

CPU 7 Branch Prediction Accuracy: 98.3267% MPKI: 1.36919

ChampSim completed all CPUs

Total Simulation Statistics (not including warmup)

CPU 0 cumulative IPC: 0.505795 instructions: 100072707 cycles: 197852289
L1D TOTAL     ACCESS:   34665883  HIT:   34427793  MISS:     238090
L1D LOAD      ACCESS:   18234623  HIT:   18133939  MISS:     100684
L1D RFO       ACCESS:   16431260  HIT:   16293854  MISS:     137406
L1D PREFETCH  ACCESS:          0  HIT:          0  MISS:          0
L1D WRITEBACK ACCESS:          0  HIT:          0  MISS:          0
L1I TOTAL     ACCESS:   23354189  HIT:   23126072  MISS:     228117
L1I LOAD      ACCESS:   23354189  HIT:   23126072  MISS:     228117
L1I RFO       ACCESS:          0  HIT:          0  MISS:          0
L1I PREFETCH  ACCESS:          0  HIT:          0  MISS:          0
L1I WRITEBACK ACCESS:          0  HIT:          0  MISS:          0
L2C TOTAL     ACCESS:    1097414  HIT:    1080425  MISS:      16989
L2C LOAD      ACCESS:     328801  HIT:     324070  MISS:       4731
L2C RFO       ACCESS:     137399  HIT:     134708  MISS:       2691
L2C PREFETCH  ACCESS:     457067  HIT:     447621  MISS:       9446
L2C WRITEBACK ACCESS:     174147  HIT:     174026  MISS:        121

Avg Lookahead Depth:	4.49491
TOTAL: 3.62961e+07	L2C: 3.07358e+07	LLC: 5.5603e+06	GOOD_L2C: 1.99314e+07
Printing all the perceptron weights to: perc_weights_0.csv
LLC TOTAL     ACCESS:      28497  HIT:       7005  MISS:      21492
LLC LOAD      ACCESS:       4024  HIT:        616  MISS:       3408
LLC RFO       ACCESS:       2691  HIT:       1289  MISS:       1402
LLC PREFETCH  ACCESS:      17144  HIT:       3822  MISS:      13322
LLC WRITEBACK ACCESS:       4638  HIT:       1278  MISS:       3360

CPU 1 cumulative IPC: 1.89932 instructions: 375784906 cycles: 197852290
L1D TOTAL     ACCESS:   68044683  HIT:   63293825  MISS:    4750858
L1D LOAD      ACCESS:   58323317  HIT:   53639628  MISS:    4683689
L1D RFO       ACCESS:    9721366  HIT:    9654197  MISS:      67169
L1D PREFETCH  ACCESS:          0  HIT:          0  MISS:          0
L1D WRITEBACK ACCESS:          0  HIT:          0  MISS:          0
L1I TOTAL     ACCESS:   77106516  HIT:   77105824  MISS:        692
L1I LOAD      ACCESS:   77106516  HIT:   77105824  MISS:        692
L1I RFO       ACCESS:          0  HIT:          0  MISS:          0
L1I PREFETCH  ACCESS:          0  HIT:          0  MISS:          0
L1I WRITEBACK ACCESS:          0  HIT:          0  MISS:          0
L2C TOTAL     ACCESS:   11019038  HIT:    7157226  MISS:    3861812
L2C LOAD      ACCESS:    4684380  HIT:    4331724  MISS:     352656
L2C RFO       ACCESS:      67169  HIT:       3028  MISS:      64141
L2C PREFETCH  ACCESS:    5296540  HIT:    1864833  MISS:    3431707
L2C WRITEBACK ACCESS:     970949  HIT:     957641  MISS:      13308

Avg Lookahead Depth:	4.49491
TOTAL: 3.62961e+07	L2C: 3.07358e+07	LLC: 5.5603e+06	GOOD_L2C: 1.99314e+07
Printing all the perceptron weights to: perc_weights_0.csv
LLC TOTAL     ACCESS:    4913059  HIT:    4426935  MISS:     486124
LLC LOAD      ACCESS:     269559  HIT:     234884  MISS:      34675
LLC RFO       ACCESS:      64141  HIT:      42685  MISS:      21456
LLC PREFETCH  ACCESS:    3754780  HIT:    3326442  MISS:     428338
LLC WRITEBACK ACCESS:     824579  HIT:     822924  MISS:       1655

CPU 2 cumulative IPC: 1.01975 instructions: 201760707 cycles: 197852290
L1D TOTAL     ACCESS:   45239731  HIT:   40690193  MISS:    4549538
L1D LOAD      ACCESS:   30602565  HIT:   27293191  MISS:    3309374
L1D RFO       ACCESS:   14637166  HIT:   13397002  MISS:    1240164
L1D PREFETCH  ACCESS:          0  HIT:          0  MISS:          0
L1D WRITEBACK ACCESS:          0  HIT:          0  MISS:          0
L1I TOTAL     ACCESS:   52666542  HIT:   52666542  MISS:          0
L1I LOAD      ACCESS:   52666542  HIT:   52666542  MISS:          0
L1I RFO       ACCESS:          0  HIT:          0  MISS:          0
L1I PREFETCH  ACCESS:          0  HIT:          0  MISS:          0
L1I WRITEBACK ACCESS:          0  HIT:          0  MISS:          0
L2C TOTAL     ACCESS:    8973779  HIT:    8161273  MISS:     812506
L2C LOAD      ACCESS:    3309370  HIT:    3004192  MISS:     305178
L2C RFO       ACCESS:    1230353  HIT:    1107363  MISS:     122990
L2C PREFETCH  ACCESS:    1960503  HIT:    1577356  MISS:     383147
L2C WRITEBACK ACCESS:    2473553  HIT:    2472362  MISS:       1191

Avg Lookahead Depth:	4.49491
TOTAL: 3.62961e+07	L2C: 3.07358e+07	LLC: 5.5603e+06	GOOD_L2C: 1.99314e+07
Printing all the perceptron weights to: perc_weights_0.csv
LLC TOTAL     ACCESS:    1489063  HIT:     829165  MISS:     659898
LLC LOAD      ACCESS:     295703  HIT:     161994  MISS:     133709
LLC RFO       ACCESS:     122986  HIT:      62973  MISS:      60013
LLC PREFETCH  ACCESS:     821162  HIT:     363395  MISS:     457767
LLC WRITEBACK ACCESS:     249212  HIT:     240803  MISS:       8409

CPU 3 cumulative IPC: 1.15151 instructions: 227829837 cycles: 197852290
L1D TOTAL     ACCESS:  113968003  HIT:  109344368  MISS:    4623635
L1D LOAD      ACCESS:   97077487  HIT:   92569489  MISS:    4507998
L1D RFO       ACCESS:   16890516  HIT:   16774879  MISS:     115637
L1D PREFETCH  ACCESS:          0  HIT:          0  MISS:          0
L1D WRITEBACK ACCESS:          0  HIT:          0  MISS:          0
L1I TOTAL     ACCESS:   53129393  HIT:   53129393  MISS:          0
L1I LOAD      ACCESS:   53129393  HIT:   53129393  MISS:          0
L1I RFO       ACCESS:          0  HIT:          0  MISS:          0
L1I PREFETCH  ACCESS:          0  HIT:          0  MISS:          0
L1I WRITEBACK ACCESS:          0  HIT:          0  MISS:          0
L2C TOTAL     ACCESS:   11246466  HIT:    7062852  MISS:    4183614
L2C LOAD      ACCESS:    4506605  HIT:    4315617  MISS:     190988
L2C RFO       ACCESS:     114733  HIT:       7531  MISS:     107202
L2C PREFETCH  ACCESS:    6483294  HIT:    2598467  MISS:    3884827
L2C WRITEBACK ACCESS:     141834  HIT:     141237  MISS:        597

Avg Lookahead Depth:	4.49491
TOTAL: 3.62961e+07	L2C: 3.07358e+07	LLC: 5.5603e+06	GOOD_L2C: 1.99314e+07
Printing all the perceptron weights to: perc_weights_0.csv
LLC TOTAL     ACCESS:    4673746  HIT:     529548  MISS:    4144198
LLC LOAD      ACCESS:     166951  HIT:       7703  MISS:     159248
LLC RFO       ACCESS:     107202  HIT:          0  MISS:     107202
LLC PREFETCH  ACCESS:    4291554  HIT:     413887  MISS:    3877667
LLC WRITEBACK ACCESS:     108039  HIT:     107958  MISS:         81

CPU 4 cumulative IPC: 0.655418 instructions: 129675988 cycles: 197852290
L1D TOTAL     ACCESS:   49822632  HIT:   48475085  MISS:    1347547
L1D LOAD      ACCESS:   30030793  HIT:   29353889  MISS:     676904
L1D RFO       ACCESS:   19791839  HIT:   19121196  MISS:     670643
L1D PREFETCH  ACCESS:          0  HIT:          0  MISS:          0
L1D WRITEBACK ACCESS:          0  HIT:          0  MISS:          0
L1I TOTAL     ACCESS:   37493841  HIT:   37329528  MISS:     164313
L1I LOAD      ACCESS:   37493841  HIT:   37329528  MISS:     164313
L1I RFO       ACCESS:          0  HIT:          0  MISS:          0
L1I PREFETCH  ACCESS:          0  HIT:          0  MISS:          0
L1I WRITEBACK ACCESS:          0  HIT:          0  MISS:          0
L2C TOTAL     ACCESS:    3453197  HIT:    3377595  MISS:      75602
L2C LOAD      ACCESS:     841209  HIT:     815527  MISS:      25682
L2C RFO       ACCESS:     670610  HIT:     669585  MISS:       1025
L2C PREFETCH  ACCESS:    1240844  HIT:    1192354  MISS:      48490
L2C WRITEBACK ACCESS:     700534  HIT:     700129  MISS:        405

Avg Lookahead Depth:	4.49491
TOTAL: 3.62961e+07	L2C: 3.07358e+07	LLC: 5.5603e+06	GOOD_L2C: 1.99314e+07
Printing all the perceptron weights to: perc_weights_0.csv
LLC TOTAL     ACCESS:     191135  HIT:      84007  MISS:     107128
LLC LOAD      ACCESS:      25043  HIT:       8899  MISS:      16144
LLC RFO       ACCESS:       1025  HIT:        330  MISS:        695
LLC PREFETCH  ACCESS:     135241  HIT:      71348  MISS:      63893
LLC WRITEBACK ACCESS:      29826  HIT:       3430  MISS:      26396

CPU 5 cumulative IPC: 0.505428 instructions: 100000000 cycles: 197852290
L1D TOTAL     ACCESS:   37567639  HIT:   32464084  MISS:    5103555
L1D LOAD      ACCESS:   16991666  HIT:   11889608  MISS:    5102058
L1D RFO       ACCESS:   20575973  HIT:   20574476  MISS:       1497
L1D PREFETCH  ACCESS:          0  HIT:          0  MISS:          0
L1D WRITEBACK ACCESS:          0  HIT:          0  MISS:          0
L1I TOTAL     ACCESS:   28752445  HIT:   28752445  MISS:          0
L1I LOAD      ACCESS:   28752445  HIT:   28752445  MISS:          0
L1I RFO       ACCESS:          0  HIT:          0  MISS:          0
L1I PREFETCH  ACCESS:          0  HIT:          0  MISS:          0
L1I WRITEBACK ACCESS:          0  HIT:          0  MISS:          0
L2C TOTAL     ACCESS:   10657690  HIT:    5359896  MISS:    5297794
L2C LOAD      ACCESS:    5101762  HIT:    4429925  MISS:     671837
L2C RFO       ACCESS:       1497  HIT:       1082  MISS:        415
L2C PREFETCH  ACCESS:    5348201  HIT:     724262  MISS:    4623939
L2C WRITEBACK ACCESS:     206230  HIT:     204627  MISS:       1603

Avg Lookahead Depth:	4.49491
TOTAL: 3.62961e+07	L2C: 3.07358e+07	LLC: 5.5603e+06	GOOD_L2C: 1.99314e+07
Printing all the perceptron weights to: perc_weights_0.csv
LLC TOTAL     ACCESS:    5677701  HIT:    3582702  MISS:    2094999
LLC LOAD      ACCESS:     328266  HIT:     165250  MISS:     163016
LLC RFO       ACCESS:        396  HIT:        364  MISS:         32
LLC PREFETCH  ACCESS:    5174008  HIT:    3242361  MISS:    1931647
LLC WRITEBACK ACCESS:     175031  HIT:     174727  MISS:        304

CPU 6 cumulative IPC: 1.19314 instructions: 236065656 cycles: 197852290
L1D TOTAL     ACCESS:   75725782  HIT:   73734563  MISS:    1991219
L1D LOAD      ACCESS:   68094532  HIT:   66242819  MISS:    1851713
L1D RFO       ACCESS:    7631250  HIT:    7491744  MISS:     139506
L1D PREFETCH  ACCESS:          0  HIT:          0  MISS:          0
L1D WRITEBACK ACCESS:          0  HIT:          0  MISS:          0
L1I TOTAL     ACCESS:   54128365  HIT:   54127747  MISS:        618
L1I LOAD      ACCESS:   54128365  HIT:   54127747  MISS:        618
L1I RFO       ACCESS:          0  HIT:          0  MISS:          0
L1I PREFETCH  ACCESS:          0  HIT:          0  MISS:          0
L1I WRITEBACK ACCESS:          0  HIT:          0  MISS:          0
L2C TOTAL     ACCESS:    5641623  HIT:    4006598  MISS:    1635025
L2C LOAD      ACCESS:    1852330  HIT:    1793023  MISS:      59307
L2C RFO       ACCESS:     139506  HIT:      23949  MISS:     115557
L2C PREFETCH  ACCESS:    3085618  HIT:    1625602  MISS:    1460016
L2C WRITEBACK ACCESS:     564169  HIT:     564024  MISS:        145

Avg Lookahead Depth:	4.49491
TOTAL: 3.62961e+07	L2C: 3.07358e+07	LLC: 5.5603e+06	GOOD_L2C: 1.99314e+07
Printing all the perceptron weights to: perc_weights_0.csv
LLC TOTAL     ACCESS:    2486423  HIT:     863652  MISS:    1622771
LLC LOAD      ACCESS:      52231  HIT:       6204  MISS:      46027
LLC RFO       ACCESS:     115493  HIT:       5525  MISS:     109968
LLC PREFETCH  ACCESS:    1783322  HIT:     317381  MISS:    1465941
LLC WRITEBACK ACCESS:     535377  HIT:     534542  MISS:        835

CPU 7 cumulative IPC: 1.14003 instructions: 225557022 cycles: 197852290
L1D TOTAL     ACCESS:   39616977  HIT:   36239985  MISS:    3376992
L1D LOAD      ACCESS:   35965157  HIT:   32863517  MISS:    3101640
L1D RFO       ACCESS:    3651820  HIT:    3376468  MISS:     275352
L1D PREFETCH  ACCESS:          0  HIT:          0  MISS:          0
L1D WRITEBACK ACCESS:          0  HIT:          0  MISS:          0
L1I TOTAL     ACCESS:   61710950  HIT:   61710609  MISS:        341
L1I LOAD      ACCESS:   61710950  HIT:   61710609  MISS:        341
L1I RFO       ACCESS:          0  HIT:          0  MISS:          0
L1I PREFETCH  ACCESS:          0  HIT:          0  MISS:          0
L1I WRITEBACK ACCESS:          0  HIT:          0  MISS:          0
L2C TOTAL     ACCESS:    7338911  HIT:    4150972  MISS:    3187939
L2C LOAD      ACCESS:    3101981  HIT:    2622652  MISS:     479329
L2C RFO       ACCESS:     275346  HIT:      25442  MISS:     249904
L2C PREFETCH  ACCESS:    3631406  HIT:    1173355  MISS:    2458051
L2C WRITEBACK ACCESS:     330178  HIT:     329523  MISS:        655

Avg Lookahead Depth:	4.49491
TOTAL: 3.62961e+07	L2C: 3.07358e+07	LLC: 5.5603e+06	GOOD_L2C: 1.99314e+07
Printing all the perceptron weights to: perc_weights_0.csv
LLC TOTAL     ACCESS:    4002923  HIT:    2737187  MISS:    1265736
LLC LOAD      ACCESS:     439614  HIT:     278901  MISS:     160713
LLC RFO       ACCESS:     249898  HIT:     183253  MISS:      66645
LLC PREFETCH  ACCESS:    3016739  HIT:    1978379  MISS:    1038360
LLC WRITEBACK ACCESS:     296672  HIT:     296654  MISS:         18

Region of Interest Statistics

CPU 0 cumulative IPC: 0.505787 instructions: 100000000 cycles: 197711756
L1D TOTAL     ACCESS:   34641596  HIT:   34403541  MISS:     238055
L1D LOAD      ACCESS:   18221166  HIT:   18120499  MISS:     100667
L1D RFO       ACCESS:   16420430  HIT:   16283042  MISS:     137388
L1D PREFETCH  ACCESS:          0  HIT:          0  MISS:          0
L1D WRITEBACK ACCESS:          0  HIT:          0  MISS:          0
L1D PREFETCH  REQUESTED:          0  ISSUED:          0  USEFUL:          0  USELESS:          0
L1I TOTAL     ACCESS:   23337716  HIT:   23109714  MISS:     228002
L1I LOAD      ACCESS:   23337716  HIT:   23109714  MISS:     228002
L1I RFO       ACCESS:          0  HIT:          0  MISS:          0
L1I PREFETCH  ACCESS:          0  HIT:          0  MISS:          0
L1I WRITEBACK ACCESS:          0  HIT:          0  MISS:          0
L1I PREFETCH  REQUESTED:          0  ISSUED:          0  USEFUL:          0  USELESS:          0
L2C TOTAL     ACCESS:    1097072  HIT:    1080083  MISS:      16989
L2C LOAD      ACCESS:     328669  HIT:     323938  MISS:       4731
L2C RFO       ACCESS:     137381  HIT:     134690  MISS:       2691
L2C PREFETCH  ACCESS:     456899  HIT:     447453  MISS:       9446
L2C WRITEBACK ACCESS:     174123  HIT:     174002  MISS:        121
L2C PREFETCH  REQUESTED:     657301  ISSUED:     657203  USEFUL:      14704  USELESS:      13399
LLC TOTAL     ACCESS:      28497  HIT:       7005  MISS:      21492
LLC LOAD      ACCESS:       4024  HIT:        616  MISS:       3408
LLC RFO       ACCESS:       2691  HIT:       1289  MISS:       1402
LLC PREFETCH  ACCESS:      17144  HIT:       3822  MISS:      13322
LLC WRITEBACK ACCESS:       4638  HIT:       1278  MISS:       3360
LLC PREFETCH  REQUESTED:          0  ISSUED:          0  USEFUL:     425546  USELESS:    9647851
Major fault: 0 Minor fault: 1778

CPU 1 cumulative IPC: 1.839 instructions: 100000000 cycles: 54377490
L1D TOTAL     ACCESS:   18819971  HIT:   17506224  MISS:    1313747
L1D LOAD      ACCESS:   15097816  HIT:   13817384  MISS:    1280432
L1D RFO       ACCESS:    3722155  HIT:    3688840  MISS:      33315
L1D PREFETCH  ACCESS:          0  HIT:          0  MISS:          0
L1D WRITEBACK ACCESS:          0  HIT:          0  MISS:          0
L1D PREFETCH  REQUESTED:          0  ISSUED:          0  USEFUL:          0  USELESS:          0
L1I TOTAL     ACCESS:   21451709  HIT:   21451244  MISS:        465
L1I LOAD      ACCESS:   21451709  HIT:   21451244  MISS:        465
L1I RFO       ACCESS:          0  HIT:          0  MISS:          0
L1I PREFETCH  ACCESS:          0  HIT:          0  MISS:          0
L1I WRITEBACK ACCESS:          0  HIT:          0  MISS:          0
L1I PREFETCH  REQUESTED:          0  ISSUED:          0  USEFUL:          0  USELESS:          0
L2C TOTAL     ACCESS:    3166082  HIT:    2089438  MISS:    1076644
L2C LOAD      ACCESS:    1280897  HIT:    1197633  MISS:      83264
L2C RFO       ACCESS:      33315  HIT:       1034  MISS:      32281
L2C PREFETCH  ACCESS:    1439243  HIT:     484925  MISS:     954318
L2C WRITEBACK ACCESS:     412627  HIT:     405846  MISS:       6781
L2C PREFETCH  REQUESTED:    6412680  ISSUED:    6412570  USEFUL:    3639320  USELESS:      94737
LLC TOTAL     ACCESS:    1475867  HIT:    1351659  MISS:     124208
LLC LOAD      ACCESS:      66472  HIT:      58111  MISS:       8361
LLC RFO       ACCESS:      32281  HIT:      21356  MISS:      10925
LLC PREFETCH  ACCESS:    1028616  HIT:     924405  MISS:     104211
LLC WRITEBACK ACCESS:     348498  HIT:     347787  MISS:        711
LLC PREFETCH  REQUESTED:          0  ISSUED:          0  USEFUL:     425546  USELESS:    9647851
Major fault: 0 Minor fault: 3563

CPU 2 cumulative IPC: 1.03054 instructions: 100000001 cycles: 97036469
L1D TOTAL     ACCESS:   22432059  HIT:   20196764  MISS:    2235295
L1D LOAD      ACCESS:   15198146  HIT:   13578967  MISS:    1619179
L1D RFO       ACCESS:    7233913  HIT:    6617797  MISS:     616116
L1D PREFETCH  ACCESS:          0  HIT:          0  MISS:          0
L1D WRITEBACK ACCESS:          0  HIT:          0  MISS:          0
L1D PREFETCH  REQUESTED:          0  ISSUED:          0  USEFUL:          0  USELESS:          0
L1I TOTAL     ACCESS:   26131430  HIT:   26131430  MISS:          0
L1I LOAD      ACCESS:   26131430  HIT:   26131430  MISS:          0
L1I RFO       ACCESS:          0  HIT:          0  MISS:          0
L1I PREFETCH  ACCESS:          0  HIT:          0  MISS:          0
L1I WRITEBACK ACCESS:          0  HIT:          0  MISS:          0
L1I PREFETCH  REQUESTED:          0  ISSUED:          0  USEFUL:          0  USELESS:          0
L2C TOTAL     ACCESS:    4423411  HIT:    4020060  MISS:     403351
L2C LOAD      ACCESS:    1619177  HIT:    1471885  MISS:     147292
L2C RFO       ACCESS:     611050  HIT:     548353  MISS:      62697
L2C PREFETCH  ACCESS:     976531  HIT:     783757  MISS:     192774
L2C WRITEBACK ACCESS:    1216653  HIT:    1216065  MISS:        588
L2C PREFETCH  REQUESTED:    2840209  ISSUED:    2840199  USEFUL:     341448  USELESS:     105425
LLC TOTAL     ACCESS:     736492  HIT:     413930  MISS:     322562
LLC LOAD      ACCESS:     142878  HIT:      77359  MISS:      65519
LLC RFO       ACCESS:      62696  HIT:      32717  MISS:      29979
LLC PREFETCH  ACCESS:     407815  HIT:     184726  MISS:     223089
LLC WRITEBACK ACCESS:     123103  HIT:     119128  MISS:       3975
LLC PREFETCH  REQUESTED:          0  ISSUED:          0  USEFUL:     425546  USELESS:    9647851
Major fault: 0 Minor fault: 8334

CPU 3 cumulative IPC: 1.16152 instructions: 100000000 cycles: 86093731
L1D TOTAL     ACCESS:   50027456  HIT:   47997893  MISS:    2029563
L1D LOAD      ACCESS:   42605933  HIT:   40627149  MISS:    1978784
L1D RFO       ACCESS:    7421523  HIT:    7370744  MISS:      50779
L1D PREFETCH  ACCESS:          0  HIT:          0  MISS:          0
L1D WRITEBACK ACCESS:          0  HIT:          0  MISS:          0
L1D PREFETCH  REQUESTED:          0  ISSUED:          0  USEFUL:          0  USELESS:          0
L1I TOTAL     ACCESS:   23320356  HIT:   23320356  MISS:          0
L1I LOAD      ACCESS:   23320356  HIT:   23320356  MISS:          0
L1I RFO       ACCESS:          0  HIT:          0  MISS:          0
L1I PREFETCH  ACCESS:          0  HIT:          0  MISS:          0
L1I WRITEBACK ACCESS:          0  HIT:          0  MISS:          0
L1I PREFETCH  REQUESTED:          0  ISSUED:          0  USEFUL:          0  USELESS:          0
L2C TOTAL     ACCESS:    4936669  HIT:    3100386  MISS:    1836283
L2C LOAD      ACCESS:    1978146  HIT:    1895092  MISS:      83054
L2C RFO       ACCESS:      50379  HIT:       3326  MISS:      47053
L2C PREFETCH  ACCESS:    2845790  HIT:    1139874  MISS:    1705916
L2C WRITEBACK ACCESS:      62354  HIT:      62094  MISS:        260
L2C PREFETCH  REQUESTED:    8225220  ISSUED:    8124930  USEFUL:    4232785  USELESS:       1850
LLC TOTAL     ACCESS:    2050126  HIT:     236552  MISS:    1813574
LLC LOAD      ACCESS:      73217  HIT:       3527  MISS:      69690
LLC RFO       ACCESS:      47053  HIT:          0  MISS:      47053
LLC PREFETCH  ACCESS:    1882426  HIT:     185631  MISS:    1696795
LLC WRITEBACK ACCESS:      47430  HIT:      47394  MISS:         36
LLC PREFETCH  REQUESTED:          0  ISSUED:          0  USEFUL:     425546  USELESS:    9647851
Major fault: 0 Minor fault: 67560

CPU 4 cumulative IPC: 0.655681 instructions: 100000001 cycles: 152513251
L1D TOTAL     ACCESS:   38420085  HIT:   37380329  MISS:    1039756
L1D LOAD      ACCESS:   23157724  HIT:   22635573  MISS:     522151
L1D RFO       ACCESS:   15262361  HIT:   14744756  MISS:     517605
L1D PREFETCH  ACCESS:          0  HIT:          0  MISS:          0
L1D WRITEBACK ACCESS:          0  HIT:          0  MISS:          0
L1D PREFETCH  REQUESTED:          0  ISSUED:          0  USEFUL:          0  USELESS:          0
L1I TOTAL     ACCESS:   28900820  HIT:   28774094  MISS:     126726
L1I LOAD      ACCESS:   28900820  HIT:   28774094  MISS:     126726
L1I RFO       ACCESS:          0  HIT:          0  MISS:          0
L1I PREFETCH  ACCESS:          0  HIT:          0  MISS:          0
L1I WRITEBACK ACCESS:          0  HIT:          0  MISS:          0
L1I PREFETCH  REQUESTED:          0  ISSUED:          0  USEFUL:          0  USELESS:          0
L2C TOTAL     ACCESS:    2668766  HIT:    2610206  MISS:      58560
L2C LOAD      ACCESS:     648872  HIT:     628951  MISS:      19921
L2C RFO       ACCESS:     517579  HIT:     516735  MISS:        844
L2C PREFETCH  ACCESS:     961652  HIT:     924171  MISS:      37481
L2C WRITEBACK ACCESS:     540663  HIT:     540349  MISS:        314
L2C PREFETCH  REQUESTED:    1607324  ISSUED:    1607324  USEFUL:      42815  USELESS:      15551
LLC TOTAL     ACCESS:     147223  HIT:      64947  MISS:      82276
LLC LOAD      ACCESS:      19433  HIT:       6914  MISS:      12519
LLC RFO       ACCESS:        844  HIT:        310  MISS:        534
LLC PREFETCH  ACCESS:     103992  HIT:      54926  MISS:      49066
LLC WRITEBACK ACCESS:      22954  HIT:       2797  MISS:      20157
LLC PREFETCH  REQUESTED:          0  ISSUED:          0  USEFUL:     425546  USELESS:    9647851
Major fault: 0 Minor fault: 1271

CPU 5 cumulative IPC: 0.505428 instructions: 100000000 cycles: 197852290
L1D TOTAL     ACCESS:   37567639  HIT:   32464084  MISS:    5103555
L1D LOAD      ACCESS:   16991666  HIT:   11889608  MISS:    5102058
L1D RFO       ACCESS:   20575973  HIT:   20574476  MISS:       1497
L1D PREFETCH  ACCESS:          0  HIT:          0  MISS:          0
L1D WRITEBACK ACCESS:          0  HIT:          0  MISS:          0
L1D PREFETCH  REQUESTED:          0  ISSUED:          0  USEFUL:          0  USELESS:          0
L1I TOTAL     ACCESS:   28752445  HIT:   28752445  MISS:          0
L1I LOAD      ACCESS:   28752445  HIT:   28752445  MISS:          0
L1I RFO       ACCESS:          0  HIT:          0  MISS:          0
L1I PREFETCH  ACCESS:          0  HIT:          0  MISS:          0
L1I WRITEBACK ACCESS:          0  HIT:          0  MISS:          0
L1I PREFETCH  REQUESTED:          0  ISSUED:          0  USEFUL:          0  USELESS:          0
L2C TOTAL     ACCESS:   10657690  HIT:    5359896  MISS:    5297794
L2C LOAD      ACCESS:    5101762  HIT:    4429925  MISS:     671837
L2C RFO       ACCESS:       1497  HIT:       1082  MISS:        415
L2C PREFETCH  ACCESS:    5348201  HIT:     724262  MISS:    4623939
L2C WRITEBACK ACCESS:     206230  HIT:     204627  MISS:       1603
L2C PREFETCH  REQUESTED:    7715841  ISSUED:    7715841  USEFUL:    5652908  USELESS:     294158
LLC TOTAL     ACCESS:    5677701  HIT:    3582702  MISS:    2094999
LLC LOAD      ACCESS:     328266  HIT:     165250  MISS:     163016
LLC RFO       ACCESS:        396  HIT:        364  MISS:         32
LLC PREFETCH  ACCESS:    5174008  HIT:    3242361  MISS:    1931647
LLC WRITEBACK ACCESS:     175031  HIT:     174727  MISS:        304
LLC PREFETCH  REQUESTED:          0  ISSUED:          0  USEFUL:     425546  USELESS:    9647851
Major fault: 0 Minor fault: 10440

CPU 6 cumulative IPC: 1.11347 instructions: 100000000 cycles: 89809091
L1D TOTAL     ACCESS:   38070815  HIT:   37431557  MISS:     639258
L1D LOAD      ACCESS:   35431085  HIT:   34810584  MISS:     620501
L1D RFO       ACCESS:    2639730  HIT:    2620973  MISS:      18757
L1D PREFETCH  ACCESS:          0  HIT:          0  MISS:          0
L1D WRITEBACK ACCESS:          0  HIT:          0  MISS:          0
L1D PREFETCH  REQUESTED:          0  ISSUED:          0  USEFUL:          0  USELESS:          0
L1I TOTAL     ACCESS:   23311815  HIT:   23311666  MISS:        149
L1I LOAD      ACCESS:   23311815  HIT:   23311666  MISS:        149
L1I RFO       ACCESS:          0  HIT:          0  MISS:          0
L1I PREFETCH  ACCESS:          0  HIT:          0  MISS:          0
L1I WRITEBACK ACCESS:          0  HIT:          0  MISS:          0
L1I PREFETCH  REQUESTED:          0  ISSUED:          0  USEFUL:          0  USELESS:          0
L2C TOTAL     ACCESS:    1934009  HIT:    1447959  MISS:     486050
L2C LOAD      ACCESS:     620649  HIT:     603372  MISS:      17277
L2C RFO       ACCESS:      18757  HIT:      18265  MISS:        492
L2C PREFETCH  ACCESS:    1125556  HIT:     657375  MISS:     468181
L2C WRITEBACK ACCESS:     169047  HIT:     168947  MISS:        100
L2C PREFETCH  REQUESTED:    3842951  ISSUED:    3842828  USEFUL:    1548244  USELESS:      35037
LLC TOTAL     ACCESS:     812371  HIT:     325767  MISS:     486604
LLC LOAD      ACCESS:      16353  HIT:       1640  MISS:      14713
LLC RFO       ACCESS:        492  HIT:        479  MISS:         13
LLC PREFETCH  ACCESS:     646736  HIT:     175646  MISS:     471090
LLC WRITEBACK ACCESS:     148790  HIT:     148002  MISS:        788
LLC PREFETCH  REQUESTED:          0  ISSUED:          0  USEFUL:     425546  USELESS:    9647851
Major fault: 0 Minor fault: 13539

CPU 7 cumulative IPC: 1.2175 instructions: 100000000 cycles: 82135488
L1D TOTAL     ACCESS:   17516469  HIT:   16039568  MISS:    1476901
L1D LOAD      ACCESS:   15954919  HIT:   14600366  MISS:    1354553
L1D RFO       ACCESS:    1561550  HIT:    1439202  MISS:     122348
L1D PREFETCH  ACCESS:          0  HIT:          0  MISS:          0
L1D WRITEBACK ACCESS:          0  HIT:          0  MISS:          0
L1D PREFETCH  REQUESTED:          0  ISSUED:          0  USEFUL:          0  USELESS:          0
L1I TOTAL     ACCESS:   27426213  HIT:   27426067  MISS:        146
L1I LOAD      ACCESS:   27426213  HIT:   27426067  MISS:        146
L1I RFO       ACCESS:          0  HIT:          0  MISS:          0
L1I PREFETCH  ACCESS:          0  HIT:          0  MISS:          0
L1I WRITEBACK ACCESS:          0  HIT:          0  MISS:          0
L1I PREFETCH  REQUESTED:          0  ISSUED:          0  USEFUL:          0  USELESS:          0
L2C TOTAL     ACCESS:    3226475  HIT:    1829209  MISS:    1397266
L2C LOAD      ACCESS:    1354699  HIT:    1161353  MISS:     193346
L2C RFO       ACCESS:     122345  HIT:      10024  MISS:     112321
L2C PREFETCH  ACCESS:    1608772  HIT:     517503  MISS:    1091269
L2C WRITEBACK ACCESS:     140659  HIT:     140329  MISS:        330
L2C PREFETCH  REQUESTED:    4994622  ISSUED:    4994387  USEFUL:    2512131  USELESS:     323676
LLC TOTAL     ACCESS:    1748080  HIT:    1360685  MISS:     387395
LLC LOAD      ACCESS:     181529  HIT:     135061  MISS:      46468
LLC RFO       ACCESS:     112321  HIT:      92669  MISS:      19652
LLC PREFETCH  ACCESS:    1326262  HIT:    1004987  MISS:     321275
LLC WRITEBACK ACCESS:     127968  HIT:     127968  MISS:          0
LLC PREFETCH  REQUESTED:          0  ISSUED:          0  USEFUL:     425546  USELESS:    9647851
Major fault: 0 Minor fault: 2813

Avg Lookahead Depth:	4.49491
TOTAL: 3.62961e+07	L2C: 3.07358e+07	LLC: 5.5603e+06	GOOD_L2C: 1.99314e+07
Printing all the perceptron weights to: perc_weights_0.csv

Avg Lookahead Depth:	4.49491
TOTAL: 3.62961e+07	L2C: 3.07358e+07	LLC: 5.5603e+06	GOOD_L2C: 1.99314e+07
Printing all the perceptron weights to: perc_weights_0.csv

Avg Lookahead Depth:	4.49491
TOTAL: 3.62961e+07	L2C: 3.07358e+07	LLC: 5.5603e+06	GOOD_L2C: 1.99314e+07
Printing all the perceptron weights to: perc_weights_0.csv

Avg Lookahead Depth:	4.49491
TOTAL: 3.62961e+07	L2C: 3.07358e+07	LLC: 5.5603e+06	GOOD_L2C: 1.99314e+07
Printing all the perceptron weights to: perc_weights_0.csv

Avg Lookahead Depth:	4.49491
TOTAL: 3.62961e+07	L2C: 3.07358e+07	LLC: 5.5603e+06	GOOD_L2C: 1.99314e+07
Printing all the perceptron weights to: perc_weights_0.csv

Avg Lookahead Depth:	4.49491
TOTAL: 3.62961e+07	L2C: 3.07358e+07	LLC: 5.5603e+06	GOOD_L2C: 1.99314e+07
Printing all the perceptron weights to: perc_weights_0.csv

Avg Lookahead Depth:	4.49491
TOTAL: 3.62961e+07	L2C: 3.07358e+07	LLC: 5.5603e+06	GOOD_L2C: 1.99314e+07
Printing all the perceptron weights to: perc_weights_0.csv

Avg Lookahead Depth:	4.49491
TOTAL: 3.62961e+07	L2C: 3.07358e+07	LLC: 5.5603e+06	GOOD_L2C: 1.99314e+07
Printing all the perceptron weights to: perc_weights_0.csv

DRAM Statistics
 CHANNEL 0
 RQ ROW_BUFFER_HIT:    2997471  ROW_BUFFER_MISS:    2186617
 DBUS_CONGESTED:    7020152
 WQ ROW_BUFFER_HIT:      52755  ROW_BUFFER_MISS:     603363  FULL:          0

 CHANNEL 1
 RQ ROW_BUFFER_HIT:    2981568  ROW_BUFFER_MISS:    2194675
 DBUS_CONGESTED:    7020152
 WQ ROW_BUFFER_HIT:      52595  ROW_BUFFER_MISS:     600827  FULL:          0

 AVG_CONGESTED_CYCLE: 12
