Initialize SIGNATURE TABLE
ST_SET: 1
ST_WAY: 256
ST_TAG_BIT: 16
ST_TAG_MASK: ffff

Initialize PATTERN TABLE
PT_SET: 512
PT_WAY: 4
SIG_DELTA_BIT: 7
C_SIG_BIT: 4
C_DELTA_BIT: 4

Initialize PREFETCH FILTER
FILTER_SET: 1024

*** ChampSim Multicore Out-of-Order Simulator ***

Warmup Instructions: 20000000
Simulation Instructions: 100000000
Number of CPUs: 8
LLC sets: 16384
LLC ways: 16
Off-chip DRAM Size: 8192 MB Channels: 2 Width: 64-bit Data Rate: 1600 MT/s

CPU 0 runs /scratch/user/djimenez/champsim-traces/speccpu2017/xz/641.leela_s/641.leela_s-334B.champsimtrace.xz
CPU 1 runs /scratch/user/djimenez/champsim-traces/speccpu2017/xz/603.bwaves_s/603.bwaves_s-5359B.champsimtrace.xz
CPU 2 runs /scratch/user/djimenez/champsim-traces/speccpu2017/xz/603.bwaves_s/603.bwaves_s-3699B.champsimtrace.xz
CPU 3 runs /scratch/user/djimenez/champsim-traces/speccpu2017/xz/620.omnetpp_s/620.omnetpp_s-874B.champsimtrace.xz
CPU 4 runs /scratch/user/djimenez/champsim-traces/speccpu2017/xz/619.lbm_s/619.lbm_s-2677B.champsimtrace.xz
CPU 5 runs /scratch/user/djimenez/champsim-traces/speccpu2017/xz/600.perlbench_s/600.perlbench_s-210B.champsimtrace.xz
CPU 6 runs /scratch/user/djimenez/champsim-traces/speccpu2017/xz/623.xalancbmk_s/623.xalancbmk_s-10B.champsimtrace.xz
CPU 7 runs /scratch/user/djimenez/champsim-traces/speccpu2017/xz/623.xalancbmk_s/623.xalancbmk_s-165B.champsimtrace.xz
Heartbeat CPU 2 instructions: 10000002 cycles: 3993624 heartbeat IPC: 2.50399 cumulative IPC: 2.50399 (Simulation time: 0 hr 3 min 4 sec) 
Heartbeat CPU 1 instructions: 10000000 cycles: 4003917 heartbeat IPC: 2.49755 cumulative IPC: 2.49755 (Simulation time: 0 hr 3 min 5 sec) 
Heartbeat CPU 7 instructions: 10000001 cycles: 4231819 heartbeat IPC: 2.36305 cumulative IPC: 2.36305 (Simulation time: 0 hr 3 min 15 sec) 
Heartbeat CPU 6 instructions: 10000001 cycles: 4882645 heartbeat IPC: 2.04807 cumulative IPC: 2.04807 (Simulation time: 0 hr 3 min 46 sec) 
Heartbeat CPU 4 instructions: 10000001 cycles: 4919269 heartbeat IPC: 2.03282 cumulative IPC: 2.03282 (Simulation time: 0 hr 3 min 48 sec) 
Heartbeat CPU 5 instructions: 10000002 cycles: 5617793 heartbeat IPC: 1.78006 cumulative IPC: 1.78006 (Simulation time: 0 hr 4 min 20 sec) 
Heartbeat CPU 0 instructions: 10000001 cycles: 6392847 heartbeat IPC: 1.56425 cumulative IPC: 1.56425 (Simulation time: 0 hr 4 min 59 sec) 
Heartbeat CPU 3 instructions: 10000000 cycles: 7366997 heartbeat IPC: 1.35741 cumulative IPC: 1.35741 (Simulation time: 0 hr 5 min 48 sec) 
Heartbeat CPU 2 instructions: 20000000 cycles: 8237370 heartbeat IPC: 2.35641 cumulative IPC: 2.42796 (Simulation time: 0 hr 6 min 31 sec) 
Heartbeat CPU 1 instructions: 20000000 cycles: 8333707 heartbeat IPC: 2.30958 cumulative IPC: 2.39989 (Simulation time: 0 hr 6 min 36 sec) 
Heartbeat CPU 7 instructions: 20000000 cycles: 8463526 heartbeat IPC: 2.36311 cumulative IPC: 2.36308 (Simulation time: 0 hr 6 min 42 sec) 
Heartbeat CPU 6 instructions: 20000000 cycles: 9690706 heartbeat IPC: 2.07984 cumulative IPC: 2.06383 (Simulation time: 0 hr 7 min 43 sec) 
Heartbeat CPU 4 instructions: 20000000 cycles: 9807610 heartbeat IPC: 2.04568 cumulative IPC: 2.03923 (Simulation time: 0 hr 7 min 49 sec) 
Heartbeat CPU 5 instructions: 20000000 cycles: 11504217 heartbeat IPC: 1.69882 cumulative IPC: 1.73849 (Simulation time: 0 hr 9 min 10 sec) 
Heartbeat CPU 1 instructions: 30000002 cycles: 12324647 heartbeat IPC: 2.50568 cumulative IPC: 0.811382 (Simulation time: 0 hr 9 min 49 sec) 
Heartbeat CPU 2 instructions: 30000002 cycles: 12541593 heartbeat IPC: 2.3233 cumulative IPC: 0.797347 (Simulation time: 0 hr 9 min 59 sec) 
Heartbeat CPU 7 instructions: 30000001 cycles: 12686568 heartbeat IPC: 2.36796 cumulative IPC: 0.788235 (Simulation time: 0 hr 10 min 5 sec) 
Heartbeat CPU 0 instructions: 20000000 cycles: 12790090 heartbeat IPC: 1.56317 cumulative IPC: 1.56371 (Simulation time: 0 hr 10 min 10 sec) 
Heartbeat CPU 6 instructions: 30000000 cycles: 14596958 heartbeat IPC: 2.03822 cumulative IPC: 0.685074 (Simulation time: 0 hr 11 min 36 sec) 
Heartbeat CPU 3 instructions: 20000000 cycles: 14716188 heartbeat IPC: 1.36069 cumulative IPC: 1.35905 (Simulation time: 0 hr 11 min 41 sec) 

Warmup complete CPU 0 instructions: 23035198 cycles: 14716195 (Simulation time: 0 hr 11 min 41 sec) 
Warmup complete CPU 1 instructions: 35992542 cycles: 14716195 (Simulation time: 0 hr 11 min 41 sec) 
Warmup complete CPU 2 instructions: 35439903 cycles: 14716195 (Simulation time: 0 hr 11 min 41 sec) 
Warmup complete CPU 3 instructions: 20000002 cycles: 14716195 (Simulation time: 0 hr 11 min 41 sec) 
Warmup complete CPU 4 instructions: 29988704 cycles: 14716194 (Simulation time: 0 hr 11 min 41 sec) 
Warmup complete CPU 5 instructions: 25461315 cycles: 14716194 (Simulation time: 0 hr 11 min 41 sec) 
Warmup complete CPU 6 instructions: 30204672 cycles: 14716194 (Simulation time: 0 hr 11 min 41 sec) 
Warmup complete CPU 7 instructions: 34812232 cycles: 14716194 (Simulation time: 0 hr 11 min 41 sec) 

Heartbeat CPU 4 instructions: 30000002 cycles: 14732248 heartbeat IPC: 2.03061 cumulative IPC: 0.70375 (Simulation time: 0 hr 11 min 42 sec) 
Heartbeat CPU 1 instructions: 40000000 cycles: 18253593 heartbeat IPC: 1.68664 cumulative IPC: 1.13288 (Simulation time: 0 hr 12 min 57 sec) 
Heartbeat CPU 2 instructions: 40000000 cycles: 18753127 heartbeat IPC: 1.60991 cumulative IPC: 1.12959 (Simulation time: 0 hr 13 min 7 sec) 
Heartbeat CPU 7 instructions: 40000000 cycles: 21359701 heartbeat IPC: 1.15299 cumulative IPC: 0.780878 (Simulation time: 0 hr 14 min 7 sec) 
Heartbeat CPU 5 instructions: 30000000 cycles: 21484544 heartbeat IPC: 1.00197 cumulative IPC: 0.670575 (Simulation time: 0 hr 14 min 10 sec) 
Heartbeat CPU 1 instructions: 50000003 cycles: 27079146 heartbeat IPC: 1.13307 cumulative IPC: 1.13302 (Simulation time: 0 hr 16 min 9 sec) 
Heartbeat CPU 2 instructions: 50000001 cycles: 27625006 heartbeat IPC: 1.12716 cumulative IPC: 1.12792 (Simulation time: 0 hr 16 min 21 sec) 
Heartbeat CPU 0 instructions: 30000000 cycles: 30785691 heartbeat IPC: 0.555691 cumulative IPC: 0.433418 (Simulation time: 0 hr 17 min 27 sec) 
Heartbeat CPU 4 instructions: 40000000 cycles: 32882940 heartbeat IPC: 0.550943 cumulative IPC: 0.551078 (Simulation time: 0 hr 18 min 12 sec) 
Heartbeat CPU 7 instructions: 50000003 cycles: 34015190 heartbeat IPC: 0.790171 cumulative IPC: 0.786972 (Simulation time: 0 hr 18 min 36 sec) 
Heartbeat CPU 5 instructions: 40000000 cycles: 34533463 heartbeat IPC: 0.766347 cumulative IPC: 0.733637 (Simulation time: 0 hr 18 min 47 sec) 
Heartbeat CPU 1 instructions: 60000000 cycles: 35884172 heartbeat IPC: 1.13571 cumulative IPC: 1.13414 (Simulation time: 0 hr 19 min 16 sec) 
Heartbeat CPU 2 instructions: 60000000 cycles: 36454309 heartbeat IPC: 1.13259 cumulative IPC: 1.12982 (Simulation time: 0 hr 19 min 28 sec) 
Heartbeat CPU 1 instructions: 70000001 cycles: 44733967 heartbeat IPC: 1.12997 cumulative IPC: 1.13291 (Simulation time: 0 hr 22 min 22 sec) 
Heartbeat CPU 2 instructions: 70000000 cycles: 45262271 heartbeat IPC: 1.13534 cumulative IPC: 1.13141 (Simulation time: 0 hr 22 min 32 sec) 
Heartbeat CPU 7 instructions: 60000000 cycles: 46723297 heartbeat IPC: 0.786899 cumulative IPC: 0.786943 (Simulation time: 0 hr 23 min 3 sec) 
Heartbeat CPU 5 instructions: 50000001 cycles: 48206838 heartbeat IPC: 0.731348 cumulative IPC: 0.732703 (Simulation time: 0 hr 23 min 35 sec) 
Heartbeat CPU 4 instructions: 50000002 cycles: 51542623 heartbeat IPC: 0.535915 cumulative IPC: 0.543395 (Simulation time: 0 hr 24 min 45 sec) 
Heartbeat CPU 1 instructions: 80000000 cycles: 53517598 heartbeat IPC: 1.13848 cumulative IPC: 1.13417 (Simulation time: 0 hr 25 min 25 sec) 
Heartbeat CPU 0 instructions: 40000000 cycles: 53819743 heartbeat IPC: 0.43414 cumulative IPC: 0.433843 (Simulation time: 0 hr 25 min 32 sec) 
Heartbeat CPU 2 instructions: 80000000 cycles: 54081313 heartbeat IPC: 1.13391 cumulative IPC: 1.13197 (Simulation time: 0 hr 25 min 37 sec) 
Heartbeat CPU 7 instructions: 70000000 cycles: 59379908 heartbeat IPC: 0.790101 cumulative IPC: 0.787838 (Simulation time: 0 hr 27 min 29 sec) 
Heartbeat CPU 6 instructions: 40000000 cycles: 60573641 heartbeat IPC: 0.217502 cumulative IPC: 0.213604 (Simulation time: 0 hr 27 min 55 sec) 
Heartbeat CPU 3 instructions: 30000001 cycles: 61519956 heartbeat IPC: 0.213658 cumulative IPC: 0.213658 (Simulation time: 0 hr 28 min 16 sec) 
Heartbeat CPU 5 instructions: 60000000 cycles: 61826603 heartbeat IPC: 0.734227 cumulative IPC: 0.733143 (Simulation time: 0 hr 28 min 23 sec) 
Heartbeat CPU 1 instructions: 90000001 cycles: 62324877 heartbeat IPC: 1.13542 cumulative IPC: 1.1344 (Simulation time: 0 hr 28 min 34 sec) 
Heartbeat CPU 2 instructions: 90000000 cycles: 62926578 heartbeat IPC: 1.13055 cumulative IPC: 1.13171 (Simulation time: 0 hr 28 min 47 sec) 
Heartbeat CPU 4 instructions: 60000000 cycles: 70219697 heartbeat IPC: 0.535416 cumulative IPC: 0.54071 (Simulation time: 0 hr 31 min 28 sec) 
Heartbeat CPU 1 instructions: 100000000 cycles: 71121998 heartbeat IPC: 1.13674 cumulative IPC: 1.13477 (Simulation time: 0 hr 31 min 49 sec) 
Heartbeat CPU 5 instructions: 70000001 cycles: 71631372 heartbeat IPC: 1.01991 cumulative IPC: 0.782545 (Simulation time: 0 hr 32 min 1 sec) 
Heartbeat CPU 2 instructions: 100000000 cycles: 71870288 heartbeat IPC: 1.1181 cumulative IPC: 1.12958 (Simulation time: 0 hr 32 min 6 sec) 
Heartbeat CPU 7 instructions: 80000000 cycles: 72026381 heartbeat IPC: 0.790734 cumulative IPC: 0.788477 (Simulation time: 0 hr 32 min 9 sec) 
Heartbeat CPU 0 instructions: 50000000 cycles: 77096096 heartbeat IPC: 0.429621 cumulative IPC: 0.432267 (Simulation time: 0 hr 34 min 1 sec) 
Heartbeat CPU 1 instructions: 110000002 cycles: 79900302 heartbeat IPC: 1.13917 cumulative IPC: 1.13536 (Simulation time: 0 hr 35 min 3 sec) 
Heartbeat CPU 2 instructions: 110000001 cycles: 80830589 heartbeat IPC: 1.11603 cumulative IPC: 1.12774 (Simulation time: 0 hr 35 min 24 sec) 
Heartbeat CPU 5 instructions: 80000000 cycles: 81904913 heartbeat IPC: 0.973374 cumulative IPC: 0.811724 (Simulation time: 0 hr 35 min 47 sec) 
Heartbeat CPU 7 instructions: 90000000 cycles: 84702926 heartbeat IPC: 0.788858 cumulative IPC: 0.788546 (Simulation time: 0 hr 36 min 43 sec) 
Heartbeat CPU 4 instructions: 70000001 cycles: 88611174 heartbeat IPC: 0.54373 cumulative IPC: 0.541462 (Simulation time: 0 hr 37 min 59 sec) 
Heartbeat CPU 1 instructions: 120000000 cycles: 88704918 heartbeat IPC: 1.13577 cumulative IPC: 1.13541 (Simulation time: 0 hr 38 min 1 sec) 
Heartbeat CPU 2 instructions: 120000000 cycles: 89795451 heartbeat IPC: 1.11547 cumulative IPC: 1.12628 (Simulation time: 0 hr 38 min 23 sec) 
Heartbeat CPU 5 instructions: 90000000 cycles: 95402818 heartbeat IPC: 0.740856 cumulative IPC: 0.799868 (Simulation time: 0 hr 40 min 14 sec) 
Heartbeat CPU 7 instructions: 100000000 cycles: 97335718 heartbeat IPC: 0.791591 cumulative IPC: 0.789012 (Simulation time: 0 hr 40 min 54 sec) 
Heartbeat CPU 1 instructions: 130000000 cycles: 97467983 heartbeat IPC: 1.14115 cumulative IPC: 1.13602 (Simulation time: 0 hr 40 min 56 sec) 
Heartbeat CPU 2 instructions: 130000000 cycles: 98958478 heartbeat IPC: 1.09134 cumulative IPC: 1.12248 (Simulation time: 0 hr 41 min 26 sec) 
Heartbeat CPU 0 instructions: 60000000 cycles: 100100062 heartbeat IPC: 0.434708 cumulative IPC: 0.432925 (Simulation time: 0 hr 41 min 49 sec) 
Finished CPU 1 instructions: 100000001 cycles: 87980348 cumulative IPC: 1.13662 (Simulation time: 0 hr 42 min 43 sec) 
Finished CPU 2 instructions: 100000001 cycles: 89329072 cumulative IPC: 1.11946 (Simulation time: 0 hr 43 min 11 sec) 
Heartbeat CPU 1 instructions: 140000000 cycles: 106194034 heartbeat IPC: 1.14599 cumulative IPC: 1.13697 (Simulation time: 0 hr 43 min 55 sec) 
Heartbeat CPU 4 instructions: 80000000 cycles: 107162122 heartbeat IPC: 0.539056 cumulative IPC: 0.540979 (Simulation time: 0 hr 44 min 14 sec) 
Heartbeat CPU 2 instructions: 140000000 cycles: 108292571 heartbeat IPC: 1.07134 cumulative IPC: 1.11738 (Simulation time: 0 hr 44 min 37 sec) 
Heartbeat CPU 3 instructions: 40000000 cycles: 109121736 heartbeat IPC: 0.210076 cumulative IPC: 0.211852 (Simulation time: 0 hr 44 min 54 sec) 
Heartbeat CPU 5 instructions: 100000000 cycles: 109455487 heartbeat IPC: 0.711609 cumulative IPC: 0.786777 (Simulation time: 0 hr 45 min 2 sec) 
Heartbeat CPU 7 instructions: 110000001 cycles: 110032124 heartbeat IPC: 0.787625 cumulative IPC: 0.788827 (Simulation time: 0 hr 45 min 14 sec) 
Heartbeat CPU 1 instructions: 150000001 cycles: 114919043 heartbeat IPC: 1.14613 cumulative IPC: 1.13777 (Simulation time: 0 hr 46 min 56 sec) 
Heartbeat CPU 2 instructions: 150000000 cycles: 117421478 heartbeat IPC: 1.09542 cumulative IPC: 1.11543 (Simulation time: 0 hr 47 min 47 sec) 
Heartbeat CPU 6 instructions: 50000001 cycles: 118480477 heartbeat IPC: 0.172691 cumulative IPC: 0.190772 (Simulation time: 0 hr 48 min 9 sec) 
Heartbeat CPU 5 instructions: 110000000 cycles: 121363643 heartbeat IPC: 0.839761 cumulative IPC: 0.792693 (Simulation time: 0 hr 49 min 10 sec) 
Heartbeat CPU 7 instructions: 120000000 cycles: 122700741 heartbeat IPC: 0.789352 cumulative IPC: 0.788889 (Simulation time: 0 hr 49 min 36 sec) 
Heartbeat CPU 0 instructions: 70000000 cycles: 122925285 heartbeat IPC: 0.438112 cumulative IPC: 0.434019 (Simulation time: 0 hr 49 min 40 sec) 
Heartbeat CPU 1 instructions: 160000000 cycles: 123881010 heartbeat IPC: 1.11583 cumulative IPC: 1.13597 (Simulation time: 0 hr 50 min 1 sec) 
Heartbeat CPU 4 instructions: 90000001 cycles: 126036084 heartbeat IPC: 0.529831 cumulative IPC: 0.539089 (Simulation time: 0 hr 50 min 47 sec) 
Heartbeat CPU 2 instructions: 160000000 cycles: 126456175 heartbeat IPC: 1.10684 cumulative IPC: 1.11473 (Simulation time: 0 hr 50 min 56 sec) 
Heartbeat CPU 1 instructions: 170000001 cycles: 132859958 heartbeat IPC: 1.11372 cumulative IPC: 1.13427 (Simulation time: 0 hr 53 min 16 sec) 
Heartbeat CPU 5 instructions: 120000000 cycles: 133529321 heartbeat IPC: 0.821985 cumulative IPC: 0.795692 (Simulation time: 0 hr 53 min 31 sec) 
Heartbeat CPU 7 instructions: 130000003 cycles: 135372873 heartbeat IPC: 0.789133 cumulative IPC: 0.788914 (Simulation time: 0 hr 54 min 11 sec) 
Heartbeat CPU 2 instructions: 170000000 cycles: 135676690 heartbeat IPC: 1.08454 cumulative IPC: 1.11243 (Simulation time: 0 hr 54 min 17 sec) 
Finished CPU 7 instructions: 100000001 cycles: 126734158 cumulative IPC: 0.789053 (Simulation time: 0 hr 56 min 18 sec) 
Finished CPU 5 instructions: 100000001 cycles: 126738951 cumulative IPC: 0.789023 (Simulation time: 0 hr 56 min 18 sec) 
Heartbeat CPU 1 instructions: 180000000 cycles: 141878205 heartbeat IPC: 1.10886 cumulative IPC: 1.13247 (Simulation time: 0 hr 56 min 26 sec) 
Heartbeat CPU 4 instructions: 100000000 cycles: 144716546 heartbeat IPC: 0.535319 cumulative IPC: 0.538547 (Simulation time: 0 hr 57 min 25 sec) 
Heartbeat CPU 2 instructions: 180000000 cycles: 144922848 heartbeat IPC: 1.08153 cumulative IPC: 1.11024 (Simulation time: 0 hr 57 min 29 sec) 
Heartbeat CPU 0 instructions: 80000000 cycles: 145864609 heartbeat IPC: 0.435933 cumulative IPC: 0.434354 (Simulation time: 0 hr 57 min 49 sec) 
Heartbeat CPU 7 instructions: 140000000 cycles: 148020479 heartbeat IPC: 0.790663 cumulative IPC: 0.78908 (Simulation time: 0 hr 58 min 33 sec) 
Heartbeat CPU 5 instructions: 130000003 cycles: 148301096 heartbeat IPC: 0.676967 cumulative IPC: 0.782564 (Simulation time: 0 hr 58 min 39 sec) 
Heartbeat CPU 1 instructions: 190000001 cycles: 150897776 heartbeat IPC: 1.1087 cumulative IPC: 1.1309 (Simulation time: 0 hr 59 min 35 sec) 
Heartbeat CPU 2 instructions: 190000000 cycles: 154122825 heartbeat IPC: 1.08696 cumulative IPC: 1.1087 (Simulation time: 1 hr 0 min 42 sec) 
Heartbeat CPU 3 instructions: 50000000 cycles: 157013294 heartbeat IPC: 0.208805 cumulative IPC: 0.210826 (Simulation time: 1 hr 1 min 41 sec) 
Heartbeat CPU 1 instructions: 200000000 cycles: 160170146 heartbeat IPC: 1.07847 cumulative IPC: 1.12756 (Simulation time: 1 hr 2 min 47 sec) 
Heartbeat CPU 7 instructions: 150000001 cycles: 160665198 heartbeat IPC: 0.790844 cumulative IPC: 0.789233 (Simulation time: 1 hr 2 min 58 sec) 
Heartbeat CPU 5 instructions: 140000000 cycles: 162582552 heartbeat IPC: 0.700208 cumulative IPC: 0.77461 (Simulation time: 1 hr 3 min 38 sec) 
Heartbeat CPU 2 instructions: 200000000 cycles: 163058776 heartbeat IPC: 1.11908 cumulative IPC: 1.10932 (Simulation time: 1 hr 3 min 49 sec) 
Heartbeat CPU 4 instructions: 110000000 cycles: 163562338 heartbeat IPC: 0.530622 cumulative IPC: 0.537544 (Simulation time: 1 hr 3 min 59 sec) 
Heartbeat CPU 0 instructions: 90000000 cycles: 168925055 heartbeat IPC: 0.433643 cumulative IPC: 0.434247 (Simulation time: 1 hr 5 min 48 sec) 
Heartbeat CPU 1 instructions: 210000001 cycles: 169371918 heartbeat IPC: 1.08675 cumulative IPC: 1.12513 (Simulation time: 1 hr 5 min 56 sec) 
Heartbeat CPU 6 instructions: 60000000 cycles: 171616073 heartbeat IPC: 0.188198 cumulative IPC: 0.1899 (Simulation time: 1 hr 6 min 46 sec) 
Heartbeat CPU 2 instructions: 210000003 cycles: 172162617 heartbeat IPC: 1.09844 cumulative IPC: 1.1087 (Simulation time: 1 hr 6 min 57 sec) 
Heartbeat CPU 7 instructions: 160000000 cycles: 173359463 heartbeat IPC: 0.787757 cumulative IPC: 0.789115 (Simulation time: 1 hr 7 min 24 sec) 
Heartbeat CPU 5 instructions: 150000002 cycles: 175601291 heartbeat IPC: 0.768124 cumulative IPC: 0.774085 (Simulation time: 1 hr 8 min 11 sec) 
Heartbeat CPU 1 instructions: 220000000 cycles: 178615723 heartbeat IPC: 1.08181 cumulative IPC: 1.12268 (Simulation time: 1 hr 9 min 17 sec) 
Heartbeat CPU 2 instructions: 220000000 cycles: 181377545 heartbeat IPC: 1.0852 cumulative IPC: 1.1074 (Simulation time: 1 hr 10 min 15 sec) 
Heartbeat CPU 4 instructions: 120000000 cycles: 182289103 heartbeat IPC: 0.533995 cumulative IPC: 0.537147 (Simulation time: 1 hr 10 min 35 sec) 
Heartbeat CPU 7 instructions: 170000001 cycles: 186040377 heartbeat IPC: 0.788587 cumulative IPC: 0.789076 (Simulation time: 1 hr 11 min 57 sec) 
Heartbeat CPU 5 instructions: 160000000 cycles: 187254672 heartbeat IPC: 0.85812 cumulative IPC: 0.77976 (Simulation time: 1 hr 12 min 23 sec) 
Heartbeat CPU 1 instructions: 230000001 cycles: 187686487 heartbeat IPC: 1.10244 cumulative IPC: 1.12162 (Simulation time: 1 hr 12 min 32 sec) 
Heartbeat CPU 2 instructions: 230000000 cycles: 190439115 heartbeat IPC: 1.10356 cumulative IPC: 1.1072 (Simulation time: 1 hr 13 min 31 sec) 
Heartbeat CPU 0 instructions: 100000000 cycles: 192289595 heartbeat IPC: 0.427999 cumulative IPC: 0.433425 (Simulation time: 1 hr 14 min 10 sec) 
Heartbeat CPU 1 instructions: 240000000 cycles: 196773862 heartbeat IPC: 1.10043 cumulative IPC: 1.12057 (Simulation time: 1 hr 15 min 40 sec) 
Heartbeat CPU 7 instructions: 180000000 cycles: 198720628 heartbeat IPC: 0.788628 cumulative IPC: 0.789045 (Simulation time: 1 hr 16 min 19 sec) 
Heartbeat CPU 2 instructions: 240000000 cycles: 199568512 heartbeat IPC: 1.09536 cumulative IPC: 1.10661 (Simulation time: 1 hr 16 min 35 sec) 
Finished CPU 4 instructions: 100000001 cycles: 186097128 cumulative IPC: 0.537354 (Simulation time: 1 hr 17 min 0 sec) 
Heartbeat CPU 4 instructions: 130000000 cycles: 200827618 heartbeat IPC: 0.539418 cumulative IPC: 0.537373 (Simulation time: 1 hr 17 min 1 sec) 
Heartbeat CPU 5 instructions: 170000001 cycles: 200898802 heartbeat IPC: 0.732916 cumulative IPC: 0.776328 (Simulation time: 1 hr 17 min 2 sec) 
Heartbeat CPU 3 instructions: 60000000 cycles: 204928515 heartbeat IPC: 0.208702 cumulative IPC: 0.210291 (Simulation time: 1 hr 18 min 30 sec) 
Heartbeat CPU 1 instructions: 250000003 cycles: 205939168 heartbeat IPC: 1.09107 cumulative IPC: 1.11915 (Simulation time: 1 hr 18 min 52 sec) 
Heartbeat CPU 2 instructions: 250000003 cycles: 208585448 heartbeat IPC: 1.10902 cumulative IPC: 1.10673 (Simulation time: 1 hr 19 min 50 sec) 
Heartbeat CPU 7 instructions: 190000001 cycles: 211395222 heartbeat IPC: 0.78898 cumulative IPC: 0.789041 (Simulation time: 1 hr 20 min 49 sec) 
Heartbeat CPU 5 instructions: 180000000 cycles: 212849811 heartbeat IPC: 0.836749 cumulative IPC: 0.779972 (Simulation time: 1 hr 21 min 20 sec) 
Heartbeat CPU 1 instructions: 260000000 cycles: 214836682 heartbeat IPC: 1.12391 cumulative IPC: 1.11936 (Simulation time: 1 hr 22 min 2 sec) 
Heartbeat CPU 0 instructions: 110000002 cycles: 215725980 heartbeat IPC: 0.426687 cumulative IPC: 0.43264 (Simulation time: 1 hr 22 min 21 sec) 
Heartbeat CPU 2 instructions: 260000000 cycles: 217641297 heartbeat IPC: 1.10426 cumulative IPC: 1.10662 (Simulation time: 1 hr 23 min 3 sec) 
Heartbeat CPU 4 instructions: 140000000 cycles: 219684785 heartbeat IPC: 0.530302 cumulative IPC: 0.536723 (Simulation time: 1 hr 23 min 48 sec) 
Heartbeat CPU 6 instructions: 70000000 cycles: 223195302 heartbeat IPC: 0.193876 cumulative IPC: 0.190884 (Simulation time: 1 hr 25 min 4 sec) 
Heartbeat CPU 1 instructions: 270000001 cycles: 223736182 heartbeat IPC: 1.12366 cumulative IPC: 1.11955 (Simulation time: 1 hr 25 min 16 sec) 
Heartbeat CPU 7 instructions: 200000000 cycles: 224048159 heartbeat IPC: 0.79033 cumulative IPC: 0.789119 (Simulation time: 1 hr 25 min 23 sec) 
Heartbeat CPU 5 instructions: 190000003 cycles: 224992702 heartbeat IPC: 0.823527 cumulative IPC: 0.782487 (Simulation time: 1 hr 25 min 44 sec) 
Heartbeat CPU 2 instructions: 270000001 cycles: 226736380 heartbeat IPC: 1.0995 cumulative IPC: 1.10631 (Simulation time: 1 hr 26 min 20 sec) 
Heartbeat CPU 1 instructions: 280000000 cycles: 232750811 heartbeat IPC: 1.10931 cumulative IPC: 1.11912 (Simulation time: 1 hr 28 min 26 sec) 
Heartbeat CPU 2 instructions: 280000000 cycles: 235678469 heartbeat IPC: 1.11831 cumulative IPC: 1.1068 (Simulation time: 1 hr 29 min 26 sec) 
Heartbeat CPU 7 instructions: 210000002 cycles: 236756625 heartbeat IPC: 0.786877 cumulative IPC: 0.78899 (Simulation time: 1 hr 29 min 49 sec) 
Heartbeat CPU 4 instructions: 150000000 cycles: 238731420 heartbeat IPC: 0.525027 cumulative IPC: 0.535728 (Simulation time: 1 hr 30 min 30 sec) 
Heartbeat CPU 0 instructions: 120000000 cycles: 239069258 heartbeat IPC: 0.428389 cumulative IPC: 0.432197 (Simulation time: 1 hr 30 min 37 sec) 
Heartbeat CPU 5 instructions: 200000000 cycles: 240370751 heartbeat IPC: 0.650277 cumulative IPC: 0.773477 (Simulation time: 1 hr 31 min 5 sec) 
Heartbeat CPU 1 instructions: 290000002 cycles: 241689065 heartbeat IPC: 1.11879 cumulative IPC: 1.11911 (Simulation time: 1 hr 31 min 33 sec) 
Heartbeat CPU 2 instructions: 290000001 cycles: 244732405 heartbeat IPC: 1.10449 cumulative IPC: 1.10671 (Simulation time: 1 hr 32 min 35 sec) 
Finished CPU 0 instructions: 100000001 cycles: 231418941 cumulative IPC: 0.432117 (Simulation time: 1 hr 33 min 4 sec) 
Heartbeat CPU 7 instructions: 220000000 cycles: 249547464 heartbeat IPC: 0.781809 cumulative IPC: 0.788599 (Simulation time: 1 hr 34 min 14 sec) 
Heartbeat CPU 1 instructions: 300000000 cycles: 250680514 heartbeat IPC: 1.11217 cumulative IPC: 1.11884 (Simulation time: 1 hr 34 min 38 sec) 
Heartbeat CPU 3 instructions: 70000000 cycles: 252109030 heartbeat IPC: 0.211952 cumulative IPC: 0.210621 (Simulation time: 1 hr 35 min 8 sec) 
Heartbeat CPU 2 instructions: 300000000 cycles: 253833068 heartbeat IPC: 1.09882 cumulative IPC: 1.10641 (Simulation time: 1 hr 35 min 43 sec) 
Heartbeat CPU 5 instructions: 210000000 cycles: 255214187 heartbeat IPC: 0.673698 cumulative IPC: 0.767319 (Simulation time: 1 hr 36 min 12 sec) 
Heartbeat CPU 4 instructions: 160000000 cycles: 257118346 heartbeat IPC: 0.543865 cumulative IPC: 0.536345 (Simulation time: 1 hr 36 min 50 sec) 
Heartbeat CPU 1 instructions: 310000000 cycles: 259734193 heartbeat IPC: 1.10452 cumulative IPC: 1.11832 (Simulation time: 1 hr 37 min 45 sec) 
Heartbeat CPU 7 instructions: 230000000 cycles: 261640843 heartbeat IPC: 0.826899 cumulative IPC: 0.790475 (Simulation time: 1 hr 38 min 25 sec) 
Heartbeat CPU 0 instructions: 130000000 cycles: 262271203 heartbeat IPC: 0.430998 cumulative IPC: 0.432085 (Simulation time: 1 hr 38 min 38 sec) 
Heartbeat CPU 2 instructions: 310000000 cycles: 262791316 heartbeat IPC: 1.11629 cumulative IPC: 1.10676 (Simulation time: 1 hr 38 min 49 sec) 
Heartbeat CPU 1 instructions: 320000000 cycles: 268817374 heartbeat IPC: 1.10094 cumulative IPC: 1.11769 (Simulation time: 1 hr 40 min 50 sec) 
Heartbeat CPU 5 instructions: 220000000 cycles: 269968374 heartbeat IPC: 0.677774 cumulative IPC: 0.762143 (Simulation time: 1 hr 41 min 13 sec) 
Heartbeat CPU 2 instructions: 320000000 cycles: 271884488 heartbeat IPC: 1.09973 cumulative IPC: 1.10651 (Simulation time: 1 hr 41 min 51 sec) 
Heartbeat CPU 7 instructions: 240000000 cycles: 273558972 heartbeat IPC: 0.839058 cumulative IPC: 0.792712 (Simulation time: 1 hr 42 min 25 sec) 
Heartbeat CPU 4 instructions: 170000000 cycles: 275656347 heartbeat IPC: 0.539432 cumulative IPC: 0.536565 (Simulation time: 1 hr 43 min 7 sec) 
Heartbeat CPU 6 instructions: 80000000 cycles: 276294687 heartbeat IPC: 0.188326 cumulative IPC: 0.190365 (Simulation time: 1 hr 43 min 19 sec) 
Heartbeat CPU 1 instructions: 330000001 cycles: 277741934 heartbeat IPC: 1.1205 cumulative IPC: 1.11779 (Simulation time: 1 hr 43 min 49 sec) 
Heartbeat CPU 2 instructions: 330000003 cycles: 281032673 heartbeat IPC: 1.09311 cumulative IPC: 1.10605 (Simulation time: 1 hr 44 min 56 sec) 
Heartbeat CPU 5 instructions: 230000000 cycles: 284909039 heartbeat IPC: 0.669314 cumulative IPC: 0.75701 (Simulation time: 1 hr 46 min 12 sec) 
Heartbeat CPU 0 instructions: 140000000 cycles: 285202235 heartbeat IPC: 0.43609 cumulative IPC: 0.432425 (Simulation time: 1 hr 46 min 18 sec) 
Heartbeat CPU 7 instructions: 250000001 cycles: 286014659 heartbeat IPC: 0.802846 cumulative IPC: 0.793177 (Simulation time: 1 hr 46 min 34 sec) 
Heartbeat CPU 1 instructions: 340000000 cycles: 286664382 heartbeat IPC: 1.12077 cumulative IPC: 1.11789 (Simulation time: 1 hr 46 min 47 sec) 
Heartbeat CPU 2 instructions: 340000000 cycles: 290194661 heartbeat IPC: 1.09147 cumulative IPC: 1.10557 (Simulation time: 1 hr 47 min 57 sec) 
Heartbeat CPU 4 instructions: 180000000 cycles: 293465276 heartbeat IPC: 0.561516 cumulative IPC: 0.538159 (Simulation time: 1 hr 49 min 1 sec) 
Heartbeat CPU 1 instructions: 350000000 cycles: 295681261 heartbeat IPC: 1.10903 cumulative IPC: 1.1176 (Simulation time: 1 hr 49 min 43 sec) 
Heartbeat CPU 7 instructions: 260000000 cycles: 298662151 heartbeat IPC: 0.790671 cumulative IPC: 0.793066 (Simulation time: 1 hr 50 min 43 sec) 
Heartbeat CPU 2 instructions: 350000001 cycles: 299293247 heartbeat IPC: 1.09907 cumulative IPC: 1.10536 (Simulation time: 1 hr 50 min 56 sec) 
Heartbeat CPU 3 instructions: 80000000 cycles: 299363779 heartbeat IPC: 0.211619 cumulative IPC: 0.210787 (Simulation time: 1 hr 50 min 57 sec) 
Heartbeat CPU 5 instructions: 240000000 cycles: 299478752 heartbeat IPC: 0.686355 cumulative IPC: 0.753395 (Simulation time: 1 hr 51 min 0 sec) 
Heartbeat CPU 1 instructions: 360000000 cycles: 304579371 heartbeat IPC: 1.12383 cumulative IPC: 1.11779 (Simulation time: 1 hr 52 min 42 sec) 
Heartbeat CPU 0 instructions: 150000000 cycles: 307890724 heartbeat IPC: 0.440752 cumulative IPC: 0.433069 (Simulation time: 1 hr 53 min 49 sec) 
Heartbeat CPU 2 instructions: 360000000 cycles: 308521504 heartbeat IPC: 1.08363 cumulative IPC: 1.10468 (Simulation time: 1 hr 54 min 2 sec) 
Heartbeat CPU 5 instructions: 250000002 cycles: 310847326 heartbeat IPC: 0.879618 cumulative IPC: 0.758241 (Simulation time: 1 hr 54 min 49 sec) 
Heartbeat CPU 7 instructions: 270000002 cycles: 311564531 heartbeat IPC: 0.775051 cumulative IPC: 0.792283 (Simulation time: 1 hr 55 min 3 sec) 
Heartbeat CPU 4 instructions: 190000000 cycles: 312086502 heartbeat IPC: 0.537022 cumulative IPC: 0.538088 (Simulation time: 1 hr 55 min 13 sec) 
Heartbeat CPU 1 instructions: 370000003 cycles: 313604738 heartbeat IPC: 1.10799 cumulative IPC: 1.1175 (Simulation time: 1 hr 55 min 42 sec) 
Heartbeat CPU 2 instructions: 370000002 cycles: 317509787 heartbeat IPC: 1.11256 cumulative IPC: 1.10491 (Simulation time: 1 hr 56 min 57 sec) 
Heartbeat CPU 1 instructions: 380000000 cycles: 322663699 heartbeat IPC: 1.10388 cumulative IPC: 1.1171 (Simulation time: 1 hr 58 min 39 sec) 
Heartbeat CPU 6 instructions: 90000002 cycles: 323214772 heartbeat IPC: 0.213128 cumulative IPC: 0.193827 (Simulation time: 1 hr 58 min 50 sec) 
Heartbeat CPU 7 instructions: 280000000 cycles: 324745184 heartbeat IPC: 0.758688 cumulative IPC: 0.790854 (Simulation time: 1 hr 59 min 21 sec) 
Heartbeat CPU 5 instructions: 260000000 cycles: 325326213 heartbeat IPC: 0.690661 cumulative IPC: 0.755091 (Simulation time: 1 hr 59 min 33 sec) 
Heartbeat CPU 2 instructions: 380000000 cycles: 326701653 heartbeat IPC: 1.08792 cumulative IPC: 1.10441 (Simulation time: 1 hr 59 min 59 sec) 
Heartbeat CPU 4 instructions: 200000000 cycles: 330403834 heartbeat IPC: 0.545931 cumulative IPC: 0.538543 (Simulation time: 2 hr 1 min 10 sec) 
Heartbeat CPU 0 instructions: 160000000 cycles: 330656724 heartbeat IPC: 0.439252 cumulative IPC: 0.433515 (Simulation time: 2 hr 1 min 15 sec) 
Heartbeat CPU 1 instructions: 390000002 cycles: 332059188 heartbeat IPC: 1.06434 cumulative IPC: 1.11554 (Simulation time: 2 hr 1 min 42 sec) 
Heartbeat CPU 2 instructions: 390000002 cycles: 335760127 heartbeat IPC: 1.10394 cumulative IPC: 1.1044 (Simulation time: 2 hr 2 min 54 sec) 
Heartbeat CPU 7 instructions: 290000000 cycles: 338308195 heartbeat IPC: 0.737299 cumulative IPC: 0.78861 (Simulation time: 2 hr 3 min 46 sec) 
Heartbeat CPU 5 instructions: 270000000 cycles: 339115088 heartbeat IPC: 0.725222 cumulative IPC: 0.753821 (Simulation time: 2 hr 4 min 1 sec) 
Heartbeat CPU 1 instructions: 400000000 cycles: 341235859 heartbeat IPC: 1.08972 cumulative IPC: 1.11481 (Simulation time: 2 hr 4 min 43 sec) 
Heartbeat CPU 2 instructions: 400000000 cycles: 344982263 heartbeat IPC: 1.08435 cumulative IPC: 1.10384 (Simulation time: 2 hr 5 min 57 sec) 
Heartbeat CPU 3 instructions: 90000001 cycles: 345912353 heartbeat IPC: 0.214829 cumulative IPC: 0.211355 (Simulation time: 2 hr 6 min 15 sec) 
Heartbeat CPU 4 instructions: 210000002 cycles: 349003023 heartbeat IPC: 0.537658 cumulative IPC: 0.538494 (Simulation time: 2 hr 7 min 15 sec) 
Heartbeat CPU 1 instructions: 410000001 cycles: 350483325 heartbeat IPC: 1.08138 cumulative IPC: 1.11389 (Simulation time: 2 hr 7 min 43 sec) 
Heartbeat CPU 5 instructions: 280000000 cycles: 352139856 heartbeat IPC: 0.767768 cumulative IPC: 0.754359 (Simulation time: 2 hr 8 min 15 sec) 
Heartbeat CPU 7 instructions: 300000000 cycles: 352150175 heartbeat IPC: 0.72244 cumulative IPC: 0.785895 (Simulation time: 2 hr 8 min 15 sec) 
Heartbeat CPU 0 instructions: 170000003 cycles: 353488961 heartbeat IPC: 0.437977 cumulative IPC: 0.433815 (Simulation time: 2 hr 8 min 42 sec) 
Heartbeat CPU 2 instructions: 410000002 cycles: 354146689 heartbeat IPC: 1.09118 cumulative IPC: 1.1035 (Simulation time: 2 hr 8 min 54 sec) 
Heartbeat CPU 1 instructions: 420000000 cycles: 359793079 heartbeat IPC: 1.07414 cumulative IPC: 1.11282 (Simulation time: 2 hr 10 min 43 sec) 
Heartbeat CPU 2 instructions: 420000000 cycles: 363244613 heartbeat IPC: 1.09915 cumulative IPC: 1.10338 (Simulation time: 2 hr 11 min 49 sec) 
Heartbeat CPU 7 instructions: 310000003 cycles: 366159854 heartbeat IPC: 0.713792 cumulative IPC: 0.783021 (Simulation time: 2 hr 12 min 45 sec) 
Heartbeat CPU 5 instructions: 290000000 cycles: 366630490 heartbeat IPC: 0.690101 cumulative IPC: 0.751713 (Simulation time: 2 hr 12 min 54 sec) 
Heartbeat CPU 4 instructions: 220000000 cycles: 367925697 heartbeat IPC: 0.528466 cumulative IPC: 0.537956 (Simulation time: 2 hr 13 min 19 sec) 
Heartbeat CPU 1 instructions: 430000000 cycles: 369017601 heartbeat IPC: 1.08407 cumulative IPC: 1.11207 (Simulation time: 2 hr 13 min 39 sec) 
Heartbeat CPU 2 instructions: 430000001 cycles: 372387017 heartbeat IPC: 1.0938 cumulative IPC: 1.10314 (Simulation time: 2 hr 14 min 43 sec) 
Heartbeat CPU 6 instructions: 100000000 cycles: 375469436 heartbeat IPC: 0.19137 cumulative IPC: 0.193471 (Simulation time: 2 hr 15 min 41 sec) 
Heartbeat CPU 0 instructions: 180000000 cycles: 376249967 heartbeat IPC: 0.439348 cumulative IPC: 0.434164 (Simulation time: 2 hr 15 min 55 sec) 
Heartbeat CPU 1 instructions: 440000000 cycles: 378031260 heartbeat IPC: 1.10943 cumulative IPC: 1.112 (Simulation time: 2 hr 16 min 31 sec) 
Heartbeat CPU 7 instructions: 320000000 cycles: 380380601 heartbeat IPC: 0.703198 cumulative IPC: 0.779917 (Simulation time: 2 hr 17 min 15 sec) 
Heartbeat CPU 2 instructions: 440000000 cycles: 381629432 heartbeat IPC: 1.08197 cumulative IPC: 1.1026 (Simulation time: 2 hr 17 min 39 sec) 
Heartbeat CPU 5 instructions: 300000000 cycles: 381865175 heartbeat IPC: 0.656397 cumulative IPC: 0.747758 (Simulation time: 2 hr 17 min 43 sec) 
Heartbeat CPU 4 instructions: 230000003 cycles: 386935622 heartbeat IPC: 0.526041 cumulative IPC: 0.537348 (Simulation time: 2 hr 19 min 17 sec) 
Heartbeat CPU 1 instructions: 450000002 cycles: 387059778 heartbeat IPC: 1.1076 cumulative IPC: 1.1119 (Simulation time: 2 hr 19 min 20 sec) 
Heartbeat CPU 2 instructions: 450000003 cycles: 390626159 heartbeat IPC: 1.11152 cumulative IPC: 1.10282 (Simulation time: 2 hr 20 min 30 sec) 
Heartbeat CPU 3 instructions: 100000000 cycles: 393553117 heartbeat IPC: 0.209904 cumulative IPC: 0.211173 (Simulation time: 2 hr 21 min 25 sec) 
Heartbeat CPU 7 instructions: 330000000 cycles: 394734565 heartbeat IPC: 0.696672 cumulative IPC: 0.776772 (Simulation time: 2 hr 21 min 47 sec) 
Heartbeat CPU 1 instructions: 460000000 cycles: 395909213 heartbeat IPC: 1.13002 cumulative IPC: 1.11232 (Simulation time: 2 hr 22 min 9 sec) 
Heartbeat CPU 5 instructions: 310000001 cycles: 396635028 heartbeat IPC: 0.677055 cumulative IPC: 0.745024 (Simulation time: 2 hr 22 min 22 sec) 
Heartbeat CPU 0 instructions: 190000002 cycles: 399036969 heartbeat IPC: 0.438847 cumulative IPC: 0.434441 (Simulation time: 2 hr 23 min 7 sec) 
Heartbeat CPU 2 instructions: 460000000 cycles: 399637528 heartbeat IPC: 1.10971 cumulative IPC: 1.10298 (Simulation time: 2 hr 23 min 19 sec) 
Heartbeat CPU 1 instructions: 470000001 cycles: 404878016 heartbeat IPC: 1.11498 cumulative IPC: 1.11238 (Simulation time: 2 hr 24 min 59 sec) 
Heartbeat CPU 4 instructions: 240000000 cycles: 406533518 heartbeat IPC: 0.510259 cumulative IPC: 0.535993 (Simulation time: 2 hr 25 min 30 sec) 
Heartbeat CPU 2 instructions: 470000001 cycles: 408442964 heartbeat IPC: 1.13566 cumulative IPC: 1.10371 (Simulation time: 2 hr 26 min 5 sec) 
Heartbeat CPU 7 instructions: 340000000 cycles: 409081903 heartbeat IPC: 0.696993 cumulative IPC: 0.77387 (Simulation time: 2 hr 26 min 17 sec) 
Heartbeat CPU 5 instructions: 320000000 cycles: 410553399 heartbeat IPC: 0.718475 cumulative IPC: 0.74409 (Simulation time: 2 hr 26 min 47 sec) 
Heartbeat CPU 1 instructions: 480000000 cycles: 413803043 heartbeat IPC: 1.12044 cumulative IPC: 1.11256 (Simulation time: 2 hr 27 min 52 sec) 
Heartbeat CPU 2 instructions: 480000000 cycles: 417353197 heartbeat IPC: 1.12231 cumulative IPC: 1.10412 (Simulation time: 2 hr 29 min 2 sec) 
Heartbeat CPU 6 instructions: 110000000 cycles: 418084728 heartbeat IPC: 0.234658 cumulative IPC: 0.197822 (Simulation time: 2 hr 29 min 16 sec) 
Heartbeat CPU 5 instructions: 330000002 cycles: 422403398 heartbeat IPC: 0.843882 cumulative IPC: 0.746991 (Simulation time: 2 hr 30 min 39 sec) 
Heartbeat CPU 1 instructions: 490000000 cycles: 422808508 heartbeat IPC: 1.11044 cumulative IPC: 1.11251 (Simulation time: 2 hr 30 min 47 sec) 
Heartbeat CPU 0 instructions: 200000000 cycles: 422958497 heartbeat IPC: 0.418033 cumulative IPC: 0.43348 (Simulation time: 2 hr 30 min 50 sec) 
Heartbeat CPU 7 instructions: 350000000 cycles: 423474973 heartbeat IPC: 0.694779 cumulative IPC: 0.771085 (Simulation time: 2 hr 30 min 59 sec) 
Heartbeat CPU 2 instructions: 490000001 cycles: 426166836 heartbeat IPC: 1.13461 cumulative IPC: 1.10477 (Simulation time: 2 hr 31 min 49 sec) 
Heartbeat CPU 4 instructions: 250000002 cycles: 426240165 heartbeat IPC: 0.507443 cumulative IPC: 0.534626 (Simulation time: 2 hr 31 min 51 sec) 
Heartbeat CPU 1 instructions: 500000000 cycles: 431725406 heartbeat IPC: 1.12147 cumulative IPC: 1.1127 (Simulation time: 2 hr 33 min 41 sec) 
Heartbeat CPU 2 instructions: 500000000 cycles: 435017730 heartbeat IPC: 1.12983 cumulative IPC: 1.1053 (Simulation time: 2 hr 34 min 45 sec) 
Heartbeat CPU 5 instructions: 340000000 cycles: 435137713 heartbeat IPC: 0.78528 cumulative IPC: 0.748151 (Simulation time: 2 hr 34 min 48 sec) 
Heartbeat CPU 7 instructions: 360000000 cycles: 437922742 heartbeat IPC: 0.692148 cumulative IPC: 0.76839 (Simulation time: 2 hr 35 min 41 sec) 
Heartbeat CPU 1 instructions: 510000002 cycles: 440693302 heartbeat IPC: 1.11509 cumulative IPC: 1.11275 (Simulation time: 2 hr 36 min 36 sec) 
Heartbeat CPU 3 instructions: 110000003 cycles: 441000867 heartbeat IPC: 0.210758 cumulative IPC: 0.211127 (Simulation time: 2 hr 36 min 42 sec) 
Heartbeat CPU 2 instructions: 510000001 cycles: 443846375 heartbeat IPC: 1.13268 cumulative IPC: 1.10587 (Simulation time: 2 hr 37 min 36 sec) 
Heartbeat CPU 4 instructions: 260000000 cycles: 445542412 heartbeat IPC: 0.518074 cumulative IPC: 0.533884 (Simulation time: 2 hr 38 min 8 sec) 
Heartbeat CPU 0 instructions: 210000000 cycles: 447709968 heartbeat IPC: 0.404016 cumulative IPC: 0.431796 (Simulation time: 2 hr 38 min 48 sec) 
Heartbeat CPU 5 instructions: 350000003 cycles: 447726510 heartbeat IPC: 0.794357 cumulative IPC: 0.749494 (Simulation time: 2 hr 38 min 48 sec) 
Heartbeat CPU 1 instructions: 520000000 cycles: 449660522 heartbeat IPC: 1.11517 cumulative IPC: 1.1128 (Simulation time: 2 hr 39 min 25 sec) 
Heartbeat CPU 7 instructions: 370000001 cycles: 452317724 heartbeat IPC: 0.694687 cumulative IPC: 0.765966 (Simulation time: 2 hr 40 min 15 sec) 
Heartbeat CPU 2 instructions: 520000000 cycles: 452736734 heartbeat IPC: 1.12481 cumulative IPC: 1.10625 (Simulation time: 2 hr 40 min 23 sec) 
Heartbeat CPU 1 instructions: 530000000 cycles: 458697010 heartbeat IPC: 1.10662 cumulative IPC: 1.11268 (Simulation time: 2 hr 42 min 14 sec) 
Heartbeat CPU 5 instructions: 360000000 cycles: 462251227 heartbeat IPC: 0.688481 cumulative IPC: 0.747514 (Simulation time: 2 hr 43 min 24 sec) 
Heartbeat CPU 2 instructions: 530000003 cycles: 462653880 heartbeat IPC: 1.00835 cumulative IPC: 1.10408 (Simulation time: 2 hr 43 min 31 sec) 
Heartbeat CPU 6 instructions: 120000000 cycles: 464741431 heartbeat IPC: 0.214331 cumulative IPC: 0.199534 (Simulation time: 2 hr 44 min 13 sec) 
Heartbeat CPU 4 instructions: 270000001 cycles: 464785520 heartbeat IPC: 0.519667 cumulative IPC: 0.533276 (Simulation time: 2 hr 44 min 14 sec) 
Heartbeat CPU 7 instructions: 380000000 cycles: 466737824 heartbeat IPC: 0.693476 cumulative IPC: 0.763653 (Simulation time: 2 hr 44 min 51 sec) 
Heartbeat CPU 1 instructions: 540000000 cycles: 467688449 heartbeat IPC: 1.11217 cumulative IPC: 1.11267 (Simulation time: 2 hr 45 min 9 sec) 
Heartbeat CPU 0 instructions: 220000000 cycles: 470749016 heartbeat IPC: 0.434046 cumulative IPC: 0.431909 (Simulation time: 2 hr 46 min 9 sec) 
Heartbeat CPU 2 instructions: 540000000 cycles: 472161069 heartbeat IPC: 1.05184 cumulative IPC: 1.103 (Simulation time: 2 hr 46 min 36 sec) 
Heartbeat CPU 5 instructions: 370000002 cycles: 475188383 heartbeat IPC: 0.772968 cumulative IPC: 0.748229 (Simulation time: 2 hr 47 min 37 sec) 
Heartbeat CPU 1 instructions: 550000001 cycles: 476589516 heartbeat IPC: 1.12346 cumulative IPC: 1.11288 (Simulation time: 2 hr 48 min 5 sec) 
Heartbeat CPU 2 instructions: 550000002 cycles: 481008121 heartbeat IPC: 1.13032 cumulative IPC: 1.10351 (Simulation time: 2 hr 49 min 30 sec) 
Heartbeat CPU 7 instructions: 390000001 cycles: 481112155 heartbeat IPC: 0.695685 cumulative IPC: 0.761558 (Simulation time: 2 hr 49 min 32 sec) 
Heartbeat CPU 4 instructions: 280000000 cycles: 483773477 heartbeat IPC: 0.52665 cumulative IPC: 0.533008 (Simulation time: 2 hr 50 min 21 sec) 
Heartbeat CPU 1 instructions: 560000000 cycles: 485633454 heartbeat IPC: 1.10571 cumulative IPC: 1.11274 (Simulation time: 2 hr 50 min 56 sec) 
Heartbeat CPU 3 instructions: 120000000 cycles: 488585505 heartbeat IPC: 0.210152 cumulative IPC: 0.211029 (Simulation time: 2 hr 51 min 50 sec) 
Finished CPU 3 instructions: 100000000 cycles: 473869319 cumulative IPC: 0.211029 (Simulation time: 2 hr 51 min 50 sec) 
Heartbeat CPU 5 instructions: 380000000 cycles: 488983617 heartbeat IPC: 0.724888 cumulative IPC: 0.74755 (Simulation time: 2 hr 51 min 58 sec) 
Heartbeat CPU 2 instructions: 560000000 cycles: 489887511 heartbeat IPC: 1.1262 cumulative IPC: 1.10394 (Simulation time: 2 hr 52 min 15 sec) 
Heartbeat CPU 0 instructions: 230000001 cycles: 494101457 heartbeat IPC: 0.428221 cumulative IPC: 0.43173 (Simulation time: 2 hr 53 min 34 sec) 
Heartbeat CPU 1 instructions: 570000002 cycles: 494584229 heartbeat IPC: 1.11722 cumulative IPC: 1.11282 (Simulation time: 2 hr 53 min 43 sec) 
Heartbeat CPU 7 instructions: 400000000 cycles: 495488465 heartbeat IPC: 0.695589 cumulative IPC: 0.759586 (Simulation time: 2 hr 54 min 0 sec) 
Heartbeat CPU 2 instructions: 570000002 cycles: 498740310 heartbeat IPC: 1.12959 cumulative IPC: 1.10441 (Simulation time: 2 hr 55 min 0 sec) 
Heartbeat CPU 4 instructions: 290000000 cycles: 502048905 heartbeat IPC: 0.547183 cumulative IPC: 0.53354 (Simulation time: 2 hr 56 min 1 sec) 
Heartbeat CPU 1 instructions: 580000000 cycles: 503593419 heartbeat IPC: 1.10998 cumulative IPC: 1.11277 (Simulation time: 2 hr 56 min 31 sec) 
Heartbeat CPU 5 instructions: 390000003 cycles: 503955374 heartbeat IPC: 0.667924 cumulative IPC: 0.745113 (Simulation time: 2 hr 56 min 37 sec) 
Heartbeat CPU 2 instructions: 580000000 cycles: 507562954 heartbeat IPC: 1.13345 cumulative IPC: 1.10493 (Simulation time: 2 hr 57 min 45 sec) 
Heartbeat CPU 7 instructions: 410000002 cycles: 509857147 heartbeat IPC: 0.695958 cumulative IPC: 0.757739 (Simulation time: 2 hr 58 min 28 sec) 
Heartbeat CPU 1 instructions: 590000002 cycles: 512564399 heartbeat IPC: 1.11471 cumulative IPC: 1.1128 (Simulation time: 2 hr 59 min 18 sec) 
Heartbeat CPU 2 instructions: 590000000 cycles: 516378386 heartbeat IPC: 1.13437 cumulative IPC: 1.10545 (Simulation time: 3 hr 0 min 29 sec) 
Heartbeat CPU 0 instructions: 240000000 cycles: 517626256 heartbeat IPC: 0.425083 cumulative IPC: 0.431419 (Simulation time: 3 hr 0 min 53 sec) 
Heartbeat CPU 5 instructions: 400000000 cycles: 518818876 heartbeat IPC: 0.672789 cumulative IPC: 0.742981 (Simulation time: 3 hr 1 min 15 sec) 
Heartbeat CPU 4 instructions: 300000000 cycles: 520402797 heartbeat IPC: 0.544844 cumulative IPC: 0.53395 (Simulation time: 3 hr 1 min 45 sec) 
Heartbeat CPU 1 instructions: 600000000 cycles: 521608919 heartbeat IPC: 1.10564 cumulative IPC: 1.11268 (Simulation time: 3 hr 2 min 7 sec) 
Heartbeat CPU 6 instructions: 130000003 cycles: 521630486 heartbeat IPC: 0.175781 cumulative IPC: 0.196868 (Simulation time: 3 hr 2 min 8 sec) 
Finished CPU 6 instructions: 100000000 cycles: 507286371 cumulative IPC: 0.197127 (Simulation time: 3 hr 2 min 15 sec) 

CPU 0 Branch Prediction Accuracy: 86.2334% MPKI: 15.6804

CPU 1 Branch Prediction Accuracy: 91.9057% MPKI: 11.2132

CPU 2 Branch Prediction Accuracy: 91.9476% MPKI: 11.1459

CPU 3 Branch Prediction Accuracy: 96.7754% MPKI: 4.79355

CPU 4 Branch Prediction Accuracy: 97.0735% MPKI: 0.50919

CPU 5 Branch Prediction Accuracy: 98.4636% MPKI: 1.91834

CPU 6 Branch Prediction Accuracy: 99.2486% MPKI: 1.60516

CPU 7 Branch Prediction Accuracy: 99.9309% MPKI: 0.173354

ChampSim completed all CPUs

Total Simulation Statistics (not including warmup)

CPU 0 cumulative IPC: 0.43135 instructions: 218817729 cycles: 507286370
L1D TOTAL     ACCESS:   72130656  HIT:   71202983  MISS:     927673
L1D LOAD      ACCESS:   45522733  HIT:   44866342  MISS:     656391
L1D RFO       ACCESS:   26607923  HIT:   26336641  MISS:     271282
L1D PREFETCH  ACCESS:          0  HIT:          0  MISS:          0
L1D WRITEBACK ACCESS:          0  HIT:          0  MISS:          0
L1I TOTAL     ACCESS:   51934911  HIT:   51855207  MISS:      79704
L1I LOAD      ACCESS:   51934911  HIT:   51855207  MISS:      79704
L1I RFO       ACCESS:          0  HIT:          0  MISS:          0
L1I PREFETCH  ACCESS:          0  HIT:          0  MISS:          0
L1I WRITEBACK ACCESS:          0  HIT:          0  MISS:          0
L2C TOTAL     ACCESS:    2465230  HIT:    2411642  MISS:      53588
L2C LOAD      ACCESS:     736092  HIT:     712297  MISS:      23795
L2C RFO       ACCESS:     271273  HIT:     248868  MISS:      22405
L2C PREFETCH  ACCESS:    1062485  HIT:    1055196  MISS:       7289
L2C WRITEBACK ACCESS:     395380  HIT:     395281  MISS:         99
LLC TOTAL     ACCESS:     274158  HIT:     204219  MISS:      69939
LLC LOAD      ACCESS:      23309  HIT:      15752  MISS:       7557
LLC RFO       ACCESS:      22405  HIT:        526  MISS:      21879
LLC PREFETCH  ACCESS:     203480  HIT:     167485  MISS:      35995
LLC WRITEBACK ACCESS:      24964  HIT:      20456  MISS:       4508

CPU 1 cumulative IPC: 1.11269 instructions: 564450850 cycles: 507286370
L1D TOTAL     ACCESS:   98739108  HIT:   98671168  MISS:      67940
L1D LOAD      ACCESS:   77701792  HIT:   77693000  MISS:       8792
L1D RFO       ACCESS:   21037316  HIT:   20978168  MISS:      59148
L1D PREFETCH  ACCESS:          0  HIT:          0  MISS:          0
L1D WRITEBACK ACCESS:          0  HIT:          0  MISS:          0
L1I TOTAL     ACCESS:  136834904  HIT:  136834904  MISS:          0
L1I LOAD      ACCESS:  136834904  HIT:  136834904  MISS:          0
L1I RFO       ACCESS:          0  HIT:          0  MISS:          0
L1I PREFETCH  ACCESS:          0  HIT:          0  MISS:          0
L1I WRITEBACK ACCESS:          0  HIT:          0  MISS:          0
L2C TOTAL     ACCESS:     130314  HIT:      69344  MISS:      60970
L2C LOAD      ACCESS:       8789  HIT:       3701  MISS:       5088
L2C RFO       ACCESS:      59148  HIT:       3906  MISS:      55242
L2C PREFETCH  ACCESS:       3192  HIT:       2693  MISS:        499
L2C WRITEBACK ACCESS:      59185  HIT:      59044  MISS:        141
LLC TOTAL     ACCESS:     133948  HIT:      17943  MISS:     116005
LLC LOAD      ACCESS:       5088  HIT:       4650  MISS:        438
LLC RFO       ACCESS:      55242  HIT:          1  MISS:      55241
LLC PREFETCH  ACCESS:      18356  HIT:      12532  MISS:       5824
LLC WRITEBACK ACCESS:      55262  HIT:        760  MISS:      54502

CPU 2 cumulative IPC: 1.10579 instructions: 560950270 cycles: 507286370
L1D TOTAL     ACCESS:   97505028  HIT:   97389611  MISS:     115417
L1D LOAD      ACCESS:   76353150  HIT:   76332008  MISS:      21142
L1D RFO       ACCESS:   21151878  HIT:   21057603  MISS:      94275
L1D PREFETCH  ACCESS:          0  HIT:          0  MISS:          0
L1D WRITEBACK ACCESS:          0  HIT:          0  MISS:          0
L1I TOTAL     ACCESS:  136398818  HIT:  136398818  MISS:          0
L1I LOAD      ACCESS:  136398818  HIT:  136398818  MISS:          0
L1I RFO       ACCESS:          0  HIT:          0  MISS:          0
L1I PREFETCH  ACCESS:          0  HIT:          0  MISS:          0
L1I WRITEBACK ACCESS:          0  HIT:          0  MISS:          0
L2C TOTAL     ACCESS:     214654  HIT:     106526  MISS:     108128
L2C LOAD      ACCESS:      21142  HIT:       5420  MISS:      15722
L2C RFO       ACCESS:      94275  HIT:       4363  MISS:      89912
L2C PREFETCH  ACCESS:       4757  HIT:       2402  MISS:       2355
L2C WRITEBACK ACCESS:      94480  HIT:      94341  MISS:        139
LLC TOTAL     ACCESS:     265385  HIT:     108367  MISS:     157018
LLC LOAD      ACCESS:      15722  HIT:      14698  MISS:       1024
LLC RFO       ACCESS:      89912  HIT:          6  MISS:      89906
LLC PREFETCH  ACCESS:      69680  HIT:      51730  MISS:      17950
LLC WRITEBACK ACCESS:      90071  HIT:      41933  MISS:      48138

CPU 3 cumulative IPC: 0.211117 instructions: 107096558 cycles: 507286370
L1D TOTAL     ACCESS:   47286621  HIT:   45165125  MISS:    2121496
L1D LOAD      ACCESS:   27974111  HIT:   26119191  MISS:    1854920
L1D RFO       ACCESS:   19312510  HIT:   19045934  MISS:     266576
L1D PREFETCH  ACCESS:          0  HIT:          0  MISS:          0
L1D WRITEBACK ACCESS:          0  HIT:          0  MISS:          0
L1I TOTAL     ACCESS:   37914945  HIT:   37874911  MISS:      40034
L1I LOAD      ACCESS:   37914945  HIT:   37874911  MISS:      40034
L1I RFO       ACCESS:          0  HIT:          0  MISS:          0
L1I PREFETCH  ACCESS:          0  HIT:          0  MISS:          0
L1I WRITEBACK ACCESS:          0  HIT:          0  MISS:          0
L2C TOTAL     ACCESS:    3582672  HIT:    2001526  MISS:    1581146
L2C LOAD      ACCESS:    1894900  HIT:     583478  MISS:    1311422
L2C RFO       ACCESS:     266566  HIT:      52270  MISS:     214296
L2C PREFETCH  ACCESS:     392972  HIT:     340564  MISS:      52408
L2C WRITEBACK ACCESS:    1028234  HIT:    1025214  MISS:       3020
LLC TOTAL     ACCESS:    3846609  HIT:    2069908  MISS:    1776701
LLC LOAD      ACCESS:    1310793  HIT:     530184  MISS:     780609
LLC RFO       ACCESS:     214073  HIT:      99427  MISS:     114646
LLC PREFETCH  ACCESS:    1549810  HIT:     673000  MISS:     876810
LLC WRITEBACK ACCESS:     771933  HIT:     767297  MISS:       4636

CPU 4 cumulative IPC: 0.534 instructions: 270890817 cycles: 507286371
L1D TOTAL     ACCESS:   77282671  HIT:   55865130  MISS:   21417541
L1D LOAD      ACCESS:   27499519  HIT:   24251824  MISS:    3247695
L1D RFO       ACCESS:   49783152  HIT:   31613306  MISS:   18169846
L1D PREFETCH  ACCESS:          0  HIT:          0  MISS:          0
L1D WRITEBACK ACCESS:          0  HIT:          0  MISS:          0
L1I TOTAL     ACCESS:   66091123  HIT:   66091123  MISS:          0
L1I LOAD      ACCESS:   66091123  HIT:   66091123  MISS:          0
L1I RFO       ACCESS:          0  HIT:          0  MISS:          0
L1I PREFETCH  ACCESS:          0  HIT:          0  MISS:          0
L1I WRITEBACK ACCESS:          0  HIT:          0  MISS:          0
L2C TOTAL     ACCESS:   40260839  HIT:   24146031  MISS:   16114808
L2C LOAD      ACCESS:    3247695  HIT:     659128  MISS:    2588567
L2C RFO       ACCESS:   18169814  HIT:    5305630  MISS:   12864184
L2C PREFETCH  ACCESS:     673486  HIT:      16315  MISS:     657171
L2C WRITEBACK ACCESS:   18169844  HIT:   18164958  MISS:       4886
LLC TOTAL     ACCESS:   35853283  HIT:   22880556  MISS:   12972727
LLC LOAD      ACCESS:    2325973  HIT:    2071239  MISS:     254734
LLC RFO       ACCESS:   12857584  HIT:    3128440  MISS:    9729144
LLC PREFETCH  ACCESS:    7801013  HIT:    4812463  MISS:    2988550
LLC WRITEBACK ACCESS:   12868713  HIT:   12868414  MISS:        299

CPU 5 cumulative IPC: 0.74284 instructions: 376832476 cycles: 507286371
L1D TOTAL     ACCESS:  141864848  HIT:  141797644  MISS:      67204
L1D LOAD      ACCESS:   60657556  HIT:   60593614  MISS:      63942
L1D RFO       ACCESS:   81207292  HIT:   81204030  MISS:       3262
L1D PREFETCH  ACCESS:          0  HIT:          0  MISS:          0
L1D WRITEBACK ACCESS:          0  HIT:          0  MISS:          0
L1I TOTAL     ACCESS:  101032236  HIT:  101021770  MISS:      10466
L1I LOAD      ACCESS:  101032236  HIT:  101021770  MISS:      10466
L1I RFO       ACCESS:          0  HIT:          0  MISS:          0
L1I PREFETCH  ACCESS:          0  HIT:          0  MISS:          0
L1I WRITEBACK ACCESS:          0  HIT:          0  MISS:          0
L2C TOTAL     ACCESS:     159305  HIT:     138549  MISS:      20756
L2C LOAD      ACCESS:      74388  HIT:      56163  MISS:      18225
L2C RFO       ACCESS:       3262  HIT:       1323  MISS:       1939
L2C PREFETCH  ACCESS:      70607  HIT:      70084  MISS:        523
L2C WRITEBACK ACCESS:      11048  HIT:      10979  MISS:         69
LLC TOTAL     ACCESS:      56583  HIT:      18514  MISS:      38069
LLC LOAD      ACCESS:      18212  HIT:       3627  MISS:      14585
LLC RFO       ACCESS:       1939  HIT:         19  MISS:       1920
LLC PREFETCH  ACCESS:      33209  HIT:      14864  MISS:      18345
LLC WRITEBACK ACCESS:       3223  HIT:          4  MISS:       3219

CPU 6 cumulative IPC: 0.197127 instructions: 100000000 cycles: 507286371
L1D TOTAL     ACCESS:   23360428  HIT:   20548941  MISS:    2811487
L1D LOAD      ACCESS:   18694948  HIT:   15943911  MISS:    2751037
L1D RFO       ACCESS:    4665480  HIT:    4605030  MISS:      60450
L1D PREFETCH  ACCESS:          0  HIT:          0  MISS:          0
L1D WRITEBACK ACCESS:          0  HIT:          0  MISS:          0
L1I TOTAL     ACCESS:   32047478  HIT:   31695161  MISS:     352317
L1I LOAD      ACCESS:   32047478  HIT:   31695161  MISS:     352317
L1I RFO       ACCESS:          0  HIT:          0  MISS:          0
L1I PREFETCH  ACCESS:          0  HIT:          0  MISS:          0
L1I WRITEBACK ACCESS:          0  HIT:          0  MISS:          0
L2C TOTAL     ACCESS:    3828643  HIT:    1125046  MISS:    2703597
L2C LOAD      ACCESS:    3103297  HIT:     505610  MISS:    2597687
L2C RFO       ACCESS:      60444  HIT:      29310  MISS:      31134
L2C PREFETCH  ACCESS:     539951  HIT:     466030  MISS:      73921
L2C WRITEBACK ACCESS:     124951  HIT:     124096  MISS:        855
LLC TOTAL     ACCESS:    5012947  HIT:    1448282  MISS:    3564665
LLC LOAD      ACCESS:    2588788  HIT:     692847  MISS:    1895941
LLC RFO       ACCESS:      31127  HIT:       8337  MISS:      22790
LLC PREFETCH  ACCESS:    2340886  HIT:     695123  MISS:    1645763
LLC WRITEBACK ACCESS:      52146  HIT:      51975  MISS:        171

CPU 7 cumulative IPC: 0.756212 instructions: 383616262 cycles: 507286371
L1D TOTAL     ACCESS:   78055843  HIT:   69533048  MISS:    8522795
L1D LOAD      ACCESS:   71612546  HIT:   63104687  MISS:    8507859
L1D RFO       ACCESS:    6443297  HIT:    6428361  MISS:      14936
L1D PREFETCH  ACCESS:          0  HIT:          0  MISS:          0
L1D WRITEBACK ACCESS:          0  HIT:          0  MISS:          0
L1I TOTAL     ACCESS:  133586581  HIT:  133586489  MISS:         92
L1I LOAD      ACCESS:  133586581  HIT:  133586489  MISS:         92
L1I RFO       ACCESS:          0  HIT:          0  MISS:          0
L1I PREFETCH  ACCESS:          0  HIT:          0  MISS:          0
L1I WRITEBACK ACCESS:          0  HIT:          0  MISS:          0
L2C TOTAL     ACCESS:   15821987  HIT:    9032004  MISS:    6789983
L2C LOAD      ACCESS:    8507949  HIT:    2890082  MISS:    5617867
L2C RFO       ACCESS:      14936  HIT:       4049  MISS:      10887
L2C PREFETCH  ACCESS:    7277463  HIT:    6116235  MISS:    1161228
L2C WRITEBACK ACCESS:      21639  HIT:      21638  MISS:          1
LLC TOTAL     ACCESS:   19940718  HIT:   19891983  MISS:      48735
LLC LOAD      ACCESS:    5330536  HIT:    5316149  MISS:      14387
LLC RFO       ACCESS:      10884  HIT:       7999  MISS:       2885
LLC PREFETCH  ACCESS:   14584000  HIT:   14556521  MISS:      27479
LLC WRITEBACK ACCESS:      15298  HIT:      11314  MISS:       3984

Region of Interest Statistics

CPU 0 cumulative IPC: 0.432117 instructions: 100000001 cycles: 231418941
L1D TOTAL     ACCESS:   32887609  HIT:   32478420  MISS:     409189
L1D LOAD      ACCESS:   20762485  HIT:   20468787  MISS:     293698
L1D RFO       ACCESS:   12125124  HIT:   12009633  MISS:     115491
L1D PREFETCH  ACCESS:          0  HIT:          0  MISS:          0
L1D WRITEBACK ACCESS:          0  HIT:          0  MISS:          0
L1D PREFETCH  REQUESTED:          0  ISSUED:          0  USEFUL:          0  USELESS:          0
L1I TOTAL     ACCESS:   23671941  HIT:   23636719  MISS:      35222
L1I LOAD      ACCESS:   23671941  HIT:   23636719  MISS:      35222
L1I RFO       ACCESS:          0  HIT:          0  MISS:          0
L1I PREFETCH  ACCESS:          0  HIT:          0  MISS:          0
L1I WRITEBACK ACCESS:          0  HIT:          0  MISS:          0
L1I PREFETCH  REQUESTED:          0  ISSUED:          0  USEFUL:          0  USELESS:          0
L2C TOTAL     ACCESS:    1070458  HIT:    1066154  MISS:       4304
L2C LOAD      ACCESS:     328919  HIT:     325849  MISS:       3070
L2C RFO       ACCESS:     115484  HIT:     114842  MISS:        642
L2C PREFETCH  ACCESS:     451073  HIT:     450508  MISS:        565
L2C WRITEBACK ACCESS:     174982  HIT:     174955  MISS:         27
L2C PREFETCH  REQUESTED:    1465633  ISSUED:    1465633  USEFUL:       6371  USELESS:        913
LLC TOTAL     ACCESS:      54520  HIT:      38597  MISS:      15923
LLC LOAD      ACCESS:       3049  HIT:        716  MISS:       2333
LLC RFO       ACCESS:        642  HIT:         88  MISS:        554
LLC PREFETCH  ACCESS:      49904  HIT:      37692  MISS:      12212
LLC WRITEBACK ACCESS:        925  HIT:        101  MISS:        824
LLC PREFETCH  REQUESTED:          0  ISSUED:          0  USEFUL:    3161559  USELESS:    3298624
Major fault: 0 Minor fault: 1463

CPU 1 cumulative IPC: 1.13662 instructions: 100000001 cycles: 87980348
L1D TOTAL     ACCESS:   17190235  HIT:   17187635  MISS:       2600
L1D LOAD      ACCESS:   13862949  HIT:   13862622  MISS:        327
L1D RFO       ACCESS:    3327286  HIT:    3325013  MISS:       2273
L1D PREFETCH  ACCESS:          0  HIT:          0  MISS:          0
L1D WRITEBACK ACCESS:          0  HIT:          0  MISS:          0
L1D PREFETCH  REQUESTED:          0  ISSUED:          0  USEFUL:          0  USELESS:          0
L1I TOTAL     ACCESS:   24262387  HIT:   24262387  MISS:          0
L1I LOAD      ACCESS:   24262387  HIT:   24262387  MISS:          0
L1I RFO       ACCESS:          0  HIT:          0  MISS:          0
L1I PREFETCH  ACCESS:          0  HIT:          0  MISS:          0
L1I WRITEBACK ACCESS:          0  HIT:          0  MISS:          0
L1I PREFETCH  REQUESTED:          0  ISSUED:          0  USEFUL:          0  USELESS:          0
L2C TOTAL     ACCESS:       4952  HIT:       2676  MISS:       2276
L2C LOAD      ACCESS:        327  HIT:        122  MISS:        205
L2C RFO       ACCESS:       2273  HIT:        205  MISS:       2068
L2C PREFETCH  ACCESS:         71  HIT:         68  MISS:          3
L2C WRITEBACK ACCESS:       2281  HIT:       2281  MISS:          0
L2C PREFETCH  REQUESTED:      29522  ISSUED:      29522  USEFUL:        514  USELESS:         15
LLC TOTAL     ACCESS:       4622  HIT:        378  MISS:       4244
LLC LOAD      ACCESS:        205  HIT:        178  MISS:         27
LLC RFO       ACCESS:       2068  HIT:          0  MISS:       2068
LLC PREFETCH  ACCESS:        424  HIT:        200  MISS:        224
LLC WRITEBACK ACCESS:       1925  HIT:          0  MISS:       1925
LLC PREFETCH  REQUESTED:          0  ISSUED:          0  USEFUL:    3161559  USELESS:    3298624
Major fault: 0 Minor fault: 1456

CPU 2 cumulative IPC: 1.11946 instructions: 100000001 cycles: 89329072
L1D TOTAL     ACCESS:   17216321  HIT:   17209605  MISS:       6716
L1D LOAD      ACCESS:   13677195  HIT:   13675935  MISS:       1260
L1D RFO       ACCESS:    3539126  HIT:    3533670  MISS:       5456
L1D PREFETCH  ACCESS:          0  HIT:          0  MISS:          0
L1D WRITEBACK ACCESS:          0  HIT:          0  MISS:          0
L1D PREFETCH  REQUESTED:          0  ISSUED:          0  USEFUL:          0  USELESS:          0
L1I TOTAL     ACCESS:   24198308  HIT:   24198308  MISS:          0
L1I LOAD      ACCESS:   24198308  HIT:   24198308  MISS:          0
L1I RFO       ACCESS:          0  HIT:          0  MISS:          0
L1I PREFETCH  ACCESS:          0  HIT:          0  MISS:          0
L1I WRITEBACK ACCESS:          0  HIT:          0  MISS:          0
L1I PREFETCH  REQUESTED:          0  ISSUED:          0  USEFUL:          0  USELESS:          0
L2C TOTAL     ACCESS:      12399  HIT:       6540  MISS:       5859
L2C LOAD      ACCESS:       1260  HIT:        289  MISS:        971
L2C RFO       ACCESS:       5456  HIT:        579  MISS:       4877
L2C PREFETCH  ACCESS:        209  HIT:        198  MISS:         11
L2C WRITEBACK ACCESS:       5474  HIT:       5474  MISS:          0
L2C PREFETCH  REQUESTED:      96948  ISSUED:      96948  USEFUL:       2375  USELESS:         44
LLC TOTAL     ACCESS:      13052  HIT:       2047  MISS:      11005
LLC LOAD      ACCESS:        971  HIT:        831  MISS:        140
LLC RFO       ACCESS:       4877  HIT:          0  MISS:       4877
LLC PREFETCH  ACCESS:       2199  HIT:       1216  MISS:        983
LLC WRITEBACK ACCESS:       5005  HIT:          0  MISS:       5005
LLC PREFETCH  REQUESTED:          0  ISSUED:          0  USEFUL:    3161559  USELESS:    3298624
Major fault: 0 Minor fault: 2479

CPU 3 cumulative IPC: 0.211029 instructions: 100000000 cycles: 473869319
L1D TOTAL     ACCESS:   44165258  HIT:   42180146  MISS:    1985112
L1D LOAD      ACCESS:   26134680  HIT:   24399013  MISS:    1735667
L1D RFO       ACCESS:   18030578  HIT:   17781133  MISS:     249445
L1D PREFETCH  ACCESS:          0  HIT:          0  MISS:          0
L1D WRITEBACK ACCESS:          0  HIT:          0  MISS:          0
L1D PREFETCH  REQUESTED:          0  ISSUED:          0  USEFUL:          0  USELESS:          0
L1I TOTAL     ACCESS:   35398479  HIT:   35361517  MISS:      36962
L1I LOAD      ACCESS:   35398479  HIT:   35361517  MISS:      36962
L1I RFO       ACCESS:          0  HIT:          0  MISS:          0
L1I PREFETCH  ACCESS:          0  HIT:          0  MISS:          0
L1I WRITEBACK ACCESS:          0  HIT:          0  MISS:          0
L1I PREFETCH  REQUESTED:          0  ISSUED:          0  USEFUL:          0  USELESS:          0
L2C TOTAL     ACCESS:    3349159  HIT:    1871167  MISS:    1477992
L2C LOAD      ACCESS:    1772576  HIT:     546538  MISS:    1226038
L2C RFO       ACCESS:     249435  HIT:      48767  MISS:     200668
L2C PREFETCH  ACCESS:     364658  HIT:     316202  MISS:      48456
L2C WRITEBACK ACCESS:     962490  HIT:     959660  MISS:       2830
L2C PREFETCH  REQUESTED:    2594517  ISSUED:    2594517  USEFUL:      14461  USELESS:      44521
LLC TOTAL     ACCESS:    3575819  HIT:    1920205  MISS:    1655614
LLC LOAD      ACCESS:    1225465  HIT:     494493  MISS:     730972
LLC RFO       ACCESS:     200462  HIT:      91649  MISS:     108813
LLC PREFETCH  ACCESS:    1427874  HIT:     616403  MISS:     811471
LLC WRITEBACK ACCESS:     722018  HIT:     717660  MISS:       4358
LLC PREFETCH  REQUESTED:          0  ISSUED:          0  USEFUL:    3161559  USELESS:    3298624
Major fault: 0 Minor fault: 46383

CPU 4 cumulative IPC: 0.537354 instructions: 100000001 cycles: 186097128
L1D TOTAL     ACCESS:   28508242  HIT:   20637777  MISS:    7870465
L1D LOAD      ACCESS:   10156597  HIT:    8963311  MISS:    1193286
L1D RFO       ACCESS:   18351645  HIT:   11674466  MISS:    6677179
L1D PREFETCH  ACCESS:          0  HIT:          0  MISS:          0
L1D WRITEBACK ACCESS:          0  HIT:          0  MISS:          0
L1D PREFETCH  REQUESTED:          0  ISSUED:          0  USEFUL:          0  USELESS:          0
L1I TOTAL     ACCESS:   24394745  HIT:   24394745  MISS:          0
L1I LOAD      ACCESS:   24394745  HIT:   24394745  MISS:          0
L1I RFO       ACCESS:          0  HIT:          0  MISS:          0
L1I PREFETCH  ACCESS:          0  HIT:          0  MISS:          0
L1I WRITEBACK ACCESS:          0  HIT:          0  MISS:          0
L1I PREFETCH  REQUESTED:          0  ISSUED:          0  USEFUL:          0  USELESS:          0
L2C TOTAL     ACCESS:   14792167  HIT:    8910175  MISS:    5881992
L2C LOAD      ACCESS:    1193286  HIT:     239845  MISS:     953441
L2C RFO       ACCESS:    6677166  HIT:    1989612  MISS:    4687554
L2C PREFETCH  ACCESS:     244539  HIT:       5185  MISS:     239354
L2C WRITEBACK ACCESS:    6677176  HIT:    6675533  MISS:       1643
L2C PREFETCH  REQUESTED:   20314334  ISSUED:   20314334  USEFUL:     775002  USELESS:        110
LLC TOTAL     ACCESS:   13010976  HIT:    8243201  MISS:    4767775
LLC LOAD      ACCESS:     855679  HIT:     758010  MISS:      97669
LLC RFO       ACCESS:    4685186  HIT:    1109516  MISS:    3575670
LLC PREFETCH  ACCESS:    2780458  HIT:    1686161  MISS:    1094297
LLC WRITEBACK ACCESS:    4689653  HIT:    4689514  MISS:        139
LLC PREFETCH  REQUESTED:          0  ISSUED:          0  USEFUL:    3161559  USELESS:    3298624
Major fault: 0 Minor fault: 115521

CPU 5 cumulative IPC: 0.789023 instructions: 100000001 cycles: 126738951
L1D TOTAL     ACCESS:   37867126  HIT:   37853898  MISS:      13228
L1D LOAD      ACCESS:   15784206  HIT:   15771600  MISS:      12606
L1D RFO       ACCESS:   22082920  HIT:   22082298  MISS:        622
L1D PREFETCH  ACCESS:          0  HIT:          0  MISS:          0
L1D WRITEBACK ACCESS:          0  HIT:          0  MISS:          0
L1D PREFETCH  REQUESTED:          0  ISSUED:          0  USEFUL:          0  USELESS:          0
L1I TOTAL     ACCESS:   27044908  HIT:   27043149  MISS:       1759
L1I LOAD      ACCESS:   27044908  HIT:   27043149  MISS:       1759
L1I RFO       ACCESS:          0  HIT:          0  MISS:          0
L1I PREFETCH  ACCESS:          0  HIT:          0  MISS:          0
L1I WRITEBACK ACCESS:          0  HIT:          0  MISS:          0
L1I PREFETCH  REQUESTED:          0  ISSUED:          0  USEFUL:          0  USELESS:          0
L2C TOTAL     ACCESS:      27989  HIT:      24201  MISS:       3788
L2C LOAD      ACCESS:      14360  HIT:      11044  MISS:       3316
L2C RFO       ACCESS:        622  HIT:        254  MISS:        368
L2C PREFETCH  ACCESS:      10900  HIT:      10799  MISS:        101
L2C WRITEBACK ACCESS:       2107  HIT:       2104  MISS:          3
L2C PREFETCH  REQUESTED:     115458  ISSUED:     115458  USEFUL:        164  USELESS:        289
LLC TOTAL     ACCESS:       9408  HIT:       2524  MISS:       6884
LLC LOAD      ACCESS:       3313  HIT:        597  MISS:       2716
LLC RFO       ACCESS:        368  HIT:          0  MISS:        368
LLC PREFETCH  ACCESS:       5401  HIT:       1927  MISS:       3474
LLC WRITEBACK ACCESS:        326  HIT:          0  MISS:        326
LLC PREFETCH  REQUESTED:          0  ISSUED:          0  USEFUL:    3161559  USELESS:    3298624
Major fault: 0 Minor fault: 1732

CPU 6 cumulative IPC: 0.197127 instructions: 100000000 cycles: 507286371
L1D TOTAL     ACCESS:   23360428  HIT:   20548941  MISS:    2811487
L1D LOAD      ACCESS:   18694948  HIT:   15943911  MISS:    2751037
L1D RFO       ACCESS:    4665480  HIT:    4605030  MISS:      60450
L1D PREFETCH  ACCESS:          0  HIT:          0  MISS:          0
L1D WRITEBACK ACCESS:          0  HIT:          0  MISS:          0
L1D PREFETCH  REQUESTED:          0  ISSUED:          0  USEFUL:          0  USELESS:          0
L1I TOTAL     ACCESS:   32047478  HIT:   31695161  MISS:     352317
L1I LOAD      ACCESS:   32047478  HIT:   31695161  MISS:     352317
L1I RFO       ACCESS:          0  HIT:          0  MISS:          0
L1I PREFETCH  ACCESS:          0  HIT:          0  MISS:          0
L1I WRITEBACK ACCESS:          0  HIT:          0  MISS:          0
L1I PREFETCH  REQUESTED:          0  ISSUED:          0  USEFUL:          0  USELESS:          0
L2C TOTAL     ACCESS:    3828643  HIT:    1125046  MISS:    2703597
L2C LOAD      ACCESS:    3103297  HIT:     505610  MISS:    2597687
L2C RFO       ACCESS:      60444  HIT:      29310  MISS:      31134
L2C PREFETCH  ACCESS:     539951  HIT:     466030  MISS:      73921
L2C WRITEBACK ACCESS:     124951  HIT:     124096  MISS:        855
L2C PREFETCH  REQUESTED:    4765963  ISSUED:    4763620  USEFUL:      27606  USELESS:      67703
LLC TOTAL     ACCESS:    5012947  HIT:    1448282  MISS:    3564665
LLC LOAD      ACCESS:    2588788  HIT:     692847  MISS:    1895941
LLC RFO       ACCESS:      31127  HIT:       8337  MISS:      22790
LLC PREFETCH  ACCESS:    2340886  HIT:     695123  MISS:    1645763
LLC WRITEBACK ACCESS:      52146  HIT:      51975  MISS:        171
LLC PREFETCH  REQUESTED:          0  ISSUED:          0  USEFUL:    3161559  USELESS:    3298624
Major fault: 0 Minor fault: 11137

CPU 7 cumulative IPC: 0.789053 instructions: 100000001 cycles: 126734158
L1D TOTAL     ACCESS:   18982887  HIT:   17080492  MISS:    1902395
L1D LOAD      ACCESS:   17671261  HIT:   15769437  MISS:    1901824
L1D RFO       ACCESS:    1311626  HIT:    1311055  MISS:        571
L1D PREFETCH  ACCESS:          0  HIT:          0  MISS:          0
L1D WRITEBACK ACCESS:          0  HIT:          0  MISS:          0
L1D PREFETCH  REQUESTED:          0  ISSUED:          0  USEFUL:          0  USELESS:          0
L1I TOTAL     ACCESS:   35124576  HIT:   35124576  MISS:          0
L1I LOAD      ACCESS:   35124576  HIT:   35124576  MISS:          0
L1I RFO       ACCESS:          0  HIT:          0  MISS:          0
L1I PREFETCH  ACCESS:          0  HIT:          0  MISS:          0
L1I WRITEBACK ACCESS:          0  HIT:          0  MISS:          0
L1I PREFETCH  REQUESTED:          0  ISSUED:          0  USEFUL:          0  USELESS:          0
L2C TOTAL     ACCESS:    2169431  HIT:     266514  MISS:    1902917
L2C LOAD      ACCESS:    1901824  HIT:     261816  MISS:    1640008
L2C RFO       ACCESS:        571  HIT:         16  MISS:        555
L2C PREFETCH  ACCESS:     266197  HIT:       3843  MISS:     262354
L2C WRITEBACK ACCESS:        839  HIT:        839  MISS:          0
L2C PREFETCH  REQUESTED:   40268197  ISSUED:   40268197  USEFUL:    1280175  USELESS:       4579
LLC TOTAL     ACCESS:    4779153  HIT:    4771147  MISS:       8006
LLC LOAD      ACCESS:    1581909  HIT:    1578810  MISS:       3099
LLC RFO       ACCESS:        555  HIT:        357  MISS:        198
LLC PREFETCH  ACCESS:    3195850  HIT:    3191141  MISS:       4709
LLC WRITEBACK ACCESS:        839  HIT:        839  MISS:          0
LLC PREFETCH  REQUESTED:          0  ISSUED:          0  USEFUL:    3161559  USELESS:    3298624
Major fault: 0 Minor fault: 2264

DRAM Statistics
 CHANNEL 0
 RQ ROW_BUFFER_HIT:    2094453  ROW_BUFFER_MISS:    7207870
 DBUS_CONGESTED:   19122613
 WQ ROW_BUFFER_HIT:     446015  ROW_BUFFER_MISS:    4782882  FULL:          0

 CHANNEL 1
 RQ ROW_BUFFER_HIT:    2098487  ROW_BUFFER_MISS:    7223522
 DBUS_CONGESTED:   19122613
 WQ ROW_BUFFER_HIT:     446124  ROW_BUFFER_MISS:    4780617  FULL:          0

 AVG_CONGESTED_CYCLE: 13
