Initialize SIGNATURE TABLE
ST_SET: 1
ST_WAY: 256
ST_TAG_BIT: 16
ST_TAG_MASK: ffff

Initialize PATTERN TABLE
PT_SET: 512
PT_WAY: 4
SIG_DELTA_BIT: 7
C_SIG_BIT: 4
C_DELTA_BIT: 4

Initialize PREFETCH FILTER
FILTER_SET: 1024

*** ChampSim Multicore Out-of-Order Simulator ***

Warmup Instructions: 20000000
Simulation Instructions: 100000000
Number of CPUs: 8
LLC sets: 16384
LLC ways: 16
Off-chip DRAM Size: 8192 MB Channels: 2 Width: 64-bit Data Rate: 1600 MT/s

CPU 0 runs /scratch/user/djimenez/champsim-traces/speccpu2017/xz/600.perlbench_s/600.perlbench_s-1273B.champsimtrace.xz
CPU 1 runs /scratch/user/djimenez/champsim-traces/speccpu2017/xz/654.roms_s/654.roms_s-1021B.champsimtrace.xz
CPU 2 runs /scratch/user/djimenez/champsim-traces/speccpu2017/xz/605.mcf_s/605.mcf_s-1644B.champsimtrace.xz
CPU 3 runs /scratch/user/djimenez/champsim-traces/speccpu2017/xz/602.gcc_s/602.gcc_s-2375B.champsimtrace.xz
CPU 4 runs /scratch/user/djimenez/champsim-traces/speccpu2017/xz/648.exchange2_s/648.exchange2_s-210B.champsimtrace.xz
CPU 5 runs /scratch/user/djimenez/champsim-traces/speccpu2017/xz/623.xalancbmk_s/623.xalancbmk_s-325B.champsimtrace.xz
CPU 6 runs /scratch/user/djimenez/champsim-traces/speccpu2017/xz/600.perlbench_s/600.perlbench_s-210B.champsimtrace.xz
CPU 7 runs /scratch/user/djimenez/champsim-traces/speccpu2017/xz/623.xalancbmk_s/623.xalancbmk_s-10B.champsimtrace.xz
Heartbeat CPU 1 instructions: 10000003 cycles: 3951303 heartbeat IPC: 2.53081 cumulative IPC: 2.53081 (Simulation time: 0 hr 2 min 55 sec) 
Heartbeat CPU 4 instructions: 10000002 cycles: 4421705 heartbeat IPC: 2.26157 cumulative IPC: 2.26157 (Simulation time: 0 hr 3 min 15 sec) 
Heartbeat CPU 7 instructions: 10000001 cycles: 4865705 heartbeat IPC: 2.0552 cumulative IPC: 2.0552 (Simulation time: 0 hr 3 min 35 sec) 
Heartbeat CPU 6 instructions: 10000002 cycles: 5617764 heartbeat IPC: 1.78007 cumulative IPC: 1.78007 (Simulation time: 0 hr 4 min 9 sec) 
Heartbeat CPU 0 instructions: 10000003 cycles: 5916906 heartbeat IPC: 1.69007 cumulative IPC: 1.69007 (Simulation time: 0 hr 4 min 23 sec) 
Heartbeat CPU 5 instructions: 10000000 cycles: 6117029 heartbeat IPC: 1.63478 cumulative IPC: 1.63478 (Simulation time: 0 hr 4 min 32 sec) 
Heartbeat CPU 3 instructions: 10000002 cycles: 6794087 heartbeat IPC: 1.47187 cumulative IPC: 1.47187 (Simulation time: 0 hr 5 min 3 sec) 
Heartbeat CPU 1 instructions: 20000000 cycles: 7895194 heartbeat IPC: 2.53557 cumulative IPC: 2.53319 (Simulation time: 0 hr 5 min 52 sec) 
Heartbeat CPU 4 instructions: 20000000 cycles: 8806149 heartbeat IPC: 2.28079 cumulative IPC: 2.27114 (Simulation time: 0 hr 6 min 33 sec) 
Heartbeat CPU 7 instructions: 20000000 cycles: 9652738 heartbeat IPC: 2.08898 cumulative IPC: 2.07195 (Simulation time: 0 hr 7 min 12 sec) 
Heartbeat CPU 2 instructions: 10000002 cycles: 10552572 heartbeat IPC: 0.947636 cumulative IPC: 0.947636 (Simulation time: 0 hr 7 min 52 sec) 
Heartbeat CPU 6 instructions: 20000000 cycles: 11504184 heartbeat IPC: 1.69883 cumulative IPC: 1.7385 (Simulation time: 0 hr 8 min 35 sec) 
Heartbeat CPU 0 instructions: 20000000 cycles: 11738604 heartbeat IPC: 1.71771 cumulative IPC: 1.70378 (Simulation time: 0 hr 8 min 46 sec) 
Heartbeat CPU 1 instructions: 30000001 cycles: 11836609 heartbeat IPC: 2.53716 cumulative IPC: 0.844837 (Simulation time: 0 hr 8 min 51 sec) 
Heartbeat CPU 5 instructions: 20000000 cycles: 12317976 heartbeat IPC: 1.61266 cumulative IPC: 1.62364 (Simulation time: 0 hr 9 min 12 sec) 
Heartbeat CPU 4 instructions: 30000000 cycles: 13155323 heartbeat IPC: 2.29929 cumulative IPC: 0.760149 (Simulation time: 0 hr 9 min 51 sec) 
Heartbeat CPU 3 instructions: 20000000 cycles: 13346992 heartbeat IPC: 1.52604 cumulative IPC: 1.49846 (Simulation time: 0 hr 9 min 59 sec) 
Heartbeat CPU 7 instructions: 30000000 cycles: 14541871 heartbeat IPC: 2.04535 cumulative IPC: 0.687669 (Simulation time: 0 hr 10 min 51 sec) 
Heartbeat CPU 1 instructions: 40000000 cycles: 15775924 heartbeat IPC: 2.53851 cumulative IPC: 1.26775 (Simulation time: 0 hr 11 min 46 sec) 
Heartbeat CPU 6 instructions: 30000002 cycles: 17393673 heartbeat IPC: 1.69794 cumulative IPC: 0.574922 (Simulation time: 0 hr 13 min 1 sec) 
Heartbeat CPU 4 instructions: 40000000 cycles: 17485224 heartbeat IPC: 2.30952 cumulative IPC: 1.14382 (Simulation time: 0 hr 13 min 5 sec) 
Heartbeat CPU 0 instructions: 30000001 cycles: 17614386 heartbeat IPC: 1.7019 cumulative IPC: 0.567718 (Simulation time: 0 hr 13 min 11 sec) 
Heartbeat CPU 5 instructions: 30000001 cycles: 18667600 heartbeat IPC: 1.5749 cumulative IPC: 0.535688 (Simulation time: 0 hr 13 min 58 sec) 
Heartbeat CPU 7 instructions: 40000000 cycles: 19454606 heartbeat IPC: 2.03553 cumulative IPC: 1.02803 (Simulation time: 0 hr 14 min 34 sec) 
Heartbeat CPU 1 instructions: 50000000 cycles: 19713442 heartbeat IPC: 2.53967 cumulative IPC: 1.5218 (Simulation time: 0 hr 14 min 46 sec) 
Heartbeat CPU 3 instructions: 30000001 cycles: 20205712 heartbeat IPC: 1.458 cumulative IPC: 0.49491 (Simulation time: 0 hr 15 min 7 sec) 
Heartbeat CPU 2 instructions: 20000000 cycles: 21038829 heartbeat IPC: 0.953629 cumulative IPC: 0.950623 (Simulation time: 0 hr 15 min 45 sec) 

Warmup complete CPU 0 instructions: 35845072 cycles: 21038832 (Simulation time: 0 hr 15 min 45 sec) 
Warmup complete CPU 1 instructions: 53366581 cycles: 21038832 (Simulation time: 0 hr 15 min 45 sec) 
Warmup complete CPU 2 instructions: 20000001 cycles: 21038832 (Simulation time: 0 hr 15 min 45 sec) 
Warmup complete CPU 3 instructions: 31381791 cycles: 21038831 (Simulation time: 0 hr 15 min 45 sec) 
Warmup complete CPU 4 instructions: 48062472 cycles: 21038831 (Simulation time: 0 hr 15 min 45 sec) 
Warmup complete CPU 5 instructions: 33803240 cycles: 21038831 (Simulation time: 0 hr 15 min 45 sec) 
Warmup complete CPU 6 instructions: 36264374 cycles: 21038831 (Simulation time: 0 hr 15 min 45 sec) 
Warmup complete CPU 7 instructions: 43253465 cycles: 21038831 (Simulation time: 0 hr 15 min 45 sec) 

Heartbeat CPU 4 instructions: 50000002 cycles: 22259283 heartbeat IPC: 2.09465 cumulative IPC: 1.58755 (Simulation time: 0 hr 16 min 13 sec) 
Heartbeat CPU 6 instructions: 40000000 cycles: 25625044 heartbeat IPC: 1.21486 cumulative IPC: 0.814534 (Simulation time: 0 hr 17 min 29 sec) 
Heartbeat CPU 0 instructions: 40000000 cycles: 26475926 heartbeat IPC: 1.12847 cumulative IPC: 0.764182 (Simulation time: 0 hr 17 min 48 sec) 
Heartbeat CPU 1 instructions: 60000000 cycles: 27747652 heartbeat IPC: 1.24468 cumulative IPC: 0.988761 (Simulation time: 0 hr 18 min 22 sec) 
Heartbeat CPU 4 instructions: 60000000 cycles: 28503325 heartbeat IPC: 1.60153 cumulative IPC: 1.59924 (Simulation time: 0 hr 18 min 40 sec) 
Heartbeat CPU 4 instructions: 70000002 cycles: 34811644 heartbeat IPC: 1.58521 cumulative IPC: 1.59281 (Simulation time: 0 hr 21 min 19 sec) 
Heartbeat CPU 5 instructions: 40000000 cycles: 35549308 heartbeat IPC: 0.592357 cumulative IPC: 0.427054 (Simulation time: 0 hr 21 min 36 sec) 
Heartbeat CPU 1 instructions: 70000000 cycles: 37856160 heartbeat IPC: 0.989266 cumulative IPC: 0.989064 (Simulation time: 0 hr 22 min 30 sec) 
Heartbeat CPU 7 instructions: 50000001 cycles: 39239327 heartbeat IPC: 0.505441 cumulative IPC: 0.370679 (Simulation time: 0 hr 23 min 3 sec) 
Heartbeat CPU 6 instructions: 50000001 cycles: 39285790 heartbeat IPC: 0.732024 cumulative IPC: 0.752763 (Simulation time: 0 hr 23 min 4 sec) 
Heartbeat CPU 0 instructions: 50000003 cycles: 39619041 heartbeat IPC: 0.760855 cumulative IPC: 0.761828 (Simulation time: 0 hr 23 min 12 sec) 
Heartbeat CPU 4 instructions: 80000000 cycles: 41032705 heartbeat IPC: 1.60744 cumulative IPC: 1.59737 (Simulation time: 0 hr 23 min 48 sec) 
Heartbeat CPU 3 instructions: 40000000 cycles: 44125837 heartbeat IPC: 0.418058 cumulative IPC: 0.373293 (Simulation time: 0 hr 25 min 5 sec) 
Heartbeat CPU 4 instructions: 90000003 cycles: 47231492 heartbeat IPC: 1.61322 cumulative IPC: 1.60112 (Simulation time: 0 hr 26 min 21 sec) 
Heartbeat CPU 1 instructions: 80000000 cycles: 47962935 heartbeat IPC: 0.989435 cumulative IPC: 0.989204 (Simulation time: 0 hr 26 min 39 sec) 
Heartbeat CPU 5 instructions: 50000001 cycles: 50919745 heartbeat IPC: 0.6506 cumulative IPC: 0.542044 (Simulation time: 0 hr 27 min 51 sec) 
Heartbeat CPU 0 instructions: 60000000 cycles: 51678301 heartbeat IPC: 0.829238 cumulative IPC: 0.78836 (Simulation time: 0 hr 28 min 11 sec) 
Heartbeat CPU 6 instructions: 60000000 cycles: 52895162 heartbeat IPC: 0.734788 cumulative IPC: 0.745084 (Simulation time: 0 hr 28 min 43 sec) 
Heartbeat CPU 4 instructions: 100000000 cycles: 53485187 heartbeat IPC: 1.59905 cumulative IPC: 1.60072 (Simulation time: 0 hr 28 min 58 sec) 
Heartbeat CPU 1 instructions: 90000003 cycles: 58062289 heartbeat IPC: 0.990163 cumulative IPC: 0.989465 (Simulation time: 0 hr 30 min 55 sec) 
Heartbeat CPU 4 instructions: 110000000 cycles: 59884205 heartbeat IPC: 1.56274 cumulative IPC: 1.59446 (Simulation time: 0 hr 31 min 42 sec) 
Heartbeat CPU 6 instructions: 70000001 cycles: 62699931 heartbeat IPC: 1.01991 cumulative IPC: 0.809763 (Simulation time: 0 hr 32 min 53 sec) 
Heartbeat CPU 0 instructions: 70000002 cycles: 65723747 heartbeat IPC: 0.711975 cumulative IPC: 0.76435 (Simulation time: 0 hr 34 min 11 sec) 
Heartbeat CPU 7 instructions: 60000000 cycles: 65948031 heartbeat IPC: 0.37441 cumulative IPC: 0.372898 (Simulation time: 0 hr 34 min 16 sec) 
Heartbeat CPU 3 instructions: 50000000 cycles: 66252994 heartbeat IPC: 0.451933 cumulative IPC: 0.411778 (Simulation time: 0 hr 34 min 23 sec) 
Heartbeat CPU 4 instructions: 120000000 cycles: 66466004 heartbeat IPC: 1.51934 cumulative IPC: 1.58358 (Simulation time: 0 hr 34 min 30 sec) 
Heartbeat CPU 5 instructions: 60000000 cycles: 67830628 heartbeat IPC: 0.591335 cumulative IPC: 0.559858 (Simulation time: 0 hr 35 min 9 sec) 
Heartbeat CPU 1 instructions: 100000000 cycles: 68165139 heartbeat IPC: 0.989819 cumulative IPC: 0.989541 (Simulation time: 0 hr 35 min 18 sec) 
Heartbeat CPU 6 instructions: 80000000 cycles: 72971472 heartbeat IPC: 0.973564 cumulative IPC: 0.842161 (Simulation time: 0 hr 37 min 24 sec) 
Heartbeat CPU 4 instructions: 130000003 cycles: 73038334 heartbeat IPC: 1.52153 cumulative IPC: 1.57574 (Simulation time: 0 hr 37 min 26 sec) 
Heartbeat CPU 2 instructions: 30000003 cycles: 78095131 heartbeat IPC: 0.175266 cumulative IPC: 0.175266 (Simulation time: 0 hr 39 min 33 sec) 
Heartbeat CPU 0 instructions: 80000000 cycles: 78608059 heartbeat IPC: 0.776138 cumulative IPC: 0.766988 (Simulation time: 0 hr 39 min 48 sec) 
Heartbeat CPU 1 instructions: 110000001 cycles: 78750355 heartbeat IPC: 0.944714 cumulative IPC: 0.981319 (Simulation time: 0 hr 39 min 51 sec) 
Heartbeat CPU 4 instructions: 140000000 cycles: 79537621 heartbeat IPC: 1.53863 cumulative IPC: 1.57161 (Simulation time: 0 hr 40 min 10 sec) 
Finished CPU 4 instructions: 100000001 cycles: 63639300 cumulative IPC: 1.57136 (Simulation time: 0 hr 42 min 13 sec) 
Heartbeat CPU 4 instructions: 150000003 cycles: 85945854 heartbeat IPC: 1.56049 cumulative IPC: 1.57052 (Simulation time: 0 hr 42 min 43 sec) 
Heartbeat CPU 6 instructions: 90000000 cycles: 86456591 heartbeat IPC: 0.741558 cumulative IPC: 0.821423 (Simulation time: 0 hr 42 min 55 sec) 
Heartbeat CPU 3 instructions: 60000000 cycles: 87161231 heartbeat IPC: 0.47828 cumulative IPC: 0.432807 (Simulation time: 0 hr 43 min 12 sec) 
Heartbeat CPU 0 instructions: 90000001 cycles: 91008584 heartbeat IPC: 0.806418 cumulative IPC: 0.773976 (Simulation time: 0 hr 44 min 40 sec) 
Heartbeat CPU 1 instructions: 120000000 cycles: 91669038 heartbeat IPC: 0.774073 cumulative IPC: 0.943412 (Simulation time: 0 hr 44 min 55 sec) 
Heartbeat CPU 4 instructions: 160000000 cycles: 92489489 heartbeat IPC: 1.5282 cumulative IPC: 1.56664 (Simulation time: 0 hr 45 min 14 sec) 
Heartbeat CPU 7 instructions: 70000000 cycles: 94052923 heartbeat IPC: 0.35581 cumulative IPC: 0.36632 (Simulation time: 0 hr 45 min 48 sec) 
Heartbeat CPU 5 instructions: 70000000 cycles: 94686693 heartbeat IPC: 0.372355 cumulative IPC: 0.491484 (Simulation time: 0 hr 46 min 2 sec) 
Heartbeat CPU 4 instructions: 170000000 cycles: 99011062 heartbeat IPC: 1.53337 cumulative IPC: 1.56386 (Simulation time: 0 hr 47 min 39 sec) 
Heartbeat CPU 6 instructions: 100000000 cycles: 100497550 heartbeat IPC: 0.712202 cumulative IPC: 0.802122 (Simulation time: 0 hr 48 min 11 sec) 
Heartbeat CPU 0 instructions: 100000000 cycles: 103452431 heartbeat IPC: 0.80361 cumulative IPC: 0.778451 (Simulation time: 0 hr 49 min 21 sec) 
Heartbeat CPU 1 instructions: 130000001 cycles: 104694531 heartbeat IPC: 0.767725 cumulative IPC: 0.916057 (Simulation time: 0 hr 49 min 52 sec) 
Heartbeat CPU 4 instructions: 180000000 cycles: 105488481 heartbeat IPC: 1.54382 cumulative IPC: 1.56232 (Simulation time: 0 hr 50 min 12 sec) 
Heartbeat CPU 4 instructions: 190000003 cycles: 112054112 heartbeat IPC: 1.52308 cumulative IPC: 1.55949 (Simulation time: 0 hr 52 min 44 sec) 
Heartbeat CPU 6 instructions: 110000000 cycles: 112397906 heartbeat IPC: 0.840311 cumulative IPC: 0.807097 (Simulation time: 0 hr 52 min 52 sec) 
Heartbeat CPU 3 instructions: 70000000 cycles: 116649616 heartbeat IPC: 0.339117 cumulative IPC: 0.403911 (Simulation time: 0 hr 54 min 27 sec) 
Heartbeat CPU 0 instructions: 110000000 cycles: 116881525 heartbeat IPC: 0.744652 cumulative IPC: 0.773715 (Simulation time: 0 hr 54 min 33 sec) 
Heartbeat CPU 1 instructions: 140000000 cycles: 117594559 heartbeat IPC: 0.775192 cumulative IPC: 0.897237 (Simulation time: 0 hr 54 min 49 sec) 
Heartbeat CPU 4 instructions: 200000000 cycles: 118477591 heartbeat IPC: 1.55679 cumulative IPC: 1.55931 (Simulation time: 0 hr 55 min 9 sec) 
Heartbeat CPU 5 instructions: 80000000 cycles: 123218854 heartbeat IPC: 0.350482 cumulative IPC: 0.452111 (Simulation time: 0 hr 56 min 59 sec) 
Heartbeat CPU 6 instructions: 120000000 cycles: 124560178 heartbeat IPC: 0.822215 cumulative IPC: 0.808873 (Simulation time: 0 hr 57 min 29 sec) 
Heartbeat CPU 4 instructions: 210000001 cycles: 124944679 heartbeat IPC: 1.54629 cumulative IPC: 1.5585 (Simulation time: 0 hr 57 min 38 sec) 
Heartbeat CPU 7 instructions: 80000000 cycles: 126281367 heartbeat IPC: 0.310285 cumulative IPC: 0.34916 (Simulation time: 0 hr 58 min 7 sec) 
Heartbeat CPU 1 instructions: 150000003 cycles: 128325352 heartbeat IPC: 0.931898 cumulative IPC: 0.900704 (Simulation time: 0 hr 58 min 52 sec) 
Heartbeat CPU 4 instructions: 220000000 cycles: 131356956 heartbeat IPC: 1.55951 cumulative IPC: 1.55856 (Simulation time: 0 hr 59 min 58 sec) 
Heartbeat CPU 0 instructions: 120000000 cycles: 131442699 heartbeat IPC: 0.686758 cumulative IPC: 0.762246 (Simulation time: 1 hr 0 min 0 sec) 
Finished CPU 1 instructions: 100000003 cycles: 110694629 cumulative IPC: 0.903386 (Simulation time: 1 hr 0 min 6 sec) 
Heartbeat CPU 2 instructions: 40000000 cycles: 135408436 heartbeat IPC: 0.174479 cumulative IPC: 0.174872 (Simulation time: 1 hr 1 min 27 sec) 
Heartbeat CPU 3 instructions: 80000000 cycles: 136946382 heartbeat IPC: 0.492689 cumulative IPC: 0.419457 (Simulation time: 1 hr 2 min 1 sec) 
Heartbeat CPU 4 instructions: 230000003 cycles: 137660734 heartbeat IPC: 1.58635 cumulative IPC: 1.56006 (Simulation time: 1 hr 2 min 18 sec) 
Heartbeat CPU 1 instructions: 160000000 cycles: 138452185 heartbeat IPC: 0.987475 cumulative IPC: 0.908188 (Simulation time: 1 hr 2 min 36 sec) 
Heartbeat CPU 6 instructions: 130000003 cycles: 139302584 heartbeat IPC: 0.678316 cumulative IPC: 0.792598 (Simulation time: 1 hr 2 min 55 sec) 
Heartbeat CPU 4 instructions: 240000000 cycles: 143988949 heartbeat IPC: 1.58022 cumulative IPC: 1.5611 (Simulation time: 1 hr 4 min 42 sec) 
Heartbeat CPU 0 instructions: 130000003 cycles: 145414140 heartbeat IPC: 0.715746 cumulative IPC: 0.757023 (Simulation time: 1 hr 5 min 13 sec) 
Finished CPU 6 instructions: 100000002 cycles: 126856684 cumulative IPC: 0.788291 (Simulation time: 1 hr 6 min 8 sec) 
Heartbeat CPU 1 instructions: 170000003 cycles: 148582372 heartbeat IPC: 0.987149 cumulative IPC: 0.91446 (Simulation time: 1 hr 6 min 24 sec) 
Heartbeat CPU 4 instructions: 250000003 cycles: 150458533 heartbeat IPC: 1.54569 cumulative IPC: 1.56033 (Simulation time: 1 hr 7 min 5 sec) 
Heartbeat CPU 5 instructions: 90000002 cycles: 151077127 heartbeat IPC: 0.35896 cumulative IPC: 0.432155 (Simulation time: 1 hr 7 min 19 sec) 
Heartbeat CPU 7 instructions: 90000002 cycles: 152034710 heartbeat IPC: 0.388299 cumulative IPC: 0.356855 (Simulation time: 1 hr 7 min 41 sec) 
Heartbeat CPU 6 instructions: 140000000 cycles: 153565335 heartbeat IPC: 0.701127 cumulative IPC: 0.782754 (Simulation time: 1 hr 8 min 15 sec) 
Finished CPU 0 instructions: 100000000 cycles: 132922097 cumulative IPC: 0.75232 (Simulation time: 1 hr 8 min 24 sec) 
Heartbeat CPU 3 instructions: 90000003 cycles: 155006635 heartbeat IPC: 0.553702 cumulative IPC: 0.437554 (Simulation time: 1 hr 8 min 52 sec) 
Heartbeat CPU 4 instructions: 260000000 cycles: 156829236 heartbeat IPC: 1.56968 cumulative IPC: 1.56077 (Simulation time: 1 hr 9 min 39 sec) 
Heartbeat CPU 1 instructions: 180000000 cycles: 158709011 heartbeat IPC: 0.987494 cumulative IPC: 0.919832 (Simulation time: 1 hr 10 min 26 sec) 
Heartbeat CPU 0 instructions: 140000000 cycles: 159644952 heartbeat IPC: 0.7027 cumulative IPC: 0.751445 (Simulation time: 1 hr 10 min 48 sec) 
Heartbeat CPU 4 instructions: 270000003 cycles: 163269227 heartbeat IPC: 1.5528 cumulative IPC: 1.56041 (Simulation time: 1 hr 12 min 22 sec) 
Heartbeat CPU 6 instructions: 150000002 cycles: 166538526 heartbeat IPC: 0.770821 cumulative IPC: 0.78169 (Simulation time: 1 hr 13 min 48 sec) 
Heartbeat CPU 1 instructions: 190000001 cycles: 168829188 heartbeat IPC: 0.988125 cumulative IPC: 0.924508 (Simulation time: 1 hr 14 min 40 sec) 
Heartbeat CPU 4 instructions: 280000000 cycles: 169924157 heartbeat IPC: 1.50265 cumulative IPC: 1.55783 (Simulation time: 1 hr 15 min 5 sec) 
Heartbeat CPU 0 instructions: 150000000 cycles: 171880109 heartbeat IPC: 0.817317 cumulative IPC: 0.756788 (Simulation time: 1 hr 15 min 51 sec) 
Heartbeat CPU 5 instructions: 100000000 cycles: 175983158 heartbeat IPC: 0.401509 cumulative IPC: 0.427229 (Simulation time: 1 hr 17 min 22 sec) 
Heartbeat CPU 4 instructions: 290000001 cycles: 176351568 heartbeat IPC: 1.55584 cumulative IPC: 1.55774 (Simulation time: 1 hr 17 min 31 sec) 
Heartbeat CPU 6 instructions: 160000000 cycles: 178190564 heartbeat IPC: 0.858219 cumulative IPC: 0.787364 (Simulation time: 1 hr 18 min 11 sec) 
Heartbeat CPU 1 instructions: 200000000 cycles: 178948733 heartbeat IPC: 0.988187 cumulative IPC: 0.928589 (Simulation time: 1 hr 18 min 28 sec) 
Heartbeat CPU 7 instructions: 100000000 cycles: 180800377 heartbeat IPC: 0.347637 cumulative IPC: 0.355195 (Simulation time: 1 hr 19 min 7 sec) 
Heartbeat CPU 3 instructions: 100000000 cycles: 181918293 heartbeat IPC: 0.371586 cumulative IPC: 0.426519 (Simulation time: 1 hr 19 min 32 sec) 
Heartbeat CPU 4 instructions: 300000000 cycles: 182807347 heartbeat IPC: 1.549 cumulative IPC: 1.5574 (Simulation time: 1 hr 19 min 52 sec) 
Heartbeat CPU 0 instructions: 160000000 cycles: 185393526 heartbeat IPC: 0.740005 cumulative IPC: 0.755408 (Simulation time: 1 hr 20 min 47 sec) 
Heartbeat CPU 1 instructions: 210000003 cycles: 189085405 heartbeat IPC: 0.986517 cumulative IPC: 0.932083 (Simulation time: 1 hr 22 min 6 sec) 
Heartbeat CPU 4 instructions: 310000000 cycles: 189110556 heartbeat IPC: 1.58649 cumulative IPC: 1.55849 (Simulation time: 1 hr 22 min 7 sec) 
Heartbeat CPU 6 instructions: 170000001 cycles: 191811345 heartbeat IPC: 0.734172 cumulative IPC: 0.783122 (Simulation time: 1 hr 23 min 4 sec) 
Heartbeat CPU 2 instructions: 50000001 cycles: 192561447 heartbeat IPC: 0.174969 cumulative IPC: 0.174904 (Simulation time: 1 hr 23 min 21 sec) 
Heartbeat CPU 4 instructions: 320000000 cycles: 195675650 heartbeat IPC: 1.52321 cumulative IPC: 1.55716 (Simulation time: 1 hr 24 min 29 sec) 
Heartbeat CPU 5 instructions: 110000000 cycles: 198175027 heartbeat IPC: 0.450615 cumulative IPC: 0.430159 (Simulation time: 1 hr 25 min 25 sec) 
Heartbeat CPU 0 instructions: 170000000 cycles: 198983785 heartbeat IPC: 0.735821 cumulative IPC: 0.753913 (Simulation time: 1 hr 25 min 43 sec) 
Heartbeat CPU 1 instructions: 220000000 cycles: 199208603 heartbeat IPC: 0.98783 cumulative IPC: 0.935251 (Simulation time: 1 hr 25 min 48 sec) 
Heartbeat CPU 4 instructions: 330000002 cycles: 202029522 heartbeat IPC: 1.57384 cumulative IPC: 1.55775 (Simulation time: 1 hr 26 min 53 sec) 
Heartbeat CPU 6 instructions: 180000000 cycles: 203761131 heartbeat IPC: 0.836835 cumulative IPC: 0.786634 (Simulation time: 1 hr 27 min 32 sec) 
Heartbeat CPU 7 instructions: 110000000 cycles: 207302425 heartbeat IPC: 0.377329 cumulative IPC: 0.358344 (Simulation time: 1 hr 28 min 51 sec) 
Heartbeat CPU 4 instructions: 340000000 cycles: 208561181 heartbeat IPC: 1.531 cumulative IPC: 1.55681 (Simulation time: 1 hr 29 min 19 sec) 
Heartbeat CPU 1 instructions: 230000003 cycles: 209337524 heartbeat IPC: 0.987272 cumulative IPC: 0.938049 (Simulation time: 1 hr 29 min 35 sec) 
Heartbeat CPU 3 instructions: 110000000 cycles: 209396176 heartbeat IPC: 0.363929 cumulative IPC: 0.417389 (Simulation time: 1 hr 29 min 36 sec) 
Heartbeat CPU 5 instructions: 120000000 cycles: 212347029 heartbeat IPC: 0.705617 cumulative IPC: 0.450565 (Simulation time: 1 hr 30 min 42 sec) 
Heartbeat CPU 0 instructions: 180000000 cycles: 213590466 heartbeat IPC: 0.684618 cumulative IPC: 0.748656 (Simulation time: 1 hr 31 min 11 sec) 
Heartbeat CPU 4 instructions: 350000002 cycles: 215389809 heartbeat IPC: 1.46442 cumulative IPC: 1.55357 (Simulation time: 1 hr 31 min 54 sec) 
Heartbeat CPU 6 instructions: 190000003 cycles: 215899186 heartbeat IPC: 0.823855 cumulative IPC: 0.788953 (Simulation time: 1 hr 32 min 5 sec) 
Heartbeat CPU 1 instructions: 240000000 cycles: 219466685 heartbeat IPC: 0.987248 cumulative IPC: 0.940561 (Simulation time: 1 hr 33 min 21 sec) 
Heartbeat CPU 4 instructions: 360000000 cycles: 221521958 heartbeat IPC: 1.63075 cumulative IPC: 1.55593 (Simulation time: 1 hr 34 min 5 sec) 
Heartbeat CPU 4 instructions: 370000003 cycles: 227818171 heartbeat IPC: 1.58826 cumulative IPC: 1.55691 (Simulation time: 1 hr 36 min 15 sec) 
Heartbeat CPU 0 instructions: 190000001 cycles: 227977349 heartbeat IPC: 0.695078 cumulative IPC: 0.744931 (Simulation time: 1 hr 36 min 18 sec) 
Heartbeat CPU 1 instructions: 250000001 cycles: 229599607 heartbeat IPC: 0.986882 cumulative IPC: 0.942811 (Simulation time: 1 hr 36 min 51 sec) 
Heartbeat CPU 6 instructions: 200000000 cycles: 231253043 heartbeat IPC: 0.651302 cumulative IPC: 0.778899 (Simulation time: 1 hr 37 min 27 sec) 
Heartbeat CPU 5 instructions: 130000000 cycles: 232584248 heartbeat IPC: 0.494139 cumulative IPC: 0.454733 (Simulation time: 1 hr 37 min 55 sec) 
Heartbeat CPU 4 instructions: 380000000 cycles: 234007055 heartbeat IPC: 1.6158 cumulative IPC: 1.55862 (Simulation time: 1 hr 38 min 25 sec) 
Heartbeat CPU 7 instructions: 120000000 cycles: 235314637 heartbeat IPC: 0.356987 cumulative IPC: 0.358167 (Simulation time: 1 hr 38 min 53 sec) 
Heartbeat CPU 1 instructions: 260000000 cycles: 239719946 heartbeat IPC: 0.988109 cumulative IPC: 0.944907 (Simulation time: 1 hr 40 min 24 sec) 
Heartbeat CPU 4 instructions: 390000003 cycles: 240354266 heartbeat IPC: 1.5755 cumulative IPC: 1.55911 (Simulation time: 1 hr 40 min 37 sec) 
Heartbeat CPU 0 instructions: 200000000 cycles: 240826512 heartbeat IPC: 0.778261 cumulative IPC: 0.74688 (Simulation time: 1 hr 40 min 47 sec) 
Heartbeat CPU 3 instructions: 120000000 cycles: 241776614 heartbeat IPC: 0.308828 cumulative IPC: 0.401464 (Simulation time: 1 hr 41 min 7 sec) 
Finished CPU 5 instructions: 100000003 cycles: 222553929 cumulative IPC: 0.449329 (Simulation time: 1 hr 41 min 45 sec) 
Heartbeat CPU 6 instructions: 210000000 cycles: 246079202 heartbeat IPC: 0.674484 cumulative IPC: 0.77202 (Simulation time: 1 hr 42 min 38 sec) 
Heartbeat CPU 4 instructions: 400000000 cycles: 246645111 heartbeat IPC: 1.58961 cumulative IPC: 1.55996 (Simulation time: 1 hr 42 min 50 sec) 
Heartbeat CPU 2 instructions: 60000000 cycles: 249670436 heartbeat IPC: 0.175104 cumulative IPC: 0.174954 (Simulation time: 1 hr 43 min 55 sec) 
Heartbeat CPU 1 instructions: 270000000 cycles: 249856877 heartbeat IPC: 0.986492 cumulative IPC: 0.94675 (Simulation time: 1 hr 43 min 59 sec) 
Heartbeat CPU 4 instructions: 410000000 cycles: 252942841 heartbeat IPC: 1.58787 cumulative IPC: 1.56072 (Simulation time: 1 hr 45 min 4 sec) 
Heartbeat CPU 0 instructions: 210000003 cycles: 253067861 heartbeat IPC: 0.816904 cumulative IPC: 0.750574 (Simulation time: 1 hr 45 min 6 sec) 
Heartbeat CPU 4 instructions: 420000000 cycles: 259825477 heartbeat IPC: 1.45293 cumulative IPC: 1.55761 (Simulation time: 1 hr 47 min 25 sec) 
Heartbeat CPU 1 instructions: 280000000 cycles: 259991750 heartbeat IPC: 0.986692 cumulative IPC: 0.948444 (Simulation time: 1 hr 47 min 29 sec) 
Heartbeat CPU 5 instructions: 140000000 cycles: 260220589 heartbeat IPC: 0.361842 cumulative IPC: 0.444 (Simulation time: 1 hr 47 min 33 sec) 
Heartbeat CPU 6 instructions: 220000000 cycles: 260820816 heartbeat IPC: 0.678352 cumulative IPC: 0.766261 (Simulation time: 1 hr 47 min 46 sec) 
Heartbeat CPU 7 instructions: 130000003 cycles: 262921101 heartbeat IPC: 0.362234 cumulative IPC: 0.358631 (Simulation time: 1 hr 48 min 34 sec) 
Heartbeat CPU 4 instructions: 430000001 cycles: 265850793 heartbeat IPC: 1.65966 cumulative IPC: 1.56013 (Simulation time: 1 hr 49 min 42 sec) 
Heartbeat CPU 0 instructions: 220000000 cycles: 267000787 heartbeat IPC: 0.717724 cumulative IPC: 0.748713 (Simulation time: 1 hr 50 min 8 sec) 
Heartbeat CPU 3 instructions: 130000003 cycles: 269419208 heartbeat IPC: 0.361761 cumulative IPC: 0.397045 (Simulation time: 1 hr 51 min 3 sec) 
Heartbeat CPU 1 instructions: 290000000 cycles: 270135374 heartbeat IPC: 0.985841 cumulative IPC: 0.949967 (Simulation time: 1 hr 51 min 18 sec) 
Heartbeat CPU 4 instructions: 440000000 cycles: 272030636 heartbeat IPC: 1.61816 cumulative IPC: 1.56156 (Simulation time: 1 hr 51 min 59 sec) 
Finished CPU 3 instructions: 100000001 cycles: 253043126 cumulative IPC: 0.39519 (Simulation time: 1 hr 52 min 43 sec) 
Heartbeat CPU 6 instructions: 230000000 cycles: 275754406 heartbeat IPC: 0.669631 cumulative IPC: 0.760596 (Simulation time: 1 hr 53 min 19 sec) 
Heartbeat CPU 4 instructions: 450000000 cycles: 278378794 heartbeat IPC: 1.57526 cumulative IPC: 1.56189 (Simulation time: 1 hr 54 min 13 sec) 
Heartbeat CPU 0 instructions: 230000001 cycles: 280072251 heartbeat IPC: 0.765025 cumulative IPC: 0.749536 (Simulation time: 1 hr 54 min 49 sec) 
Heartbeat CPU 1 instructions: 300000000 cycles: 280258263 heartbeat IPC: 0.98786 cumulative IPC: 0.951446 (Simulation time: 1 hr 54 min 53 sec) 
Heartbeat CPU 4 instructions: 460000000 cycles: 284633303 heartbeat IPC: 1.59885 cumulative IPC: 1.56277 (Simulation time: 1 hr 56 min 22 sec) 
Heartbeat CPU 5 instructions: 150000000 cycles: 285062506 heartbeat IPC: 0.402545 cumulative IPC: 0.4401 (Simulation time: 1 hr 56 min 30 sec) 
Heartbeat CPU 7 instructions: 140000000 cycles: 290208743 heartbeat IPC: 0.366466 cumulative IPC: 0.359426 (Simulation time: 1 hr 58 min 13 sec) 
Heartbeat CPU 6 instructions: 240000000 cycles: 290300239 heartbeat IPC: 0.687482 cumulative IPC: 0.756646 (Simulation time: 1 hr 58 min 15 sec) 
Heartbeat CPU 1 instructions: 310000000 cycles: 290379751 heartbeat IPC: 0.987997 cumulative IPC: 0.95282 (Simulation time: 1 hr 58 min 17 sec) 
Heartbeat CPU 4 instructions: 470000000 cycles: 291561528 heartbeat IPC: 1.44337 cumulative IPC: 1.55971 (Simulation time: 1 hr 58 min 43 sec) 
Heartbeat CPU 0 instructions: 240000000 cycles: 295069848 heartbeat IPC: 0.666773 cumulative IPC: 0.745007 (Simulation time: 2 hr 0 min 3 sec) 
Heartbeat CPU 4 instructions: 480000000 cycles: 297788531 heartbeat IPC: 1.60591 cumulative IPC: 1.56075 (Simulation time: 2 hr 1 min 4 sec) 
Finished CPU 7 instructions: 100000000 cycles: 278250001 cumulative IPC: 0.359389 (Simulation time: 2 hr 1 min 37 sec) 
Heartbeat CPU 3 instructions: 140000000 cycles: 299815344 heartbeat IPC: 0.328989 cumulative IPC: 0.389625 (Simulation time: 2 hr 1 min 49 sec) 
Heartbeat CPU 1 instructions: 320000000 cycles: 300514114 heartbeat IPC: 0.986742 cumulative IPC: 0.95405 (Simulation time: 2 hr 2 min 4 sec) 
Heartbeat CPU 6 instructions: 250000002 cycles: 301659566 heartbeat IPC: 0.880334 cumulative IPC: 0.761653 (Simulation time: 2 hr 2 min 28 sec) 
Heartbeat CPU 5 instructions: 160000000 cycles: 302162670 heartbeat IPC: 0.58479 cumulative IPC: 0.448901 (Simulation time: 2 hr 2 min 38 sec) 
Heartbeat CPU 4 instructions: 490000002 cycles: 305745422 heartbeat IPC: 1.25677 cumulative IPC: 1.55226 (Simulation time: 2 hr 3 min 51 sec) 
Heartbeat CPU 2 instructions: 70000000 cycles: 306779377 heartbeat IPC: 0.175104 cumulative IPC: 0.174984 (Simulation time: 2 hr 4 min 13 sec) 
Heartbeat CPU 0 instructions: 250000000 cycles: 309587908 heartbeat IPC: 0.688797 cumulative IPC: 0.742178 (Simulation time: 2 hr 5 min 10 sec) 
Heartbeat CPU 1 instructions: 330000000 cycles: 310641020 heartbeat IPC: 0.987468 cumulative IPC: 0.955219 (Simulation time: 2 hr 5 min 33 sec) 
Heartbeat CPU 4 instructions: 500000000 cycles: 311943724 heartbeat IPC: 1.61334 cumulative IPC: 1.55356 (Simulation time: 2 hr 6 min 0 sec) 
Heartbeat CPU 7 instructions: 150000002 cycles: 315896329 heartbeat IPC: 0.389293 cumulative IPC: 0.362028 (Simulation time: 2 hr 7 min 22 sec) 
Heartbeat CPU 6 instructions: 260000000 cycles: 316132028 heartbeat IPC: 0.690967 cumulative IPC: 0.758186 (Simulation time: 2 hr 7 min 27 sec) 
Heartbeat CPU 4 instructions: 510000000 cycles: 318109780 heartbeat IPC: 1.62178 cumulative IPC: 1.55497 (Simulation time: 2 hr 8 min 6 sec) 
Heartbeat CPU 1 instructions: 340000000 cycles: 320771557 heartbeat IPC: 0.987114 cumulative IPC: 0.956297 (Simulation time: 2 hr 9 min 0 sec) 
Heartbeat CPU 0 instructions: 260000000 cycles: 321764844 heartbeat IPC: 0.821225 cumulative IPC: 0.745379 (Simulation time: 2 hr 9 min 20 sec) 
Heartbeat CPU 4 instructions: 520000000 cycles: 324380567 heartbeat IPC: 1.5947 cumulative IPC: 1.55579 (Simulation time: 2 hr 10 min 12 sec) 
Heartbeat CPU 5 instructions: 170000000 cycles: 324575037 heartbeat IPC: 0.446182 cumulative IPC: 0.4487 (Simulation time: 2 hr 10 min 16 sec) 
Heartbeat CPU 3 instructions: 150000000 cycles: 327303241 heartbeat IPC: 0.363796 cumulative IPC: 0.387307 (Simulation time: 2 hr 11 min 10 sec) 
Heartbeat CPU 6 instructions: 270000000 cycles: 329916239 heartbeat IPC: 0.725468 cumulative IPC: 0.756726 (Simulation time: 2 hr 12 min 5 sec) 
Heartbeat CPU 4 instructions: 530000001 cycles: 330804220 heartbeat IPC: 1.55675 cumulative IPC: 1.55581 (Simulation time: 2 hr 12 min 24 sec) 
Heartbeat CPU 1 instructions: 350000002 cycles: 330907635 heartbeat IPC: 0.986575 cumulative IPC: 0.957287 (Simulation time: 2 hr 12 min 26 sec) 
Heartbeat CPU 0 instructions: 270000002 cycles: 334594778 heartbeat IPC: 0.779427 cumulative IPC: 0.746772 (Simulation time: 2 hr 13 min 43 sec) 
Heartbeat CPU 4 instructions: 540000000 cycles: 337199114 heartbeat IPC: 1.56375 cumulative IPC: 1.55598 (Simulation time: 2 hr 14 min 39 sec) 
Heartbeat CPU 1 instructions: 360000000 cycles: 341044523 heartbeat IPC: 0.986496 cumulative IPC: 0.958212 (Simulation time: 2 hr 15 min 59 sec) 
Heartbeat CPU 6 instructions: 280000000 cycles: 342937254 heartbeat IPC: 0.767989 cumulative IPC: 0.757182 (Simulation time: 2 hr 16 min 38 sec) 
Heartbeat CPU 4 instructions: 550000003 cycles: 343479957 heartbeat IPC: 1.59214 cumulative IPC: 1.55668 (Simulation time: 2 hr 16 min 48 sec) 
Heartbeat CPU 7 instructions: 160000000 cycles: 344020139 heartbeat IPC: 0.355571 cumulative IPC: 0.361465 (Simulation time: 2 hr 16 min 59 sec) 
Heartbeat CPU 0 instructions: 280000000 cycles: 348055653 heartbeat IPC: 0.742894 cumulative IPC: 0.746613 (Simulation time: 2 hr 18 min 23 sec) 
Heartbeat CPU 4 instructions: 560000000 cycles: 350270017 heartbeat IPC: 1.47274 cumulative IPC: 1.55495 (Simulation time: 2 hr 19 min 8 sec) 
Heartbeat CPU 1 instructions: 370000003 cycles: 351176273 heartbeat IPC: 0.986997 cumulative IPC: 0.959096 (Simulation time: 2 hr 19 min 25 sec) 
Heartbeat CPU 5 instructions: 180000000 cycles: 351305275 heartbeat IPC: 0.374108 cumulative IPC: 0.442663 (Simulation time: 2 hr 19 min 27 sec) 
Heartbeat CPU 3 instructions: 160000000 cycles: 352476466 heartbeat IPC: 0.397247 cumulative IPC: 0.388062 (Simulation time: 2 hr 19 min 49 sec) 
Heartbeat CPU 4 instructions: 570000003 cycles: 356560600 heartbeat IPC: 1.58968 cumulative IPC: 1.5556 (Simulation time: 2 hr 21 min 8 sec) 
Heartbeat CPU 6 instructions: 290000000 cycles: 357410566 heartbeat IPC: 0.690927 cumulative IPC: 0.754331 (Simulation time: 2 hr 21 min 25 sec) 
Heartbeat CPU 1 instructions: 380000000 cycles: 361304735 heartbeat IPC: 0.987316 cumulative IPC: 0.959936 (Simulation time: 2 hr 22 min 41 sec) 
Heartbeat CPU 4 instructions: 580000000 cycles: 362783764 heartbeat IPC: 1.6069 cumulative IPC: 1.55653 (Simulation time: 2 hr 23 min 11 sec) 
Heartbeat CPU 2 instructions: 80000000 cycles: 364213832 heartbeat IPC: 0.174112 cumulative IPC: 0.174838 (Simulation time: 2 hr 23 min 42 sec) 
Heartbeat CPU 0 instructions: 290000001 cycles: 367168056 heartbeat IPC: 0.52322 cumulative IPC: 0.734278 (Simulation time: 2 hr 24 min 38 sec) 
Heartbeat CPU 4 instructions: 590000000 cycles: 369282312 heartbeat IPC: 1.53881 cumulative IPC: 1.5562 (Simulation time: 2 hr 25 min 13 sec) 
Heartbeat CPU 7 instructions: 170000000 cycles: 370858411 heartbeat IPC: 0.372602 cumulative IPC: 0.36232 (Simulation time: 2 hr 25 min 41 sec) 
Heartbeat CPU 1 instructions: 390000000 cycles: 371437577 heartbeat IPC: 0.98689 cumulative IPC: 0.960715 (Simulation time: 2 hr 25 min 51 sec) 
Heartbeat CPU 5 instructions: 190000001 cycles: 372358711 heartbeat IPC: 0.474982 cumulative IPC: 0.4446 (Simulation time: 2 hr 26 min 8 sec) 
Heartbeat CPU 6 instructions: 300000000 cycles: 372618057 heartbeat IPC: 0.657571 cumulative IPC: 0.750146 (Simulation time: 2 hr 26 min 12 sec) 
Heartbeat CPU 4 instructions: 600000000 cycles: 375824735 heartbeat IPC: 1.52849 cumulative IPC: 1.55569 (Simulation time: 2 hr 27 min 9 sec) 
Heartbeat CPU 1 instructions: 400000000 cycles: 381563199 heartbeat IPC: 0.987594 cumulative IPC: 0.96147 (Simulation time: 2 hr 28 min 53 sec) 
Heartbeat CPU 3 instructions: 170000000 cycles: 381592490 heartbeat IPC: 0.343453 cumulative IPC: 0.384459 (Simulation time: 2 hr 28 min 54 sec) 
Heartbeat CPU 4 instructions: 610000000 cycles: 382280491 heartbeat IPC: 1.54901 cumulative IPC: 1.55557 (Simulation time: 2 hr 29 min 7 sec) 
Heartbeat CPU 6 instructions: 310000001 cycles: 387347338 heartbeat IPC: 0.67892 cumulative IPC: 0.747282 (Simulation time: 2 hr 30 min 44 sec) 
Heartbeat CPU 4 instructions: 620000000 cycles: 388612174 heartbeat IPC: 1.57936 cumulative IPC: 1.55598 (Simulation time: 2 hr 31 min 9 sec) 
Heartbeat CPU 0 instructions: 300000000 cycles: 391180778 heartbeat IPC: 0.416446 cumulative IPC: 0.713658 (Simulation time: 2 hr 31 min 57 sec) 
Heartbeat CPU 1 instructions: 410000002 cycles: 391692895 heartbeat IPC: 0.987197 cumulative IPC: 0.962173 (Simulation time: 2 hr 32 min 7 sec) 
Heartbeat CPU 4 instructions: 630000002 cycles: 395522753 heartbeat IPC: 1.44706 cumulative IPC: 1.55397 (Simulation time: 2 hr 33 min 22 sec) 
Heartbeat CPU 7 instructions: 180000000 cycles: 397655789 heartbeat IPC: 0.373171 cumulative IPC: 0.363092 (Simulation time: 2 hr 34 min 1 sec) 
Heartbeat CPU 5 instructions: 200000000 cycles: 399589772 heartbeat IPC: 0.367228 cumulative IPC: 0.439034 (Simulation time: 2 hr 34 min 37 sec) 
Heartbeat CPU 6 instructions: 320000000 cycles: 401239445 heartbeat IPC: 0.719833 cumulative IPC: 0.746279 (Simulation time: 2 hr 35 min 9 sec) 
Heartbeat CPU 4 instructions: 640000000 cycles: 401733479 heartbeat IPC: 1.61012 cumulative IPC: 1.55489 (Simulation time: 2 hr 35 min 19 sec) 
Heartbeat CPU 1 instructions: 420000000 cycles: 401823802 heartbeat IPC: 0.987078 cumulative IPC: 0.962836 (Simulation time: 2 hr 35 min 21 sec) 
Heartbeat CPU 3 instructions: 180000000 cycles: 406163939 heartbeat IPC: 0.406976 cumulative IPC: 0.385896 (Simulation time: 2 hr 36 min 40 sec) 
Heartbeat CPU 4 instructions: 650000003 cycles: 408010125 heartbeat IPC: 1.59321 cumulative IPC: 1.55551 (Simulation time: 2 hr 37 min 16 sec) 
Heartbeat CPU 1 instructions: 430000000 cycles: 411950200 heartbeat IPC: 0.987518 cumulative IPC: 0.963475 (Simulation time: 2 hr 38 min 29 sec) 
Heartbeat CPU 6 instructions: 330000002 cycles: 413080122 heartbeat IPC: 0.844546 cumulative IPC: 0.749247 (Simulation time: 2 hr 38 min 49 sec) 
Heartbeat CPU 4 instructions: 660000000 cycles: 414508593 heartbeat IPC: 1.53882 cumulative IPC: 1.55523 (Simulation time: 2 hr 39 min 15 sec) 
Heartbeat CPU 0 instructions: 310000003 cycles: 416395751 heartbeat IPC: 0.39659 cumulative IPC: 0.693437 (Simulation time: 2 hr 39 min 50 sec) 
Heartbeat CPU 4 instructions: 670000002 cycles: 420896527 heartbeat IPC: 1.56545 cumulative IPC: 1.5554 (Simulation time: 2 hr 41 min 12 sec) 
Heartbeat CPU 2 instructions: 90000003 cycles: 421817020 heartbeat IPC: 0.173602 cumulative IPC: 0.17466 (Simulation time: 2 hr 41 min 31 sec) 
Heartbeat CPU 1 instructions: 440000000 cycles: 422072095 heartbeat IPC: 0.987957 cumulative IPC: 0.964093 (Simulation time: 2 hr 41 min 36 sec) 
Heartbeat CPU 5 instructions: 210000003 cycles: 424256146 heartbeat IPC: 0.40541 cumulative IPC: 0.436977 (Simulation time: 2 hr 42 min 17 sec) 
Heartbeat CPU 6 instructions: 340000000 cycles: 425807460 heartbeat IPC: 0.78571 cumulative IPC: 0.750393 (Simulation time: 2 hr 42 min 46 sec) 
Heartbeat CPU 7 instructions: 190000001 cycles: 427242497 heartbeat IPC: 0.33799 cumulative IPC: 0.361263 (Simulation time: 2 hr 43 min 13 sec) 
Heartbeat CPU 4 instructions: 680000000 cycles: 427369762 heartbeat IPC: 1.54482 cumulative IPC: 1.55523 (Simulation time: 2 hr 43 min 15 sec) 
Heartbeat CPU 1 instructions: 450000002 cycles: 432207066 heartbeat IPC: 0.986683 cumulative IPC: 0.96465 (Simulation time: 2 hr 44 min 47 sec) 
Heartbeat CPU 4 instructions: 690000002 cycles: 433954015 heartbeat IPC: 1.51878 cumulative IPC: 1.55465 (Simulation time: 2 hr 45 min 22 sec) 
Heartbeat CPU 3 instructions: 190000001 cycles: 436583130 heartbeat IPC: 0.32874 cumulative IPC: 0.381712 (Simulation time: 2 hr 46 min 14 sec) 
Heartbeat CPU 6 instructions: 350000003 cycles: 438386106 heartbeat IPC: 0.794998 cumulative IPC: 0.751738 (Simulation time: 2 hr 46 min 49 sec) 
Heartbeat CPU 0 instructions: 320000000 cycles: 438862976 heartbeat IPC: 0.445093 cumulative IPC: 0.680083 (Simulation time: 2 hr 46 min 58 sec) 
Heartbeat CPU 4 instructions: 700000000 cycles: 440196635 heartbeat IPC: 1.60189 cumulative IPC: 1.55535 (Simulation time: 2 hr 47 min 25 sec) 
Heartbeat CPU 1 instructions: 460000000 cycles: 442337437 heartbeat IPC: 0.98713 cumulative IPC: 0.965191 (Simulation time: 2 hr 48 min 7 sec) 
Heartbeat CPU 4 instructions: 710000000 cycles: 446566491 heartbeat IPC: 1.56989 cumulative IPC: 1.55557 (Simulation time: 2 hr 49 min 30 sec) 
Heartbeat CPU 5 instructions: 220000000 cycles: 447348451 heartbeat IPC: 0.433045 cumulative IPC: 0.436764 (Simulation time: 2 hr 49 min 45 sec) 
Heartbeat CPU 1 instructions: 470000002 cycles: 452477576 heartbeat IPC: 0.98618 cumulative IPC: 0.965684 (Simulation time: 2 hr 51 min 24 sec) 
Heartbeat CPU 6 instructions: 360000000 cycles: 452896644 heartbeat IPC: 0.689154 cumulative IPC: 0.749635 (Simulation time: 2 hr 51 min 32 sec) 
Heartbeat CPU 4 instructions: 720000000 cycles: 453060153 heartbeat IPC: 1.53996 cumulative IPC: 1.55533 (Simulation time: 2 hr 51 min 35 sec) 
Heartbeat CPU 0 instructions: 330000000 cycles: 453454218 heartbeat IPC: 0.685343 cumulative IPC: 0.68026 (Simulation time: 2 hr 51 min 42 sec) 
Heartbeat CPU 7 instructions: 200000000 cycles: 454897567 heartbeat IPC: 0.361597 cumulative IPC: 0.361285 (Simulation time: 2 hr 52 min 12 sec) 
Heartbeat CPU 4 instructions: 730000000 cycles: 459390256 heartbeat IPC: 1.57975 cumulative IPC: 1.55569 (Simulation time: 2 hr 53 min 43 sec) 
Heartbeat CPU 1 instructions: 480000000 cycles: 462616979 heartbeat IPC: 0.986251 cumulative IPC: 0.966156 (Simulation time: 2 hr 54 min 49 sec) 
Heartbeat CPU 5 instructions: 230000001 cycles: 463533942 heartbeat IPC: 0.617837 cumulative IPC: 0.443387 (Simulation time: 2 hr 55 min 8 sec) 
Heartbeat CPU 6 instructions: 370000002 cycles: 465815776 heartbeat IPC: 0.774046 cumulative IPC: 0.750344 (Simulation time: 2 hr 55 min 57 sec) 
Heartbeat CPU 3 instructions: 200000000 cycles: 466029382 heartbeat IPC: 0.339602 cumulative IPC: 0.378925 (Simulation time: 2 hr 56 min 2 sec) 
Heartbeat CPU 4 instructions: 740000000 cycles: 466063246 heartbeat IPC: 1.49858 cumulative IPC: 1.55483 (Simulation time: 2 hr 56 min 2 sec) 
Heartbeat CPU 0 instructions: 340000000 cycles: 469612611 heartbeat IPC: 0.618873 cumulative IPC: 0.678049 (Simulation time: 2 hr 57 min 17 sec) 
Heartbeat CPU 1 instructions: 490000002 cycles: 472757212 heartbeat IPC: 0.986171 cumulative IPC: 0.966605 (Simulation time: 2 hr 58 min 17 sec) 
Heartbeat CPU 4 instructions: 750000001 cycles: 472932033 heartbeat IPC: 1.45586 cumulative IPC: 1.55333 (Simulation time: 2 hr 58 min 20 sec) 
Heartbeat CPU 5 instructions: 240000000 cycles: 478087623 heartbeat IPC: 0.687111 cumulative IPC: 0.451148 (Simulation time: 3 hr 0 min 2 sec) 
Heartbeat CPU 2 instructions: 100000000 cycles: 479175371 heartbeat IPC: 0.174342 cumulative IPC: 0.17462 (Simulation time: 3 hr 0 min 23 sec) 
Heartbeat CPU 4 instructions: 760000000 cycles: 479253348 heartbeat IPC: 1.58195 cumulative IPC: 1.55372 (Simulation time: 3 hr 0 min 25 sec) 
Heartbeat CPU 6 instructions: 380000000 cycles: 479591875 heartbeat IPC: 0.725895 cumulative IPC: 0.749609 (Simulation time: 3 hr 0 min 31 sec) 
Heartbeat CPU 7 instructions: 210000001 cycles: 482017162 heartbeat IPC: 0.368737 cumulative IPC: 0.361723 (Simulation time: 3 hr 1 min 17 sec) 
Heartbeat CPU 1 instructions: 500000000 cycles: 482888881 heartbeat IPC: 0.987004 cumulative IPC: 0.967053 (Simulation time: 3 hr 1 min 34 sec) 
Heartbeat CPU 4 instructions: 770000002 cycles: 485732849 heartbeat IPC: 1.54333 cumulative IPC: 1.55358 (Simulation time: 3 hr 2 min 26 sec) 
Heartbeat CPU 0 instructions: 350000000 cycles: 488939751 heartbeat IPC: 0.517407 cumulative IPC: 0.671413 (Simulation time: 3 hr 3 min 23 sec) 
Heartbeat CPU 1 instructions: 510000002 cycles: 493018502 heartbeat IPC: 0.987204 cumulative IPC: 0.967485 (Simulation time: 3 hr 4 min 32 sec) 
Heartbeat CPU 3 instructions: 210000000 cycles: 493508113 heartbeat IPC: 0.363918 cumulative IPC: 0.378053 (Simulation time: 3 hr 4 min 41 sec) 
Heartbeat CPU 4 instructions: 780000000 cycles: 493601959 heartbeat IPC: 1.27079 cumulative IPC: 1.54887 (Simulation time: 3 hr 4 min 43 sec) 
Heartbeat CPU 6 instructions: 390000003 cycles: 494550787 heartbeat IPC: 0.668498 cumulative IPC: 0.747047 (Simulation time: 3 hr 4 min 59 sec) 
Heartbeat CPU 5 instructions: 250000001 cycles: 497666437 heartbeat IPC: 0.510756 cumulative IPC: 0.453597 (Simulation time: 3 hr 5 min 54 sec) 
Heartbeat CPU 4 instructions: 790000002 cycles: 499753365 heartbeat IPC: 1.62564 cumulative IPC: 1.54985 (Simulation time: 3 hr 6 min 32 sec) 
Heartbeat CPU 1 instructions: 520000000 cycles: 503145810 heartbeat IPC: 0.987429 cumulative IPC: 0.967904 (Simulation time: 3 hr 7 min 30 sec) 
Heartbeat CPU 4 instructions: 800000000 cycles: 506265848 heartbeat IPC: 1.53551 cumulative IPC: 1.54966 (Simulation time: 3 hr 8 min 25 sec) 
Heartbeat CPU 7 instructions: 220000000 cycles: 508922498 heartbeat IPC: 0.371673 cumulative IPC: 0.362272 (Simulation time: 3 hr 9 min 12 sec) 
Heartbeat CPU 6 instructions: 400000000 cycles: 509392152 heartbeat IPC: 0.673792 cumulative IPC: 0.744821 (Simulation time: 3 hr 9 min 20 sec) 
Heartbeat CPU 4 instructions: 810000001 cycles: 512597963 heartbeat IPC: 1.57925 cumulative IPC: 1.55004 (Simulation time: 3 hr 10 min 17 sec) 
Heartbeat CPU 1 instructions: 530000000 cycles: 513280689 heartbeat IPC: 0.986692 cumulative IPC: 0.968291 (Simulation time: 3 hr 10 min 31 sec) 
Heartbeat CPU 0 instructions: 360000000 cycles: 516885756 heartbeat IPC: 0.357833 cumulative IPC: 0.65374 (Simulation time: 3 hr 11 min 35 sec) 
Heartbeat CPU 4 instructions: 820000000 cycles: 518860642 heartbeat IPC: 1.59676 cumulative IPC: 1.55063 (Simulation time: 3 hr 12 min 11 sec) 
Heartbeat CPU 3 instructions: 220000000 cycles: 521476981 heartbeat IPC: 0.35754 cumulative IPC: 0.376906 (Simulation time: 3 hr 12 min 57 sec) 
Heartbeat CPU 6 instructions: 410000000 cycles: 523251982 heartbeat IPC: 0.72151 cumulative IPC: 0.744177 (Simulation time: 3 hr 13 min 28 sec) 
Heartbeat CPU 1 instructions: 540000000 cycles: 523410308 heartbeat IPC: 0.987204 cumulative IPC: 0.968672 (Simulation time: 3 hr 13 min 31 sec) 
Heartbeat CPU 4 instructions: 830000003 cycles: 525281596 heartbeat IPC: 1.5574 cumulative IPC: 1.55072 (Simulation time: 3 hr 14 min 3 sec) 
Heartbeat CPU 5 instructions: 260000000 cycles: 526507176 heartbeat IPC: 0.346732 cumulative IPC: 0.447499 (Simulation time: 3 hr 14 min 25 sec) 
Heartbeat CPU 4 instructions: 840000000 cycles: 531636850 heartbeat IPC: 1.5735 cumulative IPC: 1.551 (Simulation time: 3 hr 16 min 0 sec) 
Heartbeat CPU 1 instructions: 550000002 cycles: 533545218 heartbeat IPC: 0.986689 cumulative IPC: 0.969029 (Simulation time: 3 hr 16 min 34 sec) 
Heartbeat CPU 6 instructions: 420000000 cycles: 536530188 heartbeat IPC: 0.753114 cumulative IPC: 0.744407 (Simulation time: 3 hr 17 min 27 sec) 
Heartbeat CPU 2 instructions: 110000002 cycles: 537335919 heartbeat IPC: 0.171938 cumulative IPC: 0.174318 (Simulation time: 3 hr 17 min 42 sec) 
Heartbeat CPU 7 instructions: 230000001 cycles: 537675508 heartbeat IPC: 0.34779 cumulative IPC: 0.361466 (Simulation time: 3 hr 17 min 49 sec) 
Heartbeat CPU 4 instructions: 850000002 cycles: 538020683 heartbeat IPC: 1.56646 cumulative IPC: 1.55119 (Simulation time: 3 hr 17 min 55 sec) 
Heartbeat CPU 0 instructions: 370000000 cycles: 543508795 heartbeat IPC: 0.375615 cumulative IPC: 0.639568 (Simulation time: 3 hr 19 min 35 sec) 
Heartbeat CPU 1 instructions: 560000000 cycles: 543670733 heartbeat IPC: 0.987604 cumulative IPC: 0.969389 (Simulation time: 3 hr 19 min 38 sec) 
Heartbeat CPU 4 instructions: 860000000 cycles: 544473569 heartbeat IPC: 1.54969 cumulative IPC: 1.55117 (Simulation time: 3 hr 19 min 53 sec) 
Heartbeat CPU 6 instructions: 430000001 cycles: 548679632 heartbeat IPC: 0.823083 cumulative IPC: 0.746219 (Simulation time: 3 hr 21 min 7 sec) 
Heartbeat CPU 3 instructions: 230000003 cycles: 550775195 heartbeat IPC: 0.341318 cumulative IPC: 0.374938 (Simulation time: 3 hr 21 min 44 sec) 
Heartbeat CPU 4 instructions: 870000003 cycles: 550805342 heartbeat IPC: 1.57934 cumulative IPC: 1.55151 (Simulation time: 3 hr 21 min 45 sec) 
Heartbeat CPU 5 instructions: 270000001 cycles: 551397104 heartbeat IPC: 0.401769 cumulative IPC: 0.445353 (Simulation time: 3 hr 21 min 56 sec) 
Heartbeat CPU 1 instructions: 570000000 cycles: 553802819 heartbeat IPC: 0.986964 cumulative IPC: 0.969723 (Simulation time: 3 hr 22 min 41 sec) 
Heartbeat CPU 4 instructions: 880000000 cycles: 557043472 heartbeat IPC: 1.60304 cumulative IPC: 1.55211 (Simulation time: 3 hr 23 min 41 sec) 
Heartbeat CPU 0 instructions: 380000000 cycles: 561267833 heartbeat IPC: 0.563094 cumulative IPC: 0.637054 (Simulation time: 3 hr 25 min 0 sec) 
Heartbeat CPU 6 instructions: 440000000 cycles: 562714042 heartbeat IPC: 0.712534 cumulative IPC: 0.745346 (Simulation time: 3 hr 25 min 29 sec) 
Heartbeat CPU 4 instructions: 890000001 cycles: 563348610 heartbeat IPC: 1.58601 cumulative IPC: 1.5525 (Simulation time: 3 hr 25 min 41 sec) 
Heartbeat CPU 1 instructions: 580000000 cycles: 563927229 heartbeat IPC: 0.987712 cumulative IPC: 0.970058 (Simulation time: 3 hr 25 min 52 sec) 
Heartbeat CPU 7 instructions: 240000000 cycles: 565692388 heartbeat IPC: 0.356928 cumulative IPC: 0.361232 (Simulation time: 3 hr 26 min 27 sec) 
Heartbeat CPU 4 instructions: 900000000 cycles: 569715171 heartbeat IPC: 1.57071 cumulative IPC: 1.55271 (Simulation time: 3 hr 27 min 45 sec) 
Heartbeat CPU 1 instructions: 590000000 cycles: 574065307 heartbeat IPC: 0.98638 cumulative IPC: 0.970358 (Simulation time: 3 hr 29 min 13 sec) 
Heartbeat CPU 6 instructions: 450000001 cycles: 574553289 heartbeat IPC: 0.844648 cumulative IPC: 0.74747 (Simulation time: 3 hr 29 min 22 sec) 
Heartbeat CPU 0 instructions: 390000000 cycles: 574941730 heartbeat IPC: 0.73132 cumulative IPC: 0.639381 (Simulation time: 3 hr 29 min 29 sec) 
Heartbeat CPU 4 instructions: 910000001 cycles: 575959962 heartbeat IPC: 1.60133 cumulative IPC: 1.55326 (Simulation time: 3 hr 29 min 49 sec) 
Heartbeat CPU 5 instructions: 280000000 cycles: 578487901 heartbeat IPC: 0.369129 cumulative IPC: 0.441649 (Simulation time: 3 hr 30 min 37 sec) 
Heartbeat CPU 3 instructions: 240000000 cycles: 580454532 heartbeat IPC: 0.336935 cumulative IPC: 0.372922 (Simulation time: 3 hr 31 min 16 sec) 
Heartbeat CPU 4 instructions: 920000000 cycles: 582202545 heartbeat IPC: 1.6019 cumulative IPC: 1.5538 (Simulation time: 3 hr 31 min 51 sec) 
Heartbeat CPU 1 instructions: 600000000 cycles: 584192383 heartbeat IPC: 0.987452 cumulative IPC: 0.970665 (Simulation time: 3 hr 32 min 31 sec) 
Heartbeat CPU 0 instructions: 400000000 cycles: 587728688 heartbeat IPC: 0.782047 cumulative IPC: 0.6426 (Simulation time: 3 hr 33 min 41 sec) 
Heartbeat CPU 4 instructions: 930000003 cycles: 588495869 heartbeat IPC: 1.58899 cumulative IPC: 1.55419 (Simulation time: 3 hr 33 min 56 sec) 
Heartbeat CPU 6 instructions: 460000000 cycles: 588602716 heartbeat IPC: 0.711773 cumulative IPC: 0.746587 (Simulation time: 3 hr 33 min 58 sec) 
Heartbeat CPU 7 instructions: 250000000 cycles: 592148247 heartbeat IPC: 0.377988 cumulative IPC: 0.362009 (Simulation time: 3 hr 35 min 7 sec) 
Heartbeat CPU 1 instructions: 610000003 cycles: 594330076 heartbeat IPC: 0.986418 cumulative IPC: 0.970944 (Simulation time: 3 hr 35 min 48 sec) 
Heartbeat CPU 4 instructions: 940000000 cycles: 594871677 heartbeat IPC: 1.56843 cumulative IPC: 1.55435 (Simulation time: 3 hr 35 min 58 sec) 
Heartbeat CPU 2 instructions: 120000000 cycles: 595270794 heartbeat IPC: 0.172608 cumulative IPC: 0.174146 (Simulation time: 3 hr 36 min 5 sec) 
Finished CPU 2 instructions: 100000000 cycles: 574231976 cumulative IPC: 0.174146 (Simulation time: 3 hr 36 min 5 sec) 

CPU 0 Branch Prediction Accuracy: 97.7406% MPKI: 2.89453

CPU 1 Branch Prediction Accuracy: 98.0461% MPKI: 2.74984

CPU 2 Branch Prediction Accuracy: 92.4261% MPKI: 6.09924

CPU 3 Branch Prediction Accuracy: 92.5887% MPKI: 12.7238

CPU 4 Branch Prediction Accuracy: 96.9432% MPKI: 4.04199

CPU 5 Branch Prediction Accuracy: 99.2021% MPKI: 1.9091

CPU 6 Branch Prediction Accuracy: 98.4852% MPKI: 1.85133

CPU 7 Branch Prediction Accuracy: 99.2446% MPKI: 1.5974

ChampSim completed all CPUs

Total Simulation Statistics (not including warmup)

CPU 0 cumulative IPC: 0.645347 instructions: 370579127 cycles: 574231976
L1D TOTAL     ACCESS:  138158429  HIT:  137659037  MISS:     499392
L1D LOAD      ACCESS:   61366888  HIT:   60917913  MISS:     448975
L1D RFO       ACCESS:   76791541  HIT:   76741124  MISS:      50417
L1D PREFETCH  ACCESS:          0  HIT:          0  MISS:          0
L1D WRITEBACK ACCESS:          0  HIT:          0  MISS:          0
L1I TOTAL     ACCESS:  101768138  HIT:  101165864  MISS:     602274
L1I LOAD      ACCESS:  101768138  HIT:  101165864  MISS:     602274
L1I RFO       ACCESS:          0  HIT:          0  MISS:          0
L1I PREFETCH  ACCESS:          0  HIT:          0  MISS:          0
L1I WRITEBACK ACCESS:          0  HIT:          0  MISS:          0
L2C TOTAL     ACCESS:    1730466  HIT:    1444688  MISS:     285778
L2C LOAD      ACCESS:    1051241  HIT:     788262  MISS:     262979
L2C RFO       ACCESS:      50406  HIT:      31149  MISS:      19257
L2C PREFETCH  ACCESS:     484194  HIT:     481917  MISS:       2277
L2C WRITEBACK ACCESS:     144625  HIT:     143360  MISS:       1265
LLC TOTAL     ACCESS:     692395  HIT:     441612  MISS:     250783
LLC LOAD      ACCESS:     262896  HIT:     129115  MISS:     133781
LLC RFO       ACCESS:      19257  HIT:       7290  MISS:      11967
LLC PREFETCH  ACCESS:     353072  HIT:     253426  MISS:      99646
LLC WRITEBACK ACCESS:      57170  HIT:      51781  MISS:       5389

CPU 1 cumulative IPC: 0.970973 instructions: 557563733 cycles: 574231976
L1D TOTAL     ACCESS:  110867961  HIT:  110104094  MISS:     763867
L1D LOAD      ACCESS:   72706873  HIT:   72030720  MISS:     676153
L1D RFO       ACCESS:   38161088  HIT:   38073374  MISS:      87714
L1D PREFETCH  ACCESS:          0  HIT:          0  MISS:          0
L1D WRITEBACK ACCESS:          0  HIT:          0  MISS:          0
L1I TOTAL     ACCESS:  135875770  HIT:  135875696  MISS:         74
L1I LOAD      ACCESS:  135875770  HIT:  135875696  MISS:         74
L1I RFO       ACCESS:          0  HIT:          0  MISS:          0
L1I PREFETCH  ACCESS:          0  HIT:          0  MISS:          0
L1I WRITEBACK ACCESS:          0  HIT:          0  MISS:          0
L2C TOTAL     ACCESS:    1387772  HIT:    1142710  MISS:     245062
L2C LOAD      ACCESS:     676179  HIT:     534673  MISS:     141506
L2C RFO       ACCESS:      87677  HIT:      34915  MISS:      52762
L2C PREFETCH  ACCESS:     504354  HIT:     453659  MISS:      50695
L2C WRITEBACK ACCESS:     119562  HIT:     119463  MISS:         99
LLC TOTAL     ACCESS:    1164944  HIT:    1010255  MISS:     154689
LLC LOAD      ACCESS:     141087  HIT:     125561  MISS:      15526
LLC RFO       ACCESS:      52762  HIT:      28850  MISS:      23912
LLC PREFETCH  ACCESS:     892528  HIT:     780718  MISS:     111810
LLC WRITEBACK ACCESS:      78567  HIT:      75126  MISS:       3441

CPU 2 cumulative IPC: 0.174146 instructions: 100000000 cycles: 574231976
L1D TOTAL     ACCESS:   53468667  HIT:   44445806  MISS:    9022861
L1D LOAD      ACCESS:   33614747  HIT:   28965319  MISS:    4649428
L1D RFO       ACCESS:   19853920  HIT:   15480487  MISS:    4373433
L1D PREFETCH  ACCESS:          0  HIT:          0  MISS:          0
L1D WRITEBACK ACCESS:          0  HIT:          0  MISS:          0
L1I TOTAL     ACCESS:   23963385  HIT:   23963385  MISS:          0
L1I LOAD      ACCESS:   23963385  HIT:   23963385  MISS:          0
L1I RFO       ACCESS:          0  HIT:          0  MISS:          0
L1I PREFETCH  ACCESS:          0  HIT:          0  MISS:          0
L1I WRITEBACK ACCESS:          0  HIT:          0  MISS:          0
L2C TOTAL     ACCESS:   18471235  HIT:    9711010  MISS:    8760225
L2C LOAD      ACCESS:    4649371  HIT:     594950  MISS:    4054421
L2C RFO       ACCESS:    4373433  HIT:         11  MISS:    4373422
L2C PREFETCH  ACCESS:     425570  HIT:      97668  MISS:     327902
L2C WRITEBACK ACCESS:    9022861  HIT:    9018381  MISS:       4480
LLC TOTAL     ACCESS:   22070716  HIT:   15255194  MISS:    6815522
LLC LOAD      ACCESS:    4014912  HIT:    3542037  MISS:     472875
LLC RFO       ACCESS:    4373422  HIT:     161568  MISS:    4211854
LLC PREFETCH  ACCESS:    4932867  HIT:    2802074  MISS:    2130793
LLC WRITEBACK ACCESS:    8749515  HIT:    8749515  MISS:          0

CPU 3 cumulative IPC: 0.371795 instructions: 213496668 cycles: 574231977
L1D TOTAL     ACCESS:   71300877  HIT:   69016297  MISS:    2284580
L1D LOAD      ACCESS:   44009885  HIT:   41964441  MISS:    2045444
L1D RFO       ACCESS:   27290992  HIT:   27051856  MISS:     239136
L1D PREFETCH  ACCESS:          0  HIT:          0  MISS:          0
L1D WRITEBACK ACCESS:          0  HIT:          0  MISS:          0
L1I TOTAL     ACCESS:   57936603  HIT:   57114875  MISS:     821728
L1I LOAD      ACCESS:   57936603  HIT:   57114875  MISS:     821728
L1I RFO       ACCESS:          0  HIT:          0  MISS:          0
L1I PREFETCH  ACCESS:          0  HIT:          0  MISS:          0
L1I WRITEBACK ACCESS:          0  HIT:          0  MISS:          0
L2C TOTAL     ACCESS:    5188996  HIT:    4114180  MISS:    1074816
L2C LOAD      ACCESS:    2867147  HIT:    1972093  MISS:     895054
L2C RFO       ACCESS:     239132  HIT:      89538  MISS:     149594
L2C PREFETCH  ACCESS:    1517827  HIT:    1491594  MISS:      26233
L2C WRITEBACK ACCESS:     564890  HIT:     560955  MISS:       3935
LLC TOTAL     ACCESS:    2555351  HIT:    2073547  MISS:     481804
LLC LOAD      ACCESS:     889435  HIT:     721754  MISS:     167681
LLC RFO       ACCESS:     149587  HIT:      56920  MISS:      92667
LLC PREFETCH  ACCESS:    1218072  HIT:    1008953  MISS:     209119
LLC WRITEBACK ACCESS:     298257  HIT:     285920  MISS:      12337

CPU 4 cumulative IPC: 1.55414 instructions: 892435573 cycles: 574231977
L1D TOTAL     ACCESS:  260214740  HIT:  260214625  MISS:        115
L1D LOAD      ACCESS:  113177037  HIT:  113176993  MISS:         44
L1D RFO       ACCESS:  147037703  HIT:  147037632  MISS:         71
L1D PREFETCH  ACCESS:          0  HIT:          0  MISS:          0
L1D WRITEBACK ACCESS:          0  HIT:          0  MISS:          0
L1I TOTAL     ACCESS:  196355262  HIT:  196340298  MISS:      14964
L1I LOAD      ACCESS:  196355262  HIT:  196340298  MISS:      14964
L1I RFO       ACCESS:          0  HIT:          0  MISS:          0
L1I PREFETCH  ACCESS:          0  HIT:          0  MISS:          0
L1I WRITEBACK ACCESS:          0  HIT:          0  MISS:          0
L2C TOTAL     ACCESS:      34556  HIT:      33412  MISS:       1144
L2C LOAD      ACCESS:      15008  HIT:      13974  MISS:       1034
L2C RFO       ACCESS:         71  HIT:          0  MISS:         71
L2C PREFETCH  ACCESS:      19477  HIT:      19438  MISS:         39
L2C WRITEBACK ACCESS:          0  HIT:          0  MISS:          0
LLC TOTAL     ACCESS:       2592  HIT:        960  MISS:       1632
LLC LOAD      ACCESS:       1023  HIT:        461  MISS:        562
LLC RFO       ACCESS:         71  HIT:          5  MISS:         66
LLC PREFETCH  ACCESS:       1498  HIT:        494  MISS:       1004
LLC WRITEBACK ACCESS:          0  HIT:          0  MISS:          0

CPU 5 cumulative IPC: 0.443294 instructions: 254553529 cycles: 574231977
L1D TOTAL     ACCESS:   65277329  HIT:   54949010  MISS:   10328319
L1D LOAD      ACCESS:   45540535  HIT:   35628364  MISS:    9912171
L1D RFO       ACCESS:   19736794  HIT:   19320646  MISS:     416148
L1D PREFETCH  ACCESS:          0  HIT:          0  MISS:          0
L1D WRITEBACK ACCESS:          0  HIT:          0  MISS:          0
L1I TOTAL     ACCESS:  109921375  HIT:  109226744  MISS:     694631
L1I LOAD      ACCESS:  109921375  HIT:  109226744  MISS:     694631
L1I RFO       ACCESS:          0  HIT:          0  MISS:          0
L1I PREFETCH  ACCESS:          0  HIT:          0  MISS:          0
L1I WRITEBACK ACCESS:          0  HIT:          0  MISS:          0
L2C TOTAL     ACCESS:   18033704  HIT:   16786629  MISS:    1247075
L2C LOAD      ACCESS:   10606760  HIT:    9676795  MISS:     929965
L2C RFO       ACCESS:     416141  HIT:     111269  MISS:     304872
L2C PREFETCH  ACCESS:    6288433  HIT:    6276246  MISS:      12187
L2C WRITEBACK ACCESS:     722370  HIT:     722319  MISS:         51
LLC TOTAL     ACCESS:    6160418  HIT:    5649300  MISS:     511118
LLC LOAD      ACCESS:     916553  HIT:     821901  MISS:      94652
LLC RFO       ACCESS:     304851  HIT:      32532  MISS:     272319
LLC PREFETCH  ACCESS:    4537189  HIT:    4406184  MISS:     131005
LLC WRITEBACK ACCESS:     401825  HIT:     388683  MISS:      13142

CPU 6 cumulative IPC: 0.745577 instructions: 428134100 cycles: 574231977
L1D TOTAL     ACCESS:  160969304  HIT:  160893848  MISS:      75456
L1D LOAD      ACCESS:   68714327  HIT:   68642523  MISS:      71804
L1D RFO       ACCESS:   92254977  HIT:   92251325  MISS:       3652
L1D PREFETCH  ACCESS:          0  HIT:          0  MISS:          0
L1D WRITEBACK ACCESS:          0  HIT:          0  MISS:          0
L1I TOTAL     ACCESS:  115001396  HIT:  114989769  MISS:      11627
L1I LOAD      ACCESS:  115001396  HIT:  114989769  MISS:      11627
L1I RFO       ACCESS:          0  HIT:          0  MISS:          0
L1I PREFETCH  ACCESS:          0  HIT:          0  MISS:          0
L1I WRITEBACK ACCESS:          0  HIT:          0  MISS:          0
L2C TOTAL     ACCESS:     149323  HIT:     126627  MISS:      22696
L2C LOAD      ACCESS:      83410  HIT:      63078  MISS:      20332
L2C RFO       ACCESS:       3652  HIT:       1480  MISS:       2172
L2C PREFETCH  ACCESS:      49917  HIT:      49809  MISS:        108
L2C WRITEBACK ACCESS:      12344  HIT:      12260  MISS:         84
LLC TOTAL     ACCESS:      55684  HIT:      16797  MISS:      38887
LLC LOAD      ACCESS:      20330  HIT:       3412  MISS:      16918
LLC RFO       ACCESS:       2172  HIT:         30  MISS:       2142
LLC PREFETCH  ACCESS:      29402  HIT:      13332  MISS:      16070
LLC WRITEBACK ACCESS:       3780  HIT:         23  MISS:       3757

CPU 7 cumulative IPC: 0.36164 instructions: 207665480 cycles: 574231977
L1D TOTAL     ACCESS:   48615092  HIT:   42801142  MISS:    5813950
L1D LOAD      ACCESS:   38794416  HIT:   33107421  MISS:    5686995
L1D RFO       ACCESS:    9820676  HIT:    9693721  MISS:     126955
L1D PREFETCH  ACCESS:          0  HIT:          0  MISS:          0
L1D WRITEBACK ACCESS:          0  HIT:          0  MISS:          0
L1I TOTAL     ACCESS:   66238018  HIT:   65501155  MISS:     736863
L1I LOAD      ACCESS:   66238018  HIT:   65501155  MISS:     736863
L1I RFO       ACCESS:          0  HIT:          0  MISS:          0
L1I PREFETCH  ACCESS:          0  HIT:          0  MISS:          0
L1I WRITEBACK ACCESS:          0  HIT:          0  MISS:          0
L2C TOTAL     ACCESS:    7519426  HIT:    2031588  MISS:    5487838
L2C LOAD      ACCESS:    6423731  HIT:    1041257  MISS:    5382474
L2C RFO       ACCESS:     126940  HIT:      64408  MISS:      62532
L2C PREFETCH  ACCESS:     703395  HIT:     662180  MISS:      41215
L2C WRITEBACK ACCESS:     265360  HIT:     263743  MISS:       1617
LLC TOTAL     ACCESS:    9177661  HIT:    7868186  MISS:    1309475
LLC LOAD      ACCESS:    5377177  HIT:    4862311  MISS:     514866
LLC RFO       ACCESS:      62527  HIT:      31652  MISS:      30875
LLC PREFETCH  ACCESS:    3630104  HIT:    2866402  MISS:     763702
LLC WRITEBACK ACCESS:     107853  HIT:     107821  MISS:         32

Region of Interest Statistics

CPU 0 cumulative IPC: 0.75232 instructions: 100000000 cycles: 132922097
L1D TOTAL     ACCESS:   37381004  HIT:   37372776  MISS:       8228
L1D LOAD      ACCESS:   15793099  HIT:   15785221  MISS:       7878
L1D RFO       ACCESS:   21587905  HIT:   21587555  MISS:        350
L1D PREFETCH  ACCESS:          0  HIT:          0  MISS:          0
L1D WRITEBACK ACCESS:          0  HIT:          0  MISS:          0
L1D PREFETCH  REQUESTED:          0  ISSUED:          0  USEFUL:          0  USELESS:          0
L1I TOTAL     ACCESS:   27629186  HIT:   27625905  MISS:       3281
L1I LOAD      ACCESS:   27629186  HIT:   27625905  MISS:       3281
L1I RFO       ACCESS:          0  HIT:          0  MISS:          0
L1I PREFETCH  ACCESS:          0  HIT:          0  MISS:          0
L1I WRITEBACK ACCESS:          0  HIT:          0  MISS:          0
L1I PREFETCH  REQUESTED:          0  ISSUED:          0  USEFUL:          0  USELESS:          0
L2C TOTAL     ACCESS:      15469  HIT:       8425  MISS:       7044
L2C LOAD      ACCESS:      11159  HIT:       4375  MISS:       6784
L2C RFO       ACCESS:        350  HIT:        137  MISS:        213
L2C PREFETCH  ACCESS:       2976  HIT:       2937  MISS:         39
L2C WRITEBACK ACCESS:        984  HIT:        976  MISS:          8
L2C PREFETCH  REQUESTED:     925427  ISSUED:     925366  USEFUL:        754  USELESS:       1514
LLC TOTAL     ACCESS:      12098  HIT:       2012  MISS:      10086
LLC LOAD      ACCESS:       6783  HIT:       1050  MISS:       5733
LLC RFO       ACCESS:        213  HIT:          4  MISS:        209
LLC PREFETCH  ACCESS:       4531  HIT:        958  MISS:       3573
LLC WRITEBACK ACCESS:        571  HIT:          0  MISS:        571
LLC PREFETCH  REQUESTED:          0  ISSUED:          0  USEFUL:    2452111  USELESS:    1687698
Major fault: 0 Minor fault: 5899

CPU 1 cumulative IPC: 0.903386 instructions: 100000003 cycles: 110694629
L1D TOTAL     ACCESS:   23669681  HIT:   22992274  MISS:     677407
L1D LOAD      ACCESS:   16591149  HIT:   15994514  MISS:     596635
L1D RFO       ACCESS:    7078532  HIT:    6997760  MISS:      80772
L1D PREFETCH  ACCESS:          0  HIT:          0  MISS:          0
L1D WRITEBACK ACCESS:          0  HIT:          0  MISS:          0
L1D PREFETCH  REQUESTED:          0  ISSUED:          0  USEFUL:          0  USELESS:          0
L1I TOTAL     ACCESS:   27787966  HIT:   27787892  MISS:         74
L1I LOAD      ACCESS:   27787966  HIT:   27787892  MISS:         74
L1I RFO       ACCESS:          0  HIT:          0  MISS:          0
L1I PREFETCH  ACCESS:          0  HIT:          0  MISS:          0
L1I WRITEBACK ACCESS:          0  HIT:          0  MISS:          0
L1I PREFETCH  REQUESTED:          0  ISSUED:          0  USEFUL:          0  USELESS:          0
L2C TOTAL     ACCESS:    1290128  HIT:    1058886  MISS:     231242
L2C LOAD      ACCESS:     596661  HIT:     467455  MISS:     129206
L2C RFO       ACCESS:      80736  HIT:      29178  MISS:      51558
L2C PREFETCH  ACCESS:     500324  HIT:     449941  MISS:      50383
L2C WRITEBACK ACCESS:     112407  HIT:     112312  MISS:         95
L2C PREFETCH  REQUESTED:    1371044  ISSUED:    1366513  USEFUL:      50026  USELESS:        707
LLC TOTAL     ACCESS:    1088626  HIT:     966894  MISS:     121732
LLC LOAD      ACCESS:     128791  HIT:     119901  MISS:       8890
LLC RFO       ACCESS:      51558  HIT:      28847  MISS:      22711
LLC PREFETCH  ACCESS:     832686  HIT:     743062  MISS:      89624
LLC WRITEBACK ACCESS:      75591  HIT:      75084  MISS:        507
LLC PREFETCH  REQUESTED:          0  ISSUED:          0  USEFUL:    2452111  USELESS:    1687698
Major fault: 0 Minor fault: 2668

CPU 2 cumulative IPC: 0.174146 instructions: 100000000 cycles: 574231976
L1D TOTAL     ACCESS:   53468667  HIT:   44445806  MISS:    9022861
L1D LOAD      ACCESS:   33614747  HIT:   28965319  MISS:    4649428
L1D RFO       ACCESS:   19853920  HIT:   15480487  MISS:    4373433
L1D PREFETCH  ACCESS:          0  HIT:          0  MISS:          0
L1D WRITEBACK ACCESS:          0  HIT:          0  MISS:          0
L1D PREFETCH  REQUESTED:          0  ISSUED:          0  USEFUL:          0  USELESS:          0
L1I TOTAL     ACCESS:   23963385  HIT:   23963385  MISS:          0
L1I LOAD      ACCESS:   23963385  HIT:   23963385  MISS:          0
L1I RFO       ACCESS:          0  HIT:          0  MISS:          0
L1I PREFETCH  ACCESS:          0  HIT:          0  MISS:          0
L1I WRITEBACK ACCESS:          0  HIT:          0  MISS:          0
L1I PREFETCH  REQUESTED:          0  ISSUED:          0  USEFUL:          0  USELESS:          0
L2C TOTAL     ACCESS:   18471235  HIT:    9711010  MISS:    8760225
L2C LOAD      ACCESS:    4649371  HIT:     594950  MISS:    4054421
L2C RFO       ACCESS:    4373433  HIT:         11  MISS:    4373422
L2C PREFETCH  ACCESS:     425570  HIT:      97668  MISS:     327902
L2C WRITEBACK ACCESS:    9022861  HIT:    9018381  MISS:       4480
L2C PREFETCH  REQUESTED:    9678358  ISSUED:    9678358  USEFUL:     420932  USELESS:       9030
LLC TOTAL     ACCESS:   22070716  HIT:   15255194  MISS:    6815522
LLC LOAD      ACCESS:    4014912  HIT:    3542037  MISS:     472875
LLC RFO       ACCESS:    4373422  HIT:     161568  MISS:    4211854
LLC PREFETCH  ACCESS:    4932867  HIT:    2802074  MISS:    2130793
LLC WRITEBACK ACCESS:    8749515  HIT:    8749515  MISS:          0
LLC PREFETCH  REQUESTED:          0  ISSUED:          0  USEFUL:    2452111  USELESS:    1687698
Major fault: 0 Minor fault: 257383

CPU 3 cumulative IPC: 0.39519 instructions: 100000001 cycles: 253043126
L1D TOTAL     ACCESS:   31439675  HIT:   30351692  MISS:    1087983
L1D LOAD      ACCESS:   19586964  HIT:   18602634  MISS:     984330
L1D RFO       ACCESS:   11852711  HIT:   11749058  MISS:     103653
L1D PREFETCH  ACCESS:          0  HIT:          0  MISS:          0
L1D WRITEBACK ACCESS:          0  HIT:          0  MISS:          0
L1D PREFETCH  REQUESTED:          0  ISSUED:          0  USEFUL:          0  USELESS:          0
L1I TOTAL     ACCESS:   27476244  HIT:   27247972  MISS:     228272
L1I LOAD      ACCESS:   27476244  HIT:   27247972  MISS:     228272
L1I RFO       ACCESS:          0  HIT:          0  MISS:          0
L1I PREFETCH  ACCESS:          0  HIT:          0  MISS:          0
L1I WRITEBACK ACCESS:          0  HIT:          0  MISS:          0
L1I PREFETCH  REQUESTED:          0  ISSUED:          0  USEFUL:          0  USELESS:          0
L2C TOTAL     ACCESS:    2119787  HIT:    1502587  MISS:     617200
L2C LOAD      ACCESS:    1212595  HIT:     688049  MISS:     524546
L2C RFO       ACCESS:     103649  HIT:      28461  MISS:      75188
L2C PREFETCH  ACCESS:     557971  HIT:     542429  MISS:      15542
L2C WRITEBACK ACCESS:     245572  HIT:     243648  MISS:       1924
L2C PREFETCH  REQUESTED:    3708800  ISSUED:    3708643  USEFUL:      28852  USELESS:       7004
LLC TOTAL     ACCESS:    1358474  HIT:    1121848  MISS:     236626
LLC LOAD      ACCESS:     520979  HIT:     437277  MISS:      83702
LLC RFO       ACCESS:      75184  HIT:      25444  MISS:      49740
LLC PREFETCH  ACCESS:     605575  HIT:     504578  MISS:     100997
LLC WRITEBACK ACCESS:     156736  HIT:     154549  MISS:       2187
LLC PREFETCH  REQUESTED:          0  ISSUED:          0  USEFUL:    2452111  USELESS:    1687698
Major fault: 0 Minor fault: 9865

CPU 4 cumulative IPC: 1.57136 instructions: 100000001 cycles: 63639300
L1D TOTAL     ACCESS:   29696638  HIT:   29696636  MISS:          2
L1D LOAD      ACCESS:   12903885  HIT:   12903883  MISS:          2
L1D RFO       ACCESS:   16792753  HIT:   16792753  MISS:          0
L1D PREFETCH  ACCESS:          0  HIT:          0  MISS:          0
L1D WRITEBACK ACCESS:          0  HIT:          0  MISS:          0
L1D PREFETCH  REQUESTED:          0  ISSUED:          0  USEFUL:          0  USELESS:          0
L1I TOTAL     ACCESS:   21897100  HIT:   21897100  MISS:          0
L1I LOAD      ACCESS:   21897100  HIT:   21897100  MISS:          0
L1I RFO       ACCESS:          0  HIT:          0  MISS:          0
L1I PREFETCH  ACCESS:          0  HIT:          0  MISS:          0
L1I WRITEBACK ACCESS:          0  HIT:          0  MISS:          0
L1I PREFETCH  REQUESTED:          0  ISSUED:          0  USEFUL:          0  USELESS:          0
L2C TOTAL     ACCESS:          3  HIT:          1  MISS:          2
L2C LOAD      ACCESS:          2  HIT:          0  MISS:          2
L2C RFO       ACCESS:          0  HIT:          0  MISS:          0
L2C PREFETCH  ACCESS:          1  HIT:          1  MISS:          0
L2C WRITEBACK ACCESS:          0  HIT:          0  MISS:          0
L2C PREFETCH  REQUESTED:      34222  ISSUED:      34222  USEFUL:         24  USELESS:          0
LLC TOTAL     ACCESS:          2  HIT:          0  MISS:          2
LLC LOAD      ACCESS:          2  HIT:          0  MISS:          2
LLC RFO       ACCESS:          0  HIT:          0  MISS:          0
LLC PREFETCH  ACCESS:          0  HIT:          0  MISS:          0
LLC WRITEBACK ACCESS:          0  HIT:          0  MISS:          0
LLC PREFETCH  REQUESTED:          0  ISSUED:          0  USEFUL:    2452111  USELESS:    1687698
Major fault: 0 Minor fault: 47

CPU 5 cumulative IPC: 0.449329 instructions: 100000003 cycles: 222553929
L1D TOTAL     ACCESS:   25007260  HIT:   20917703  MISS:    4089557
L1D LOAD      ACCESS:   17650302  HIT:   13713849  MISS:    3936453
L1D RFO       ACCESS:    7356958  HIT:    7203854  MISS:     153104
L1D PREFETCH  ACCESS:          0  HIT:          0  MISS:          0
L1D WRITEBACK ACCESS:          0  HIT:          0  MISS:          0
L1D PREFETCH  REQUESTED:          0  ISSUED:          0  USEFUL:          0  USELESS:          0
L1I TOTAL     ACCESS:   43438909  HIT:   43184122  MISS:     254787
L1I LOAD      ACCESS:   43438909  HIT:   43184122  MISS:     254787
L1I RFO       ACCESS:          0  HIT:          0  MISS:          0
L1I PREFETCH  ACCESS:          0  HIT:          0  MISS:          0
L1I WRITEBACK ACCESS:          0  HIT:          0  MISS:          0
L1I PREFETCH  REQUESTED:          0  ISSUED:          0  USEFUL:          0  USELESS:          0
L2C TOTAL     ACCESS:    7154383  HIT:    6675066  MISS:     479317
L2C LOAD      ACCESS:    4191224  HIT:    3826359  MISS:     364865
L2C RFO       ACCESS:     153103  HIT:      43707  MISS:     109396
L2C PREFETCH  ACCESS:    2536105  HIT:    2531070  MISS:       5035
L2C WRITEBACK ACCESS:     273951  HIT:     273930  MISS:         21
L2C PREFETCH  REQUESTED:   13606169  ISSUED:   13606169  USEFUL:       9543  USELESS:       6667
LLC TOTAL     ACCESS:    2440624  HIT:    2246565  MISS:     194059
LLC LOAD      ACCESS:     359559  HIT:     320846  MISS:      38713
LLC RFO       ACCESS:     109388  HIT:      13094  MISS:      96294
LLC PREFETCH  ACCESS:    1823625  HIT:    1770154  MISS:      53471
LLC WRITEBACK ACCESS:     148052  HIT:     142471  MISS:       5581
LLC PREFETCH  REQUESTED:          0  ISSUED:          0  USEFUL:    2452111  USELESS:    1687698
Major fault: 0 Minor fault: 2664

CPU 6 cumulative IPC: 0.788291 instructions: 100000002 cycles: 126856684
L1D TOTAL     ACCESS:   37897533  HIT:   37884388  MISS:      13145
L1D LOAD      ACCESS:   15779287  HIT:   15766772  MISS:      12515
L1D RFO       ACCESS:   22118246  HIT:   22117616  MISS:        630
L1D PREFETCH  ACCESS:          0  HIT:          0  MISS:          0
L1D WRITEBACK ACCESS:          0  HIT:          0  MISS:          0
L1D PREFETCH  REQUESTED:          0  ISSUED:          0  USEFUL:          0  USELESS:          0
L1I TOTAL     ACCESS:   26985469  HIT:   26983567  MISS:       1902
L1I LOAD      ACCESS:   26985469  HIT:   26983567  MISS:       1902
L1I RFO       ACCESS:          0  HIT:          0  MISS:          0
L1I PREFETCH  ACCESS:          0  HIT:          0  MISS:          0
L1I WRITEBACK ACCESS:          0  HIT:          0  MISS:          0
L1I PREFETCH  REQUESTED:          0  ISSUED:          0  USEFUL:          0  USELESS:          0
L2C TOTAL     ACCESS:      25395  HIT:      21716  MISS:       3679
L2C LOAD      ACCESS:      14414  HIT:      11138  MISS:       3276
L2C RFO       ACCESS:        630  HIT:        261  MISS:        369
L2C PREFETCH  ACCESS:       8283  HIT:       8260  MISS:         23
L2C WRITEBACK ACCESS:       2068  HIT:       2057  MISS:         11
L2C PREFETCH  REQUESTED:      89815  ISSUED:      89815  USEFUL:         40  USELESS:         73
LLC TOTAL     ACCESS:       9948  HIT:       3306  MISS:       6642
LLC LOAD      ACCESS:       3275  HIT:        538  MISS:       2737
LLC RFO       ACCESS:        369  HIT:          4  MISS:        365
LLC PREFETCH  ACCESS:       5878  HIT:       2764  MISS:       3114
LLC WRITEBACK ACCESS:        426  HIT:          0  MISS:        426
LLC PREFETCH  REQUESTED:          0  ISSUED:          0  USEFUL:    2452111  USELESS:    1687698
Major fault: 0 Minor fault: 1869

CPU 7 cumulative IPC: 0.359389 instructions: 100000000 cycles: 278250001
L1D TOTAL     ACCESS:   23379099  HIT:   20558572  MISS:    2820527
L1D LOAD      ACCESS:   18682352  HIT:   15922213  MISS:    2760139
L1D RFO       ACCESS:    4696747  HIT:    4636359  MISS:      60388
L1D PREFETCH  ACCESS:          0  HIT:          0  MISS:          0
L1D WRITEBACK ACCESS:          0  HIT:          0  MISS:          0
L1D PREFETCH  REQUESTED:          0  ISSUED:          0  USEFUL:          0  USELESS:          0
L1I TOTAL     ACCESS:   31983255  HIT:   31630451  MISS:     352804
L1I LOAD      ACCESS:   31983255  HIT:   31630451  MISS:     352804
L1I RFO       ACCESS:          0  HIT:          0  MISS:          0
L1I PREFETCH  ACCESS:          0  HIT:          0  MISS:          0
L1I WRITEBACK ACCESS:          0  HIT:          0  MISS:          0
L1I PREFETCH  REQUESTED:          0  ISSUED:          0  USEFUL:          0  USELESS:          0
L2C TOTAL     ACCESS:    3637362  HIT:     971242  MISS:    2666120
L2C LOAD      ACCESS:    3112877  HIT:     499609  MISS:    2613268
L2C RFO       ACCESS:      60381  HIT:      30381  MISS:      30000
L2C PREFETCH  ACCESS:     338129  HIT:     316045  MISS:      22084
L2C WRITEBACK ACCESS:     125975  HIT:     125207  MISS:        768
L2C PREFETCH  REQUESTED:    6630856  ISSUED:    6630200  USEFUL:      28584  USELESS:      27986
LLC TOTAL     ACCESS:    4446542  HIT:    3807420  MISS:     639122
LLC LOAD      ACCESS:    2610377  HIT:    2359768  MISS:     250609
LLC RFO       ACCESS:      29997  HIT:      14987  MISS:      15010
LLC PREFETCH  ACCESS:    1754873  HIT:    1381385  MISS:     373488
LLC WRITEBACK ACCESS:      51295  HIT:      51280  MISS:         15
LLC PREFETCH  REQUESTED:          0  ISSUED:          0  USEFUL:    2452111  USELESS:    1687698
Major fault: 0 Minor fault: 11379

DRAM Statistics
 CHANNEL 0
 RQ ROW_BUFFER_HIT:     381828  ROW_BUFFER_MISS:    4371225
 DBUS_CONGESTED:    9630852
 WQ ROW_BUFFER_HIT:     364288  ROW_BUFFER_MISS:    3321592  FULL:          0

 CHANNEL 1
 RQ ROW_BUFFER_HIT:     382168  ROW_BUFFER_MISS:    4390397
 DBUS_CONGESTED:    9630852
 WQ ROW_BUFFER_HIT:     365852  ROW_BUFFER_MISS:    3323312  FULL:          0

 AVG_CONGESTED_CYCLE: 14
