Initialize SIGNATURE TABLE
ST_SET: 1
ST_WAY: 256
ST_TAG_BIT: 16
ST_TAG_MASK: ffff

Initialize PATTERN TABLE
PT_SET: 512
PT_WAY: 4
SIG_DELTA_BIT: 7
C_SIG_BIT: 4
C_DELTA_BIT: 4

Initialize PREFETCH FILTER
FILTER_SET: 1024

*** ChampSim Multicore Out-of-Order Simulator ***

Warmup Instructions: 20000000
Simulation Instructions: 100000000
Number of CPUs: 8
LLC sets: 16384
LLC ways: 16
Off-chip DRAM Size: 8192 MB Channels: 2 Width: 64-bit Data Rate: 1600 MT/s

CPU 0 runs /scratch/user/djimenez/champsim-traces/speccpu2017/xz/603.bwaves_s/603.bwaves_s-1740B.champsimtrace.xz
CPU 1 runs /scratch/user/djimenez/champsim-traces/speccpu2017/xz/648.exchange2_s/648.exchange2_s-1227B.champsimtrace.xz
CPU 2 runs /scratch/user/djimenez/champsim-traces/speccpu2017/xz/623.xalancbmk_s/623.xalancbmk_s-592B.champsimtrace.xz
CPU 3 runs /scratch/user/djimenez/champsim-traces/speccpu2017/xz/654.roms_s/654.roms_s-1007B.champsimtrace.xz
CPU 4 runs /scratch/user/djimenez/champsim-traces/speccpu2017/xz/607.cactuBSSN_s/607.cactuBSSN_s-2421B.champsimtrace.xz
CPU 5 runs /scratch/user/djimenez/champsim-traces/speccpu2017/xz/654.roms_s/654.roms_s-1390B.champsimtrace.xz
CPU 6 runs /scratch/user/djimenez/champsim-traces/speccpu2017/xz/641.leela_s/641.leela_s-1083B.champsimtrace.xz
CPU 7 runs /scratch/user/djimenez/champsim-traces/speccpu2017/xz/623.xalancbmk_s/623.xalancbmk_s-202B.champsimtrace.xz
Heartbeat CPU 7 instructions: 10000000 cycles: 4250113 heartbeat IPC: 2.35288 cumulative IPC: 2.35288 (Simulation time: 0 hr 3 min 56 sec) 
Heartbeat CPU 1 instructions: 10000000 cycles: 4415070 heartbeat IPC: 2.26497 cumulative IPC: 2.26497 (Simulation time: 0 hr 4 min 5 sec) 
Heartbeat CPU 2 instructions: 10000002 cycles: 5028407 heartbeat IPC: 1.9887 cumulative IPC: 1.9887 (Simulation time: 0 hr 4 min 39 sec) 
Heartbeat CPU 3 instructions: 10000002 cycles: 5111300 heartbeat IPC: 1.95645 cumulative IPC: 1.95645 (Simulation time: 0 hr 4 min 44 sec) 
Heartbeat CPU 0 instructions: 10000001 cycles: 5292833 heartbeat IPC: 1.88935 cumulative IPC: 1.88935 (Simulation time: 0 hr 4 min 54 sec) 
Heartbeat CPU 4 instructions: 10000000 cycles: 5801320 heartbeat IPC: 1.72375 cumulative IPC: 1.72375 (Simulation time: 0 hr 5 min 22 sec) 
Heartbeat CPU 6 instructions: 10000000 cycles: 6307358 heartbeat IPC: 1.58545 cumulative IPC: 1.58545 (Simulation time: 0 hr 5 min 50 sec) 
Heartbeat CPU 5 instructions: 10000001 cycles: 6747150 heartbeat IPC: 1.48211 cumulative IPC: 1.48211 (Simulation time: 0 hr 6 min 14 sec) 
Heartbeat CPU 7 instructions: 20000000 cycles: 8517286 heartbeat IPC: 2.34347 cumulative IPC: 2.34817 (Simulation time: 0 hr 7 min 53 sec) 
Heartbeat CPU 1 instructions: 20000000 cycles: 8776036 heartbeat IPC: 2.29307 cumulative IPC: 2.27893 (Simulation time: 0 hr 8 min 7 sec) 
Heartbeat CPU 2 instructions: 20000000 cycles: 10131076 heartbeat IPC: 1.95976 cumulative IPC: 1.97412 (Simulation time: 0 hr 9 min 23 sec) 
Heartbeat CPU 3 instructions: 20000000 cycles: 10222233 heartbeat IPC: 1.95659 cumulative IPC: 1.95652 (Simulation time: 0 hr 9 min 28 sec) 
Heartbeat CPU 0 instructions: 20000000 cycles: 10597926 heartbeat IPC: 1.88498 cumulative IPC: 1.88716 (Simulation time: 0 hr 9 min 49 sec) 
Heartbeat CPU 4 instructions: 20000000 cycles: 11601446 heartbeat IPC: 1.7241 cumulative IPC: 1.72392 (Simulation time: 0 hr 10 min 45 sec) 
Heartbeat CPU 5 instructions: 20000000 cycles: 11924141 heartbeat IPC: 1.93162 cumulative IPC: 1.67727 (Simulation time: 0 hr 11 min 3 sec) 
Heartbeat CPU 6 instructions: 20000000 cycles: 12631594 heartbeat IPC: 1.58122 cumulative IPC: 1.58333 (Simulation time: 0 hr 11 min 41 sec) 

Warmup complete CPU 0 instructions: 23832577 cycles: 12631595 (Simulation time: 0 hr 11 min 41 sec) 
Warmup complete CPU 1 instructions: 28878862 cycles: 12631595 (Simulation time: 0 hr 11 min 41 sec) 
Warmup complete CPU 2 instructions: 24223838 cycles: 12631595 (Simulation time: 0 hr 11 min 41 sec) 
Warmup complete CPU 3 instructions: 24713915 cycles: 12631595 (Simulation time: 0 hr 11 min 41 sec) 
Warmup complete CPU 4 instructions: 21776182 cycles: 12631595 (Simulation time: 0 hr 11 min 41 sec) 
Warmup complete CPU 5 instructions: 21474825 cycles: 12631595 (Simulation time: 0 hr 11 min 41 sec) 
Warmup complete CPU 6 instructions: 20000001 cycles: 12631595 (Simulation time: 0 hr 11 min 41 sec) 
Warmup complete CPU 7 instructions: 29503079 cycles: 12631594 (Simulation time: 0 hr 11 min 41 sec) 

Heartbeat CPU 1 instructions: 30000001 cycles: 13341280 heartbeat IPC: 2.19046 cumulative IPC: 1.57977 (Simulation time: 0 hr 12 min 2 sec) 
Heartbeat CPU 7 instructions: 30000002 cycles: 13436692 heartbeat IPC: 2.03277 cumulative IPC: 0.617221 (Simulation time: 0 hr 12 min 5 sec) 
Heartbeat CPU 0 instructions: 30000003 cycles: 18021084 heartbeat IPC: 1.34714 cumulative IPC: 1.14434 (Simulation time: 0 hr 14 min 17 sec) 
Heartbeat CPU 4 instructions: 30000001 cycles: 20765539 heartbeat IPC: 1.09122 cumulative IPC: 1.01105 (Simulation time: 0 hr 15 min 33 sec) 
Heartbeat CPU 1 instructions: 40000000 cycles: 20978739 heartbeat IPC: 1.30934 cumulative IPC: 1.33233 (Simulation time: 0 hr 15 min 39 sec) 
Heartbeat CPU 3 instructions: 30000000 cycles: 21718532 heartbeat IPC: 0.869845 cumulative IPC: 0.581724 (Simulation time: 0 hr 16 min 0 sec) 
Heartbeat CPU 5 instructions: 30000002 cycles: 25629852 heartbeat IPC: 0.729623 cumulative IPC: 0.655871 (Simulation time: 0 hr 17 min 46 sec) 
Heartbeat CPU 0 instructions: 40000000 cycles: 26700745 heartbeat IPC: 1.15212 cumulative IPC: 1.14914 (Simulation time: 0 hr 18 min 15 sec) 
Heartbeat CPU 1 instructions: 50000003 cycles: 27643891 heartbeat IPC: 1.50034 cumulative IPC: 1.40692 (Simulation time: 0 hr 18 min 41 sec) 
Heartbeat CPU 4 instructions: 40000000 cycles: 30637401 heartbeat IPC: 1.01298 cumulative IPC: 1.01211 (Simulation time: 0 hr 19 min 58 sec) 
Heartbeat CPU 2 instructions: 30000000 cycles: 31539374 heartbeat IPC: 0.467109 cumulative IPC: 0.305491 (Simulation time: 0 hr 20 min 22 sec) 
Heartbeat CPU 7 instructions: 40000000 cycles: 34179383 heartbeat IPC: 0.482097 cumulative IPC: 0.487146 (Simulation time: 0 hr 21 min 36 sec) 
Heartbeat CPU 0 instructions: 50000003 cycles: 35557141 heartbeat IPC: 1.12913 cumulative IPC: 1.14141 (Simulation time: 0 hr 22 min 17 sec) 
Heartbeat CPU 1 instructions: 60000000 cycles: 35742097 heartbeat IPC: 1.23484 cumulative IPC: 1.34662 (Simulation time: 0 hr 22 min 22 sec) 
Heartbeat CPU 6 instructions: 30000002 cycles: 35809938 heartbeat IPC: 0.431437 cumulative IPC: 0.431437 (Simulation time: 0 hr 22 min 24 sec) 
Heartbeat CPU 3 instructions: 40000000 cycles: 38909034 heartbeat IPC: 0.581717 cumulative IPC: 0.581719 (Simulation time: 0 hr 23 min 57 sec) 
Heartbeat CPU 4 instructions: 50000003 cycles: 40507906 heartbeat IPC: 1.01312 cumulative IPC: 1.01247 (Simulation time: 0 hr 24 min 46 sec) 
Heartbeat CPU 5 instructions: 40000000 cycles: 40940798 heartbeat IPC: 0.653127 cumulative IPC: 0.654387 (Simulation time: 0 hr 24 min 58 sec) 
Heartbeat CPU 1 instructions: 70000002 cycles: 42294090 heartbeat IPC: 1.52625 cumulative IPC: 1.3863 (Simulation time: 0 hr 25 min 38 sec) 
Heartbeat CPU 0 instructions: 60000000 cycles: 44842764 heartbeat IPC: 1.07693 cumulative IPC: 1.12282 (Simulation time: 0 hr 26 min 49 sec) 
Heartbeat CPU 1 instructions: 80000000 cycles: 48761984 heartbeat IPC: 1.5461 cumulative IPC: 1.41491 (Simulation time: 0 hr 28 min 34 sec) 
Heartbeat CPU 4 instructions: 60000000 cycles: 51150692 heartbeat IPC: 0.939603 cumulative IPC: 0.992334 (Simulation time: 0 hr 29 min 38 sec) 
Heartbeat CPU 1 instructions: 90000002 cycles: 55172538 heartbeat IPC: 1.55993 cumulative IPC: 1.43676 (Simulation time: 0 hr 31 min 23 sec) 
Heartbeat CPU 3 instructions: 50000003 cycles: 56009774 heartbeat IPC: 0.58477 cumulative IPC: 0.582922 (Simulation time: 0 hr 31 min 44 sec) 
Heartbeat CPU 0 instructions: 70000001 cycles: 56062466 heartbeat IPC: 0.891289 cumulative IPC: 1.06301 (Simulation time: 0 hr 31 min 45 sec) 
Heartbeat CPU 6 instructions: 40000000 cycles: 58913680 heartbeat IPC: 0.43283 cumulative IPC: 0.432133 (Simulation time: 0 hr 32 min 58 sec) 
Heartbeat CPU 5 instructions: 50000003 cycles: 58990018 heartbeat IPC: 0.554041 cumulative IPC: 0.615318 (Simulation time: 0 hr 33 min 0 sec) 
Heartbeat CPU 1 instructions: 100000000 cycles: 61687047 heartbeat IPC: 1.53503 cumulative IPC: 1.44981 (Simulation time: 0 hr 34 min 6 sec) 
Heartbeat CPU 4 instructions: 70000000 cycles: 62513971 heartbeat IPC: 0.880028 cumulative IPC: 0.966751 (Simulation time: 0 hr 34 min 28 sec) 
Heartbeat CPU 2 instructions: 40000000 cycles: 63501707 heartbeat IPC: 0.312868 cumulative IPC: 0.310126 (Simulation time: 0 hr 34 min 54 sec) 
Heartbeat CPU 7 instructions: 50000002 cycles: 64886209 heartbeat IPC: 0.325661 cumulative IPC: 0.392251 (Simulation time: 0 hr 35 min 32 sec) 
Heartbeat CPU 0 instructions: 80000000 cycles: 66006146 heartbeat IPC: 1.00566 cumulative IPC: 1.05233 (Simulation time: 0 hr 36 min 4 sec) 
Heartbeat CPU 1 instructions: 110000001 cycles: 68123370 heartbeat IPC: 1.55368 cumulative IPC: 1.46186 (Simulation time: 0 hr 37 min 7 sec) 
Heartbeat CPU 5 instructions: 60000000 cycles: 69239591 heartbeat IPC: 0.97565 cumulative IPC: 0.680561 (Simulation time: 0 hr 37 min 40 sec) 
Heartbeat CPU 4 instructions: 80000000 cycles: 72421133 heartbeat IPC: 1.00937 cumulative IPC: 0.973813 (Simulation time: 0 hr 39 min 14 sec) 
Heartbeat CPU 1 instructions: 120000000 cycles: 74601186 heartbeat IPC: 1.54373 cumulative IPC: 1.47042 (Simulation time: 0 hr 40 min 21 sec) 
Heartbeat CPU 3 instructions: 60000000 cycles: 74847389 heartbeat IPC: 0.530853 cumulative IPC: 0.567156 (Simulation time: 0 hr 40 min 28 sec) 
Heartbeat CPU 0 instructions: 90000000 cycles: 74863908 heartbeat IPC: 1.12895 cumulative IPC: 1.06323 (Simulation time: 0 hr 40 min 29 sec) 
Heartbeat CPU 5 instructions: 70000002 cycles: 77381702 heartbeat IPC: 1.22818 cumulative IPC: 0.749422 (Simulation time: 0 hr 41 min 46 sec) 
Finished CPU 1 instructions: 100000002 cycles: 67733034 cumulative IPC: 1.47638 (Simulation time: 0 hr 43 min 16 sec) 
Heartbeat CPU 1 instructions: 130000000 cycles: 81084739 heartbeat IPC: 1.54236 cumulative IPC: 1.47723 (Simulation time: 0 hr 43 min 37 sec) 
Heartbeat CPU 4 instructions: 90000000 cycles: 81709199 heartbeat IPC: 1.07665 cumulative IPC: 0.98764 (Simulation time: 0 hr 43 min 55 sec) 
Heartbeat CPU 6 instructions: 50000001 cycles: 82033500 heartbeat IPC: 0.432529 cumulative IPC: 0.432265 (Simulation time: 0 hr 44 min 4 sec) 
Heartbeat CPU 0 instructions: 100000000 cycles: 83816274 heartbeat IPC: 1.11702 cumulative IPC: 1.07 (Simulation time: 0 hr 44 min 56 sec) 
Heartbeat CPU 5 instructions: 80000000 cycles: 85681413 heartbeat IPC: 1.20486 cumulative IPC: 0.801168 (Simulation time: 0 hr 45 min 53 sec) 
Heartbeat CPU 7 instructions: 60000000 cycles: 86377037 heartbeat IPC: 0.465315 cumulative IPC: 0.413543 (Simulation time: 0 hr 46 min 14 sec) 
Heartbeat CPU 1 instructions: 140000000 cycles: 87539334 heartbeat IPC: 1.54928 cumulative IPC: 1.48344 (Simulation time: 0 hr 46 min 50 sec) 
Heartbeat CPU 4 instructions: 100000000 cycles: 91304747 heartbeat IPC: 1.04215 cumulative IPC: 0.994289 (Simulation time: 0 hr 48 min 53 sec) 
Heartbeat CPU 2 instructions: 50000002 cycles: 91648579 heartbeat IPC: 0.355279 cumulative IPC: 0.32621 (Simulation time: 0 hr 49 min 3 sec) 
Heartbeat CPU 3 instructions: 70000003 cycles: 92283284 heartbeat IPC: 0.57353 cumulative IPC: 0.568551 (Simulation time: 0 hr 49 min 20 sec) 
Heartbeat CPU 0 instructions: 110000000 cycles: 92723352 heartbeat IPC: 1.1227 cumulative IPC: 1.07586 (Simulation time: 0 hr 49 min 31 sec) 
Heartbeat CPU 1 instructions: 150000003 cycles: 94755488 heartbeat IPC: 1.38578 cumulative IPC: 1.47486 (Simulation time: 0 hr 50 min 24 sec) 
Heartbeat CPU 5 instructions: 90000003 cycles: 98144343 heartbeat IPC: 0.80238 cumulative IPC: 0.801345 (Simulation time: 0 hr 52 min 6 sec) 
Heartbeat CPU 0 instructions: 120000000 cycles: 101764877 heartbeat IPC: 1.10601 cumulative IPC: 1.07892 (Simulation time: 0 hr 54 min 1 sec) 
Heartbeat CPU 4 instructions: 110000003 cycles: 102411097 heartbeat IPC: 0.900386 cumulative IPC: 0.982672 (Simulation time: 0 hr 54 min 21 sec) 
Heartbeat CPU 1 instructions: 160000000 cycles: 103822284 heartbeat IPC: 1.10293 cumulative IPC: 1.43788 (Simulation time: 0 hr 55 min 5 sec) 
Heartbeat CPU 6 instructions: 60000000 cycles: 104978665 heartbeat IPC: 0.435822 cumulative IPC: 0.433149 (Simulation time: 0 hr 55 min 38 sec) 
Finished CPU 0 instructions: 100000000 cycles: 92491928 cumulative IPC: 1.08118 (Simulation time: 0 hr 55 min 43 sec) 
Heartbeat CPU 7 instructions: 70000002 cycles: 108077105 heartbeat IPC: 0.460828 cumulative IPC: 0.424294 (Simulation time: 0 hr 57 min 5 sec) 
Heartbeat CPU 3 instructions: 80000000 cycles: 109908259 heartbeat IPC: 0.567376 cumulative IPC: 0.568339 (Simulation time: 0 hr 58 min 0 sec) 
Heartbeat CPU 0 instructions: 130000003 cycles: 110648893 heartbeat IPC: 1.12562 cumulative IPC: 1.08315 (Simulation time: 0 hr 58 min 21 sec) 
Heartbeat CPU 5 instructions: 100000000 cycles: 110720548 heartbeat IPC: 0.795152 cumulative IPC: 0.800551 (Simulation time: 0 hr 58 min 23 sec) 
Heartbeat CPU 1 instructions: 170000003 cycles: 112337276 heartbeat IPC: 1.1744 cumulative IPC: 1.41538 (Simulation time: 0 hr 59 min 11 sec) 
Heartbeat CPU 4 instructions: 120000000 cycles: 113478564 heartbeat IPC: 0.903549 cumulative IPC: 0.973989 (Simulation time: 0 hr 59 min 46 sec) 
Finished CPU 4 instructions: 100000002 cycles: 102600706 cumulative IPC: 0.974652 (Simulation time: 1 hr 0 min 37 sec) 
Heartbeat CPU 2 instructions: 60000000 cycles: 118187337 heartbeat IPC: 0.376807 cumulative IPC: 0.338931 (Simulation time: 1 hr 1 min 59 sec) 
Heartbeat CPU 1 instructions: 180000000 cycles: 118528603 heartbeat IPC: 1.61516 cumulative IPC: 1.42706 (Simulation time: 1 hr 2 min 8 sec) 
Heartbeat CPU 0 instructions: 140000000 cycles: 119584339 heartbeat IPC: 1.11914 cumulative IPC: 1.08616 (Simulation time: 1 hr 2 min 36 sec) 
Heartbeat CPU 5 instructions: 110000000 cycles: 123083873 heartbeat IPC: 0.808844 cumulative IPC: 0.801479 (Simulation time: 1 hr 4 min 14 sec) 
Heartbeat CPU 4 instructions: 130000001 cycles: 124215666 heartbeat IPC: 0.93135 cumulative IPC: 0.969886 (Simulation time: 1 hr 4 min 46 sec) 
Heartbeat CPU 1 instructions: 190000000 cycles: 124693948 heartbeat IPC: 1.62197 cumulative IPC: 1.43778 (Simulation time: 1 hr 5 min 0 sec) 
Heartbeat CPU 3 instructions: 90000003 cycles: 127487471 heartbeat IPC: 0.568854 cumulative IPC: 0.568417 (Simulation time: 1 hr 6 min 20 sec) 
Heartbeat CPU 6 instructions: 70000000 cycles: 128156384 heartbeat IPC: 0.431449 cumulative IPC: 0.432808 (Simulation time: 1 hr 6 min 39 sec) 
Heartbeat CPU 0 instructions: 150000001 cycles: 128600038 heartbeat IPC: 1.10918 cumulative IPC: 1.08795 (Simulation time: 1 hr 6 min 51 sec) 
Heartbeat CPU 1 instructions: 200000000 cycles: 130877446 heartbeat IPC: 1.61721 cumulative IPC: 1.44716 (Simulation time: 1 hr 7 min 57 sec) 
Heartbeat CPU 7 instructions: 80000000 cycles: 131579844 heartbeat IPC: 0.425482 cumulative IPC: 0.424528 (Simulation time: 1 hr 8 min 17 sec) 
Heartbeat CPU 5 instructions: 120000000 cycles: 132224680 heartbeat IPC: 1.094 cumulative IPC: 0.823837 (Simulation time: 1 hr 8 min 36 sec) 
Finished CPU 5 instructions: 100000001 cycles: 120898760 cumulative IPC: 0.827138 (Simulation time: 1 hr 9 min 14 sec) 
Heartbeat CPU 4 instructions: 140000000 cycles: 134877079 heartbeat IPC: 0.937962 cumulative IPC: 0.967102 (Simulation time: 1 hr 9 min 52 sec) 
Heartbeat CPU 1 instructions: 210000002 cycles: 137178154 heartbeat IPC: 1.58712 cumulative IPC: 1.45424 (Simulation time: 1 hr 10 min 55 sec) 
Heartbeat CPU 0 instructions: 160000000 cycles: 137678996 heartbeat IPC: 1.10145 cumulative IPC: 1.08893 (Simulation time: 1 hr 11 min 8 sec) 
Heartbeat CPU 5 instructions: 130000001 cycles: 142178682 heartbeat IPC: 1.00462 cumulative IPC: 0.837728 (Simulation time: 1 hr 13 min 5 sec) 
Heartbeat CPU 2 instructions: 70000001 cycles: 143531386 heartbeat IPC: 0.39457 cumulative IPC: 0.349704 (Simulation time: 1 hr 13 min 40 sec) 
Heartbeat CPU 3 instructions: 100000000 cycles: 145019273 heartbeat IPC: 0.570392 cumulative IPC: 0.568679 (Simulation time: 1 hr 14 min 19 sec) 
Heartbeat CPU 4 instructions: 150000002 cycles: 145905912 heartbeat IPC: 0.906714 cumulative IPC: 0.962104 (Simulation time: 1 hr 14 min 43 sec) 
Heartbeat CPU 1 instructions: 220000000 cycles: 146245631 heartbeat IPC: 1.10284 cumulative IPC: 1.4304 (Simulation time: 1 hr 14 min 51 sec) 
Heartbeat CPU 0 instructions: 170000000 cycles: 146766749 heartbeat IPC: 1.10038 cumulative IPC: 1.0897 (Simulation time: 1 hr 15 min 5 sec) 
Heartbeat CPU 6 instructions: 80000000 cycles: 150945265 heartbeat IPC: 0.43881 cumulative IPC: 0.433797 (Simulation time: 1 hr 16 min 54 sec) 
Heartbeat CPU 7 instructions: 90000000 cycles: 151422125 heartbeat IPC: 0.503974 cumulative IPC: 0.435887 (Simulation time: 1 hr 17 min 7 sec) 
Heartbeat CPU 1 instructions: 230000003 cycles: 155026386 heartbeat IPC: 1.13885 cumulative IPC: 1.41242 (Simulation time: 1 hr 18 min 47 sec) 
Heartbeat CPU 0 instructions: 180000000 cycles: 156010531 heartbeat IPC: 1.08181 cumulative IPC: 1.08919 (Simulation time: 1 hr 19 min 15 sec) 
Heartbeat CPU 4 instructions: 160000000 cycles: 156402807 heartbeat IPC: 0.952662 cumulative IPC: 0.961415 (Simulation time: 1 hr 19 min 27 sec) 
Heartbeat CPU 5 instructions: 140000000 cycles: 158299691 heartbeat IPC: 0.620309 cumulative IPC: 0.813666 (Simulation time: 1 hr 20 min 22 sec) 
Heartbeat CPU 1 instructions: 240000000 cycles: 162548843 heartbeat IPC: 1.32935 cumulative IPC: 1.40825 (Simulation time: 1 hr 22 min 17 sec) 
Heartbeat CPU 3 instructions: 110000002 cycles: 162559021 heartbeat IPC: 0.570134 cumulative IPC: 0.568849 (Simulation time: 1 hr 22 min 18 sec) 
Heartbeat CPU 2 instructions: 80000000 cycles: 162582542 heartbeat IPC: 0.524902 cumulative IPC: 0.371963 (Simulation time: 1 hr 22 min 18 sec) 
Heartbeat CPU 0 instructions: 190000002 cycles: 165238503 heartbeat IPC: 1.08366 cumulative IPC: 1.08886 (Simulation time: 1 hr 23 min 27 sec) 
Heartbeat CPU 4 instructions: 170000003 cycles: 165504359 heartbeat IPC: 1.09871 cumulative IPC: 0.969589 (Simulation time: 1 hr 23 min 34 sec) 
Heartbeat CPU 1 instructions: 250000002 cycles: 170052158 heartbeat IPC: 1.33274 cumulative IPC: 1.40465 (Simulation time: 1 hr 25 min 32 sec) 
Heartbeat CPU 5 instructions: 150000000 cycles: 173852715 heartbeat IPC: 0.642962 cumulative IPC: 0.797198 (Simulation time: 1 hr 27 min 14 sec) 
Heartbeat CPU 6 instructions: 90000001 cycles: 174272623 heartbeat IPC: 0.428681 cumulative IPC: 0.433058 (Simulation time: 1 hr 27 min 26 sec) 
Heartbeat CPU 0 instructions: 200000000 cycles: 174372835 heartbeat IPC: 1.09477 cumulative IPC: 1.08919 (Simulation time: 1 hr 27 min 28 sec) 
Heartbeat CPU 4 instructions: 180000000 cycles: 175305280 heartbeat IPC: 1.02031 cumulative IPC: 0.972645 (Simulation time: 1 hr 27 min 53 sec) 
Heartbeat CPU 7 instructions: 100000000 cycles: 175520950 heartbeat IPC: 0.414958 cumulative IPC: 0.43279 (Simulation time: 1 hr 27 min 58 sec) 
Heartbeat CPU 1 instructions: 260000000 cycles: 177551367 heartbeat IPC: 1.33347 cumulative IPC: 1.40142 (Simulation time: 1 hr 28 min 52 sec) 
Heartbeat CPU 3 instructions: 120000000 cycles: 179108355 heartbeat IPC: 0.604254 cumulative IPC: 0.572369 (Simulation time: 1 hr 29 min 33 sec) 
Heartbeat CPU 2 instructions: 90000000 cycles: 180295782 heartbeat IPC: 0.564549 cumulative IPC: 0.392309 (Simulation time: 1 hr 30 min 4 sec) 
Heartbeat CPU 1 instructions: 270000000 cycles: 183878337 heartbeat IPC: 1.58054 cumulative IPC: 1.40803 (Simulation time: 1 hr 31 min 39 sec) 
Heartbeat CPU 0 instructions: 210000002 cycles: 184469265 heartbeat IPC: 0.990449 cumulative IPC: 1.08339 (Simulation time: 1 hr 31 min 55 sec) 
Heartbeat CPU 4 instructions: 190000002 cycles: 185235433 heartbeat IPC: 1.00703 cumulative IPC: 0.974624 (Simulation time: 1 hr 32 min 16 sec) 
Finished CPU 3 instructions: 100000002 cycles: 173849078 cumulative IPC: 0.575212 (Simulation time: 1 hr 32 min 50 sec) 
Heartbeat CPU 5 instructions: 160000000 cycles: 189153801 heartbeat IPC: 0.653548 cumulative IPC: 0.784746 (Simulation time: 1 hr 34 min 0 sec) 
Heartbeat CPU 1 instructions: 280000000 cycles: 190873883 heartbeat IPC: 1.42948 cumulative IPC: 1.40888 (Simulation time: 1 hr 34 min 45 sec) 
Heartbeat CPU 0 instructions: 220000000 cycles: 194580036 heartbeat IPC: 0.989044 cumulative IPC: 1.07815 (Simulation time: 1 hr 36 min 22 sec) 
Heartbeat CPU 4 instructions: 200000000 cycles: 195182743 heartbeat IPC: 1.0053 cumulative IPC: 0.976295 (Simulation time: 1 hr 36 min 39 sec) 
Heartbeat CPU 3 instructions: 130000003 cycles: 197005714 heartbeat IPC: 0.558742 cumulative IPC: 0.571046 (Simulation time: 1 hr 37 min 29 sec) 
Heartbeat CPU 6 instructions: 100000000 cycles: 197469939 heartbeat IPC: 0.431084 cumulative IPC: 0.432811 (Simulation time: 1 hr 37 min 42 sec) 
Heartbeat CPU 1 instructions: 290000000 cycles: 198399023 heartbeat IPC: 1.32888 cumulative IPC: 1.40563 (Simulation time: 1 hr 38 min 8 sec) 
Heartbeat CPU 2 instructions: 100000000 cycles: 201270093 heartbeat IPC: 0.476774 cumulative IPC: 0.4017 (Simulation time: 1 hr 39 min 30 sec) 
Heartbeat CPU 5 instructions: 170000003 cycles: 203386581 heartbeat IPC: 0.702604 cumulative IPC: 0.778618 (Simulation time: 1 hr 40 min 30 sec) 
Heartbeat CPU 0 instructions: 230000002 cycles: 203548151 heartbeat IPC: 1.11506 cumulative IPC: 1.07988 (Simulation time: 1 hr 40 min 35 sec) 
Heartbeat CPU 4 instructions: 210000002 cycles: 204730880 heartbeat IPC: 1.04732 cumulative IPC: 0.979826 (Simulation time: 1 hr 41 min 8 sec) 
Heartbeat CPU 7 instructions: 110000002 cycles: 205166418 heartbeat IPC: 0.33732 cumulative IPC: 0.41809 (Simulation time: 1 hr 41 min 20 sec) 
Heartbeat CPU 1 instructions: 300000000 cycles: 205924122 heartbeat IPC: 1.32889 cumulative IPC: 1.40265 (Simulation time: 1 hr 41 min 41 sec) 
Heartbeat CPU 0 instructions: 240000000 cycles: 212577316 heartbeat IPC: 1.10752 cumulative IPC: 1.08113 (Simulation time: 1 hr 44 min 51 sec) 
Heartbeat CPU 1 instructions: 310000001 cycles: 213459279 heartbeat IPC: 1.32711 cumulative IPC: 1.39981 (Simulation time: 1 hr 45 min 16 sec) 
Heartbeat CPU 4 instructions: 220000000 cycles: 213660152 heartbeat IPC: 1.11991 cumulative IPC: 0.986048 (Simulation time: 1 hr 45 min 22 sec) 
Heartbeat CPU 3 instructions: 140000000 cycles: 214445823 heartbeat IPC: 0.573391 cumulative IPC: 0.571249 (Simulation time: 1 hr 45 min 44 sec) 
Heartbeat CPU 5 instructions: 180000000 cycles: 217549113 heartbeat IPC: 0.706088 cumulative IPC: 0.773605 (Simulation time: 1 hr 47 min 12 sec) 
Heartbeat CPU 1 instructions: 320000000 cycles: 219974053 heartbeat IPC: 1.53497 cumulative IPC: 1.40406 (Simulation time: 1 hr 48 min 20 sec) 
Heartbeat CPU 6 instructions: 110000001 cycles: 220113266 heartbeat IPC: 0.441631 cumulative IPC: 0.433773 (Simulation time: 1 hr 48 min 23 sec) 
Heartbeat CPU 0 instructions: 250000003 cycles: 221718199 heartbeat IPC: 1.09399 cumulative IPC: 1.08169 (Simulation time: 1 hr 49 min 9 sec) 
Heartbeat CPU 4 instructions: 230000001 cycles: 222455470 heartbeat IPC: 1.13697 cumulative IPC: 0.992374 (Simulation time: 1 hr 49 min 27 sec) 
Heartbeat CPU 7 instructions: 120000000 cycles: 226666272 heartbeat IPC: 0.465119 cumulative IPC: 0.422814 (Simulation time: 1 hr 51 min 14 sec) 
Heartbeat CPU 1 instructions: 330000002 cycles: 227029532 heartbeat IPC: 1.41734 cumulative IPC: 1.4045 (Simulation time: 1 hr 51 min 24 sec) 
Heartbeat CPU 2 instructions: 110000000 cycles: 230090550 heartbeat IPC: 0.346976 cumulative IPC: 0.394448 (Simulation time: 1 hr 52 min 45 sec) 
Heartbeat CPU 5 instructions: 190000001 cycles: 230257548 heartbeat IPC: 0.786879 cumulative IPC: 0.77438 (Simulation time: 1 hr 52 min 49 sec) 
Heartbeat CPU 0 instructions: 260000000 cycles: 230649386 heartbeat IPC: 1.11967 cumulative IPC: 1.08325 (Simulation time: 1 hr 52 min 59 sec) 
Heartbeat CPU 3 instructions: 150000000 cycles: 231920627 heartbeat IPC: 0.572253 cumulative IPC: 0.571329 (Simulation time: 1 hr 53 min 30 sec) 
Heartbeat CPU 4 instructions: 240000000 cycles: 232548284 heartbeat IPC: 0.990804 cumulative IPC: 0.992302 (Simulation time: 1 hr 53 min 46 sec) 
Heartbeat CPU 1 instructions: 340000000 cycles: 234780532 heartbeat IPC: 1.29016 cumulative IPC: 1.40051 (Simulation time: 1 hr 54 min 42 sec) 
Heartbeat CPU 0 instructions: 270000001 cycles: 239558462 heartbeat IPC: 1.12245 cumulative IPC: 1.08479 (Simulation time: 1 hr 56 min 36 sec) 
Heartbeat CPU 6 instructions: 120000000 cycles: 242760476 heartbeat IPC: 0.441555 cumulative IPC: 0.434539 (Simulation time: 1 hr 57 min 50 sec) 
Finished CPU 6 instructions: 100000001 cycles: 230128889 cumulative IPC: 0.434539 (Simulation time: 1 hr 57 min 50 sec) 
Heartbeat CPU 1 instructions: 350000000 cycles: 242861309 heartbeat IPC: 1.2375 cumulative IPC: 1.39479 (Simulation time: 1 hr 57 min 53 sec) 
Heartbeat CPU 4 instructions: 250000003 cycles: 243202487 heartbeat IPC: 0.938597 cumulative IPC: 0.989821 (Simulation time: 1 hr 58 min 1 sec) 
Heartbeat CPU 5 instructions: 200000000 cycles: 245450653 heartbeat IPC: 0.658193 cumulative IPC: 0.766798 (Simulation time: 1 hr 58 min 54 sec) 
Finished CPU 7 instructions: 100000000 cycles: 234221909 cumulative IPC: 0.426946 (Simulation time: 1 hr 59 min 31 sec) 
Heartbeat CPU 7 instructions: 130000001 cycles: 248085075 heartbeat IPC: 0.46688 cumulative IPC: 0.426823 (Simulation time: 2 hr 0 min 3 sec) 
Heartbeat CPU 0 instructions: 280000000 cycles: 248631363 heartbeat IPC: 1.10218 cumulative IPC: 1.08546 (Simulation time: 2 hr 0 min 17 sec) 
Heartbeat CPU 1 instructions: 360000000 cycles: 249364211 heartbeat IPC: 1.53778 cumulative IPC: 1.39871 (Simulation time: 2 hr 0 min 36 sec) 
Heartbeat CPU 3 instructions: 160000000 cycles: 249496415 heartbeat IPC: 0.568965 cumulative IPC: 0.571153 (Simulation time: 2 hr 0 min 40 sec) 
Heartbeat CPU 4 instructions: 260000000 cycles: 253388954 heartbeat IPC: 0.981694 cumulative IPC: 0.989477 (Simulation time: 2 hr 2 min 21 sec) 
Heartbeat CPU 1 instructions: 370000003 cycles: 256971273 heartbeat IPC: 1.31457 cumulative IPC: 1.39609 (Simulation time: 2 hr 3 min 51 sec) 
Heartbeat CPU 5 instructions: 210000001 cycles: 257633060 heartbeat IPC: 0.820856 cumulative IPC: 0.769486 (Simulation time: 2 hr 4 min 8 sec) 
Heartbeat CPU 0 instructions: 290000002 cycles: 257696542 heartbeat IPC: 1.10312 cumulative IPC: 1.08611 (Simulation time: 2 hr 4 min 9 sec) 
Heartbeat CPU 2 instructions: 120000000 cycles: 260666461 heartbeat IPC: 0.327055 cumulative IPC: 0.38614 (Simulation time: 2 hr 5 min 23 sec) 
Heartbeat CPU 4 instructions: 270000003 cycles: 263796490 heartbeat IPC: 0.960842 cumulative IPC: 0.98829 (Simulation time: 2 hr 6 min 43 sec) 
Heartbeat CPU 1 instructions: 380000000 cycles: 264850812 heartbeat IPC: 1.26911 cumulative IPC: 1.39213 (Simulation time: 2 hr 7 min 9 sec) 
Heartbeat CPU 6 instructions: 130000000 cycles: 265716419 heartbeat IPC: 0.435617 cumulative IPC: 0.434637 (Simulation time: 2 hr 7 min 31 sec) 
Heartbeat CPU 0 instructions: 300000000 cycles: 266663152 heartbeat IPC: 1.11525 cumulative IPC: 1.08714 (Simulation time: 2 hr 7 min 54 sec) 
Heartbeat CPU 3 instructions: 170000003 cycles: 267028515 heartbeat IPC: 0.570382 cumulative IPC: 0.5711 (Simulation time: 2 hr 8 min 3 sec) 
Heartbeat CPU 1 instructions: 390000001 cycles: 271527805 heartbeat IPC: 1.49768 cumulative IPC: 1.39485 (Simulation time: 2 hr 9 min 50 sec) 
Heartbeat CPU 5 instructions: 220000000 cycles: 272125159 heartbeat IPC: 0.690031 cumulative IPC: 0.765049 (Simulation time: 2 hr 10 min 4 sec) 
Heartbeat CPU 7 instructions: 140000000 cycles: 272483993 heartbeat IPC: 0.409854 cumulative IPC: 0.42523 (Simulation time: 2 hr 10 min 12 sec) 
Finished CPU 2 instructions: 100000000 cycles: 260090836 cumulative IPC: 0.384481 (Simulation time: 2 hr 10 min 18 sec) 

CPU 0 Branch Prediction Accuracy: 99.9706% MPKI: 0.00722966

CPU 1 Branch Prediction Accuracy: 96.8165% MPKI: 4.41873

CPU 2 Branch Prediction Accuracy: 99.2646% MPKI: 1.80349

CPU 3 Branch Prediction Accuracy: 99.964% MPKI: 0.0272979

CPU 4 Branch Prediction Accuracy: 99.7258% MPKI: 0.00519601

CPU 5 Branch Prediction Accuracy: 99.7541% MPKI: 0.0951468

CPU 6 Branch Prediction Accuracy: 84.8317% MPKI: 16.4578

CPU 7 Branch Prediction Accuracy: 99.9797% MPKI: 0.048366

ChampSim completed all CPUs

Total Simulation Statistics (not including warmup)

CPU 0 cumulative IPC: 1.08718 instructions: 282764411 cycles: 260090836
L1D TOTAL     ACCESS:  107311182  HIT:  101439110  MISS:    5872072
L1D LOAD      ACCESS:   91613627  HIT:   85920826  MISS:    5692801
L1D RFO       ACCESS:   15697555  HIT:   15518284  MISS:     179271
L1D PREFETCH  ACCESS:          0  HIT:          0  MISS:          0
L1D WRITEBACK ACCESS:          0  HIT:          0  MISS:          0
L1I TOTAL     ACCESS:   70273446  HIT:   70273446  MISS:          0
L1I LOAD      ACCESS:   70273446  HIT:   70273446  MISS:          0
L1I RFO       ACCESS:          0  HIT:          0  MISS:          0
L1I PREFETCH  ACCESS:          0  HIT:          0  MISS:          0
L1I WRITEBACK ACCESS:          0  HIT:          0  MISS:          0
L2C TOTAL     ACCESS:    8879141  HIT:    3499331  MISS:    5379810
L2C LOAD      ACCESS:    5691256  HIT:    2106196  MISS:    3585060
L2C RFO       ACCESS:     175889  HIT:      38114  MISS:     137775
L2C PREFETCH  ACCESS:    2816884  HIT:    1160674  MISS:    1656210
L2C WRITEBACK ACCESS:     195112  HIT:     194347  MISS:        765
LLC TOTAL     ACCESS:   16458310  HIT:   11084592  MISS:    5373718
LLC LOAD      ACCESS:    3001571  HIT:    2745471  MISS:     256100
LLC RFO       ACCESS:     137775  HIT:          0  MISS:     137775
LLC PREFETCH  ACCESS:   13180268  HIT:    8200543  MISS:    4979725
LLC WRITEBACK ACCESS:     138696  HIT:     138578  MISS:        118

CPU 1 cumulative IPC: 1.39502 instructions: 362831640 cycles: 260090836
L1D TOTAL     ACCESS:  101602109  HIT:  101602089  MISS:         20
L1D LOAD      ACCESS:   46246264  HIT:   46246244  MISS:         20
L1D RFO       ACCESS:   55355845  HIT:   55355845  MISS:          0
L1D PREFETCH  ACCESS:          0  HIT:          0  MISS:          0
L1D WRITEBACK ACCESS:          0  HIT:          0  MISS:          0
L1I TOTAL     ACCESS:   81668761  HIT:   81613395  MISS:      55366
L1I LOAD      ACCESS:   81668761  HIT:   81613395  MISS:      55366
L1I RFO       ACCESS:          0  HIT:          0  MISS:          0
L1I PREFETCH  ACCESS:          0  HIT:          0  MISS:          0
L1I WRITEBACK ACCESS:          0  HIT:          0  MISS:          0
L2C TOTAL     ACCESS:     159063  HIT:     159004  MISS:         59
L2C LOAD      ACCESS:      55386  HIT:      55351  MISS:         35
L2C RFO       ACCESS:          0  HIT:          0  MISS:          0
L2C PREFETCH  ACCESS:     103677  HIT:     103653  MISS:         24
L2C WRITEBACK ACCESS:          0  HIT:          0  MISS:          0
LLC TOTAL     ACCESS:       2712  HIT:       1300  MISS:       1412
LLC LOAD      ACCESS:         35  HIT:         11  MISS:         24
LLC RFO       ACCESS:          0  HIT:          0  MISS:          0
LLC PREFETCH  ACCESS:       2677  HIT:       1289  MISS:       1388
LLC WRITEBACK ACCESS:          0  HIT:          0  MISS:          0

CPU 2 cumulative IPC: 0.384481 instructions: 100000000 cycles: 260090836
L1D TOTAL     ACCESS:   24301346  HIT:   19252240  MISS:    5049106
L1D LOAD      ACCESS:   17360270  HIT:   12515464  MISS:    4844806
L1D RFO       ACCESS:    6941076  HIT:    6736776  MISS:     204300
L1D PREFETCH  ACCESS:          0  HIT:          0  MISS:          0
L1D WRITEBACK ACCESS:          0  HIT:          0  MISS:          0
L1I TOTAL     ACCESS:   43549013  HIT:   43297896  MISS:     251117
L1I LOAD      ACCESS:   43549013  HIT:   43297896  MISS:     251117
L1I RFO       ACCESS:          0  HIT:          0  MISS:          0
L1I PREFETCH  ACCESS:          0  HIT:          0  MISS:          0
L1I WRITEBACK ACCESS:          0  HIT:          0  MISS:          0
L2C TOTAL     ACCESS:    8848536  HIT:    6722689  MISS:    2125847
L2C LOAD      ACCESS:    5095881  HIT:    3230003  MISS:    1865878
L2C RFO       ACCESS:     204295  HIT:      34219  MISS:     170076
L2C PREFETCH  ACCESS:    3232901  HIT:    3143021  MISS:      89880
L2C WRITEBACK ACCESS:     315459  HIT:     315446  MISS:         13
LLC TOTAL     ACCESS:    5973652  HIT:    5502375  MISS:     471277
LLC LOAD      ACCESS:    1827286  HIT:    1778636  MISS:      48650
LLC RFO       ACCESS:     170029  HIT:      14875  MISS:     155154
LLC PREFETCH  ACCESS:    3753478  HIT:    3491428  MISS:     262050
LLC WRITEBACK ACCESS:     222859  HIT:     217436  MISS:       5423

CPU 3 cumulative IPC: 0.571037 instructions: 148521454 cycles: 260090836
L1D TOTAL     ACCESS:   44087982  HIT:   43115857  MISS:     972125
L1D LOAD      ACCESS:   28048354  HIT:   27409253  MISS:     639101
L1D RFO       ACCESS:   16039628  HIT:   15706604  MISS:     333024
L1D PREFETCH  ACCESS:          0  HIT:          0  MISS:          0
L1D WRITEBACK ACCESS:          0  HIT:          0  MISS:          0
L1I TOTAL     ACCESS:   58268938  HIT:   58268875  MISS:         63
L1I LOAD      ACCESS:   58268938  HIT:   58268875  MISS:         63
L1I RFO       ACCESS:          0  HIT:          0  MISS:          0
L1I PREFETCH  ACCESS:          0  HIT:          0  MISS:          0
L1I WRITEBACK ACCESS:          0  HIT:          0  MISS:          0
L2C TOTAL     ACCESS:    1565765  HIT:     595162  MISS:     970603
L2C LOAD      ACCESS:     639164  HIT:     243668  MISS:     395496
L2C RFO       ACCESS:     333024  HIT:          0  MISS:     333024
L2C PREFETCH  ACCESS:     258498  HIT:      16818  MISS:     241680
L2C WRITEBACK ACCESS:     335079  HIT:     334676  MISS:        403
LLC TOTAL     ACCESS:    2647064  HIT:    1600199  MISS:    1046865
LLC LOAD      ACCESS:     279415  HIT:     219067  MISS:      60348
LLC RFO       ACCESS:     333024  HIT:          5  MISS:     333019
LLC PREFETCH  ACCESS:    1701592  HIT:    1098163  MISS:     603429
LLC WRITEBACK ACCESS:     333033  HIT:     282964  MISS:      50069

CPU 4 cumulative IPC: 0.98841 instructions: 257076427 cycles: 260090836
L1D TOTAL     ACCESS:   78058931  HIT:   49395128  MISS:   28663803
L1D LOAD      ACCESS:   49997833  HIT:   23385360  MISS:   26612473
L1D RFO       ACCESS:   28061098  HIT:   26009768  MISS:    2051330
L1D PREFETCH  ACCESS:          0  HIT:          0  MISS:          0
L1D WRITEBACK ACCESS:          0  HIT:          0  MISS:          0
L1I TOTAL     ACCESS:   64426906  HIT:   63643459  MISS:     783447
L1I LOAD      ACCESS:   64426906  HIT:   63643459  MISS:     783447
L1I RFO       ACCESS:          0  HIT:          0  MISS:          0
L1I PREFETCH  ACCESS:          0  HIT:          0  MISS:          0
L1I WRITEBACK ACCESS:          0  HIT:          0  MISS:          0
L2C TOTAL     ACCESS:   41463475  HIT:   33799531  MISS:    7663944
L2C LOAD      ACCESS:   27281840  HIT:   21147446  MISS:    6134394
L2C RFO       ACCESS:    2049764  HIT:     787574  MISS:    1262190
L2C PREFETCH  ACCESS:    9815653  HIT:    9548384  MISS:     267269
L2C WRITEBACK ACCESS:    2316218  HIT:    2316127  MISS:         91
LLC TOTAL     ACCESS:   20915833  HIT:   19080032  MISS:    1835801
LLC LOAD      ACCESS:    6114431  HIT:    5527497  MISS:     586934
LLC RFO       ACCESS:    1088304  HIT:    1070602  MISS:      17702
LLC PREFETCH  ACCESS:   12395241  HIT:   11164634  MISS:    1230607
LLC WRITEBACK ACCESS:    1317857  HIT:    1317299  MISS:        558

CPU 5 cumulative IPC: 0.764327 instructions: 198794550 cycles: 260090836
L1D TOTAL     ACCESS:   55065949  HIT:   48469035  MISS:    6596914
L1D LOAD      ACCESS:   49126488  HIT:   43744183  MISS:    5382305
L1D RFO       ACCESS:    5939461  HIT:    4724852  MISS:    1214609
L1D PREFETCH  ACCESS:          0  HIT:          0  MISS:          0
L1D WRITEBACK ACCESS:          0  HIT:          0  MISS:          0
L1I TOTAL     ACCESS:   47600426  HIT:   47599656  MISS:        770
L1I LOAD      ACCESS:   47600426  HIT:   47599656  MISS:        770
L1I RFO       ACCESS:          0  HIT:          0  MISS:          0
L1I PREFETCH  ACCESS:          0  HIT:          0  MISS:          0
L1I WRITEBACK ACCESS:          0  HIT:          0  MISS:          0
L2C TOTAL     ACCESS:   14893938  HIT:    9586787  MISS:    5307151
L2C LOAD      ACCESS:    5382857  HIT:    3241091  MISS:    2141766
L2C RFO       ACCESS:    1214515  HIT:        228  MISS:    1214287
L2C PREFETCH  ACCESS:    6636859  HIT:    4686056  MISS:    1950803
L2C WRITEBACK ACCESS:    1659707  HIT:    1659412  MISS:        295
LLC TOTAL     ACCESS:   18598587  HIT:   13185741  MISS:    5412846
LLC LOAD      ACCESS:    1723561  HIT:    1432384  MISS:     291177
LLC RFO       ACCESS:    1214287  HIT:      11627  MISS:    1202660
LLC PREFETCH  ACCESS:   14013789  HIT:   10094859  MISS:    3918930
LLC WRITEBACK ACCESS:    1646950  HIT:    1646871  MISS:         79

CPU 6 cumulative IPC: 0.434577 instructions: 113029574 cycles: 260090836
L1D TOTAL     ACCESS:   37162525  HIT:   36800941  MISS:     361584
L1D LOAD      ACCESS:   24272809  HIT:   23955444  MISS:     317365
L1D RFO       ACCESS:   12889716  HIT:   12845497  MISS:      44219
L1D PREFETCH  ACCESS:          0  HIT:          0  MISS:          0
L1D WRITEBACK ACCESS:          0  HIT:          0  MISS:          0
L1I TOTAL     ACCESS:   25884459  HIT:   25877237  MISS:       7222
L1I LOAD      ACCESS:   25884459  HIT:   25877237  MISS:       7222
L1I RFO       ACCESS:          0  HIT:          0  MISS:          0
L1I PREFETCH  ACCESS:          0  HIT:          0  MISS:          0
L1I WRITEBACK ACCESS:          0  HIT:          0  MISS:          0
L2C TOTAL     ACCESS:     868106  HIT:     852858  MISS:      15248
L2C LOAD      ACCESS:     324586  HIT:     312439  MISS:      12147
L2C RFO       ACCESS:      44219  HIT:      43136  MISS:       1083
L2C PREFETCH  ACCESS:     420113  HIT:     418137  MISS:       1976
L2C WRITEBACK ACCESS:      79188  HIT:      79146  MISS:         42
LLC TOTAL     ACCESS:      98465  HIT:      50849  MISS:      47616
LLC LOAD      ACCESS:      11321  HIT:       3482  MISS:       7839
LLC RFO       ACCESS:       1073  HIT:        394  MISS:        679
LLC PREFETCH  ACCESS:      83254  HIT:      46518  MISS:      36736
LLC WRITEBACK ACCESS:       2817  HIT:        455  MISS:       2362

CPU 7 cumulative IPC: 0.425164 instructions: 110581271 cycles: 260090837
L1D TOTAL     ACCESS:   23347641  HIT:   20570765  MISS:    2776876
L1D LOAD      ACCESS:   21391054  HIT:   18614178  MISS:    2776876
L1D RFO       ACCESS:    1956587  HIT:    1956587  MISS:          0
L1D PREFETCH  ACCESS:          0  HIT:          0  MISS:          0
L1D WRITEBACK ACCESS:          0  HIT:          0  MISS:          0
L1I TOTAL     ACCESS:   39477192  HIT:   39477192  MISS:          0
L1I LOAD      ACCESS:   39477192  HIT:   39477192  MISS:          0
L1I RFO       ACCESS:          0  HIT:          0  MISS:          0
L1I PREFETCH  ACCESS:          0  HIT:          0  MISS:          0
L1I WRITEBACK ACCESS:          0  HIT:          0  MISS:          0
L2C TOTAL     ACCESS:    3318133  HIT:     531916  MISS:    2786217
L2C LOAD      ACCESS:    2776876  HIT:     466672  MISS:    2310204
L2C RFO       ACCESS:          0  HIT:          0  MISS:          0
L2C PREFETCH  ACCESS:     541183  HIT:      65170  MISS:     476013
L2C WRITEBACK ACCESS:         74  HIT:         74  MISS:          0
LLC TOTAL     ACCESS:    6017759  HIT:    4028891  MISS:    1988868
LLC LOAD      ACCESS:    1969821  HIT:    1495486  MISS:     474335
LLC RFO       ACCESS:          0  HIT:          0  MISS:          0
LLC PREFETCH  ACCESS:    4047871  HIT:    2533338  MISS:    1514533
LLC WRITEBACK ACCESS:         67  HIT:         67  MISS:          0

Region of Interest Statistics

CPU 0 cumulative IPC: 1.08118 instructions: 100000000 cycles: 92491928
L1D TOTAL     ACCESS:   37945106  HIT:   35868623  MISS:    2076483
L1D LOAD      ACCESS:   32396986  HIT:   30383779  MISS:    2013207
L1D RFO       ACCESS:    5548120  HIT:    5484844  MISS:      63276
L1D PREFETCH  ACCESS:          0  HIT:          0  MISS:          0
L1D WRITEBACK ACCESS:          0  HIT:          0  MISS:          0
L1D PREFETCH  REQUESTED:          0  ISSUED:          0  USEFUL:          0  USELESS:          0
L1I TOTAL     ACCESS:   24849636  HIT:   24849636  MISS:          0
L1I LOAD      ACCESS:   24849636  HIT:   24849636  MISS:          0
L1I RFO       ACCESS:          0  HIT:          0  MISS:          0
L1I PREFETCH  ACCESS:          0  HIT:          0  MISS:          0
L1I WRITEBACK ACCESS:          0  HIT:          0  MISS:          0
L1I PREFETCH  REQUESTED:          0  ISSUED:          0  USEFUL:          0  USELESS:          0
L2C TOTAL     ACCESS:    3142087  HIT:    1239651  MISS:    1902436
L2C LOAD      ACCESS:    2012662  HIT:     738019  MISS:    1274643
L2C RFO       ACCESS:      62089  HIT:      13365  MISS:      48724
L2C PREFETCH  ACCESS:     998425  HIT:     419563  MISS:     578862
L2C WRITEBACK ACCESS:      68911  HIT:      68704  MISS:        207
L2C PREFETCH  REQUESTED:   26510599  ISSUED:   21761498  USEFUL:    1842565  USELESS:        648
LLC TOTAL     ACCESS:    5806191  HIT:    3905759  MISS:    1900432
LLC LOAD      ACCESS:    1073998  HIT:     982387  MISS:      91611
LLC RFO       ACCESS:      48724  HIT:          0  MISS:      48724
LLC PREFETCH  ACCESS:    4634493  HIT:    2874438  MISS:    1760055
LLC WRITEBACK ACCESS:      48976  HIT:      48934  MISS:         42
LLC PREFETCH  REQUESTED:          0  ISSUED:          0  USEFUL:    7181258  USELESS:    6510687
Major fault: 0 Minor fault: 86654

CPU 1 cumulative IPC: 1.47638 instructions: 100000002 cycles: 67733034
L1D TOTAL     ACCESS:   28208426  HIT:   28208424  MISS:          2
L1D LOAD      ACCESS:   12489162  HIT:   12489160  MISS:          2
L1D RFO       ACCESS:   15719264  HIT:   15719264  MISS:          0
L1D PREFETCH  ACCESS:          0  HIT:          0  MISS:          0
L1D WRITEBACK ACCESS:          0  HIT:          0  MISS:          0
L1D PREFETCH  REQUESTED:          0  ISSUED:          0  USEFUL:          0  USELESS:          0
L1I TOTAL     ACCESS:   22094951  HIT:   22088535  MISS:       6416
L1I LOAD      ACCESS:   22094951  HIT:   22088535  MISS:       6416
L1I RFO       ACCESS:          0  HIT:          0  MISS:          0
L1I PREFETCH  ACCESS:          0  HIT:          0  MISS:          0
L1I WRITEBACK ACCESS:          0  HIT:          0  MISS:          0
L1I PREFETCH  REQUESTED:          0  ISSUED:          0  USEFUL:          0  USELESS:          0
L2C TOTAL     ACCESS:      18091  HIT:      18079  MISS:         12
L2C LOAD      ACCESS:       6418  HIT:       6412  MISS:          6
L2C RFO       ACCESS:          0  HIT:          0  MISS:          0
L2C PREFETCH  ACCESS:      11673  HIT:      11667  MISS:          6
L2C WRITEBACK ACCESS:          0  HIT:          0  MISS:          0
L2C PREFETCH  REQUESTED:     221652  ISSUED:     221652  USEFUL:        233  USELESS:          0
LLC TOTAL     ACCESS:        357  HIT:        155  MISS:        202
LLC LOAD      ACCESS:          6  HIT:          2  MISS:          4
LLC RFO       ACCESS:          0  HIT:          0  MISS:          0
LLC PREFETCH  ACCESS:        351  HIT:        153  MISS:        198
LLC WRITEBACK ACCESS:          0  HIT:          0  MISS:          0
LLC PREFETCH  REQUESTED:          0  ISSUED:          0  USEFUL:    7181258  USELESS:    6510687
Major fault: 0 Minor fault: 48

CPU 2 cumulative IPC: 0.384481 instructions: 100000000 cycles: 260090836
L1D TOTAL     ACCESS:   24301346  HIT:   19252240  MISS:    5049106
L1D LOAD      ACCESS:   17360270  HIT:   12515464  MISS:    4844806
L1D RFO       ACCESS:    6941076  HIT:    6736776  MISS:     204300
L1D PREFETCH  ACCESS:          0  HIT:          0  MISS:          0
L1D WRITEBACK ACCESS:          0  HIT:          0  MISS:          0
L1D PREFETCH  REQUESTED:          0  ISSUED:          0  USEFUL:          0  USELESS:          0
L1I TOTAL     ACCESS:   43549013  HIT:   43297896  MISS:     251117
L1I LOAD      ACCESS:   43549013  HIT:   43297896  MISS:     251117
L1I RFO       ACCESS:          0  HIT:          0  MISS:          0
L1I PREFETCH  ACCESS:          0  HIT:          0  MISS:          0
L1I WRITEBACK ACCESS:          0  HIT:          0  MISS:          0
L1I PREFETCH  REQUESTED:          0  ISSUED:          0  USEFUL:          0  USELESS:          0
L2C TOTAL     ACCESS:    8848536  HIT:    6722689  MISS:    2125847
L2C LOAD      ACCESS:    5095881  HIT:    3230003  MISS:    1865878
L2C RFO       ACCESS:     204295  HIT:      34219  MISS:     170076
L2C PREFETCH  ACCESS:    3232901  HIT:    3143021  MISS:      89880
L2C WRITEBACK ACCESS:     315459  HIT:     315446  MISS:         13
L2C PREFETCH  REQUESTED:   10858287  ISSUED:   10854858  USEFUL:      26940  USELESS:      85343
LLC TOTAL     ACCESS:    5973652  HIT:    5502375  MISS:     471277
LLC LOAD      ACCESS:    1827286  HIT:    1778636  MISS:      48650
LLC RFO       ACCESS:     170029  HIT:      14875  MISS:     155154
LLC PREFETCH  ACCESS:    3753478  HIT:    3491428  MISS:     262050
LLC WRITEBACK ACCESS:     222859  HIT:     217436  MISS:       5423
LLC PREFETCH  REQUESTED:          0  ISSUED:          0  USEFUL:    7181258  USELESS:    6510687
Major fault: 0 Minor fault: 4198

CPU 3 cumulative IPC: 0.575212 instructions: 100000002 cycles: 173849078
L1D TOTAL     ACCESS:   29585201  HIT:   28820401  MISS:     764800
L1D LOAD      ACCESS:   19093499  HIT:   18588883  MISS:     504616
L1D RFO       ACCESS:   10491702  HIT:   10231518  MISS:     260184
L1D PREFETCH  ACCESS:          0  HIT:          0  MISS:          0
L1D WRITEBACK ACCESS:          0  HIT:          0  MISS:          0
L1D PREFETCH  REQUESTED:          0  ISSUED:          0  USEFUL:          0  USELESS:          0
L1I TOTAL     ACCESS:   38639934  HIT:   38639871  MISS:         63
L1I LOAD      ACCESS:   38639934  HIT:   38639871  MISS:         63
L1I RFO       ACCESS:          0  HIT:          0  MISS:          0
L1I PREFETCH  ACCESS:          0  HIT:          0  MISS:          0
L1I WRITEBACK ACCESS:          0  HIT:          0  MISS:          0
L1I PREFETCH  REQUESTED:          0  ISSUED:          0  USEFUL:          0  USELESS:          0
L2C TOTAL     ACCESS:    1243415  HIT:     480772  MISS:     762643
L2C LOAD      ACCESS:     504679  HIT:     207548  MISS:     297131
L2C RFO       ACCESS:     260184  HIT:          0  MISS:     260184
L2C PREFETCH  ACCESS:     216305  HIT:      11378  MISS:     204927
L2C WRITEBACK ACCESS:     262247  HIT:     261846  MISS:        401
L2C PREFETCH  REQUESTED:    2560381  ISSUED:    2559840  USEFUL:     246175  USELESS:       4252
LLC TOTAL     ACCESS:    2153691  HIT:    1338615  MISS:     815076
LLC LOAD      ACCESS:     211365  HIT:     170125  MISS:      41240
LLC RFO       ACCESS:     260184  HIT:          5  MISS:     260179
LLC PREFETCH  ACCESS:    1421613  HIT:     941108  MISS:     480505
LLC WRITEBACK ACCESS:     260529  HIT:     227377  MISS:      33152
LLC PREFETCH  REQUESTED:          0  ISSUED:          0  USEFUL:    7181258  USELESS:    6510687
Major fault: 0 Minor fault: 14160

CPU 4 cumulative IPC: 0.974652 instructions: 100000002 cycles: 102600706
L1D TOTAL     ACCESS:   32367981  HIT:   21885605  MISS:   10482376
L1D LOAD      ACCESS:   22064633  HIT:   12349750  MISS:    9714883
L1D RFO       ACCESS:   10303348  HIT:    9535855  MISS:     767493
L1D PREFETCH  ACCESS:          0  HIT:          0  MISS:          0
L1D WRITEBACK ACCESS:          0  HIT:          0  MISS:          0
L1D PREFETCH  REQUESTED:          0  ISSUED:          0  USEFUL:          0  USELESS:          0
L1I TOTAL     ACCESS:   24817382  HIT:   24033935  MISS:     783447
L1I LOAD      ACCESS:   24817382  HIT:   24033935  MISS:     783447
L1I RFO       ACCESS:          0  HIT:          0  MISS:          0
L1I PREFETCH  ACCESS:          0  HIT:          0  MISS:          0
L1I WRITEBACK ACCESS:          0  HIT:          0  MISS:          0
L1I PREFETCH  REQUESTED:          0  ISSUED:          0  USEFUL:          0  USELESS:          0
L2C TOTAL     ACCESS:   16666086  HIT:   14111770  MISS:    2554316
L2C LOAD      ACCESS:   10463097  HIT:    8413915  MISS:    2049182
L2C RFO       ACCESS:     766934  HIT:     355167  MISS:     411767
L2C PREFETCH  ACCESS:    4571377  HIT:    4478068  MISS:      93309
L2C WRITEBACK ACCESS:     864678  HIT:     864620  MISS:         58
L2C PREFETCH  REQUESTED:   33504107  ISSUED:   32176517  USEFUL:     129395  USELESS:     149510
LLC TOTAL     ACCESS:    7295280  HIT:    6673402  MISS:     621878
LLC LOAD      ACCESS:    2041953  HIT:    1844931  MISS:     197022
LLC RFO       ACCESS:     353808  HIT:     336106  MISS:      17702
LLC PREFETCH  ACCESS:    4470894  HIT:    4064036  MISS:     406858
LLC WRITEBACK ACCESS:     428625  HIT:     428329  MISS:        296
LLC PREFETCH  REQUESTED:          0  ISSUED:          0  USEFUL:    7181258  USELESS:    6510687
Major fault: 0 Minor fault: 18001

CPU 5 cumulative IPC: 0.827138 instructions: 100000001 cycles: 120898760
L1D TOTAL     ACCESS:   21094491  HIT:   18133886  MISS:    2960605
L1D LOAD      ACCESS:   17928844  HIT:   15721982  MISS:    2206862
L1D RFO       ACCESS:    3165647  HIT:    2411904  MISS:     753743
L1D PREFETCH  ACCESS:          0  HIT:          0  MISS:          0
L1D WRITEBACK ACCESS:          0  HIT:          0  MISS:          0
L1D PREFETCH  REQUESTED:          0  ISSUED:          0  USEFUL:          0  USELESS:          0
L1I TOTAL     ACCESS:   23045395  HIT:   23045108  MISS:        287
L1I LOAD      ACCESS:   23045395  HIT:   23045108  MISS:        287
L1I RFO       ACCESS:          0  HIT:          0  MISS:          0
L1I PREFETCH  ACCESS:          0  HIT:          0  MISS:          0
L1I WRITEBACK ACCESS:          0  HIT:          0  MISS:          0
L1I PREFETCH  REQUESTED:          0  ISSUED:          0  USEFUL:          0  USELESS:          0
L2C TOTAL     ACCESS:    6707469  HIT:    4278501  MISS:    2428968
L2C LOAD      ACCESS:    2207126  HIT:    1304896  MISS:     902230
L2C RFO       ACCESS:     753743  HIT:          3  MISS:     753740
L2C PREFETCH  ACCESS:    2820629  HIT:    2047718  MISS:     772911
L2C WRITEBACK ACCESS:     925971  HIT:     925884  MISS:         87
L2C PREFETCH  REQUESTED:   26105399  ISSUED:   26061504  USEFUL:    2189445  USELESS:      26365
LLC TOTAL     ACCESS:    8128260  HIT:    5685659  MISS:    2442601
LLC LOAD      ACCESS:     736094  HIT:     621433  MISS:     114661
LLC RFO       ACCESS:     753740  HIT:       9917  MISS:     743823
LLC PREFETCH  ACCESS:    5718069  HIT:    4133982  MISS:    1584087
LLC WRITEBACK ACCESS:     920357  HIT:     920327  MISS:         30
LLC PREFETCH  REQUESTED:          0  ISSUED:          0  USEFUL:    7181258  USELESS:    6510687
Major fault: 0 Minor fault: 54227

CPU 6 cumulative IPC: 0.434539 instructions: 100000001 cycles: 230128889
L1D TOTAL     ACCESS:   32884538  HIT:   32564500  MISS:     320038
L1D LOAD      ACCESS:   21479248  HIT:   21198694  MISS:     280554
L1D RFO       ACCESS:   11405290  HIT:   11365806  MISS:      39484
L1D PREFETCH  ACCESS:          0  HIT:          0  MISS:          0
L1D WRITEBACK ACCESS:          0  HIT:          0  MISS:          0
L1D PREFETCH  REQUESTED:          0  ISSUED:          0  USEFUL:          0  USELESS:          0
L1I TOTAL     ACCESS:   22904691  HIT:   22898267  MISS:       6424
L1I LOAD      ACCESS:   22904691  HIT:   22898267  MISS:       6424
L1I RFO       ACCESS:          0  HIT:          0  MISS:          0
L1I PREFETCH  ACCESS:          0  HIT:          0  MISS:          0
L1I WRITEBACK ACCESS:          0  HIT:          0  MISS:          0
L1I PREFETCH  REQUESTED:          0  ISSUED:          0  USEFUL:          0  USELESS:          0
L2C TOTAL     ACCESS:     765508  HIT:     751505  MISS:      14003
L2C LOAD      ACCESS:     286977  HIT:     275843  MISS:      11134
L2C RFO       ACCESS:      39484  HIT:      38443  MISS:       1041
L2C PREFETCH  ACCESS:     368659  HIT:     366872  MISS:       1787
L2C WRITEBACK ACCESS:      70388  HIT:      70347  MISS:         41
L2C PREFETCH  REQUESTED:     659945  ISSUED:     659740  USEFUL:       1120  USELESS:       1021
LLC TOTAL     ACCESS:      89497  HIT:      46352  MISS:      43145
LLC LOAD      ACCESS:      10356  HIT:       3207  MISS:       7149
LLC RFO       ACCESS:       1031  HIT:        353  MISS:        678
LLC PREFETCH  ACCESS:      75525  HIT:      42388  MISS:      33137
LLC WRITEBACK ACCESS:       2585  HIT:        404  MISS:       2181
LLC PREFETCH  REQUESTED:          0  ISSUED:          0  USEFUL:    7181258  USELESS:    6510687
Major fault: 0 Minor fault: 610

CPU 7 cumulative IPC: 0.426946 instructions: 100000000 cycles: 234221909
L1D TOTAL     ACCESS:   21112446  HIT:   18602106  MISS:    2510340
L1D LOAD      ACCESS:   19341244  HIT:   16830904  MISS:    2510340
L1D RFO       ACCESS:    1771202  HIT:    1771202  MISS:          0
L1D PREFETCH  ACCESS:          0  HIT:          0  MISS:          0
L1D WRITEBACK ACCESS:          0  HIT:          0  MISS:          0
L1D PREFETCH  REQUESTED:          0  ISSUED:          0  USEFUL:          0  USELESS:          0
L1I TOTAL     ACCESS:   35705739  HIT:   35705739  MISS:          0
L1I LOAD      ACCESS:   35705739  HIT:   35705739  MISS:          0
L1I RFO       ACCESS:          0  HIT:          0  MISS:          0
L1I PREFETCH  ACCESS:          0  HIT:          0  MISS:          0
L1I WRITEBACK ACCESS:          0  HIT:          0  MISS:          0
L1I PREFETCH  REQUESTED:          0  ISSUED:          0  USEFUL:          0  USELESS:          0
L2C TOTAL     ACCESS:    3004175  HIT:     486468  MISS:    2517707
L2C LOAD      ACCESS:    2510340  HIT:     423514  MISS:    2086826
L2C RFO       ACCESS:          0  HIT:          0  MISS:          0
L2C PREFETCH  ACCESS:     493765  HIT:      62884  MISS:     430881
L2C WRITEBACK ACCESS:         70  HIT:         70  MISS:          0
L2C PREFETCH  REQUESTED:   14112766  ISSUED:   14112766  USEFUL:     673216  USELESS:      28317
LLC TOTAL     ACCESS:    5457676  HIT:    3732682  MISS:    1724994
LLC LOAD      ACCESS:    1782047  HIT:    1363856  MISS:     418191
LLC RFO       ACCESS:          0  HIT:          0  MISS:          0
LLC PREFETCH  ACCESS:    3675566  HIT:    2368763  MISS:    1306803
LLC WRITEBACK ACCESS:         63  HIT:         63  MISS:          0
LLC PREFETCH  REQUESTED:          0  ISSUED:          0  USEFUL:    7181258  USELESS:    6510687
Major fault: 0 Minor fault: 1363

DRAM Statistics
 CHANNEL 0
 RQ ROW_BUFFER_HIT:    4497354  ROW_BUFFER_MISS:    3574029
 DBUS_CONGESTED:   12740383
 WQ ROW_BUFFER_HIT:     111127  ROW_BUFFER_MISS:    1158149  FULL:          0

 CHANNEL 1
 RQ ROW_BUFFER_HIT:    4471390  ROW_BUFFER_MISS:    3576900
 DBUS_CONGESTED:   12740383
 WQ ROW_BUFFER_HIT:     109347  ROW_BUFFER_MISS:    1160015  FULL:          0

 AVG_CONGESTED_CYCLE: 13
