Initialize SIGNATURE TABLE
ST_SET: 1
ST_WAY: 256
ST_TAG_BIT: 16
ST_TAG_MASK: ffff

Initialize PATTERN TABLE
PT_SET: 512
PT_WAY: 4
SIG_DELTA_BIT: 7
C_SIG_BIT: 4
C_DELTA_BIT: 4

Initialize PREFETCH FILTER
FILTER_SET: 1024

*** ChampSim Multicore Out-of-Order Simulator ***

Warmup Instructions: 20000000
Simulation Instructions: 100000000
Number of CPUs: 8
LLC sets: 16384
LLC ways: 16
Off-chip DRAM Size: 8192 MB Channels: 2 Width: 64-bit Data Rate: 1600 MT/s

CPU 0 runs /scratch/user/djimenez/champsim-traces/speccpu2017/xz/654.roms_s/654.roms_s-1613B.champsimtrace.xz
CPU 1 runs /scratch/user/djimenez/champsim-traces/speccpu2017/xz/649.fotonik3d_s/649.fotonik3d_s-7084B.champsimtrace.xz
CPU 2 runs /scratch/user/djimenez/champsim-traces/speccpu2017/xz/648.exchange2_s/648.exchange2_s-1247B.champsimtrace.xz
CPU 3 runs /scratch/user/djimenez/champsim-traces/speccpu2017/xz/605.mcf_s/605.mcf_s-1644B.champsimtrace.xz
CPU 4 runs /scratch/user/djimenez/champsim-traces/speccpu2017/xz/648.exchange2_s/648.exchange2_s-1227B.champsimtrace.xz
CPU 5 runs /scratch/user/djimenez/champsim-traces/speccpu2017/xz/605.mcf_s/605.mcf_s-484B.champsimtrace.xz
CPU 6 runs /scratch/user/djimenez/champsim-traces/speccpu2017/xz/638.imagick_s/638.imagick_s-4128B.champsimtrace.xz
CPU 7 runs /scratch/user/djimenez/champsim-traces/speccpu2017/xz/627.cam4_s/627.cam4_s-490B.champsimtrace.xz
Heartbeat CPU 6 instructions: 10000002 cycles: 3808879 heartbeat IPC: 2.62544 cumulative IPC: 2.62544 (Simulation time: 0 hr 3 min 13 sec) 
Heartbeat CPU 7 instructions: 10000002 cycles: 4016274 heartbeat IPC: 2.48987 cumulative IPC: 2.48987 (Simulation time: 0 hr 3 min 24 sec) 
Heartbeat CPU 1 instructions: 10000000 cycles: 4193066 heartbeat IPC: 2.38489 cumulative IPC: 2.38489 (Simulation time: 0 hr 3 min 33 sec) 
Heartbeat CPU 2 instructions: 10000000 cycles: 4390306 heartbeat IPC: 2.27775 cumulative IPC: 2.27775 (Simulation time: 0 hr 3 min 43 sec) 
Heartbeat CPU 4 instructions: 10000000 cycles: 4414421 heartbeat IPC: 2.2653 cumulative IPC: 2.2653 (Simulation time: 0 hr 3 min 44 sec) 
Heartbeat CPU 0 instructions: 10000003 cycles: 4455005 heartbeat IPC: 2.24467 cumulative IPC: 2.24467 (Simulation time: 0 hr 3 min 47 sec) 
Heartbeat CPU 5 instructions: 10000000 cycles: 6877385 heartbeat IPC: 1.45404 cumulative IPC: 1.45404 (Simulation time: 0 hr 5 min 53 sec) 
Heartbeat CPU 6 instructions: 20000000 cycles: 7617303 heartbeat IPC: 2.62576 cumulative IPC: 2.6256 (Simulation time: 0 hr 6 min 34 sec) 
Heartbeat CPU 7 instructions: 20000000 cycles: 7809960 heartbeat IPC: 2.63596 cumulative IPC: 2.56083 (Simulation time: 0 hr 6 min 45 sec) 
Heartbeat CPU 1 instructions: 20000000 cycles: 8384562 heartbeat IPC: 2.38578 cumulative IPC: 2.38534 (Simulation time: 0 hr 7 min 16 sec) 
Heartbeat CPU 2 instructions: 20000000 cycles: 8751463 heartbeat IPC: 2.29297 cumulative IPC: 2.28533 (Simulation time: 0 hr 7 min 35 sec) 
Heartbeat CPU 4 instructions: 20000000 cycles: 8775387 heartbeat IPC: 2.29307 cumulative IPC: 2.2791 (Simulation time: 0 hr 7 min 37 sec) 
Heartbeat CPU 0 instructions: 20000000 cycles: 8909785 heartbeat IPC: 2.24478 cumulative IPC: 2.24472 (Simulation time: 0 hr 7 min 44 sec) 
Heartbeat CPU 3 instructions: 10000002 cycles: 10557687 heartbeat IPC: 0.947177 cumulative IPC: 0.947177 (Simulation time: 0 hr 9 min 16 sec) 
Heartbeat CPU 6 instructions: 30000000 cycles: 11425333 heartbeat IPC: 2.62603 cumulative IPC: 0.875248 (Simulation time: 0 hr 10 min 5 sec) 
Heartbeat CPU 7 instructions: 30000000 cycles: 11807118 heartbeat IPC: 2.50178 cumulative IPC: 0.846947 (Simulation time: 0 hr 10 min 26 sec) 
Heartbeat CPU 1 instructions: 30000000 cycles: 12567434 heartbeat IPC: 2.3907 cumulative IPC: 0.795707 (Simulation time: 0 hr 11 min 8 sec) 
Heartbeat CPU 4 instructions: 30000000 cycles: 13114083 heartbeat IPC: 2.30484 cumulative IPC: 0.762539 (Simulation time: 0 hr 11 min 36 sec) 
Heartbeat CPU 2 instructions: 30000000 cycles: 13121117 heartbeat IPC: 2.28851 cumulative IPC: 0.76213 (Simulation time: 0 hr 11 min 37 sec) 
Heartbeat CPU 0 instructions: 30000001 cycles: 13364492 heartbeat IPC: 2.24482 cumulative IPC: 0.748251 (Simulation time: 0 hr 11 min 50 sec) 
Heartbeat CPU 5 instructions: 20000000 cycles: 13674551 heartbeat IPC: 1.4712 cumulative IPC: 1.46257 (Simulation time: 0 hr 12 min 7 sec) 
Heartbeat CPU 6 instructions: 40000000 cycles: 15233181 heartbeat IPC: 2.62616 cumulative IPC: 1.31292 (Simulation time: 0 hr 13 min 31 sec) 
Heartbeat CPU 7 instructions: 40000000 cycles: 15627362 heartbeat IPC: 2.61763 cumulative IPC: 1.27981 (Simulation time: 0 hr 13 min 53 sec) 
Heartbeat CPU 1 instructions: 40000000 cycles: 16744378 heartbeat IPC: 2.39409 cumulative IPC: 1.19443 (Simulation time: 0 hr 14 min 51 sec) 
Heartbeat CPU 4 instructions: 40000000 cycles: 17455550 heartbeat IPC: 2.30337 cumulative IPC: 1.14577 (Simulation time: 0 hr 15 min 28 sec) 
Heartbeat CPU 2 instructions: 40000000 cycles: 17486320 heartbeat IPC: 2.29084 cumulative IPC: 1.14375 (Simulation time: 0 hr 15 min 30 sec) 
Heartbeat CPU 0 instructions: 40000000 cycles: 17819464 heartbeat IPC: 2.24468 cumulative IPC: 1.12237 (Simulation time: 0 hr 15 min 47 sec) 
Heartbeat CPU 6 instructions: 50000001 cycles: 19041898 heartbeat IPC: 2.62556 cumulative IPC: 1.57547 (Simulation time: 0 hr 16 min 50 sec) 
Heartbeat CPU 7 instructions: 50000000 cycles: 19511071 heartbeat IPC: 2.57486 cumulative IPC: 1.53759 (Simulation time: 0 hr 17 min 13 sec) 
Heartbeat CPU 5 instructions: 30000000 cycles: 20452922 heartbeat IPC: 1.47528 cumulative IPC: 0.488928 (Simulation time: 0 hr 18 min 3 sec) 
Heartbeat CPU 1 instructions: 50000001 cycles: 20917173 heartbeat IPC: 2.39648 cumulative IPC: 1.43423 (Simulation time: 0 hr 18 min 27 sec) 
Heartbeat CPU 3 instructions: 20000000 cycles: 21049266 heartbeat IPC: 0.953145 cumulative IPC: 0.950152 (Simulation time: 0 hr 18 min 34 sec) 

Warmup complete CPU 0 instructions: 45819185 cycles: 21049269 (Simulation time: 0 hr 18 min 34 sec) 
Warmup complete CPU 1 instructions: 50316598 cycles: 21049269 (Simulation time: 0 hr 18 min 34 sec) 
Warmup complete CPU 2 instructions: 48165631 cycles: 21049269 (Simulation time: 0 hr 18 min 34 sec) 
Warmup complete CPU 3 instructions: 20000001 cycles: 21049269 (Simulation time: 0 hr 18 min 34 sec) 
Warmup complete CPU 4 instructions: 48671292 cycles: 21049268 (Simulation time: 0 hr 18 min 34 sec) 
Warmup complete CPU 5 instructions: 30861139 cycles: 21049268 (Simulation time: 0 hr 18 min 34 sec) 
Warmup complete CPU 6 instructions: 55271295 cycles: 21049268 (Simulation time: 0 hr 18 min 34 sec) 
Warmup complete CPU 7 instructions: 53988405 cycles: 21049268 (Simulation time: 0 hr 18 min 34 sec) 

Heartbeat CPU 4 instructions: 50000003 cycles: 21866391 heartbeat IPC: 2.26714 cumulative IPC: 1.62608 (Simulation time: 0 hr 19 min 0 sec) 
Heartbeat CPU 2 instructions: 50000003 cycles: 22226022 heartbeat IPC: 2.10984 cumulative IPC: 1.55884 (Simulation time: 0 hr 19 min 11 sec) 
Heartbeat CPU 6 instructions: 60000000 cycles: 23877614 heartbeat IPC: 2.06795 cumulative IPC: 1.6719 (Simulation time: 0 hr 20 min 2 sec) 
Heartbeat CPU 0 instructions: 50000000 cycles: 26811649 heartbeat IPC: 1.11208 cumulative IPC: 0.725536 (Simulation time: 0 hr 21 min 30 sec) 
Heartbeat CPU 7 instructions: 60000000 cycles: 27734237 heartbeat IPC: 1.21608 cumulative IPC: 0.89927 (Simulation time: 0 hr 21 min 57 sec) 
Heartbeat CPU 2 instructions: 60000000 cycles: 28842897 heartbeat IPC: 1.51129 cumulative IPC: 1.51847 (Simulation time: 0 hr 22 min 30 sec) 
Heartbeat CPU 1 instructions: 60000000 cycles: 29190266 heartbeat IPC: 1.20874 cumulative IPC: 1.18946 (Simulation time: 0 hr 22 min 41 sec) 
Heartbeat CPU 6 instructions: 70000002 cycles: 29849169 heartbeat IPC: 1.67461 cumulative IPC: 1.67374 (Simulation time: 0 hr 23 min 1 sec) 
Heartbeat CPU 4 instructions: 60000000 cycles: 29964735 heartbeat IPC: 1.23482 cumulative IPC: 1.27068 (Simulation time: 0 hr 23 min 4 sec) 
Heartbeat CPU 2 instructions: 70000000 cycles: 35793150 heartbeat IPC: 1.4388 cumulative IPC: 1.48091 (Simulation time: 0 hr 26 min 4 sec) 
Heartbeat CPU 6 instructions: 80000000 cycles: 35820091 heartbeat IPC: 1.67478 cumulative IPC: 1.67416 (Simulation time: 0 hr 26 min 5 sec) 
Heartbeat CPU 4 instructions: 70000002 cycles: 36516728 heartbeat IPC: 1.52625 cumulative IPC: 1.37894 (Simulation time: 0 hr 26 min 26 sec) 
Heartbeat CPU 7 instructions: 70000002 cycles: 37284283 heartbeat IPC: 1.04712 cumulative IPC: 0.986239 (Simulation time: 0 hr 26 min 49 sec) 
Heartbeat CPU 1 instructions: 70000001 cycles: 37606755 heartbeat IPC: 1.18814 cumulative IPC: 1.18879 (Simulation time: 0 hr 26 min 59 sec) 
Heartbeat CPU 0 instructions: 60000000 cycles: 40667579 heartbeat IPC: 0.721713 cumulative IPC: 0.722836 (Simulation time: 0 hr 28 min 30 sec) 
Heartbeat CPU 6 instructions: 90000002 cycles: 41803806 heartbeat IPC: 1.6712 cumulative IPC: 1.67331 (Simulation time: 0 hr 29 min 5 sec) 
Heartbeat CPU 2 instructions: 80000000 cycles: 42126142 heartbeat IPC: 1.57903 cumulative IPC: 1.51039 (Simulation time: 0 hr 29 min 14 sec) 
Heartbeat CPU 4 instructions: 80000000 cycles: 42984622 heartbeat IPC: 1.5461 cumulative IPC: 1.42823 (Simulation time: 0 hr 29 min 41 sec) 
Heartbeat CPU 1 instructions: 80000000 cycles: 46111703 heartbeat IPC: 1.17579 cumulative IPC: 1.18438 (Simulation time: 0 hr 31 min 19 sec) 
Heartbeat CPU 6 instructions: 100000000 cycles: 47774005 heartbeat IPC: 1.67499 cumulative IPC: 1.67368 (Simulation time: 0 hr 32 min 11 sec) 
Heartbeat CPU 7 instructions: 80000000 cycles: 47823342 heartbeat IPC: 0.948851 cumulative IPC: 0.971522 (Simulation time: 0 hr 32 min 12 sec) 
Heartbeat CPU 2 instructions: 90000001 cycles: 48401998 heartbeat IPC: 1.59341 cumulative IPC: 1.52944 (Simulation time: 0 hr 32 min 30 sec) 
Heartbeat CPU 5 instructions: 40000000 cycles: 48750117 heartbeat IPC: 0.353392 cumulative IPC: 0.329913 (Simulation time: 0 hr 32 min 41 sec) 
Heartbeat CPU 4 instructions: 90000002 cycles: 49395176 heartbeat IPC: 1.55993 cumulative IPC: 1.45801 (Simulation time: 0 hr 33 min 1 sec) 
Heartbeat CPU 6 instructions: 110000001 cycles: 53739712 heartbeat IPC: 1.67625 cumulative IPC: 1.67415 (Simulation time: 0 hr 35 min 19 sec) 
Heartbeat CPU 1 instructions: 90000000 cycles: 54439251 heartbeat IPC: 1.20083 cumulative IPC: 1.18848 (Simulation time: 0 hr 35 min 41 sec) 
Heartbeat CPU 0 instructions: 70000001 cycles: 54482486 heartbeat IPC: 0.723856 cumulative IPC: 0.723257 (Simulation time: 0 hr 35 min 42 sec) 
Heartbeat CPU 2 instructions: 100000000 cycles: 54788320 heartbeat IPC: 1.56585 cumulative IPC: 1.53633 (Simulation time: 0 hr 35 min 52 sec) 
Heartbeat CPU 4 instructions: 100000000 cycles: 55909685 heartbeat IPC: 1.53503 cumulative IPC: 1.47241 (Simulation time: 0 hr 36 min 27 sec) 
Heartbeat CPU 7 instructions: 90000002 cycles: 57553321 heartbeat IPC: 1.02775 cumulative IPC: 0.98651 (Simulation time: 0 hr 37 min 17 sec) 
Heartbeat CPU 6 instructions: 120000000 cycles: 59715758 heartbeat IPC: 1.67335 cumulative IPC: 1.67403 (Simulation time: 0 hr 38 min 23 sec) 
Heartbeat CPU 2 instructions: 110000003 cycles: 61070881 heartbeat IPC: 1.59171 cumulative IPC: 1.54502 (Simulation time: 0 hr 39 min 3 sec) 
Heartbeat CPU 4 instructions: 110000001 cycles: 62346008 heartbeat IPC: 1.55368 cumulative IPC: 1.48507 (Simulation time: 0 hr 39 min 41 sec) 
Heartbeat CPU 1 instructions: 100000000 cycles: 63079393 heartbeat IPC: 1.15739 cumulative IPC: 1.18209 (Simulation time: 0 hr 40 min 3 sec) 
Heartbeat CPU 6 instructions: 130000003 cycles: 65752339 heartbeat IPC: 1.65657 cumulative IPC: 1.67167 (Simulation time: 0 hr 41 min 23 sec) 
Heartbeat CPU 2 instructions: 120000000 cycles: 68083791 heartbeat IPC: 1.42594 cumulative IPC: 1.52727 (Simulation time: 0 hr 42 min 34 sec) 
Heartbeat CPU 7 instructions: 100000000 cycles: 68317191 heartbeat IPC: 0.929034 cumulative IPC: 0.973421 (Simulation time: 0 hr 42 min 41 sec) 
Heartbeat CPU 0 instructions: 80000000 cycles: 68325499 heartbeat IPC: 0.722386 cumulative IPC: 0.723002 (Simulation time: 0 hr 42 min 41 sec) 
Heartbeat CPU 4 instructions: 120000000 cycles: 68823824 heartbeat IPC: 1.54373 cumulative IPC: 1.49303 (Simulation time: 0 hr 42 min 57 sec) 
Heartbeat CPU 1 instructions: 110000002 cycles: 71581572 heartbeat IPC: 1.17617 cumulative IPC: 1.18109 (Simulation time: 0 hr 44 min 28 sec) 
Heartbeat CPU 6 instructions: 140000000 cycles: 71737375 heartbeat IPC: 1.67083 cumulative IPC: 1.67157 (Simulation time: 0 hr 44 min 33 sec) 
Heartbeat CPU 2 instructions: 130000001 cycles: 74356412 heartbeat IPC: 1.59423 cumulative IPC: 1.53515 (Simulation time: 0 hr 45 min 55 sec) 
Heartbeat CPU 4 instructions: 130000000 cycles: 75307377 heartbeat IPC: 1.54236 cumulative IPC: 1.49892 (Simulation time: 0 hr 46 min 25 sec) 
Heartbeat CPU 6 instructions: 150000002 cycles: 77704843 heartbeat IPC: 1.67575 cumulative IPC: 1.67201 (Simulation time: 0 hr 47 min 37 sec) 
Heartbeat CPU 7 instructions: 110000001 cycles: 78425216 heartbeat IPC: 0.989313 cumulative IPC: 0.976221 (Simulation time: 0 hr 48 min 0 sec) 
Heartbeat CPU 3 instructions: 30000003 cycles: 79293172 heartbeat IPC: 0.171692 cumulative IPC: 0.171692 (Simulation time: 0 hr 48 min 27 sec) 
Heartbeat CPU 1 instructions: 120000000 cycles: 79939864 heartbeat IPC: 1.19642 cumulative IPC: 1.18327 (Simulation time: 0 hr 48 min 47 sec) 
Heartbeat CPU 2 instructions: 140000000 cycles: 80784631 heartbeat IPC: 1.55564 cumulative IPC: 1.53735 (Simulation time: 0 hr 49 min 13 sec) 
Finished CPU 6 instructions: 100000002 cycles: 59801152 cumulative IPC: 1.67221 (Simulation time: 0 hr 49 min 15 sec) 
Heartbeat CPU 5 instructions: 50000003 cycles: 81147094 heartbeat IPC: 0.308671 cumulative IPC: 0.318462 (Simulation time: 0 hr 49 min 25 sec) 
Heartbeat CPU 4 instructions: 140000000 cycles: 81761972 heartbeat IPC: 1.54928 cumulative IPC: 1.50428 (Simulation time: 0 hr 49 min 43 sec) 
Heartbeat CPU 0 instructions: 90000001 cycles: 82161129 heartbeat IPC: 0.722772 cumulative IPC: 0.72295 (Simulation time: 0 hr 49 min 56 sec) 
Heartbeat CPU 6 instructions: 160000000 cycles: 83682520 heartbeat IPC: 1.67289 cumulative IPC: 1.67209 (Simulation time: 0 hr 50 min 41 sec) 
Finished CPU 2 instructions: 100000000 cycles: 64905371 cumulative IPC: 1.5407 (Simulation time: 0 hr 52 min 1 sec) 
Heartbeat CPU 2 instructions: 150000002 cycles: 87116954 heartbeat IPC: 1.5792 cumulative IPC: 1.54136 (Simulation time: 0 hr 52 min 36 sec) 
Finished CPU 4 instructions: 100000001 cycles: 66885114 cumulative IPC: 1.4951 (Simulation time: 0 hr 53 min 2 sec) 
Heartbeat CPU 1 instructions: 130000001 cycles: 88409246 heartbeat IPC: 1.18072 cumulative IPC: 1.18295 (Simulation time: 0 hr 53 min 16 sec) 
Heartbeat CPU 7 instructions: 120000000 cycles: 88961215 heartbeat IPC: 0.949127 cumulative IPC: 0.972017 (Simulation time: 0 hr 53 min 34 sec) 
Heartbeat CPU 4 instructions: 150000003 cycles: 88978126 heartbeat IPC: 1.38578 cumulative IPC: 1.49169 (Simulation time: 0 hr 53 min 34 sec) 
Heartbeat CPU 6 instructions: 170000002 cycles: 89662289 heartbeat IPC: 1.67231 cumulative IPC: 1.67211 (Simulation time: 0 hr 53 min 56 sec) 
Heartbeat CPU 2 instructions: 160000000 cycles: 93552024 heartbeat IPC: 1.55398 cumulative IPC: 1.54248 (Simulation time: 0 hr 55 min 55 sec) 
Heartbeat CPU 6 instructions: 180000000 cycles: 95649263 heartbeat IPC: 1.67029 cumulative IPC: 1.67197 (Simulation time: 0 hr 57 min 2 sec) 
Heartbeat CPU 0 instructions: 100000000 cycles: 95965267 heartbeat IPC: 0.72442 cumulative IPC: 0.723221 (Simulation time: 0 hr 57 min 11 sec) 
Heartbeat CPU 1 instructions: 140000000 cycles: 96759352 heartbeat IPC: 1.19759 cumulative IPC: 1.18456 (Simulation time: 0 hr 57 min 35 sec) 
Heartbeat CPU 4 instructions: 160000000 cycles: 98046054 heartbeat IPC: 1.10279 cumulative IPC: 1.44589 (Simulation time: 0 hr 58 min 14 sec) 
Heartbeat CPU 7 instructions: 130000001 cycles: 99215282 heartbeat IPC: 0.975223 cumulative IPC: 0.972438 (Simulation time: 0 hr 58 min 49 sec) 
Heartbeat CPU 2 instructions: 170000000 cycles: 99819037 heartbeat IPC: 1.59566 cumulative IPC: 1.54671 (Simulation time: 0 hr 59 min 7 sec) 
Heartbeat CPU 6 instructions: 190000002 cycles: 101620980 heartbeat IPC: 1.67456 cumulative IPC: 1.67216 (Simulation time: 1 hr 0 min 1 sec) 
Heartbeat CPU 1 instructions: 150000002 cycles: 105104251 heartbeat IPC: 1.19834 cumulative IPC: 1.18593 (Simulation time: 1 hr 1 min 46 sec) 
Finished CPU 1 instructions: 100000002 cycles: 84319816 cumulative IPC: 1.18596 (Simulation time: 1 hr 1 min 54 sec) 
Heartbeat CPU 2 instructions: 180000000 cycles: 106235810 heartbeat IPC: 1.55842 cumulative IPC: 1.5476 (Simulation time: 1 hr 2 min 19 sec) 
Heartbeat CPU 4 instructions: 170000003 cycles: 106561701 heartbeat IPC: 1.17431 cumulative IPC: 1.41884 (Simulation time: 1 hr 2 min 29 sec) 
Heartbeat CPU 6 instructions: 200000000 cycles: 107597981 heartbeat IPC: 1.67308 cumulative IPC: 1.67222 (Simulation time: 1 hr 2 min 59 sec) 
Heartbeat CPU 7 instructions: 140000000 cycles: 109667210 heartbeat IPC: 0.956761 cumulative IPC: 0.970589 (Simulation time: 1 hr 4 min 1 sec) 
Heartbeat CPU 0 instructions: 110000001 cycles: 109812396 heartbeat IPC: 0.722171 cumulative IPC: 0.723057 (Simulation time: 1 hr 4 min 5 sec) 
Heartbeat CPU 5 instructions: 60000000 cycles: 112024632 heartbeat IPC: 0.32386 cumulative IPC: 0.320294 (Simulation time: 1 hr 5 min 14 sec) 
Heartbeat CPU 2 instructions: 190000003 cycles: 112616366 heartbeat IPC: 1.56726 cumulative IPC: 1.54897 (Simulation time: 1 hr 5 min 33 sec) 
Heartbeat CPU 4 instructions: 180000000 cycles: 112753028 heartbeat IPC: 1.61516 cumulative IPC: 1.4321 (Simulation time: 1 hr 5 min 38 sec) 
Heartbeat CPU 6 instructions: 210000003 cycles: 113611941 heartbeat IPC: 1.6628 cumulative IPC: 1.67161 (Simulation time: 1 hr 6 min 7 sec) 
Heartbeat CPU 1 instructions: 160000000 cycles: 113728957 heartbeat IPC: 1.15946 cumulative IPC: 1.18347 (Simulation time: 1 hr 6 min 12 sec) 
Heartbeat CPU 2 instructions: 200000000 cycles: 118901861 heartbeat IPC: 1.59096 cumulative IPC: 1.55166 (Simulation time: 1 hr 8 min 52 sec) 
Heartbeat CPU 4 instructions: 190000000 cycles: 118918373 heartbeat IPC: 1.62197 cumulative IPC: 1.44406 (Simulation time: 1 hr 8 min 52 sec) 
Heartbeat CPU 6 instructions: 220000000 cycles: 119622267 heartbeat IPC: 1.6638 cumulative IPC: 1.67113 (Simulation time: 1 hr 9 min 12 sec) 
Heartbeat CPU 7 instructions: 150000001 cycles: 120206122 heartbeat IPC: 0.948865 cumulative IPC: 0.96828 (Simulation time: 1 hr 9 min 28 sec) 
Heartbeat CPU 1 instructions: 170000001 cycles: 122524640 heartbeat IPC: 1.13692 cumulative IPC: 1.17943 (Simulation time: 1 hr 10 min 31 sec) 
Heartbeat CPU 4 instructions: 200000000 cycles: 125101871 heartbeat IPC: 1.61721 cumulative IPC: 1.45435 (Simulation time: 1 hr 11 min 42 sec) 
Finished CPU 7 instructions: 100000001 cycles: 104062927 cumulative IPC: 0.960957 (Simulation time: 1 hr 11 min 42 sec) 
Heartbeat CPU 2 instructions: 210000000 cycles: 125188585 heartbeat IPC: 1.59065 cumulative IPC: 1.55402 (Simulation time: 1 hr 11 min 45 sec) 
Heartbeat CPU 6 instructions: 230000001 cycles: 125673655 heartbeat IPC: 1.65251 cumulative IPC: 1.67006 (Simulation time: 1 hr 11 min 59 sec) 
Heartbeat CPU 1 instructions: 180000000 cycles: 131383572 heartbeat IPC: 1.1288 cumulative IPC: 1.17537 (Simulation time: 1 hr 14 min 48 sec) 
Heartbeat CPU 4 instructions: 210000002 cycles: 131402579 heartbeat IPC: 1.58712 cumulative IPC: 1.46193 (Simulation time: 1 hr 14 min 49 sec) 
Heartbeat CPU 2 instructions: 220000000 cycles: 131501249 heartbeat IPC: 1.58412 cumulative IPC: 1.55574 (Simulation time: 1 hr 14 min 52 sec) 
Heartbeat CPU 6 instructions: 240000000 cycles: 131651379 heartbeat IPC: 1.67288 cumulative IPC: 1.67021 (Simulation time: 1 hr 14 min 57 sec) 
Heartbeat CPU 0 instructions: 120000000 cycles: 131687799 heartbeat IPC: 0.457134 cumulative IPC: 0.670479 (Simulation time: 1 hr 14 min 58 sec) 
Heartbeat CPU 7 instructions: 160000000 cycles: 131905908 heartbeat IPC: 0.854716 cumulative IPC: 0.956294 (Simulation time: 1 hr 15 min 4 sec) 
Heartbeat CPU 6 instructions: 250000002 cycles: 137621808 heartbeat IPC: 1.67492 cumulative IPC: 1.67045 (Simulation time: 1 hr 17 min 54 sec) 
Heartbeat CPU 2 instructions: 230000000 cycles: 137824898 heartbeat IPC: 1.58137 cumulative IPC: 1.55713 (Simulation time: 1 hr 18 min 0 sec) 
Heartbeat CPU 3 instructions: 40000000 cycles: 138460911 heartbeat IPC: 0.169011 cumulative IPC: 0.170341 (Simulation time: 1 hr 18 min 19 sec) 
Heartbeat CPU 1 instructions: 190000001 cycles: 139759597 heartbeat IPC: 1.19388 cumulative IPC: 1.17667 (Simulation time: 1 hr 18 min 58 sec) 
Heartbeat CPU 4 instructions: 220000000 cycles: 140469533 heartbeat IPC: 1.10291 cumulative IPC: 1.43467 (Simulation time: 1 hr 19 min 19 sec) 
Heartbeat CPU 7 instructions: 170000001 cycles: 142395029 heartbeat IPC: 0.953369 cumulative IPC: 0.956042 (Simulation time: 1 hr 20 min 17 sec) 
Heartbeat CPU 6 instructions: 260000000 cycles: 143593165 heartbeat IPC: 1.67466 cumulative IPC: 1.67066 (Simulation time: 1 hr 20 min 53 sec) 
Heartbeat CPU 2 instructions: 240000000 cycles: 144021167 heartbeat IPC: 1.61387 cumulative IPC: 1.55999 (Simulation time: 1 hr 21 min 7 sec) 
Heartbeat CPU 0 instructions: 130000000 cycles: 145506112 heartbeat IPC: 0.723677 cumulative IPC: 0.676386 (Simulation time: 1 hr 21 min 50 sec) 
Heartbeat CPU 1 instructions: 200000000 cycles: 148321025 heartbeat IPC: 1.16803 cumulative IPC: 1.17609 (Simulation time: 1 hr 23 min 11 sec) 
Heartbeat CPU 4 instructions: 230000003 cycles: 149250509 heartbeat IPC: 1.13883 cumulative IPC: 1.41441 (Simulation time: 1 hr 23 min 39 sec) 
Heartbeat CPU 6 instructions: 270000003 cycles: 149619118 heartbeat IPC: 1.65949 cumulative IPC: 1.67013 (Simulation time: 1 hr 23 min 50 sec) 
Heartbeat CPU 2 instructions: 250000000 cycles: 150298645 heartbeat IPC: 1.593 cumulative IPC: 1.56159 (Simulation time: 1 hr 24 min 10 sec) 
Heartbeat CPU 7 instructions: 180000000 cycles: 152817168 heartbeat IPC: 0.959496 cumulative IPC: 0.956315 (Simulation time: 1 hr 25 min 24 sec) 
Heartbeat CPU 5 instructions: 70000002 cycles: 155365525 heartbeat IPC: 0.230729 cumulative IPC: 0.291393 (Simulation time: 1 hr 26 min 40 sec) 
Heartbeat CPU 6 instructions: 280000000 cycles: 155632834 heartbeat IPC: 1.66286 cumulative IPC: 1.66981 (Simulation time: 1 hr 26 min 48 sec) 
Heartbeat CPU 2 instructions: 260000000 cycles: 156566687 heartbeat IPC: 1.59539 cumulative IPC: 1.56315 (Simulation time: 1 hr 27 min 16 sec) 
Heartbeat CPU 4 instructions: 240000000 cycles: 156772966 heartbeat IPC: 1.32935 cumulative IPC: 1.40969 (Simulation time: 1 hr 27 min 22 sec) 
Heartbeat CPU 1 instructions: 210000002 cycles: 156870966 heartbeat IPC: 1.1696 cumulative IPC: 1.17568 (Simulation time: 1 hr 27 min 25 sec) 
Heartbeat CPU 0 instructions: 140000000 cycles: 159391507 heartbeat IPC: 0.720181 cumulative IPC: 0.680781 (Simulation time: 1 hr 28 min 39 sec) 
Heartbeat CPU 6 instructions: 290000002 cycles: 161605604 heartbeat IPC: 1.67427 cumulative IPC: 1.67 (Simulation time: 1 hr 29 min 47 sec) 
Heartbeat CPU 2 instructions: 270000002 cycles: 162940620 heartbeat IPC: 1.56889 cumulative IPC: 1.56341 (Simulation time: 1 hr 30 min 26 sec) 
Heartbeat CPU 7 instructions: 190000000 cycles: 163598926 heartbeat IPC: 0.927493 cumulative IPC: 0.954135 (Simulation time: 1 hr 30 min 47 sec) 
Heartbeat CPU 4 instructions: 250000002 cycles: 164276674 heartbeat IPC: 1.33267 cumulative IPC: 1.40566 (Simulation time: 1 hr 31 min 7 sec) 
Heartbeat CPU 1 instructions: 220000000 cycles: 165213305 heartbeat IPC: 1.1987 cumulative IPC: 1.17702 (Simulation time: 1 hr 31 min 35 sec) 
Finished CPU 0 instructions: 100000003 cycles: 146373735 cumulative IPC: 0.683183 (Simulation time: 1 hr 32 min 41 sec) 
Heartbeat CPU 6 instructions: 300000000 cycles: 167575495 heartbeat IPC: 1.67507 cumulative IPC: 1.6702 (Simulation time: 1 hr 32 min 46 sec) 
Heartbeat CPU 2 instructions: 280000000 cycles: 169325529 heartbeat IPC: 1.56619 cumulative IPC: 1.56353 (Simulation time: 1 hr 33 min 39 sec) 
Heartbeat CPU 4 instructions: 260000000 cycles: 171775883 heartbeat IPC: 1.33347 cumulative IPC: 1.40207 (Simulation time: 1 hr 34 min 52 sec) 
Heartbeat CPU 0 instructions: 150000003 cycles: 173199527 heartbeat IPC: 0.724217 cumulative IPC: 0.684723 (Simulation time: 1 hr 35 min 35 sec) 
Heartbeat CPU 6 instructions: 310000001 cycles: 173546280 heartbeat IPC: 1.67482 cumulative IPC: 1.67038 (Simulation time: 1 hr 35 min 46 sec) 
Heartbeat CPU 1 instructions: 230000001 cycles: 173553828 heartbeat IPC: 1.19897 cumulative IPC: 1.17822 (Simulation time: 1 hr 35 min 46 sec) 
Heartbeat CPU 7 instructions: 200000000 cycles: 173740572 heartbeat IPC: 0.986033 cumulative IPC: 0.956254 (Simulation time: 1 hr 35 min 52 sec) 
Heartbeat CPU 2 instructions: 290000002 cycles: 175573055 heartbeat IPC: 1.60063 cumulative IPC: 1.56503 (Simulation time: 1 hr 36 min 48 sec) 
Heartbeat CPU 4 instructions: 270000000 cycles: 178102853 heartbeat IPC: 1.58054 cumulative IPC: 1.40926 (Simulation time: 1 hr 38 min 5 sec) 
Heartbeat CPU 6 instructions: 320000000 cycles: 179516046 heartbeat IPC: 1.67511 cumulative IPC: 1.67056 (Simulation time: 1 hr 38 min 46 sec) 
Heartbeat CPU 2 instructions: 300000000 cycles: 181895788 heartbeat IPC: 1.58159 cumulative IPC: 1.56568 (Simulation time: 1 hr 39 min 55 sec) 
Heartbeat CPU 1 instructions: 240000000 cycles: 182053516 heartbeat IPC: 1.17651 cumulative IPC: 1.17813 (Simulation time: 1 hr 40 min 0 sec) 
Heartbeat CPU 7 instructions: 210000002 cycles: 184746313 heartbeat IPC: 0.908617 cumulative IPC: 0.953051 (Simulation time: 1 hr 41 min 20 sec) 
Heartbeat CPU 4 instructions: 280000000 cycles: 185098399 heartbeat IPC: 1.42948 cumulative IPC: 1.41012 (Simulation time: 1 hr 41 min 31 sec) 
Heartbeat CPU 6 instructions: 330000000 cycles: 185553077 heartbeat IPC: 1.65644 cumulative IPC: 1.67004 (Simulation time: 1 hr 41 min 44 sec) 
Heartbeat CPU 0 instructions: 160000000 cycles: 187065974 heartbeat IPC: 0.721165 cumulative IPC: 0.687767 (Simulation time: 1 hr 42 min 28 sec) 
Heartbeat CPU 2 instructions: 310000003 cycles: 188227901 heartbeat IPC: 1.57925 cumulative IPC: 1.5662 (Simulation time: 1 hr 43 min 2 sec) 
Heartbeat CPU 1 instructions: 250000000 cycles: 190682180 heartbeat IPC: 1.15893 cumulative IPC: 1.17715 (Simulation time: 1 hr 44 min 11 sec) 
Heartbeat CPU 6 instructions: 340000000 cycles: 191576798 heartbeat IPC: 1.6601 cumulative IPC: 1.66969 (Simulation time: 1 hr 44 min 37 sec) 
Heartbeat CPU 4 instructions: 290000000 cycles: 192623809 heartbeat IPC: 1.32883 cumulative IPC: 1.40655 (Simulation time: 1 hr 45 min 8 sec) 
Heartbeat CPU 5 instructions: 80000000 cycles: 194165271 heartbeat IPC: 0.257734 cumulative IPC: 0.283849 (Simulation time: 1 hr 45 min 54 sec) 
Heartbeat CPU 2 instructions: 320000000 cycles: 194553601 heartbeat IPC: 1.58085 cumulative IPC: 1.56673 (Simulation time: 1 hr 46 min 6 sec) 
Heartbeat CPU 7 instructions: 220000000 cycles: 195270814 heartbeat IPC: 0.950164 cumulative IPC: 0.952876 (Simulation time: 1 hr 46 min 27 sec) 
Heartbeat CPU 3 instructions: 50000001 cycles: 197156591 heartbeat IPC: 0.17037 cumulative IPC: 0.170351 (Simulation time: 1 hr 47 min 21 sec) 
Heartbeat CPU 6 instructions: 350000001 cycles: 197544248 heartbeat IPC: 1.67576 cumulative IPC: 1.6699 (Simulation time: 1 hr 47 min 32 sec) 
Heartbeat CPU 1 instructions: 260000000 cycles: 198931264 heartbeat IPC: 1.21226 cumulative IPC: 1.17878 (Simulation time: 1 hr 48 min 13 sec) 
Heartbeat CPU 4 instructions: 300000000 cycles: 200148908 heartbeat IPC: 1.32889 cumulative IPC: 1.40329 (Simulation time: 1 hr 48 min 47 sec) 
Heartbeat CPU 2 instructions: 330000003 cycles: 200863057 heartbeat IPC: 1.58492 cumulative IPC: 1.56737 (Simulation time: 1 hr 49 min 8 sec) 
Heartbeat CPU 0 instructions: 170000003 cycles: 200895750 heartbeat IPC: 0.723078 cumulative IPC: 0.690482 (Simulation time: 1 hr 49 min 9 sec) 
Heartbeat CPU 6 instructions: 360000000 cycles: 203571062 heartbeat IPC: 1.65925 cumulative IPC: 1.66955 (Simulation time: 1 hr 50 min 23 sec) 
Heartbeat CPU 7 instructions: 230000001 cycles: 206354338 heartbeat IPC: 0.90224 cumulative IPC: 0.949848 (Simulation time: 1 hr 51 min 41 sec) 
Heartbeat CPU 2 instructions: 340000000 cycles: 207030699 heartbeat IPC: 1.62136 cumulative IPC: 1.56916 (Simulation time: 1 hr 52 min 0 sec) 
Heartbeat CPU 1 instructions: 270000000 cycles: 207512618 heartbeat IPC: 1.16532 cumulative IPC: 1.17816 (Simulation time: 1 hr 52 min 14 sec) 
Heartbeat CPU 4 instructions: 310000001 cycles: 207684065 heartbeat IPC: 1.32711 cumulative IPC: 1.40021 (Simulation time: 1 hr 52 min 19 sec) 
Heartbeat CPU 6 instructions: 370000000 cycles: 209600700 heartbeat IPC: 1.65847 cumulative IPC: 1.66919 (Simulation time: 1 hr 53 min 13 sec) 
Heartbeat CPU 4 instructions: 320000000 cycles: 214198839 heartbeat IPC: 1.53497 cumulative IPC: 1.40476 (Simulation time: 1 hr 55 min 19 sec) 
Heartbeat CPU 2 instructions: 350000002 cycles: 214716700 heartbeat IPC: 1.30107 cumulative IPC: 1.55852 (Simulation time: 1 hr 55 min 33 sec) 
Heartbeat CPU 0 instructions: 180000000 cycles: 214751452 heartbeat IPC: 0.721724 cumulative IPC: 0.692717 (Simulation time: 1 hr 55 min 34 sec) 
Heartbeat CPU 6 instructions: 380000000 cycles: 215611449 heartbeat IPC: 1.66369 cumulative IPC: 1.66902 (Simulation time: 1 hr 55 min 56 sec) 
Heartbeat CPU 1 instructions: 280000000 cycles: 216193225 heartbeat IPC: 1.15199 cumulative IPC: 1.17699 (Simulation time: 1 hr 56 min 12 sec) 
Heartbeat CPU 7 instructions: 240000000 cycles: 217197169 heartbeat IPC: 0.922268 cumulative IPC: 0.948323 (Simulation time: 1 hr 56 min 39 sec) 
Heartbeat CPU 4 instructions: 330000002 cycles: 221254318 heartbeat IPC: 1.41734 cumulative IPC: 1.4052 (Simulation time: 1 hr 58 min 37 sec) 
Heartbeat CPU 2 instructions: 360000000 cycles: 221331170 heartbeat IPC: 1.51184 cumulative IPC: 1.55698 (Simulation time: 1 hr 58 min 40 sec) 
Heartbeat CPU 6 instructions: 390000000 cycles: 221609493 heartbeat IPC: 1.66721 cumulative IPC: 1.66897 (Simulation time: 1 hr 58 min 48 sec) 
Heartbeat CPU 1 instructions: 290000003 cycles: 224513153 heartbeat IPC: 1.20193 cumulative IPC: 1.17801 (Simulation time: 2 hr 0 min 12 sec) 
Heartbeat CPU 6 instructions: 400000000 cycles: 227583050 heartbeat IPC: 1.67404 cumulative IPC: 1.66912 (Simulation time: 2 hr 1 min 37 sec) 
Heartbeat CPU 2 instructions: 370000002 cycles: 227586654 heartbeat IPC: 1.5986 cumulative IPC: 1.55824 (Simulation time: 2 hr 1 min 37 sec) 
Heartbeat CPU 7 instructions: 250000001 cycles: 227680660 heartbeat IPC: 0.953881 cumulative IPC: 0.948605 (Simulation time: 2 hr 1 min 40 sec) 
Heartbeat CPU 0 instructions: 190000003 cycles: 228590541 heartbeat IPC: 0.722591 cumulative IPC: 0.694709 (Simulation time: 2 hr 2 min 6 sec) 
Heartbeat CPU 4 instructions: 340000000 cycles: 229004855 heartbeat IPC: 1.29023 cumulative IPC: 1.40092 (Simulation time: 2 hr 2 min 17 sec) 
Heartbeat CPU 5 instructions: 90000000 cycles: 229415080 heartbeat IPC: 0.283689 cumulative IPC: 0.283822 (Simulation time: 2 hr 2 min 28 sec) 
Heartbeat CPU 1 instructions: 300000000 cycles: 233029977 heartbeat IPC: 1.17415 cumulative IPC: 1.17786 (Simulation time: 2 hr 4 min 2 sec) 
Heartbeat CPU 6 instructions: 410000003 cycles: 233558311 heartbeat IPC: 1.67357 cumulative IPC: 1.66924 (Simulation time: 2 hr 4 min 15 sec) 
Heartbeat CPU 2 instructions: 380000000 cycles: 233936890 heartbeat IPC: 1.57474 cumulative IPC: 1.55873 (Simulation time: 2 hr 4 min 25 sec) 
Heartbeat CPU 4 instructions: 350000000 cycles: 237085629 heartbeat IPC: 1.23751 cumulative IPC: 1.39481 (Simulation time: 2 hr 5 min 45 sec) 
Heartbeat CPU 6 instructions: 420000000 cycles: 239571367 heartbeat IPC: 1.66305 cumulative IPC: 1.66907 (Simulation time: 2 hr 6 min 48 sec) 
Heartbeat CPU 7 instructions: 260000000 cycles: 239597038 heartbeat IPC: 0.839181 cumulative IPC: 0.942639 (Simulation time: 2 hr 6 min 49 sec) 
Heartbeat CPU 2 instructions: 390000000 cycles: 240267681 heartbeat IPC: 1.57958 cumulative IPC: 1.55933 (Simulation time: 2 hr 7 min 6 sec) 
Heartbeat CPU 1 instructions: 310000003 cycles: 242277824 heartbeat IPC: 1.08133 cumulative IPC: 1.17382 (Simulation time: 2 hr 8 min 3 sec) 
Heartbeat CPU 4 instructions: 360000000 cycles: 243588531 heartbeat IPC: 1.53778 cumulative IPC: 1.39898 (Simulation time: 2 hr 8 min 41 sec) 
Heartbeat CPU 6 instructions: 430000000 cycles: 245602982 heartbeat IPC: 1.65793 cumulative IPC: 1.66877 (Simulation time: 2 hr 9 min 36 sec) 
Heartbeat CPU 2 instructions: 400000000 cycles: 246611252 heartbeat IPC: 1.5764 cumulative IPC: 1.55981 (Simulation time: 2 hr 10 min 3 sec) 
Heartbeat CPU 7 instructions: 270000000 cycles: 250210091 heartbeat IPC: 0.942236 cumulative IPC: 0.94262 (Simulation time: 2 hr 11 min 38 sec) 
Heartbeat CPU 0 instructions: 200000000 cycles: 250472201 heartbeat IPC: 0.457004 cumulative IPC: 0.672037 (Simulation time: 2 hr 11 min 45 sec) 
Heartbeat CPU 1 instructions: 320000000 cycles: 250726510 heartbeat IPC: 1.18362 cumulative IPC: 1.17418 (Simulation time: 2 hr 11 min 51 sec) 
Heartbeat CPU 4 instructions: 370000003 cycles: 251195682 heartbeat IPC: 1.31455 cumulative IPC: 1.39619 (Simulation time: 2 hr 12 min 4 sec) 
Heartbeat CPU 6 instructions: 440000000 cycles: 251593018 heartbeat IPC: 1.66944 cumulative IPC: 1.66879 (Simulation time: 2 hr 12 min 14 sec) 
Heartbeat CPU 2 instructions: 410000000 cycles: 255974803 heartbeat IPC: 1.06797 cumulative IPC: 1.54021 (Simulation time: 2 hr 14 min 12 sec) 
Heartbeat CPU 3 instructions: 60000000 cycles: 256575063 heartbeat IPC: 0.168298 cumulative IPC: 0.169833 (Simulation time: 2 hr 14 min 29 sec) 
Heartbeat CPU 6 instructions: 450000001 cycles: 257560257 heartbeat IPC: 1.67582 cumulative IPC: 1.66897 (Simulation time: 2 hr 14 min 57 sec) 
Heartbeat CPU 1 instructions: 330000001 cycles: 259061134 heartbeat IPC: 1.19981 cumulative IPC: 1.17508 (Simulation time: 2 hr 15 min 40 sec) 
Heartbeat CPU 4 instructions: 380000000 cycles: 259075100 heartbeat IPC: 1.26913 cumulative IPC: 1.39199 (Simulation time: 2 hr 15 min 40 sec) 
Heartbeat CPU 5 instructions: 100000000 cycles: 260291773 heartbeat IPC: 0.323869 cumulative IPC: 0.288991 (Simulation time: 2 hr 16 min 15 sec) 
Heartbeat CPU 7 instructions: 280000000 cycles: 261202592 heartbeat IPC: 0.909711 cumulative IPC: 0.941114 (Simulation time: 2 hr 16 min 40 sec) 
Heartbeat CPU 2 instructions: 420000000 cycles: 262777586 heartbeat IPC: 1.46999 cumulative IPC: 1.53823 (Simulation time: 2 hr 17 min 23 sec) 
Heartbeat CPU 6 instructions: 460000000 cycles: 263980766 heartbeat IPC: 1.55751 cumulative IPC: 1.66602 (Simulation time: 2 hr 17 min 56 sec) 
Heartbeat CPU 0 instructions: 210000000 cycles: 264311695 heartbeat IPC: 0.72257 cumulative IPC: 0.674912 (Simulation time: 2 hr 18 min 5 sec) 
Heartbeat CPU 4 instructions: 390000001 cycles: 265752093 heartbeat IPC: 1.49768 cumulative IPC: 1.39487 (Simulation time: 2 hr 18 min 43 sec) 
Heartbeat CPU 1 instructions: 340000000 cycles: 267664950 heartbeat IPC: 1.16227 cumulative IPC: 1.17463 (Simulation time: 2 hr 19 min 35 sec) 
Heartbeat CPU 2 instructions: 430000001 cycles: 268915284 heartbeat IPC: 1.62928 cumulative IPC: 1.54049 (Simulation time: 2 hr 20 min 9 sec) 
Heartbeat CPU 6 instructions: 470000003 cycles: 270007530 heartbeat IPC: 1.65927 cumulative IPC: 1.66586 (Simulation time: 2 hr 20 min 38 sec) 
Heartbeat CPU 7 instructions: 290000001 cycles: 271924014 heartbeat IPC: 0.932712 cumulative IPC: 0.940755 (Simulation time: 2 hr 21 min 31 sec) 
Heartbeat CPU 4 instructions: 400000000 cycles: 273280865 heartbeat IPC: 1.32824 cumulative IPC: 1.39288 (Simulation time: 2 hr 22 min 9 sec) 
Heartbeat CPU 2 instructions: 440000000 cycles: 275150279 heartbeat IPC: 1.60385 cumulative IPC: 1.54204 (Simulation time: 2 hr 23 min 2 sec) 
Heartbeat CPU 6 instructions: 480000000 cycles: 275989548 heartbeat IPC: 1.67168 cumulative IPC: 1.66599 (Simulation time: 2 hr 23 min 25 sec) 
Heartbeat CPU 1 instructions: 350000003 cycles: 276093710 heartbeat IPC: 1.18641 cumulative IPC: 1.17502 (Simulation time: 2 hr 23 min 28 sec) 
Heartbeat CPU 0 instructions: 220000000 cycles: 278146869 heartbeat IPC: 0.722795 cumulative IPC: 0.677489 (Simulation time: 2 hr 24 min 24 sec) 
Heartbeat CPU 4 instructions: 410000002 cycles: 280775965 heartbeat IPC: 1.33421 cumulative IPC: 1.39119 (Simulation time: 2 hr 25 min 37 sec) 
Heartbeat CPU 2 instructions: 450000001 cycles: 281418049 heartbeat IPC: 1.59546 cumulative IPC: 1.54333 (Simulation time: 2 hr 25 min 56 sec) 
Heartbeat CPU 6 instructions: 490000003 cycles: 281963835 heartbeat IPC: 1.67384 cumulative IPC: 1.66617 (Simulation time: 2 hr 26 min 12 sec) 
Heartbeat CPU 7 instructions: 300000000 cycles: 282520197 heartbeat IPC: 0.943736 cumulative IPC: 0.940876 (Simulation time: 2 hr 26 min 27 sec) 
Heartbeat CPU 1 instructions: 360000000 cycles: 284425936 heartbeat IPC: 1.20016 cumulative IPC: 1.17582 (Simulation time: 2 hr 27 min 20 sec) 
Heartbeat CPU 2 instructions: 460000000 cycles: 287934901 heartbeat IPC: 1.53448 cumulative IPC: 1.54311 (Simulation time: 2 hr 28 min 55 sec) 
Heartbeat CPU 6 instructions: 500000000 cycles: 287956965 heartbeat IPC: 1.66858 cumulative IPC: 1.66623 (Simulation time: 2 hr 28 min 56 sec) 
Heartbeat CPU 4 instructions: 420000000 cycles: 288835781 heartbeat IPC: 1.24072 cumulative IPC: 1.38666 (Simulation time: 2 hr 29 min 19 sec) 
Heartbeat CPU 0 instructions: 230000001 cycles: 291976845 heartbeat IPC: 0.723067 cumulative IPC: 0.679816 (Simulation time: 2 hr 30 min 44 sec) 
Heartbeat CPU 5 instructions: 110000002 cycles: 292489275 heartbeat IPC: 0.310583 cumulative IPC: 0.291552 (Simulation time: 2 hr 30 min 58 sec) 
Heartbeat CPU 1 instructions: 370000002 cycles: 292903439 heartbeat IPC: 1.17959 cumulative IPC: 1.17594 (Simulation time: 2 hr 31 min 9 sec) 
Heartbeat CPU 7 instructions: 310000000 cycles: 293176576 heartbeat IPC: 0.938405 cumulative IPC: 0.940779 (Simulation time: 2 hr 31 min 17 sec) 
Heartbeat CPU 6 instructions: 510000003 cycles: 293941218 heartbeat IPC: 1.67105 cumulative IPC: 1.66633 (Simulation time: 2 hr 31 min 39 sec) 
Heartbeat CPU 2 instructions: 470000003 cycles: 294331703 heartbeat IPC: 1.56328 cumulative IPC: 1.54358 (Simulation time: 2 hr 31 min 50 sec) 
Heartbeat CPU 4 instructions: 430000000 cycles: 296932570 heartbeat IPC: 1.23506 cumulative IPC: 1.38221 (Simulation time: 2 hr 33 min 2 sec) 
Heartbeat CPU 6 instructions: 520000000 cycles: 299907658 heartbeat IPC: 1.67604 cumulative IPC: 1.66654 (Simulation time: 2 hr 34 min 22 sec) 
Heartbeat CPU 2 instructions: 480000000 cycles: 300523821 heartbeat IPC: 1.61496 cumulative IPC: 1.54517 (Simulation time: 2 hr 34 min 40 sec) 
Heartbeat CPU 1 instructions: 380000000 cycles: 301222633 heartbeat IPC: 1.20204 cumulative IPC: 1.17671 (Simulation time: 2 hr 35 min 0 sec) 
Heartbeat CPU 7 instructions: 320000000 cycles: 304171756 heartbeat IPC: 0.909489 cumulative IPC: 0.939564 (Simulation time: 2 hr 36 min 21 sec) 
Heartbeat CPU 4 instructions: 440000000 cycles: 304995927 heartbeat IPC: 1.24018 cumulative IPC: 1.37818 (Simulation time: 2 hr 36 min 41 sec) 
Heartbeat CPU 0 instructions: 240000000 cycles: 305813473 heartbeat IPC: 0.722719 cumulative IPC: 0.6819 (Simulation time: 2 hr 37 min 2 sec) 
Heartbeat CPU 6 instructions: 530000002 cycles: 305885889 heartbeat IPC: 1.67274 cumulative IPC: 1.66667 (Simulation time: 2 hr 37 min 4 sec) 
Heartbeat CPU 2 instructions: 490000000 cycles: 307625263 heartbeat IPC: 1.40816 cumulative IPC: 1.54177 (Simulation time: 2 hr 37 min 48 sec) 
Heartbeat CPU 1 instructions: 390000001 cycles: 309739663 heartbeat IPC: 1.17412 cumulative IPC: 1.17664 (Simulation time: 2 hr 38 min 43 sec) 
Heartbeat CPU 6 instructions: 540000000 cycles: 311883602 heartbeat IPC: 1.6673 cumulative IPC: 1.66668 (Simulation time: 2 hr 39 min 40 sec) 
Heartbeat CPU 7 instructions: 330000001 cycles: 314662649 heartbeat IPC: 0.953208 cumulative IPC: 0.940051 (Simulation time: 2 hr 40 min 54 sec) 
Heartbeat CPU 2 instructions: 500000000 cycles: 314665086 heartbeat IPC: 1.42049 cumulative IPC: 1.53886 (Simulation time: 2 hr 40 min 54 sec) 
Heartbeat CPU 4 instructions: 450000001 cycles: 314785875 heartbeat IPC: 1.02146 cumulative IPC: 1.36629 (Simulation time: 2 hr 40 min 57 sec) 
Heartbeat CPU 3 instructions: 70000000 cycles: 315131224 heartbeat IPC: 0.170776 cumulative IPC: 0.170021 (Simulation time: 2 hr 41 min 7 sec) 
Heartbeat CPU 5 instructions: 120000000 cycles: 317480457 heartbeat IPC: 0.400141 cumulative IPC: 0.300707 (Simulation time: 2 hr 42 min 11 sec) 
Heartbeat CPU 6 instructions: 550000002 cycles: 317857041 heartbeat IPC: 1.67408 cumulative IPC: 1.66683 (Simulation time: 2 hr 42 min 21 sec) 
Heartbeat CPU 1 instructions: 400000000 cycles: 318020899 heartbeat IPC: 1.20755 cumulative IPC: 1.1775 (Simulation time: 2 hr 42 min 25 sec) 
Heartbeat CPU 0 instructions: 250000001 cycles: 319622408 heartbeat IPC: 0.724169 cumulative IPC: 0.683855 (Simulation time: 2 hr 43 min 9 sec) 
Heartbeat CPU 2 instructions: 510000001 cycles: 320989913 heartbeat IPC: 1.58107 cumulative IPC: 1.53975 (Simulation time: 2 hr 43 min 49 sec) 
Heartbeat CPU 4 instructions: 460000000 cycles: 321578994 heartbeat IPC: 1.47208 cumulative IPC: 1.36868 (Simulation time: 2 hr 44 min 6 sec) 
Heartbeat CPU 6 instructions: 560000000 cycles: 323832495 heartbeat IPC: 1.67351 cumulative IPC: 1.66696 (Simulation time: 2 hr 45 min 9 sec) 
Heartbeat CPU 7 instructions: 340000000 cycles: 325251951 heartbeat IPC: 0.944349 cumulative IPC: 0.940201 (Simulation time: 2 hr 45 min 47 sec) 
Heartbeat CPU 1 instructions: 410000001 cycles: 326341264 heartbeat IPC: 1.20187 cumulative IPC: 1.17816 (Simulation time: 2 hr 46 min 15 sec) 
Heartbeat CPU 2 instructions: 520000000 cycles: 327273712 heartbeat IPC: 1.59139 cumulative IPC: 1.54081 (Simulation time: 2 hr 46 min 39 sec) 
Heartbeat CPU 4 instructions: 470000000 cycles: 329193139 heartbeat IPC: 1.31335 cumulative IPC: 1.36731 (Simulation time: 2 hr 47 min 29 sec) 
Heartbeat CPU 6 instructions: 570000001 cycles: 329822253 heartbeat IPC: 1.66952 cumulative IPC: 1.66701 (Simulation time: 2 hr 47 min 45 sec) 
Heartbeat CPU 0 instructions: 260000000 cycles: 333485302 heartbeat IPC: 0.72135 cumulative IPC: 0.685519 (Simulation time: 2 hr 49 min 24 sec) 
Heartbeat CPU 2 instructions: 530000003 cycles: 333704861 heartbeat IPC: 1.55493 cumulative IPC: 1.5411 (Simulation time: 2 hr 49 min 30 sec) 
Heartbeat CPU 1 instructions: 420000000 cycles: 334831260 heartbeat IPC: 1.17786 cumulative IPC: 1.17815 (Simulation time: 2 hr 50 min 0 sec) 
Heartbeat CPU 6 instructions: 580000000 cycles: 335796441 heartbeat IPC: 1.67387 cumulative IPC: 1.66714 (Simulation time: 2 hr 50 min 26 sec) 
Heartbeat CPU 7 instructions: 350000001 cycles: 335898119 heartbeat IPC: 0.939305 cumulative IPC: 0.94017 (Simulation time: 2 hr 50 min 28 sec) 
Heartbeat CPU 4 instructions: 480000000 cycles: 337589342 heartbeat IPC: 1.19101 cumulative IPC: 1.36264 (Simulation time: 2 hr 51 min 14 sec) 
Heartbeat CPU 2 instructions: 540000000 cycles: 340769691 heartbeat IPC: 1.41546 cumulative IPC: 1.53833 (Simulation time: 2 hr 52 min 41 sec) 
Heartbeat CPU 6 instructions: 590000001 cycles: 341769059 heartbeat IPC: 1.67431 cumulative IPC: 1.66728 (Simulation time: 2 hr 53 min 6 sec) 
Heartbeat CPU 1 instructions: 430000000 cycles: 343323826 heartbeat IPC: 1.1775 cumulative IPC: 1.17814 (Simulation time: 2 hr 53 min 43 sec) 
Heartbeat CPU 5 instructions: 130000000 cycles: 343975605 heartbeat IPC: 0.377428 cumulative IPC: 0.307001 (Simulation time: 2 hr 53 min 58 sec) 
Heartbeat CPU 4 instructions: 490000000 cycles: 344248048 heartbeat IPC: 1.50179 cumulative IPC: 1.3655 (Simulation time: 2 hr 54 min 5 sec) 
Heartbeat CPU 7 instructions: 360000000 cycles: 346690331 heartbeat IPC: 0.926594 cumulative IPC: 0.939721 (Simulation time: 2 hr 55 min 3 sec) 
Heartbeat CPU 6 instructions: 600000000 cycles: 347762732 heartbeat IPC: 1.66843 cumulative IPC: 1.6673 (Simulation time: 2 hr 55 min 27 sec) 
Finished CPU 5 instructions: 100000000 cycles: 327457863 cumulative IPC: 0.305383 (Simulation time: 2 hr 55 min 44 sec) 
Heartbeat CPU 2 instructions: 550000000 cycles: 348722793 heartbeat IPC: 1.25737 cumulative IPC: 1.53151 (Simulation time: 2 hr 55 min 49 sec) 
Heartbeat CPU 1 instructions: 440000000 cycles: 352600893 heartbeat IPC: 1.07793 cumulative IPC: 1.17533 (Simulation time: 2 hr 57 min 22 sec) 
Heartbeat CPU 4 instructions: 500000000 cycles: 353292704 heartbeat IPC: 1.10563 cumulative IPC: 1.35843 (Simulation time: 2 hr 57 min 41 sec) 
Heartbeat CPU 6 instructions: 610000002 cycles: 353751890 heartbeat IPC: 1.66968 cumulative IPC: 1.66734 (Simulation time: 2 hr 57 min 52 sec) 
Heartbeat CPU 0 instructions: 270000001 cycles: 355398662 heartbeat IPC: 0.456343 cumulative IPC: 0.670499 (Simulation time: 2 hr 58 min 36 sec) 
Heartbeat CPU 2 instructions: 560000000 cycles: 355658009 heartbeat IPC: 1.44192 cumulative IPC: 1.52965 (Simulation time: 2 hr 58 min 42 sec) 
Heartbeat CPU 7 instructions: 370000000 cycles: 358789511 heartbeat IPC: 0.826502 cumulative IPC: 0.935665 (Simulation time: 3 hr 0 min 5 sec) 
Heartbeat CPU 6 instructions: 620000000 cycles: 359767383 heartbeat IPC: 1.66237 cumulative IPC: 1.66725 (Simulation time: 3 hr 0 min 32 sec) 
Heartbeat CPU 4 instructions: 510000000 cycles: 360966364 heartbeat IPC: 1.30316 cumulative IPC: 1.35718 (Simulation time: 3 hr 1 min 4 sec) 
Heartbeat CPU 1 instructions: 450000002 cycles: 360995610 heartbeat IPC: 1.19123 cumulative IPC: 1.17572 (Simulation time: 3 hr 1 min 4 sec) 
Heartbeat CPU 2 instructions: 570000000 cycles: 361875092 heartbeat IPC: 1.60847 cumulative IPC: 1.53109 (Simulation time: 3 hr 1 min 28 sec) 
Heartbeat CPU 6 instructions: 630000002 cycles: 365748570 heartbeat IPC: 1.67191 cumulative IPC: 1.66733 (Simulation time: 3 hr 3 min 19 sec) 
Heartbeat CPU 4 instructions: 520000000 cycles: 367549283 heartbeat IPC: 1.51908 cumulative IPC: 1.36026 (Simulation time: 3 hr 4 min 9 sec) 
Heartbeat CPU 2 instructions: 580000000 cycles: 368104269 heartbeat IPC: 1.60535 cumulative IPC: 1.53242 (Simulation time: 3 hr 4 min 24 sec) 
Heartbeat CPU 7 instructions: 380000000 cycles: 368725812 heartbeat IPC: 1.00641 cumulative IPC: 0.937687 (Simulation time: 3 hr 4 min 41 sec) 
Heartbeat CPU 0 instructions: 280000000 cycles: 369226046 heartbeat IPC: 0.723203 cumulative IPC: 0.672592 (Simulation time: 3 hr 4 min 54 sec) 
Heartbeat CPU 1 instructions: 460000000 cycles: 369375607 heartbeat IPC: 1.19332 cumulative IPC: 1.17615 (Simulation time: 3 hr 4 min 58 sec) 
Heartbeat CPU 6 instructions: 640000000 cycles: 371739100 heartbeat IPC: 1.6693 cumulative IPC: 1.66737 (Simulation time: 3 hr 6 min 1 sec) 
Heartbeat CPU 2 instructions: 590000001 cycles: 374512965 heartbeat IPC: 1.56038 cumulative IPC: 1.53293 (Simulation time: 3 hr 7 min 14 sec) 
Heartbeat CPU 4 instructions: 530000001 cycles: 374670369 heartbeat IPC: 1.40428 cumulative IPC: 1.36114 (Simulation time: 3 hr 7 min 18 sec) 
Heartbeat CPU 3 instructions: 80000000 cycles: 374793847 heartbeat IPC: 0.167609 cumulative IPC: 0.169614 (Simulation time: 3 hr 7 min 21 sec) 
Heartbeat CPU 5 instructions: 140000000 cycles: 376994075 heartbeat IPC: 0.302861 cumulative IPC: 0.306617 (Simulation time: 3 hr 8 min 21 sec) 
Heartbeat CPU 6 instructions: 650000003 cycles: 377728430 heartbeat IPC: 1.66964 cumulative IPC: 1.66741 (Simulation time: 3 hr 8 min 40 sec) 
Heartbeat CPU 1 instructions: 470000002 cycles: 377915406 heartbeat IPC: 1.17099 cumulative IPC: 1.17602 (Simulation time: 3 hr 8 min 45 sec) 
Heartbeat CPU 2 instructions: 600000000 cycles: 380804036 heartbeat IPC: 1.58955 cumulative IPC: 1.53392 (Simulation time: 3 hr 10 min 0 sec) 
Heartbeat CPU 4 instructions: 540000000 cycles: 381239083 heartbeat IPC: 1.52237 cumulative IPC: 1.36408 (Simulation time: 3 hr 10 min 12 sec) 
Heartbeat CPU 0 instructions: 290000002 cycles: 383102031 heartbeat IPC: 0.72067 cumulative IPC: 0.674434 (Simulation time: 3 hr 10 min 58 sec) 
Heartbeat CPU 6 instructions: 660000000 cycles: 383699674 heartbeat IPC: 1.67469 cumulative IPC: 1.66753 (Simulation time: 3 hr 11 min 13 sec) 
Heartbeat CPU 1 instructions: 480000000 cycles: 386368432 heartbeat IPC: 1.18301 cumulative IPC: 1.17619 (Simulation time: 3 hr 12 min 23 sec) 
Heartbeat CPU 2 instructions: 610000000 cycles: 387075717 heartbeat IPC: 1.59447 cumulative IPC: 1.53496 (Simulation time: 3 hr 12 min 41 sec) 
Heartbeat CPU 4 instructions: 550000003 cycles: 388051138 heartbeat IPC: 1.46799 cumulative IPC: 1.36601 (Simulation time: 3 hr 13 min 7 sec) 
Heartbeat CPU 6 instructions: 670000002 cycles: 389669617 heartbeat IPC: 1.67506 cumulative IPC: 1.66765 (Simulation time: 3 hr 13 min 49 sec) 
Heartbeat CPU 2 instructions: 620000000 cycles: 393252643 heartbeat IPC: 1.61893 cumulative IPC: 1.53635 (Simulation time: 3 hr 15 min 26 sec) 
Heartbeat CPU 7 instructions: 390000002 cycles: 393650663 heartbeat IPC: 0.401206 cumulative IPC: 0.901799 (Simulation time: 3 hr 15 min 37 sec) 
Heartbeat CPU 4 instructions: 560000000 cycles: 394043822 heartbeat IPC: 1.6687 cumulative IPC: 1.37087 (Simulation time: 3 hr 15 min 48 sec) 
Heartbeat CPU 1 instructions: 490000003 cycles: 395014957 heartbeat IPC: 1.15653 cumulative IPC: 1.17573 (Simulation time: 3 hr 16 min 15 sec) 
Heartbeat CPU 6 instructions: 680000000 cycles: 395684832 heartbeat IPC: 1.66245 cumulative IPC: 1.66756 (Simulation time: 3 hr 16 min 33 sec) 
Heartbeat CPU 0 instructions: 300000000 cycles: 396941822 heartbeat IPC: 0.722554 cumulative IPC: 0.676206 (Simulation time: 3 hr 17 min 10 sec) 
Heartbeat CPU 2 instructions: 630000003 cycles: 399393832 heartbeat IPC: 1.62835 cumulative IPC: 1.53784 (Simulation time: 3 hr 18 min 22 sec) 
Heartbeat CPU 4 instructions: 570000000 cycles: 400021789 heartbeat IPC: 1.67281 cumulative IPC: 1.37564 (Simulation time: 3 hr 18 min 40 sec) 
Heartbeat CPU 6 instructions: 690000001 cycles: 401670739 heartbeat IPC: 1.67059 cumulative IPC: 1.66761 (Simulation time: 3 hr 19 min 27 sec) 
Heartbeat CPU 5 instructions: 150000000 cycles: 402748082 heartbeat IPC: 0.388289 cumulative IPC: 0.312128 (Simulation time: 3 hr 19 min 58 sec) 
Heartbeat CPU 1 instructions: 500000000 cycles: 403259588 heartbeat IPC: 1.21291 cumulative IPC: 1.17653 (Simulation time: 3 hr 20 min 12 sec) 
Heartbeat CPU 7 instructions: 400000000 cycles: 405578887 heartbeat IPC: 0.838348 cumulative IPC: 0.899831 (Simulation time: 3 hr 21 min 19 sec) 
Heartbeat CPU 2 instructions: 640000000 cycles: 405677032 heartbeat IPC: 1.59155 cumulative IPC: 1.53872 (Simulation time: 3 hr 21 min 22 sec) 
Heartbeat CPU 4 instructions: 580000000 cycles: 406014436 heartbeat IPC: 1.66871 cumulative IPC: 1.3802 (Simulation time: 3 hr 21 min 32 sec) 
Heartbeat CPU 6 instructions: 700000000 cycles: 407640076 heartbeat IPC: 1.67523 cumulative IPC: 1.66773 (Simulation time: 3 hr 22 min 18 sec) 
Heartbeat CPU 0 instructions: 310000003 cycles: 410773689 heartbeat IPC: 0.722968 cumulative IPC: 0.677866 (Simulation time: 3 hr 23 min 41 sec) 
Heartbeat CPU 1 instructions: 510000002 cycles: 411558643 heartbeat IPC: 1.20496 cumulative IPC: 1.17714 (Simulation time: 3 hr 24 min 1 sec) 
Heartbeat CPU 2 instructions: 650000000 cycles: 411912575 heartbeat IPC: 1.60371 cumulative IPC: 1.53976 (Simulation time: 3 hr 24 min 10 sec) 
Heartbeat CPU 6 instructions: 710000000 cycles: 413628682 heartbeat IPC: 1.66984 cumulative IPC: 1.66776 (Simulation time: 3 hr 24 min 55 sec) 
Heartbeat CPU 4 instructions: 590000000 cycles: 414535451 heartbeat IPC: 1.17357 cumulative IPC: 1.37572 (Simulation time: 3 hr 25 min 19 sec) 
Heartbeat CPU 7 instructions: 410000001 cycles: 417595110 heartbeat IPC: 0.832208 cumulative IPC: 0.897782 (Simulation time: 3 hr 26 min 43 sec) 
Heartbeat CPU 2 instructions: 660000000 cycles: 418150508 heartbeat IPC: 1.6031 cumulative IPC: 1.54075 (Simulation time: 3 hr 26 min 58 sec) 
Heartbeat CPU 6 instructions: 720000000 cycles: 419634275 heartbeat IPC: 1.66511 cumulative IPC: 1.66772 (Simulation time: 3 hr 27 min 40 sec) 
Heartbeat CPU 1 instructions: 520000000 cycles: 420065146 heartbeat IPC: 1.17557 cumulative IPC: 1.1771 (Simulation time: 3 hr 27 min 53 sec) 
Heartbeat CPU 4 instructions: 600000000 cycles: 420682704 heartbeat IPC: 1.62674 cumulative IPC: 1.37959 (Simulation time: 3 hr 28 min 10 sec) 
Heartbeat CPU 2 instructions: 670000003 cycles: 424389791 heartbeat IPC: 1.60275 cumulative IPC: 1.54171 (Simulation time: 3 hr 29 min 53 sec) 
Heartbeat CPU 0 instructions: 320000000 cycles: 424603161 heartbeat IPC: 0.723093 cumulative IPC: 0.679416 (Simulation time: 3 hr 29 min 59 sec) 
Heartbeat CPU 6 instructions: 730000001 cycles: 425611547 heartbeat IPC: 1.673 cumulative IPC: 1.6678 (Simulation time: 3 hr 30 min 26 sec) 
Heartbeat CPU 4 instructions: 610000000 cycles: 428090467 heartbeat IPC: 1.34994 cumulative IPC: 1.37905 (Simulation time: 3 hr 31 min 32 sec) 
Heartbeat CPU 1 instructions: 530000001 cycles: 428386476 heartbeat IPC: 1.20173 cumulative IPC: 1.17761 (Simulation time: 3 hr 31 min 40 sec) 
Heartbeat CPU 7 instructions: 420000000 cycles: 429507937 heartbeat IPC: 0.839431 cumulative IPC: 0.89608 (Simulation time: 3 hr 32 min 10 sec) 
Heartbeat CPU 2 instructions: 680000000 cycles: 430734333 heartbeat IPC: 1.57616 cumulative IPC: 1.54224 (Simulation time: 3 hr 32 min 42 sec) 
Heartbeat CPU 5 instructions: 160000000 cycles: 431223567 heartbeat IPC: 0.351179 cumulative IPC: 0.314839 (Simulation time: 3 hr 32 min 55 sec) 
Heartbeat CPU 6 instructions: 740000000 cycles: 431579957 heartbeat IPC: 1.67549 cumulative IPC: 1.66791 (Simulation time: 3 hr 33 min 5 sec) 
Heartbeat CPU 3 instructions: 90000003 cycles: 433427879 heartbeat IPC: 0.170549 cumulative IPC: 0.169747 (Simulation time: 3 hr 33 min 53 sec) 
Heartbeat CPU 1 instructions: 540000000 cycles: 436853968 heartbeat IPC: 1.18099 cumulative IPC: 1.17768 (Simulation time: 3 hr 35 min 19 sec) 
Heartbeat CPU 6 instructions: 750000003 cycles: 437566054 heartbeat IPC: 1.67054 cumulative IPC: 1.66795 (Simulation time: 3 hr 35 min 37 sec) 
Heartbeat CPU 4 instructions: 620000000 cycles: 437662142 heartbeat IPC: 1.04475 cumulative IPC: 1.37137 (Simulation time: 3 hr 35 min 39 sec) 
Heartbeat CPU 2 instructions: 690000000 cycles: 437847511 heartbeat IPC: 1.40584 cumulative IPC: 1.53992 (Simulation time: 3 hr 35 min 43 sec) 
Heartbeat CPU 0 instructions: 330000003 cycles: 438442121 heartbeat IPC: 0.722598 cumulative IPC: 0.680847 (Simulation time: 3 hr 35 min 58 sec) 
Heartbeat CPU 7 instructions: 430000000 cycles: 441531513 heartbeat IPC: 0.831699 cumulative IPC: 0.894239 (Simulation time: 3 hr 37 min 16 sec) 
Heartbeat CPU 6 instructions: 760000000 cycles: 443594474 heartbeat IPC: 1.65881 cumulative IPC: 1.66782 (Simulation time: 3 hr 38 min 9 sec) 
Heartbeat CPU 1 instructions: 550000003 cycles: 445389190 heartbeat IPC: 1.17162 cumulative IPC: 1.17755 (Simulation time: 3 hr 38 min 57 sec) 
Heartbeat CPU 4 instructions: 630000002 cycles: 445399346 heartbeat IPC: 1.29246 cumulative IPC: 1.36993 (Simulation time: 3 hr 38 min 57 sec) 
Heartbeat CPU 2 instructions: 700000000 cycles: 445884624 heartbeat IPC: 1.24423 cumulative IPC: 1.53432 (Simulation time: 3 hr 39 min 10 sec) 
Heartbeat CPU 6 instructions: 770000000 cycles: 449582020 heartbeat IPC: 1.67013 cumulative IPC: 1.66785 (Simulation time: 3 hr 40 min 50 sec) 
Heartbeat CPU 2 instructions: 710000003 cycles: 452983854 heartbeat IPC: 1.4086 cumulative IPC: 1.53226 (Simulation time: 3 hr 42 min 14 sec) 
Heartbeat CPU 7 instructions: 440000000 cycles: 453509248 heartbeat IPC: 0.834882 cumulative IPC: 0.892595 (Simulation time: 3 hr 42 min 27 sec) 
Heartbeat CPU 4 instructions: 640000000 cycles: 453629637 heartbeat IPC: 1.21502 cumulative IPC: 1.36698 (Simulation time: 3 hr 42 min 30 sec) 
Heartbeat CPU 1 instructions: 560000000 cycles: 453735011 heartbeat IPC: 1.1982 cumulative IPC: 1.17795 (Simulation time: 3 hr 42 min 33 sec) 
Heartbeat CPU 6 instructions: 780000000 cycles: 455554603 heartbeat IPC: 1.67432 cumulative IPC: 1.66794 (Simulation time: 3 hr 43 min 19 sec) 
Heartbeat CPU 0 instructions: 340000000 cycles: 458518673 heartbeat IPC: 0.498093 cumulative IPC: 0.67246 (Simulation time: 3 hr 44 min 33 sec) 
Heartbeat CPU 2 instructions: 720000000 cycles: 460024764 heartbeat IPC: 1.42027 cumulative IPC: 1.53046 (Simulation time: 3 hr 45 min 9 sec) 
Heartbeat CPU 6 instructions: 790000000 cycles: 461537761 heartbeat IPC: 1.67136 cumulative IPC: 1.66799 (Simulation time: 3 hr 45 min 46 sec) 
Heartbeat CPU 4 instructions: 650000001 cycles: 462223891 heartbeat IPC: 1.16357 cumulative IPC: 1.36302 (Simulation time: 3 hr 46 min 4 sec) 
Heartbeat CPU 1 instructions: 570000001 cycles: 462613612 heartbeat IPC: 1.1263 cumulative IPC: 1.17691 (Simulation time: 3 hr 46 min 14 sec) 
Heartbeat CPU 5 instructions: 170000000 cycles: 465340058 heartbeat IPC: 0.293113 cumulative IPC: 0.313171 (Simulation time: 3 hr 47 min 28 sec) 
Heartbeat CPU 7 instructions: 450000002 cycles: 465641891 heartbeat IPC: 0.824223 cumulative IPC: 0.890729 (Simulation time: 3 hr 47 min 36 sec) 
Heartbeat CPU 2 instructions: 730000003 cycles: 466384078 heartbeat IPC: 1.5725 cumulative IPC: 1.53106 (Simulation time: 3 hr 47 min 58 sec) 
Heartbeat CPU 6 instructions: 800000000 cycles: 467565245 heartbeat IPC: 1.65907 cumulative IPC: 1.66787 (Simulation time: 3 hr 48 min 31 sec) 
Heartbeat CPU 4 instructions: 660000000 cycles: 469463020 heartbeat IPC: 1.38138 cumulative IPC: 1.36331 (Simulation time: 3 hr 49 min 23 sec) 
Heartbeat CPU 1 instructions: 580000000 cycles: 470947068 heartbeat IPC: 1.19998 cumulative IPC: 1.17734 (Simulation time: 3 hr 50 min 4 sec) 
Heartbeat CPU 2 instructions: 740000000 cycles: 472669345 heartbeat IPC: 1.59102 cumulative IPC: 1.53189 (Simulation time: 3 hr 50 min 51 sec) 
Heartbeat CPU 0 instructions: 350000000 cycles: 473554526 heartbeat IPC: 0.665077 cumulative IPC: 0.672215 (Simulation time: 3 hr 51 min 13 sec) 
Heartbeat CPU 6 instructions: 810000000 cycles: 473566167 heartbeat IPC: 1.66641 cumulative IPC: 1.66785 (Simulation time: 3 hr 51 min 14 sec) 
Heartbeat CPU 7 instructions: 460000000 cycles: 477548214 heartbeat IPC: 0.83989 cumulative IPC: 0.889403 (Simulation time: 3 hr 52 min 59 sec) 
Heartbeat CPU 4 instructions: 670000002 cycles: 478162800 heartbeat IPC: 1.14945 cumulative IPC: 1.35924 (Simulation time: 3 hr 53 min 15 sec) 
Heartbeat CPU 1 instructions: 590000002 cycles: 479382006 heartbeat IPC: 1.18555 cumulative IPC: 1.17749 (Simulation time: 3 hr 53 min 47 sec) 
Heartbeat CPU 6 instructions: 820000000 cycles: 479547288 heartbeat IPC: 1.67193 cumulative IPC: 1.6679 (Simulation time: 3 hr 53 min 51 sec) 
Heartbeat CPU 2 instructions: 750000003 cycles: 479709312 heartbeat IPC: 1.42046 cumulative IPC: 1.53018 (Simulation time: 3 hr 53 min 55 sec) 
Heartbeat CPU 6 instructions: 830000003 cycles: 485583300 heartbeat IPC: 1.65672 cumulative IPC: 1.66775 (Simulation time: 3 hr 56 min 28 sec) 
Heartbeat CPU 2 instructions: 760000000 cycles: 486009771 heartbeat IPC: 1.58719 cumulative IPC: 1.53096 (Simulation time: 3 hr 56 min 40 sec) 
Heartbeat CPU 4 instructions: 680000000 cycles: 486279236 heartbeat IPC: 1.23207 cumulative IPC: 1.35703 (Simulation time: 3 hr 56 min 47 sec) 
Heartbeat CPU 0 instructions: 360000000 cycles: 487430564 heartbeat IPC: 0.720667 cumulative IPC: 0.673657 (Simulation time: 3 hr 57 min 16 sec) 
Heartbeat CPU 1 instructions: 600000000 cycles: 488006575 heartbeat IPC: 1.15948 cumulative IPC: 1.17716 (Simulation time: 3 hr 57 min 31 sec) 
Heartbeat CPU 7 instructions: 470000003 cycles: 489568999 heartbeat IPC: 0.831893 cumulative IPC: 0.887928 (Simulation time: 3 hr 58 min 14 sec) 
Heartbeat CPU 6 instructions: 840000000 cycles: 491609180 heartbeat IPC: 1.65951 cumulative IPC: 1.66765 (Simulation time: 3 hr 59 min 10 sec) 
Heartbeat CPU 4 instructions: 690000003 cycles: 492630473 heartbeat IPC: 1.5745 cumulative IPC: 1.35995 (Simulation time: 3 hr 59 min 38 sec) 
Heartbeat CPU 3 instructions: 100000000 cycles: 492828343 heartbeat IPC: 0.168349 cumulative IPC: 0.169571 (Simulation time: 3 hr 59 min 44 sec) 
Heartbeat CPU 2 instructions: 770000000 cycles: 493605606 heartbeat IPC: 1.31651 cumulative IPC: 1.52751 (Simulation time: 4 hr 0 min 5 sec) 
Heartbeat CPU 5 instructions: 180000000 cycles: 494739842 heartbeat IPC: 0.340139 cumulative IPC: 0.314844 (Simulation time: 4 hr 0 min 35 sec) 
Heartbeat CPU 1 instructions: 610000003 cycles: 496248581 heartbeat IPC: 1.2133 cumulative IPC: 1.17779 (Simulation time: 4 hr 1 min 16 sec) 
Heartbeat CPU 6 instructions: 850000003 cycles: 497601304 heartbeat IPC: 1.66886 cumulative IPC: 1.66766 (Simulation time: 4 hr 1 min 53 sec) 
Heartbeat CPU 4 instructions: 700000000 cycles: 499038371 heartbeat IPC: 1.56057 cumulative IPC: 1.36264 (Simulation time: 4 hr 2 min 32 sec) 
Heartbeat CPU 2 instructions: 780000000 cycles: 501238297 heartbeat IPC: 1.31015 cumulative IPC: 1.52405 (Simulation time: 4 hr 3 min 32 sec) 
Heartbeat CPU 0 instructions: 370000003 cycles: 501243197 heartbeat IPC: 0.723975 cumulative IPC: 0.675104 (Simulation time: 4 hr 3 min 32 sec) 
Heartbeat CPU 7 instructions: 480000000 cycles: 501478004 heartbeat IPC: 0.8397 cumulative IPC: 0.886732 (Simulation time: 4 hr 3 min 38 sec) 
Heartbeat CPU 6 instructions: 860000000 cycles: 503601432 heartbeat IPC: 1.66663 cumulative IPC: 1.66765 (Simulation time: 4 hr 4 min 34 sec) 
Heartbeat CPU 1 instructions: 620000000 cycles: 504751821 heartbeat IPC: 1.17602 cumulative IPC: 1.17776 (Simulation time: 4 hr 5 min 4 sec) 
Heartbeat CPU 4 instructions: 710000002 cycles: 505320730 heartbeat IPC: 1.59176 cumulative IPC: 1.36562 (Simulation time: 4 hr 5 min 19 sec) 
Heartbeat CPU 2 instructions: 790000002 cycles: 507689808 heartbeat IPC: 1.55002 cumulative IPC: 1.5244 (Simulation time: 4 hr 6 min 22 sec) 
Heartbeat CPU 6 instructions: 870000000 cycles: 509637161 heartbeat IPC: 1.6568 cumulative IPC: 1.66752 (Simulation time: 4 hr 7 min 14 sec) 
Heartbeat CPU 4 instructions: 720000000 cycles: 511734650 heartbeat IPC: 1.55911 cumulative IPC: 1.36814 (Simulation time: 4 hr 8 min 10 sec) 
Heartbeat CPU 1 instructions: 630000001 cycles: 513279886 heartbeat IPC: 1.1726 cumulative IPC: 1.17767 (Simulation time: 4 hr 8 min 53 sec) 
Heartbeat CPU 7 instructions: 490000003 cycles: 513527519 heartbeat IPC: 0.829909 cumulative IPC: 0.885342 (Simulation time: 4 hr 9 min 0 sec) 
Heartbeat CPU 2 instructions: 800000000 cycles: 514055979 heartbeat IPC: 1.5708 cumulative IPC: 1.525 (Simulation time: 4 hr 9 min 14 sec) 
Heartbeat CPU 0 instructions: 380000000 cycles: 515091403 heartbeat IPC: 0.722115 cumulative IPC: 0.676422 (Simulation time: 4 hr 9 min 43 sec) 
Heartbeat CPU 6 instructions: 880000000 cycles: 515649705 heartbeat IPC: 1.66319 cumulative IPC: 1.66746 (Simulation time: 4 hr 9 min 58 sec) 
Heartbeat CPU 4 instructions: 730000000 cycles: 517965811 heartbeat IPC: 1.60484 cumulative IPC: 1.37111 (Simulation time: 4 hr 11 min 2 sec) 
Heartbeat CPU 2 instructions: 810000003 cycles: 520611519 heartbeat IPC: 1.52543 cumulative IPC: 1.525 (Simulation time: 4 hr 12 min 14 sec) 
Heartbeat CPU 1 instructions: 640000000 cycles: 521528176 heartbeat IPC: 1.21237 cumulative IPC: 1.17824 (Simulation time: 4 hr 12 min 39 sec) 
Heartbeat CPU 6 instructions: 890000002 cycles: 521619949 heartbeat IPC: 1.67497 cumulative IPC: 1.66755 (Simulation time: 4 hr 12 min 42 sec) 
Heartbeat CPU 5 instructions: 190000000 cycles: 524269740 heartbeat IPC: 0.33864 cumulative IPC: 0.316241 (Simulation time: 4 hr 13 min 55 sec) 
Heartbeat CPU 4 instructions: 740000000 cycles: 524328479 heartbeat IPC: 1.57167 cumulative IPC: 1.37365 (Simulation time: 4 hr 13 min 57 sec) 
Heartbeat CPU 7 instructions: 500000000 cycles: 525430065 heartbeat IPC: 0.840156 cumulative IPC: 0.884276 (Simulation time: 4 hr 14 min 26 sec) 
Heartbeat CPU 2 instructions: 820000000 cycles: 527102151 heartbeat IPC: 1.54068 cumulative IPC: 1.52521 (Simulation time: 4 hr 15 min 10 sec) 
Heartbeat CPU 6 instructions: 900000000 cycles: 527604165 heartbeat IPC: 1.67106 cumulative IPC: 1.6676 (Simulation time: 4 hr 15 min 24 sec) 
Heartbeat CPU 0 instructions: 390000000 cycles: 528924834 heartbeat IPC: 0.722886 cumulative IPC: 0.677687 (Simulation time: 4 hr 15 min 58 sec) 
Heartbeat CPU 1 instructions: 650000000 cycles: 530015289 heartbeat IPC: 1.17826 cumulative IPC: 1.17824 (Simulation time: 4 hr 16 min 27 sec) 
Heartbeat CPU 4 instructions: 750000001 cycles: 530596520 heartbeat IPC: 1.59539 cumulative IPC: 1.37638 (Simulation time: 4 hr 16 min 43 sec) 
Heartbeat CPU 2 instructions: 830000000 cycles: 533573885 heartbeat IPC: 1.54518 cumulative IPC: 1.52546 (Simulation time: 4 hr 18 min 1 sec) 
Heartbeat CPU 6 instructions: 910000002 cycles: 533643980 heartbeat IPC: 1.65568 cumulative IPC: 1.66746 (Simulation time: 4 hr 18 min 3 sec) 
Heartbeat CPU 4 instructions: 760000000 cycles: 536937691 heartbeat IPC: 1.577 cumulative IPC: 1.37884 (Simulation time: 4 hr 19 min 24 sec) 
Heartbeat CPU 1 instructions: 660000000 cycles: 538702764 heartbeat IPC: 1.15108 cumulative IPC: 1.17778 (Simulation time: 4 hr 20 min 7 sec) 
Heartbeat CPU 6 instructions: 920000000 cycles: 539694937 heartbeat IPC: 1.65263 cumulative IPC: 1.66728 (Simulation time: 4 hr 20 min 31 sec) 
Heartbeat CPU 2 instructions: 840000000 cycles: 539907738 heartbeat IPC: 1.57882 cumulative IPC: 1.52611 (Simulation time: 4 hr 20 min 36 sec) 
Heartbeat CPU 0 instructions: 400000000 cycles: 542792226 heartbeat IPC: 0.721116 cumulative IPC: 0.678842 (Simulation time: 4 hr 21 min 45 sec) 
Heartbeat CPU 4 instructions: 770000003 cycles: 543247037 heartbeat IPC: 1.58495 cumulative IPC: 1.38133 (Simulation time: 4 hr 21 min 56 sec) 
Heartbeat CPU 6 instructions: 930000001 cycles: 546126199 heartbeat IPC: 1.5549 cumulative IPC: 1.66591 (Simulation time: 4 hr 23 min 4 sec) 
Heartbeat CPU 2 instructions: 850000003 cycles: 546540596 heartbeat IPC: 1.50765 cumulative IPC: 1.52588 (Simulation time: 4 hr 23 min 14 sec) 
Heartbeat CPU 1 instructions: 670000001 cycles: 547444209 heartbeat IPC: 1.14398 cumulative IPC: 1.17722 (Simulation time: 4 hr 23 min 35 sec) 
Heartbeat CPU 4 instructions: 780000000 cycles: 549560349 heartbeat IPC: 1.58395 cumulative IPC: 1.38375 (Simulation time: 4 hr 24 min 27 sec) 
Heartbeat CPU 6 instructions: 940000000 cycles: 552154216 heartbeat IPC: 1.65892 cumulative IPC: 1.66583 (Simulation time: 4 hr 25 min 36 sec) 
Heartbeat CPU 7 instructions: 510000001 cycles: 552485174 heartbeat IPC: 0.369616 cumulative IPC: 0.858074 (Simulation time: 4 hr 25 min 45 sec) 
Heartbeat CPU 3 instructions: 110000002 cycles: 552979200 heartbeat IPC: 0.166249 cumulative IPC: 0.169195 (Simulation time: 4 hr 25 min 59 sec) 
Heartbeat CPU 2 instructions: 860000000 cycles: 553093449 heartbeat IPC: 1.52605 cumulative IPC: 1.52588 (Simulation time: 4 hr 26 min 2 sec) 
Heartbeat CPU 4 instructions: 790000001 cycles: 555825112 heartbeat IPC: 1.59623 cumulative IPC: 1.38624 (Simulation time: 4 hr 27 min 16 sec) 
Heartbeat CPU 1 instructions: 680000000 cycles: 555872890 heartbeat IPC: 1.18643 cumulative IPC: 1.17737 (Simulation time: 4 hr 27 min 18 sec) 
Heartbeat CPU 0 instructions: 410000002 cycles: 556675425 heartbeat IPC: 0.720295 cumulative IPC: 0.679916 (Simulation time: 4 hr 27 min 39 sec) 
Heartbeat CPU 6 instructions: 950000003 cycles: 558169884 heartbeat IPC: 1.66233 cumulative IPC: 1.66579 (Simulation time: 4 hr 28 min 19 sec) 
Heartbeat CPU 2 instructions: 870000002 cycles: 559702779 heartbeat IPC: 1.51301 cumulative IPC: 1.52572 (Simulation time: 4 hr 29 min 1 sec) 
Heartbeat CPU 4 instructions: 800000000 cycles: 562072991 heartbeat IPC: 1.60054 cumulative IPC: 1.38872 (Simulation time: 4 hr 29 min 59 sec) 
Heartbeat CPU 6 instructions: 960000000 cycles: 564210714 heartbeat IPC: 1.6554 cumulative IPC: 1.66567 (Simulation time: 4 hr 30 min 48 sec) 
Heartbeat CPU 7 instructions: 520000000 cycles: 564663334 heartbeat IPC: 0.821142 cumulative IPC: 0.857247 (Simulation time: 4 hr 30 min 59 sec) 
Heartbeat CPU 1 instructions: 690000002 cycles: 564775178 heartbeat IPC: 1.12331 cumulative IPC: 1.17648 (Simulation time: 4 hr 31 min 2 sec) 
Heartbeat CPU 2 instructions: 880000000 cycles: 566031639 heartbeat IPC: 1.58006 cumulative IPC: 1.52635 (Simulation time: 4 hr 31 min 32 sec) 
Heartbeat CPU 4 instructions: 810000001 cycles: 568305150 heartbeat IPC: 1.60458 cumulative IPC: 1.39118 (Simulation time: 4 hr 32 min 26 sec) 
Heartbeat CPU 5 instructions: 200000000 cycles: 568440747 heartbeat IPC: 0.226393 cumulative IPC: 0.308991 (Simulation time: 4 hr 32 min 29 sec) 
Heartbeat CPU 6 instructions: 970000001 cycles: 570244818 heartbeat IPC: 1.65725 cumulative IPC: 1.66558 (Simulation time: 4 hr 33 min 12 sec) 
Heartbeat CPU 2 instructions: 890000000 cycles: 572420700 heartbeat IPC: 1.56518 cumulative IPC: 1.5268 (Simulation time: 4 hr 34 min 4 sec) 
Heartbeat CPU 1 instructions: 700000000 cycles: 573932932 heartbeat IPC: 1.09197 cumulative IPC: 1.17508 (Simulation time: 4 hr 34 min 45 sec) 
Heartbeat CPU 4 instructions: 820000000 cycles: 574510043 heartbeat IPC: 1.61163 cumulative IPC: 1.39365 (Simulation time: 4 hr 34 min 59 sec) 
Heartbeat CPU 6 instructions: 980000000 cycles: 576268196 heartbeat IPC: 1.6602 cumulative IPC: 1.66552 (Simulation time: 4 hr 35 min 45 sec) 
Heartbeat CPU 2 instructions: 900000000 cycles: 578736277 heartbeat IPC: 1.58339 cumulative IPC: 1.52744 (Simulation time: 4 hr 36 min 49 sec) 
Heartbeat CPU 0 instructions: 420000000 cycles: 578817378 heartbeat IPC: 0.451631 cumulative IPC: 0.670854 (Simulation time: 4 hr 36 min 51 sec) 
Heartbeat CPU 7 instructions: 530000001 cycles: 578896148 heartbeat IPC: 0.702602 cumulative IPC: 0.853302 (Simulation time: 4 hr 36 min 53 sec) 
Heartbeat CPU 4 instructions: 830000002 cycles: 580832402 heartbeat IPC: 1.58169 cumulative IPC: 1.39577 (Simulation time: 4 hr 37 min 43 sec) 
Heartbeat CPU 6 instructions: 990000000 cycles: 582276811 heartbeat IPC: 1.66428 cumulative IPC: 1.66551 (Simulation time: 4 hr 38 min 21 sec) 
Heartbeat CPU 1 instructions: 710000003 cycles: 582670338 heartbeat IPC: 1.1445 cumulative IPC: 1.17461 (Simulation time: 4 hr 38 min 31 sec) 
Heartbeat CPU 2 instructions: 910000000 cycles: 585164991 heartbeat IPC: 1.55552 cumulative IPC: 1.52776 (Simulation time: 4 hr 39 min 37 sec) 
Heartbeat CPU 4 instructions: 840000000 cycles: 587075510 heartbeat IPC: 1.60177 cumulative IPC: 1.39804 (Simulation time: 4 hr 40 min 28 sec) 
Heartbeat CPU 6 instructions: 1000000000 cycles: 588238770 heartbeat IPC: 1.6773 cumulative IPC: 1.66563 (Simulation time: 4 hr 40 min 58 sec) 
Heartbeat CPU 1 instructions: 720000000 cycles: 591255994 heartbeat IPC: 1.16473 cumulative IPC: 1.17446 (Simulation time: 4 hr 42 min 16 sec) 
Heartbeat CPU 2 instructions: 920000000 cycles: 591416294 heartbeat IPC: 1.59967 cumulative IPC: 1.52855 (Simulation time: 4 hr 42 min 20 sec) 
Heartbeat CPU 0 instructions: 430000003 cycles: 592681890 heartbeat IPC: 0.721266 cumulative IPC: 0.672076 (Simulation time: 4 hr 42 min 53 sec) 
Heartbeat CPU 4 instructions: 850000001 cycles: 593348547 heartbeat IPC: 1.59412 cumulative IPC: 1.40019 (Simulation time: 4 hr 43 min 10 sec) 
Heartbeat CPU 7 instructions: 540000000 cycles: 593768695 heartbeat IPC: 0.67238 cumulative IPC: 0.848603 (Simulation time: 4 hr 43 min 21 sec) 
Heartbeat CPU 6 instructions: 1010000002 cycles: 594204685 heartbeat IPC: 1.67619 cumulative IPC: 1.66574 (Simulation time: 4 hr 43 min 32 sec) 
Heartbeat CPU 2 instructions: 930000000 cycles: 597747075 heartbeat IPC: 1.57958 cumulative IPC: 1.52911 (Simulation time: 4 hr 45 min 1 sec) 
Heartbeat CPU 4 instructions: 860000000 cycles: 599665281 heartbeat IPC: 1.5831 cumulative IPC: 1.40219 (Simulation time: 4 hr 45 min 50 sec) 
Heartbeat CPU 6 instructions: 1020000000 cycles: 600184860 heartbeat IPC: 1.67219 cumulative IPC: 1.66581 (Simulation time: 4 hr 46 min 4 sec) 
Heartbeat CPU 1 instructions: 730000003 cycles: 600337833 heartbeat IPC: 1.1011 cumulative IPC: 1.17331 (Simulation time: 4 hr 46 min 7 sec) 
Heartbeat CPU 2 instructions: 940000000 cycles: 604072256 heartbeat IPC: 1.58098 cumulative IPC: 1.52967 (Simulation time: 4 hr 47 min 44 sec) 
Heartbeat CPU 4 instructions: 870000001 cycles: 605966455 heartbeat IPC: 1.58701 cumulative IPC: 1.40418 (Simulation time: 4 hr 48 min 33 sec) 
Heartbeat CPU 6 instructions: 1030000003 cycles: 606198472 heartbeat IPC: 1.66289 cumulative IPC: 1.66578 (Simulation time: 4 hr 48 min 39 sec) 
Heartbeat CPU 7 instructions: 550000001 cycles: 606398766 heartbeat IPC: 0.791761 cumulative IPC: 0.847377 (Simulation time: 4 hr 48 min 44 sec) 
Heartbeat CPU 0 instructions: 440000000 cycles: 606587579 heartbeat IPC: 0.71913 cumulative IPC: 0.673194 (Simulation time: 4 hr 48 min 49 sec) 
Heartbeat CPU 1 instructions: 740000000 cycles: 609039874 heartbeat IPC: 1.14916 cumulative IPC: 1.17295 (Simulation time: 4 hr 49 min 53 sec) 
Heartbeat CPU 2 instructions: 950000001 cycles: 610465844 heartbeat IPC: 1.56407 cumulative IPC: 1.53005 (Simulation time: 4 hr 50 min 29 sec) 
Heartbeat CPU 6 instructions: 1040000000 cycles: 612207178 heartbeat IPC: 1.66425 cumulative IPC: 1.66576 (Simulation time: 4 hr 51 min 13 sec) 
Heartbeat CPU 4 instructions: 880000000 cycles: 612980068 heartbeat IPC: 1.4258 cumulative IPC: 1.40444 (Simulation time: 4 hr 51 min 33 sec) 
Heartbeat CPU 5 instructions: 210000001 cycles: 614374261 heartbeat IPC: 0.217706 cumulative IPC: 0.301924 (Simulation time: 4 hr 52 min 9 sec) 
Heartbeat CPU 3 instructions: 120000000 cycles: 615164363 heartbeat IPC: 0.16081 cumulative IPC: 0.168318 (Simulation time: 4 hr 52 min 29 sec) 
Finished CPU 3 instructions: 100000000 cycles: 594115108 cumulative IPC: 0.168318 (Simulation time: 4 hr 52 min 29 sec) 

CPU 0 Branch Prediction Accuracy: 99.9704% MPKI: 0.0205909

CPU 1 Branch Prediction Accuracy: 99.1861% MPKI: 0.0538499

CPU 2 Branch Prediction Accuracy: 96.8933% MPKI: 4.23445

CPU 3 Branch Prediction Accuracy: 92.4261% MPKI: 6.09924

CPU 4 Branch Prediction Accuracy: 96.8349% MPKI: 4.38904

CPU 5 Branch Prediction Accuracy: 98.5886% MPKI: 1.32071

CPU 6 Branch Prediction Accuracy: 99.5353% MPKI: 0.859484

CPU 7 Branch Prediction Accuracy: 95.5813% MPKI: 3.54292

ChampSim completed all CPUs

Total Simulation Statistics (not including warmup)

CPU 0 cumulative IPC: 0.673923 instructions: 400387595 cycles: 594115108
L1D TOTAL     ACCESS:  100694928  HIT:   99412785  MISS:    1282143
L1D LOAD      ACCESS:   62080449  HIT:   61310405  MISS:     770044
L1D RFO       ACCESS:   38614479  HIT:   38102380  MISS:     512099
L1D PREFETCH  ACCESS:          0  HIT:          0  MISS:          0
L1D WRITEBACK ACCESS:          0  HIT:          0  MISS:          0
L1I TOTAL     ACCESS:  162207658  HIT:  162207552  MISS:        106
L1I LOAD      ACCESS:  162207658  HIT:  162207552  MISS:        106
L1I RFO       ACCESS:          0  HIT:          0  MISS:          0
L1I PREFETCH  ACCESS:          0  HIT:          0  MISS:          0
L1I WRITEBACK ACCESS:          0  HIT:          0  MISS:          0
L2C TOTAL     ACCESS:    2083596  HIT:     796511  MISS:    1287085
L2C LOAD      ACCESS:     770150  HIT:     270697  MISS:     499453
L2C RFO       ACCESS:     512095  HIT:        255  MISS:     511840
L2C PREFETCH  ACCESS:     288958  HIT:      14210  MISS:     274748
L2C WRITEBACK ACCESS:     512393  HIT:     511349  MISS:       1044
LLC TOTAL     ACCESS:    3839626  HIT:    2425455  MISS:    1414171
LLC LOAD      ACCESS:     404504  HIT:     324680  MISS:      79824
LLC RFO       ACCESS:     511840  HIT:          2  MISS:     511838
LLC PREFETCH  ACCESS:    2411628  HIT:    1669166  MISS:     742462
LLC WRITEBACK ACCESS:     511654  HIT:     431607  MISS:      80047

CPU 1 cumulative IPC: 1.17299 instructions: 696889284 cycles: 594115108
L1D TOTAL     ACCESS:  197076790  HIT:  185343967  MISS:   11732823
L1D LOAD      ACCESS:  162809244  HIT:  151076421  MISS:   11732823
L1D RFO       ACCESS:   34267546  HIT:   34267546  MISS:          0
L1D PREFETCH  ACCESS:          0  HIT:          0  MISS:          0
L1D WRITEBACK ACCESS:          0  HIT:          0  MISS:          0
L1I TOTAL     ACCESS:  149738550  HIT:  149738550  MISS:          0
L1I LOAD      ACCESS:  149738550  HIT:  149738550  MISS:          0
L1I RFO       ACCESS:          0  HIT:          0  MISS:          0
L1I PREFETCH  ACCESS:          0  HIT:          0  MISS:          0
L1I WRITEBACK ACCESS:          0  HIT:          0  MISS:          0
L2C TOTAL     ACCESS:   21924195  HIT:   10329147  MISS:   11595048
L2C LOAD      ACCESS:   11732822  HIT:    5949075  MISS:    5783747
L2C RFO       ACCESS:          0  HIT:          0  MISS:          0
L2C PREFETCH  ACCESS:    6552711  HIT:     742119  MISS:    5810592
L2C WRITEBACK ACCESS:    3638662  HIT:    3637953  MISS:        709
LLC TOTAL     ACCESS:   61046157  HIT:   48913469  MISS:   12132688
LLC LOAD      ACCESS:    5740591  HIT:    5433260  MISS:     307331
LLC RFO       ACCESS:          0  HIT:          0  MISS:          0
LLC PREFETCH  ACCESS:   51686567  HIT:   39861438  MISS:   11825129
LLC WRITEBACK ACCESS:    3618999  HIT:    3618771  MISS:        228

CPU 2 cumulative IPC: 1.53031 instructions: 909178451 cycles: 594115108
L1D TOTAL     ACCESS:  245904355  HIT:  245904205  MISS:        150
L1D LOAD      ACCESS:  108270215  HIT:  108270165  MISS:         50
L1D RFO       ACCESS:  137634140  HIT:  137634040  MISS:        100
L1D PREFETCH  ACCESS:          0  HIT:          0  MISS:          0
L1D WRITEBACK ACCESS:          0  HIT:          0  MISS:          0
L1I TOTAL     ACCESS:  197468795  HIT:  197438785  MISS:      30010
L1I LOAD      ACCESS:  197468795  HIT:  197438785  MISS:      30010
L1I RFO       ACCESS:          0  HIT:          0  MISS:          0
L1I PREFETCH  ACCESS:          0  HIT:          0  MISS:          0
L1I WRITEBACK ACCESS:          0  HIT:          0  MISS:          0
L2C TOTAL     ACCESS:      87820  HIT:      86620  MISS:       1200
L2C LOAD      ACCESS:      30060  HIT:      29096  MISS:        964
L2C RFO       ACCESS:        100  HIT:          0  MISS:        100
L2C PREFETCH  ACCESS:      57660  HIT:      57524  MISS:        136
L2C WRITEBACK ACCESS:          0  HIT:          0  MISS:          0
LLC TOTAL     ACCESS:       4786  HIT:       2346  MISS:       2440
LLC LOAD      ACCESS:        931  HIT:        495  MISS:        436
LLC RFO       ACCESS:        100  HIT:          2  MISS:         98
LLC PREFETCH  ACCESS:       3755  HIT:       1849  MISS:       1906
LLC WRITEBACK ACCESS:          0  HIT:          0  MISS:          0

CPU 3 cumulative IPC: 0.168318 instructions: 100000000 cycles: 594115108
L1D TOTAL     ACCESS:   53487670  HIT:   44464833  MISS:    9022837
L1D LOAD      ACCESS:   33747530  HIT:   29098124  MISS:    4649406
L1D RFO       ACCESS:   19740140  HIT:   15366709  MISS:    4373431
L1D PREFETCH  ACCESS:          0  HIT:          0  MISS:          0
L1D WRITEBACK ACCESS:          0  HIT:          0  MISS:          0
L1I TOTAL     ACCESS:   23973822  HIT:   23973822  MISS:          0
L1I LOAD      ACCESS:   23973822  HIT:   23973822  MISS:          0
L1I RFO       ACCESS:          0  HIT:          0  MISS:          0
L1I PREFETCH  ACCESS:          0  HIT:          0  MISS:          0
L1I WRITEBACK ACCESS:          0  HIT:          0  MISS:          0
L2C TOTAL     ACCESS:   18911834  HIT:   10119736  MISS:    8792098
L2C LOAD      ACCESS:    4649353  HIT:     979195  MISS:    3670158
L2C RFO       ACCESS:    4373431  HIT:         14  MISS:    4373417
L2C PREFETCH  ACCESS:     866213  HIT:     122213  MISS:     744000
L2C WRITEBACK ACCESS:    9022837  HIT:    9018314  MISS:       4523
LLC TOTAL     ACCESS:   24484821  HIT:   17275234  MISS:    7209587
[...]
L2C WRITEBACK ACCESS:          9  HIT:          9  MISS:          0
LLC TOTAL     ACCESS:       6826  HIT:       4203  MISS:       2623
LLC LOAD      ACCESS:        401  HIT:        118  MISS:        283
LLC RFO       ACCESS:         58  HIT:          4  MISS:         54
LLC PREFETCH  ACCESS:       6367  HIT:       4081  MISS:       2286
LLC WRITEBACK ACCESS:          0  HIT:          0  MISS:          0

CPU 5 cumulative IPC: 0.302007 instructions: 179427146 cycles: 594115109
L1D TOTAL     ACCESS:   88816831  HIT:   83868791  MISS:    4948040
L1D LOAD      ACCESS:   39084920  HIT:   34582056  MISS:    4502864
L1D RFO       ACCESS:   49731911  HIT:   49286735  MISS:     445176
L1D PREFETCH  ACCESS:          0  HIT:          0  MISS:          0
L1D WRITEBACK ACCESS:          0  HIT:          0  MISS:          0
L1I TOTAL     ACCESS:   57739738  HIT:   57739738  MISS:          0
L1I LOAD      ACCESS:   57739738  HIT:   57739738  MISS:          0
L1I RFO       ACCESS:          0  HIT:          0  MISS:          0
L1I PREFETCH  ACCESS:          0  HIT:          0  MISS:          0
L1I WRITEBACK ACCESS:          0  HIT:          0  MISS:          0
L2C TOTAL     ACCESS:    7001896  HIT:    2181123  MISS:    4820773
L2C LOAD      ACCESS:    4502838  HIT:     482136  MISS:    4020702
L2C RFO       ACCESS:     445164  HIT:      19329  MISS:     425835
L2C PREFETCH  ACCESS:     872945  HIT:     502181  MISS:     370764
L2C WRITEBACK ACCESS:    1180949  HIT:    1177477  MISS:       3472
LLC TOTAL     ACCESS:   11155699  HIT:    5758484  MISS:    5397215
LLC LOAD      ACCESS:    3901903  HIT:    1656045  MISS:    2245858
LLC RFO       ACCESS:     424922  HIT:      23574  MISS:     401348
LLC PREFETCH  ACCESS:    5762011  HIT:    3012932  MISS:    2749079
LLC WRITEBACK ACCESS:    1066863  HIT:    1065933  MISS:        930

CPU 6 cumulative IPC: 1.66578 instructions: 989665381 cycles: 594115109
L1D TOTAL     ACCESS:  161030448  HIT:  156819836  MISS:    4210612
L1D LOAD      ACCESS:  130510687  HIT:  126538449  MISS:    3972238
L1D RFO       ACCESS:   30519761  HIT:   30281387  MISS:     238374
L1D PREFETCH  ACCESS:          0  HIT:          0  MISS:          0
L1D WRITEBACK ACCESS:          0  HIT:          0  MISS:          0
L1I TOTAL     ACCESS:  232486309  HIT:  232486233  MISS:         76
L1I LOAD      ACCESS:  232486309  HIT:  232486233  MISS:         76
L1I RFO       ACCESS:          0  HIT:          0  MISS:          0
L1I PREFETCH  ACCESS:          0  HIT:          0  MISS:          0
L1I WRITEBACK ACCESS:          0  HIT:          0  MISS:          0
L2C TOTAL     ACCESS:   12480476  HIT:   12373199  MISS:     107277
L2C LOAD      ACCESS:    3972314  HIT:    3892628  MISS:      79686
L2C RFO       ACCESS:     235602  HIT:     232694  MISS:       2908
L2C PREFETCH  ACCESS:    8034079  HIT:    8009562  MISS:      24517
L2C WRITEBACK ACCESS:     238481  HIT:     238315  MISS:        166
LLC TOTAL     ACCESS:    1682909  HIT:    1569405  MISS:     113504
LLC LOAD      ACCESS:      79315  HIT:      68794  MISS:      10521
LLC RFO       ACCESS:       2908  HIT:          1  MISS:       2907
LLC PREFETCH  ACCESS:    1597620  HIT:    1500610  MISS:      97010
LLC WRITEBACK ACCESS:       3066  HIT:          0  MISS:       3066

CPU 7 cumulative IPC: 0.848873 instructions: 504328579 cycles: 594115109
L1D TOTAL     ACCESS:   86785007  HIT:   76957370  MISS:    9827637
L1D LOAD      ACCESS:   56222955  HIT:   49801577  MISS:    6421378
L1D RFO       ACCESS:   30562052  HIT:   27155793  MISS:    3406259
L1D PREFETCH  ACCESS:          0  HIT:          0  MISS:          0
L1D WRITEBACK ACCESS:          0  HIT:          0  MISS:          0
L1I TOTAL     ACCESS:  127364593  HIT:  127356123  MISS:       8470
L1I LOAD      ACCESS:  127364593  HIT:  127356123  MISS:       8470
L1I RFO       ACCESS:          0  HIT:          0  MISS:          0
L1I PREFETCH  ACCESS:          0  HIT:          0  MISS:          0
L1I WRITEBACK ACCESS:          0  HIT:          0  MISS:          0
L2C TOTAL     ACCESS:   20282848  HIT:   12798286  MISS:    7484562
L2C LOAD      ACCESS:    6429787  HIT:    2989466  MISS:    3440321
L2C RFO       ACCESS:    3405392  HIT:     711522  MISS:    2693870
L2C PREFETCH  ACCESS:    6133002  HIT:    4790433  MISS:    1342569
L2C WRITEBACK ACCESS:    4314667  HIT:    4306865  MISS:       7802
LLC TOTAL     ACCESS:   22830396  HIT:   20344370  MISS:    2486026
LLC LOAD      ACCESS:    2836854  HIT:    2630863  MISS:     205991
LLC RFO       ACCESS:    2693838  HIT:    1519970  MISS:    1173868
LLC PREFETCH  ACCESS:   13893541  HIT:   12790179  MISS:    1103362
LLC WRITEBACK ACCESS:    3406163  HIT:    3403358  MISS:       2805

Region of Interest Statistics

CPU 0 cumulative IPC: 0.683183 instructions: 100000003 cycles: 146373735
L1D TOTAL     ACCESS:   25161214  HIT:   24881753  MISS:     279461
L1D LOAD      ACCESS:   15484203  HIT:   15316337  MISS:     167866
L1D RFO       ACCESS:    9677011  HIT:    9565416  MISS:     111595
L1D PREFETCH  ACCESS:          0  HIT:          0  MISS:          0
L1D WRITEBACK ACCESS:          0  HIT:          0  MISS:          0
L1D PREFETCH  REQUESTED:          0  ISSUED:          0  USEFUL:          0  USELESS:          0
L1I TOTAL     ACCESS:   40589215  HIT:   40589109  MISS:        106
L1I LOAD      ACCESS:   40589215  HIT:   40589109  MISS:        106
L1I RFO       ACCESS:          0  HIT:          0  MISS:          0
L1I PREFETCH  ACCESS:          0  HIT:          0  MISS:          0
L1I WRITEBACK ACCESS:          0  HIT:          0  MISS:          0
L1I PREFETCH  REQUESTED:          0  ISSUED:          0  USEFUL:          0  USELESS:          0
L2C TOTAL     ACCESS:     455301  HIT:     174598  MISS:     280703
L2C LOAD      ACCESS:     167972  HIT:      60107  MISS:     107865
L2C RFO       ACCESS:     111592  HIT:         15  MISS:     111577
L2C PREFETCH  ACCESS:      64134  HIT:       3091  MISS:      61043
L2C WRITEBACK ACCESS:     111603  HIT:     111385  MISS:        218
L2C PREFETCH  REQUESTED:    4416850  ISSUED:    4416850  USEFUL:     333693  USELESS:       5134
LLC TOTAL     ACCESS:     862224  HIT:     551068  MISS:     311156
LLC LOAD      ACCESS:      89552  HIT:      73590  MISS:      15962
LLC RFO       ACCESS:     111577  HIT:          1  MISS:     111576
LLC PREFETCH  ACCESS:     549677  HIT:     386779  MISS:     162898
LLC WRITEBACK ACCESS:     111418  HIT:      90698  MISS:      20720
LLC PREFETCH  REQUESTED:          0  ISSUED:          0  USEFUL:   10843907  USELESS:   10279656
Major fault: 0 Minor fault: 12141

CPU 1 cumulative IPC: 1.18596 instructions: 100000002 cycles: 84319816
L1D TOTAL     ACCESS:   28274093  HIT:   26591369  MISS:    1682724
L1D LOAD      ACCESS:   23356872  HIT:   21674148  MISS:    1682724
L1D RFO       ACCESS:    4917221  HIT:    4917221  MISS:          0
L1D PREFETCH  ACCESS:          0  HIT:          0  MISS:          0
L1D WRITEBACK ACCESS:          0  HIT:          0  MISS:          0
L1D PREFETCH  REQUESTED:          0  ISSUED:          0  USEFUL:          0  USELESS:          0
L1I TOTAL     ACCESS:   21473573  HIT:   21473573  MISS:          0
L1I LOAD      ACCESS:   21473573  HIT:   21473573  MISS:          0
L1I RFO       ACCESS:          0  HIT:          0  MISS:          0
L1I PREFETCH  ACCESS:          0  HIT:          0  MISS:          0
L1I WRITEBACK ACCESS:          0  HIT:          0  MISS:          0
L1I PREFETCH  REQUESTED:          0  ISSUED:          0  USEFUL:          0  USELESS:          0
L2C TOTAL     ACCESS:    3150539  HIT:    1486964  MISS:    1663575
L2C LOAD      ACCESS:    1682724  HIT:     857516  MISS:     825208
L2C RFO       ACCESS:          0  HIT:          0  MISS:          0
L2C PREFETCH  ACCESS:     945602  HIT:     107358  MISS:     838244
L2C WRITEBACK ACCESS:     522213  HIT:     522090  MISS:        123
L2C PREFETCH  REQUESTED:   59460555  ISSUED:   58950411  USEFUL:    5992368  USELESS:     194214
LLC TOTAL     ACCESS:    8917360  HIT:    7176435  MISS:    1740925
LLC LOAD      ACCESS:     821069  HIT:     778422  MISS:      42647
LLC RFO       ACCESS:          0  HIT:          0  MISS:          0
LLC PREFETCH  ACCESS:    7576916  HIT:    5878668  MISS:    1698248
LLC WRITEBACK ACCESS:     519375  HIT:     519345  MISS:         30
LLC PREFETCH  REQUESTED:          0  ISSUED:          0  USEFUL:   10843907  USELESS:   10279656
Major fault: 0 Minor fault: 161300

CPU 2 cumulative IPC: 1.5407 instructions: 100000000 cycles: 64905371
L1D TOTAL     ACCESS:   27472159  HIT:   27472040  MISS:        119
L1D LOAD      ACCESS:   12065951  HIT:   12065915  MISS:         36
L1D RFO       ACCESS:   15406208  HIT:   15406125  MISS:         83
L1D PREFETCH  ACCESS:          0  HIT:          0  MISS:          0
L1D WRITEBACK ACCESS:          0  HIT:          0  MISS:          0
L1D PREFETCH  REQUESTED:          0  ISSUED:          0  USEFUL:          0  USELESS:          0
L1I TOTAL     ACCESS:   21634695  HIT:   21632378  MISS:       2317
L1I LOAD      ACCESS:   21634695  HIT:   21632378  MISS:       2317
L1I RFO       ACCESS:          0  HIT:          0  MISS:          0
L1I PREFETCH  ACCESS:          0  HIT:          0  MISS:          0
L1I WRITEBACK ACCESS:          0  HIT:          0  MISS:          0
L1I PREFETCH  REQUESTED:          0  ISSUED:          0  USEFUL:          0  USELESS:          0
L2C TOTAL     ACCESS:       5461  HIT:       4409  MISS:       1052
L2C LOAD      ACCESS:       2353  HIT:       1502  MISS:        851
L2C RFO       ACCESS:         83  HIT:          0  MISS:         83
L2C PREFETCH  ACCESS:       3025  HIT:       2907  MISS:        118
L2C WRITEBACK ACCESS:          0  HIT:          0  MISS:          0
L2C PREFETCH  REQUESTED:     110228  ISSUED:     110228  USEFUL:        143  USELESS:          0
LLC TOTAL     ACCESS:       2360  HIT:       1038  MISS:       1322
LLC LOAD      ACCESS:        823  HIT:        448  MISS:        375
LLC RFO       ACCESS:         83  HIT:          2  MISS:         81
LLC PREFETCH  ACCESS:       1454  HIT:        588  MISS:        866
LLC WRITEBACK ACCESS:          0  HIT:          0  MISS:          0
LLC PREFETCH  REQUESTED:          0  ISSUED:          0  USEFUL:   10843907  USELESS:   10279656
Major fault: 0 Minor fault: 47

CPU 3 cumulative IPC: 0.168318 instructions: 100000000 cycles: 594115108
L1D TOTAL     ACCESS:   53487670  HIT:   44464833  MISS:    9022837
L1D LOAD      ACCESS:   33747530  HIT:   29098124  MISS:    4649406
L1D RFO       ACCESS:   19740140  HIT:   15366709  MISS:    4373431
L1D PREFETCH  ACCESS:          0  HIT:          0  MISS:          0
L1D WRITEBACK ACCESS:          0  HIT:          0  MISS:          0
L1D PREFETCH  REQUESTED:          0  ISSUED:          0  USEFUL:          0  USELESS:          0
L1I TOTAL     ACCESS:   23973822  HIT:   23973822  MISS:          0
L1I LOAD      ACCESS:   23973822  HIT:   23973822  MISS:          0
L1I RFO       ACCESS:          0  HIT:          0  MISS:          0
L1I PREFETCH  ACCESS:          0  HIT:          0  MISS:          0
L1I WRITEBACK ACCESS:          0  HIT:          0  MISS:          0
L1I PREFETCH  REQUESTED:          0  ISSUED:          0  USEFUL:          0  USELESS:          0
L2C TOTAL     ACCESS:   18911834  HIT:   10119736  MISS:    8792098
L2C LOAD      ACCESS:    4649353  HIT:     979195  MISS:    3670158
L2C RFO       ACCESS:    4373431  HIT:         14  MISS:    4373417
L2C PREFETCH  ACCESS:     866213  HIT:     122213  MISS:     744000
L2C WRITEBACK ACCESS:    9022837  HIT:    9018314  MISS:       4523
L2C PREFETCH  REQUESTED:   15406637  ISSUED:   15406637  USEFUL:     941913  USELESS:      48616
LLC TOTAL     ACCESS:   24484820  HIT:   17275233  MISS:    7209587
LLC LOAD      ACCESS:    3592675  HIT:    3314901  MISS:     277774
LLC RFO       ACCESS:    4373417  HIT:      55165  MISS:    4318252
LLC PREFETCH  ACCESS:    7771619  HIT:    5158059  MISS:    2613560
LLC WRITEBACK ACCESS:    8747109  HIT:    8747108  MISS:          1
LLC PREFETCH  REQUESTED:          0  ISSUED:          0  USEFUL:   10843907  USELESS:   10279656
Major fault: 0 Minor fault: 257383

CPU 4 cumulative IPC: 1.4951 instructions: 100000001 cycles: 66885114
L1D TOTAL     ACCESS:   28632700  HIT:   28632698  MISS:          2
L1D LOAD      ACCESS:   12596046  HIT:   12596044  MISS:          2
L1D RFO       ACCESS:   16036654  HIT:   16036654  MISS:          0
L1D PREFETCH  ACCESS:          0  HIT:          0  MISS:          0
L1D WRITEBACK ACCESS:          0  HIT:          0  MISS:          0
L1D PREFETCH  REQUESTED:          0  ISSUED:          0  USEFUL:          0  USELESS:          0
L1I TOTAL     ACCESS:   21948559  HIT:   21944008  MISS:       4551
L1I LOAD      ACCESS:   21948559  HIT:   21944008  MISS:       4551
L1I RFO       ACCESS:          0  HIT:          0  MISS:          0
L1I PREFETCH  ACCESS:          0  HIT:          0  MISS:          0
L1I WRITEBACK ACCESS:          0  HIT:          0  MISS:          0
L1I PREFETCH  REQUESTED:          0  ISSUED:          0  USEFUL:          0  USELESS:          0
L2C TOTAL     ACCESS:      13757  HIT:      13754  MISS:          3
L2C LOAD      ACCESS:       4553  HIT:       4550  MISS:          3
L2C RFO       ACCESS:          0  HIT:          0  MISS:          0
L2C PREFETCH  ACCESS:       9204  HIT:       9204  MISS:          0
L2C WRITEBACK ACCESS:          0  HIT:          0  MISS:          0
L2C PREFETCH  REQUESTED:     531120  ISSUED:     531120  USEFUL:        288  USELESS:          0
LLC TOTAL     ACCESS:        235  HIT:        111  MISS:        124
LLC LOAD      ACCESS:          3  HIT:          1  MISS:          2
LLC RFO       ACCESS:          0  HIT:          0  MISS:          0
LLC PREFETCH  ACCESS:        232  HIT:        110  MISS:        122
LLC WRITEBACK ACCESS:          0  HIT:          0  MISS:          0
LLC PREFETCH  REQUESTED:          0  ISSUED:          0  USEFUL:   10843907  USELESS:   10279656
Major fault: 0 Minor fault: 83

CPU 5 cumulative IPC: 0.305383 instructions: 100000000 cycles: 327457863
L1D TOTAL     ACCESS:   49619227  HIT:   46993694  MISS:    2625533
L1D LOAD      ACCESS:   21605152  HIT:   19215386  MISS:    2389766
L1D RFO       ACCESS:   28014075  HIT:   27778308  MISS:     235767
L1D PREFETCH  ACCESS:          0  HIT:          0  MISS:          0
L1D WRITEBACK ACCESS:          0  HIT:          0  MISS:          0
L1D PREFETCH  REQUESTED:          0  ISSUED:          0  USEFUL:          0  USELESS:          0
L1I TOTAL     ACCESS:   32182721  HIT:   32182721  MISS:          0
L1I LOAD      ACCESS:   32182721  HIT:   32182721  MISS:          0
L1I RFO       ACCESS:          0  HIT:          0  MISS:          0
L1I PREFETCH  ACCESS:          0  HIT:          0  MISS:          0
L1I WRITEBACK ACCESS:          0  HIT:          0  MISS:          0
L1I PREFETCH  REQUESTED:          0  ISSUED:          0  USEFUL:          0  USELESS:          0
L2C TOTAL     ACCESS:    3771799  HIT:    1214307  MISS:    2557492
L2C LOAD      ACCESS:    2389754  HIT:     254624  MISS:    2135130
L2C RFO       ACCESS:     235759  HIT:      11121  MISS:     224638
L2C PREFETCH  ACCESS:     471209  HIT:     275464  MISS:     195745
L2C WRITEBACK ACCESS:     675077  HIT:     673098  MISS:       1979
L2C PREFETCH  REQUESTED:   10729622  ISSUED:   10729622  USEFUL:     431663  USELESS:      24499
LLC TOTAL     ACCESS:    6017332  HIT:    3137674  MISS:    2879658
LLC LOAD      ACCESS:    2069992  HIT:     889506  MISS:    1180486
LLC RFO       ACCESS:     224112  HIT:      13568  MISS:     210544
LLC PREFETCH  ACCESS:    3107580  HIT:    1619450  MISS:    1488130
LLC WRITEBACK ACCESS:     615648  HIT:     615150  MISS:        498
LLC PREFETCH  REQUESTED:          0  ISSUED:          0  USEFUL:   10843907  USELESS:   10279656
Major fault: 0 Minor fault: 51634

CPU 6 cumulative IPC: 1.67221 instructions: 100000002 cycles: 59801152
L1D TOTAL     ACCESS:   16260762  HIT:   15834929  MISS:     425833
L1D LOAD      ACCESS:   13184766  HIT:   12783129  MISS:     401637
L1D RFO       ACCESS:    3075996  HIT:    3051800  MISS:      24196
L1D PREFETCH  ACCESS:          0  HIT:          0  MISS:          0
L1D WRITEBACK ACCESS:          0  HIT:          0  MISS:          0
L1D PREFETCH  REQUESTED:          0  ISSUED:          0  USEFUL:          0  USELESS:          0
L1I TOTAL     ACCESS:   23484886  HIT:   23484886  MISS:          0
L1I LOAD      ACCESS:   23484886  HIT:   23484886  MISS:          0
L1I RFO       ACCESS:          0  HIT:          0  MISS:          0
L1I PREFETCH  ACCESS:          0  HIT:          0  MISS:          0
L1I WRITEBACK ACCESS:          0  HIT:          0  MISS:          0
L1I PREFETCH  REQUESTED:          0  ISSUED:          0  USEFUL:          0  USELESS:          0
L2C TOTAL     ACCESS:    1279908  HIT:    1269055  MISS:      10853
L2C LOAD      ACCESS:     401637  HIT:     393688  MISS:       7949
L2C RFO       ACCESS:      23886  HIT:      23594  MISS:        292
L2C PREFETCH  ACCESS:     830193  HIT:     827602  MISS:       2591
L2C WRITEBACK ACCESS:      24192  HIT:      24171  MISS:         21
L2C PREFETCH  REQUESTED:   12886750  ISSUED:   12886750  USEFUL:      26414  USELESS:         37
LLC TOTAL     ACCESS:     180976  HIT:     169569  MISS:      11407
LLC LOAD      ACCESS:       7918  HIT:       7248  MISS:        670
LLC RFO       ACCESS:        292  HIT:          0  MISS:        292
LLC PREFETCH  ACCESS:     172477  HIT:     162321  MISS:      10156
LLC WRITEBACK ACCESS:        289  HIT:          0  MISS:        289
LLC PREFETCH  REQUESTED:          0  ISSUED:          0  USEFUL:   10843907  USELESS:   10279656
Major fault: 0 Minor fault: 922

CPU 7 cumulative IPC: 0.960957 instructions: 100000001 cycles: 104062927
L1D TOTAL     ACCESS:   14832462  HIT:   12989018  MISS:    1843444
L1D LOAD      ACCESS:   10165929  HIT:    8887071  MISS:    1278858
L1D RFO       ACCESS:    4666533  HIT:    4101947  MISS:     564586
L1D PREFETCH  ACCESS:          0  HIT:          0  MISS:          0
L1D WRITEBACK ACCESS:          0  HIT:          0  MISS:          0
L1D PREFETCH  REQUESTED:          0  ISSUED:          0  USEFUL:          0  USELESS:          0
L1I TOTAL     ACCESS:   21225638  HIT:   21223200  MISS:       2438
L1I LOAD      ACCESS:   21225638  HIT:   21223200  MISS:       2438
L1I RFO       ACCESS:          0  HIT:          0  MISS:          0
L1I PREFETCH  ACCESS:          0  HIT:          0  MISS:          0
L1I WRITEBACK ACCESS:          0  HIT:          0  MISS:          0
L1I PREFETCH  REQUESTED:          0  ISSUED:          0  USEFUL:          0  USELESS:          0
L2C TOTAL     ACCESS:    3823679  HIT:    2170814  MISS:    1652865
L2C LOAD      ACCESS:    1281296  HIT:     500394  MISS:     780902
L2C RFO       ACCESS:     564586  HIT:      13294  MISS:     551292
L2C PREFETCH  ACCESS:    1188947  HIT:     870595  MISS:     318352
L2C WRITEBACK ACCESS:     788850  HIT:     786531  MISS:       2319
L2C PREFETCH  REQUESTED:   33646391  ISSUED:   33450054  USEFUL:    1565546  USELESS:       7338
LLC TOTAL     ACCESS:    5303920  HIT:    4908578  MISS:     395342
LLC LOAD      ACCESS:     656294  HIT:     622055  MISS:      34239
LLC RFO       ACCESS:     551292  HIT:     348651  MISS:     202641
LLC PREFETCH  ACCESS:    3358293  HIT:    3199831  MISS:     158462
LLC WRITEBACK ACCESS:     738041  HIT:     738041  MISS:          0
LLC PREFETCH  REQUESTED:          0  ISSUED:          0  USEFUL:   10843907  USELESS:   10279656
Major fault: 0 Minor fault: 14759

DRAM Statistics
 CHANNEL 0
 RQ ROW_BUFFER_HIT:    4508012  ROW_BUFFER_MISS:    9824339
 DBUS_CONGESTED:   31826994
 WQ ROW_BUFFER_HIT:     513006  ROW_BUFFER_MISS:    6386699  FULL:          0

 CHANNEL 1
 RQ ROW_BUFFER_HIT:    4496808  ROW_BUFFER_MISS:    9841370
 DBUS_CONGESTED:   31826994
 WQ ROW_BUFFER_HIT:     516551  ROW_BUFFER_MISS:    6382772  FULL:          0

 AVG_CONGESTED_CYCLE: 14
