Initialize SIGNATURE TABLE
ST_SET: 1
ST_WAY: 256
ST_TAG_BIT: 16
ST_TAG_MASK: ffff

Initialize PATTERN TABLE
PT_SET: 512
PT_WAY: 4
SIG_DELTA_BIT: 7
C_SIG_BIT: 4
C_DELTA_BIT: 4

Initialize PREFETCH FILTER
FILTER_SET: 1024

*** ChampSim Multicore Out-of-Order Simulator ***

Warmup Instructions: 20000000
Simulation Instructions: 100000000
Number of CPUs: 8
LLC sets: 16384
LLC ways: 16
Off-chip DRAM Size: 8192 MB Channels: 2 Width: 64-bit Data Rate: 1600 MT/s

CPU 0 runs /scratch/user/djimenez/champsim-traces/speccpu2017/xz/603.bwaves_s/603.bwaves_s-3699B.champsimtrace.xz
CPU 1 runs /scratch/user/djimenez/champsim-traces/speccpu2017/xz/654.roms_s/654.roms_s-1390B.champsimtrace.xz
CPU 2 runs /scratch/user/djimenez/champsim-traces/speccpu2017/xz/605.mcf_s/605.mcf_s-994B.champsimtrace.xz
CPU 3 runs /scratch/user/djimenez/champsim-traces/speccpu2017/xz/628.pop2_s/628.pop2_s-17B.champsimtrace.xz
CPU 4 runs /scratch/user/djimenez/champsim-traces/speccpu2017/xz/621.wrf_s/621.wrf_s-8065B.champsimtrace.xz
CPU 5 runs /scratch/user/djimenez/champsim-traces/speccpu2017/xz/648.exchange2_s/648.exchange2_s-210B.champsimtrace.xz
CPU 6 runs /scratch/user/djimenez/champsim-traces/speccpu2017/xz/644.nab_s/644.nab_s-12521B.champsimtrace.xz
CPU 7 runs /scratch/user/djimenez/champsim-traces/speccpu2017/xz/619.lbm_s/619.lbm_s-3766B.champsimtrace.xz
Heartbeat CPU 0 instructions: 10000002 cycles: 3993602 heartbeat IPC: 2.50401 cumulative IPC: 2.50401 (Simulation time: 0 hr 3 min 39 sec) 
Heartbeat CPU 3 instructions: 10000002 cycles: 4148802 heartbeat IPC: 2.41033 cumulative IPC: 2.41033 (Simulation time: 0 hr 3 min 48 sec) 
Heartbeat CPU 7 instructions: 10000000 cycles: 4316065 heartbeat IPC: 2.31693 cumulative IPC: 2.31693 (Simulation time: 0 hr 3 min 57 sec) 
Heartbeat CPU 6 instructions: 10000000 cycles: 4387278 heartbeat IPC: 2.27932 cumulative IPC: 2.27932 (Simulation time: 0 hr 4 min 1 sec) 
Heartbeat CPU 5 instructions: 10000002 cycles: 4421905 heartbeat IPC: 2.26147 cumulative IPC: 2.26147 (Simulation time: 0 hr 4 min 2 sec) 
Heartbeat CPU 4 instructions: 10000003 cycles: 4800359 heartbeat IPC: 2.08318 cumulative IPC: 2.08318 (Simulation time: 0 hr 4 min 23 sec) 
Heartbeat CPU 2 instructions: 10000000 cycles: 5607880 heartbeat IPC: 1.78321 cumulative IPC: 1.78321 (Simulation time: 0 hr 5 min 6 sec) 
Heartbeat CPU 1 instructions: 10000001 cycles: 6746054 heartbeat IPC: 1.48235 cumulative IPC: 1.48235 (Simulation time: 0 hr 6 min 8 sec) 
Heartbeat CPU 0 instructions: 20000000 cycles: 8237833 heartbeat IPC: 2.35614 cumulative IPC: 2.42782 (Simulation time: 0 hr 7 min 31 sec) 
Heartbeat CPU 3 instructions: 20000000 cycles: 8262766 heartbeat IPC: 2.43075 cumulative IPC: 2.4205 (Simulation time: 0 hr 7 min 33 sec) 
Heartbeat CPU 7 instructions: 20000000 cycles: 8599646 heartbeat IPC: 2.3345 cumulative IPC: 2.32568 (Simulation time: 0 hr 7 min 51 sec) 
Heartbeat CPU 6 instructions: 20000000 cycles: 8775246 heartbeat IPC: 2.27896 cumulative IPC: 2.27914 (Simulation time: 0 hr 8 min 1 sec) 
Heartbeat CPU 5 instructions: 20000000 cycles: 8806347 heartbeat IPC: 2.28079 cumulative IPC: 2.27109 (Simulation time: 0 hr 8 min 3 sec) 
Heartbeat CPU 4 instructions: 20000000 cycles: 9311992 heartbeat IPC: 2.21649 cumulative IPC: 2.14777 (Simulation time: 0 hr 8 min 32 sec) 
Heartbeat CPU 2 instructions: 20000000 cycles: 11269062 heartbeat IPC: 1.76642 cumulative IPC: 1.77477 (Simulation time: 0 hr 10 min 21 sec) 
Heartbeat CPU 1 instructions: 20000000 cycles: 11879738 heartbeat IPC: 1.94792 cumulative IPC: 1.68354 (Simulation time: 0 hr 10 min 54 sec) 

Warmup complete CPU 0 instructions: 28338029 cycles: 11879747 (Simulation time: 0 hr 10 min 54 sec) 
Warmup complete CPU 1 instructions: 20000001 cycles: 11879747 (Simulation time: 0 hr 10 min 54 sec) 
Warmup complete CPU 2 instructions: 21096334 cycles: 11879746 (Simulation time: 0 hr 10 min 54 sec) 
Warmup complete CPU 3 instructions: 28792075 cycles: 11879746 (Simulation time: 0 hr 10 min 54 sec) 
Warmup complete CPU 4 instructions: 25797056 cycles: 11879746 (Simulation time: 0 hr 10 min 54 sec) 
Warmup complete CPU 5 instructions: 27084589 cycles: 11879746 (Simulation time: 0 hr 10 min 54 sec) 
Warmup complete CPU 6 instructions: 27073806 cycles: 11879746 (Simulation time: 0 hr 10 min 54 sec) 
Warmup complete CPU 7 instructions: 27669244 cycles: 11879746 (Simulation time: 0 hr 10 min 54 sec) 

Heartbeat CPU 3 instructions: 30000002 cycles: 13044978 heartbeat IPC: 2.09108 cumulative IPC: 1.03664 (Simulation time: 0 hr 11 min 35 sec) 
Heartbeat CPU 0 instructions: 30000002 cycles: 13352780 heartbeat IPC: 1.95505 cumulative IPC: 1.12827 (Simulation time: 0 hr 11 min 43 sec) 
Heartbeat CPU 5 instructions: 30000001 cycles: 13739129 heartbeat IPC: 2.02725 cumulative IPC: 1.56795 (Simulation time: 0 hr 11 min 54 sec) 
Heartbeat CPU 7 instructions: 30000001 cycles: 14574279 heartbeat IPC: 1.67374 cumulative IPC: 0.864995 (Simulation time: 0 hr 12 min 17 sec) 
Heartbeat CPU 6 instructions: 30000002 cycles: 15055183 heartbeat IPC: 1.59237 cumulative IPC: 0.92151 (Simulation time: 0 hr 12 min 30 sec) 
Heartbeat CPU 4 instructions: 30000000 cycles: 16465816 heartbeat IPC: 1.39785 cumulative IPC: 0.916459 (Simulation time: 0 hr 13 min 8 sec) 
Heartbeat CPU 5 instructions: 40000000 cycles: 19993734 heartbeat IPC: 1.59882 cumulative IPC: 1.59175 (Simulation time: 0 hr 14 min 44 sec) 
Heartbeat CPU 0 instructions: 40000000 cycles: 22233107 heartbeat IPC: 1.12608 cumulative IPC: 1.12639 (Simulation time: 0 hr 15 min 48 sec) 
Heartbeat CPU 3 instructions: 40000000 cycles: 22611040 heartbeat IPC: 1.04536 cumulative IPC: 1.04441 (Simulation time: 0 hr 15 min 58 sec) 
Heartbeat CPU 6 instructions: 40000000 cycles: 25981828 heartbeat IPC: 0.915194 cumulative IPC: 0.916616 (Simulation time: 0 hr 17 min 35 sec) 
Heartbeat CPU 5 instructions: 50000002 cycles: 26301363 heartbeat IPC: 1.58538 cumulative IPC: 1.58896 (Simulation time: 0 hr 17 min 44 sec) 
Heartbeat CPU 7 instructions: 40000000 cycles: 26550893 heartbeat IPC: 0.83496 cumulative IPC: 0.840477 (Simulation time: 0 hr 17 min 51 sec) 
Heartbeat CPU 4 instructions: 40000000 cycles: 26738027 heartbeat IPC: 0.9735 cumulative IPC: 0.955894 (Simulation time: 0 hr 17 min 57 sec) 
Heartbeat CPU 1 instructions: 30000002 cycles: 28811053 heartbeat IPC: 0.590622 cumulative IPC: 0.590622 (Simulation time: 0 hr 18 min 56 sec) 
Heartbeat CPU 0 instructions: 50000001 cycles: 31111462 heartbeat IPC: 1.12633 cumulative IPC: 1.12637 (Simulation time: 0 hr 20 min 2 sec) 
Heartbeat CPU 3 instructions: 50000001 cycles: 31886287 heartbeat IPC: 1.07814 cumulative IPC: 1.06005 (Simulation time: 0 hr 20 min 25 sec) 
Heartbeat CPU 5 instructions: 60000000 cycles: 32545405 heartbeat IPC: 1.60153 cumulative IPC: 1.59276 (Simulation time: 0 hr 20 min 45 sec) 
Heartbeat CPU 4 instructions: 50000002 cycles: 35228402 heartbeat IPC: 1.1778 cumulative IPC: 1.03659 (Simulation time: 0 hr 22 min 1 sec) 
Heartbeat CPU 6 instructions: 50000001 cycles: 36829063 heartbeat IPC: 0.921894 cumulative IPC: 0.918911 (Simulation time: 0 hr 22 min 44 sec) 
Heartbeat CPU 5 instructions: 70000002 cycles: 38853724 heartbeat IPC: 1.58521 cumulative IPC: 1.59099 (Simulation time: 0 hr 23 min 39 sec) 
Heartbeat CPU 7 instructions: 50000003 cycles: 39133093 heartbeat IPC: 0.794774 cumulative IPC: 0.819377 (Simulation time: 0 hr 23 min 47 sec) 
Heartbeat CPU 0 instructions: 60000000 cycles: 39943141 heartbeat IPC: 1.13229 cumulative IPC: 1.12823 (Simulation time: 0 hr 24 min 10 sec) 
Heartbeat CPU 3 instructions: 60000000 cycles: 41829991 heartbeat IPC: 1.00566 cumulative IPC: 1.04199 (Simulation time: 0 hr 25 min 3 sec) 
Heartbeat CPU 5 instructions: 80000000 cycles: 45074785 heartbeat IPC: 1.60744 cumulative IPC: 1.59408 (Simulation time: 0 hr 26 min 42 sec) 
Heartbeat CPU 1 instructions: 40000000 cycles: 45735710 heartbeat IPC: 0.590854 cumulative IPC: 0.590738 (Simulation time: 0 hr 27 min 3 sec) 
Heartbeat CPU 4 instructions: 60000000 cycles: 46005453 heartbeat IPC: 0.927897 cumulative IPC: 1.00226 (Simulation time: 0 hr 27 min 12 sec) 
Heartbeat CPU 6 instructions: 60000000 cycles: 47720773 heartbeat IPC: 0.918129 cumulative IPC: 0.918673 (Simulation time: 0 hr 28 min 3 sec) 
Heartbeat CPU 0 instructions: 70000000 cycles: 48761581 heartbeat IPC: 1.13399 cumulative IPC: 1.12961 (Simulation time: 0 hr 28 min 36 sec) 
Heartbeat CPU 5 instructions: 90000003 cycles: 51273572 heartbeat IPC: 1.61322 cumulative IPC: 1.59709 (Simulation time: 0 hr 29 min 54 sec) 
Heartbeat CPU 3 instructions: 70000002 cycles: 51345711 heartbeat IPC: 1.05089 cumulative IPC: 1.04414 (Simulation time: 0 hr 29 min 56 sec) 
Heartbeat CPU 7 instructions: 60000000 cycles: 51751436 heartbeat IPC: 0.792497 cumulative IPC: 0.81087 (Simulation time: 0 hr 30 min 8 sec) 
Heartbeat CPU 4 instructions: 70000000 cycles: 54306351 heartbeat IPC: 1.20469 cumulative IPC: 1.04187 (Simulation time: 0 hr 31 min 27 sec) 
Heartbeat CPU 2 instructions: 30000000 cycles: 55480201 heartbeat IPC: 0.226187 cumulative IPC: 0.20421 (Simulation time: 0 hr 32 min 1 sec) 
Heartbeat CPU 5 instructions: 100000000 cycles: 57527267 heartbeat IPC: 1.59905 cumulative IPC: 1.59736 (Simulation time: 0 hr 33 min 1 sec) 
Heartbeat CPU 0 instructions: 80000000 cycles: 57580890 heartbeat IPC: 1.13388 cumulative IPC: 1.13043 (Simulation time: 0 hr 33 min 3 sec) 
Heartbeat CPU 6 instructions: 70000001 cycles: 58632413 heartbeat IPC: 0.916453 cumulative IPC: 0.918155 (Simulation time: 0 hr 33 min 31 sec) 
Heartbeat CPU 3 instructions: 80000000 cycles: 60106862 heartbeat IPC: 1.1414 cumulative IPC: 1.06181 (Simulation time: 0 hr 34 min 11 sec) 
Heartbeat CPU 1 instructions: 50000003 cycles: 62082584 heartbeat IPC: 0.611738 cumulative IPC: 0.597576 (Simulation time: 0 hr 35 min 4 sec) 
Heartbeat CPU 5 instructions: 110000000 cycles: 63927462 heartbeat IPC: 1.56245 cumulative IPC: 1.59307 (Simulation time: 0 hr 35 min 55 sec) 
Heartbeat CPU 7 instructions: 70000003 cycles: 64700367 heartbeat IPC: 0.772265 cumulative IPC: 0.801406 (Simulation time: 0 hr 36 min 18 sec) 
Heartbeat CPU 4 instructions: 80000000 cycles: 66316975 heartbeat IPC: 0.832596 cumulative IPC: 0.995696 (Simulation time: 0 hr 37 min 9 sec) 
Heartbeat CPU 0 instructions: 90000000 cycles: 66428872 heartbeat IPC: 1.1302 cumulative IPC: 1.13039 (Simulation time: 0 hr 37 min 14 sec) 
Heartbeat CPU 6 instructions: 80000000 cycles: 69498313 heartbeat IPC: 0.92031 cumulative IPC: 0.918561 (Simulation time: 0 hr 38 min 51 sec) 
Heartbeat CPU 3 instructions: 90000002 cycles: 70352834 heartbeat IPC: 0.975994 cumulative IPC: 1.04677 (Simulation time: 0 hr 39 min 20 sec) 
Heartbeat CPU 5 instructions: 120000000 cycles: 70509261 heartbeat IPC: 1.51934 cumulative IPC: 1.58479 (Simulation time: 0 hr 39 min 25 sec) 
Heartbeat CPU 1 instructions: 60000000 cycles: 71514502 heartbeat IPC: 1.06023 cumulative IPC: 0.67075 (Simulation time: 0 hr 39 min 57 sec) 
Heartbeat CPU 4 instructions: 90000003 cycles: 73862236 heartbeat IPC: 1.32534 cumulative IPC: 1.03582 (Simulation time: 0 hr 41 min 16 sec) 
Finished CPU 5 instructions: 100000002 cycles: 63293745 cumulative IPC: 1.57993 (Simulation time: 0 hr 41 min 59 sec) 
Heartbeat CPU 0 instructions: 100000000 cycles: 75373141 heartbeat IPC: 1.11803 cumulative IPC: 1.12865 (Simulation time: 0 hr 42 min 5 sec) 
Heartbeat CPU 7 instructions: 80000000 cycles: 75866820 heartbeat IPC: 0.895539 cumulative IPC: 0.817833 (Simulation time: 0 hr 42 min 20 sec) 
Heartbeat CPU 5 instructions: 130000003 cycles: 77081591 heartbeat IPC: 1.52153 cumulative IPC: 1.57841 (Simulation time: 0 hr 42 min 58 sec) 
Heartbeat CPU 3 instructions: 100000000 cycles: 79555876 heartbeat IPC: 1.0866 cumulative IPC: 1.05219 (Simulation time: 0 hr 44 min 20 sec) 
Heartbeat CPU 1 instructions: 70000002 cycles: 79829717 heartbeat IPC: 1.20262 cumulative IPC: 0.735835 (Simulation time: 0 hr 44 min 28 sec) 
Heartbeat CPU 6 instructions: 90000003 cycles: 80312751 heartbeat IPC: 0.92469 cumulative IPC: 0.91953 (Simulation time: 0 hr 44 min 43 sec) 
Heartbeat CPU 5 instructions: 140000000 cycles: 83580878 heartbeat IPC: 1.53863 cumulative IPC: 1.57481 (Simulation time: 0 hr 46 min 27 sec) 
Heartbeat CPU 0 instructions: 110000001 cycles: 84342351 heartbeat IPC: 1.11493 cumulative IPC: 1.12695 (Simulation time: 0 hr 46 min 54 sec) 
Heartbeat CPU 4 instructions: 100000000 cycles: 84771390 heartbeat IPC: 0.916661 cumulative IPC: 1.01799 (Simulation time: 0 hr 47 min 7 sec) 
Heartbeat CPU 7 instructions: 90000000 cycles: 87743918 heartbeat IPC: 0.841956 cumulative IPC: 0.82161 (Simulation time: 0 hr 48 min 47 sec) 
Heartbeat CPU 1 instructions: 80000000 cycles: 88291988 heartbeat IPC: 1.18172 cumulative IPC: 0.785214 (Simulation time: 0 hr 49 min 5 sec) 
Heartbeat CPU 3 instructions: 110000001 cycles: 88385191 heartbeat IPC: 1.13259 cumulative IPC: 1.06147 (Simulation time: 0 hr 49 min 9 sec) 
Heartbeat CPU 5 instructions: 150000003 cycles: 89989111 heartbeat IPC: 1.56049 cumulative IPC: 1.57363 (Simulation time: 0 hr 50 min 1 sec) 
Heartbeat CPU 6 instructions: 100000000 cycles: 91331063 heartbeat IPC: 0.90758 cumulative IPC: 0.917873 (Simulation time: 0 hr 50 min 42 sec) 
Heartbeat CPU 2 instructions: 40000000 cycles: 92527733 heartbeat IPC: 0.269924 cumulative IPC: 0.234397 (Simulation time: 0 hr 51 min 17 sec) 
Heartbeat CPU 4 instructions: 110000003 cycles: 92699976 heartbeat IPC: 1.26126 cumulative IPC: 1.04185 (Simulation time: 0 hr 51 min 23 sec) 
Heartbeat CPU 0 instructions: 120000000 cycles: 93309836 heartbeat IPC: 1.11514 cumulative IPC: 1.12565 (Simulation time: 0 hr 51 min 41 sec) 
Heartbeat CPU 5 instructions: 160000000 cycles: 96532746 heartbeat IPC: 1.5282 cumulative IPC: 1.57012 (Simulation time: 0 hr 53 min 12 sec) 
Heartbeat CPU 3 instructions: 120000000 cycles: 97671793 heartbeat IPC: 1.07682 cumulative IPC: 1.06313 (Simulation time: 0 hr 53 min 44 sec) 
Heartbeat CPU 7 instructions: 100000000 cycles: 99806378 heartbeat IPC: 0.829018 cumulative IPC: 0.822626 (Simulation time: 0 hr 54 min 46 sec) 
Finished CPU 0 instructions: 100000000 cycles: 89104781 cumulative IPC: 1.12227 (Simulation time: 0 hr 55 min 20 sec) 
Heartbeat CPU 1 instructions: 90000003 cycles: 101547304 heartbeat IPC: 0.754415 cumulative IPC: 0.780661 (Simulation time: 0 hr 55 min 36 sec) 
Heartbeat CPU 6 instructions: 110000001 cycles: 102228785 heartbeat IPC: 0.917623 cumulative IPC: 0.917843 (Simulation time: 0 hr 55 min 55 sec) 
Heartbeat CPU 0 instructions: 130000000 cycles: 102474403 heartbeat IPC: 1.09116 cumulative IPC: 1.12216 (Simulation time: 0 hr 56 min 2 sec) 
Heartbeat CPU 5 instructions: 170000000 cycles: 103054319 heartbeat IPC: 1.53337 cumulative IPC: 1.56749 (Simulation time: 0 hr 56 min 19 sec) 
Finished CPU 3 instructions: 100000000 cycles: 94448160 cumulative IPC: 1.05878 (Simulation time: 0 hr 57 min 48 sec) 
Heartbeat CPU 4 instructions: 120000000 cycles: 106750966 heartbeat IPC: 0.711693 cumulative IPC: 0.992956 (Simulation time: 0 hr 57 min 59 sec) 
Heartbeat CPU 3 instructions: 130000001 cycles: 107687968 heartbeat IPC: 0.998385 cumulative IPC: 1.05636 (Simulation time: 0 hr 58 min 25 sec) 
Heartbeat CPU 5 instructions: 180000000 cycles: 109531738 heartbeat IPC: 1.54382 cumulative IPC: 1.56592 (Simulation time: 0 hr 59 min 14 sec) 
Heartbeat CPU 7 instructions: 110000001 cycles: 111771772 heartbeat IPC: 0.835744 cumulative IPC: 0.824197 (Simulation time: 1 hr 0 min 13 sec) 
Heartbeat CPU 0 instructions: 140000000 cycles: 111807171 heartbeat IPC: 1.07149 cumulative IPC: 1.11743 (Simulation time: 1 hr 0 min 14 sec) 
Heartbeat CPU 6 instructions: 120000000 cycles: 113028130 heartbeat IPC: 0.925982 cumulative IPC: 0.918712 (Simulation time: 1 hr 0 min 48 sec) 
Heartbeat CPU 1 instructions: 100000000 cycles: 114197348 heartbeat IPC: 0.790511 cumulative IPC: 0.781879 (Simulation time: 1 hr 1 min 21 sec) 
Finished CPU 4 instructions: 100000000 cycles: 103572710 cumulative IPC: 0.965505 (Simulation time: 1 hr 1 min 56 sec) 
Heartbeat CPU 5 instructions: 190000003 cycles: 116097369 heartbeat IPC: 1.52308 cumulative IPC: 1.56322 (Simulation time: 1 hr 2 min 15 sec) 
Heartbeat CPU 3 instructions: 140000000 cycles: 116574846 heartbeat IPC: 1.12525 cumulative IPC: 1.06221 (Simulation time: 1 hr 2 min 28 sec) 
Finished CPU 6 instructions: 100000002 cycles: 108791506 cumulative IPC: 0.919189 (Simulation time: 1 hr 4 min 22 sec) 
Heartbeat CPU 0 instructions: 150000000 cycles: 120933988 heartbeat IPC: 1.09567 cumulative IPC: 1.11561 (Simulation time: 1 hr 4 min 29 sec) 
Heartbeat CPU 4 instructions: 130000000 cycles: 121745837 heartbeat IPC: 0.666895 cumulative IPC: 0.948454 (Simulation time: 1 hr 4 min 51 sec) 
Heartbeat CPU 5 instructions: 200000000 cycles: 122520848 heartbeat IPC: 1.55679 cumulative IPC: 1.56285 (Simulation time: 1 hr 5 min 12 sec) 
Heartbeat CPU 6 instructions: 130000000 cycles: 123857264 heartbeat IPC: 0.923435 cumulative IPC: 0.919168 (Simulation time: 1 hr 5 min 46 sec) 
Heartbeat CPU 7 instructions: 120000000 cycles: 123913569 heartbeat IPC: 0.823601 cumulative IPC: 0.824133 (Simulation time: 1 hr 5 min 48 sec) 
Heartbeat CPU 3 instructions: 150000001 cycles: 124333840 heartbeat IPC: 1.28883 cumulative IPC: 1.07784 (Simulation time: 1 hr 5 min 59 sec) 
Heartbeat CPU 1 instructions: 110000000 cycles: 126892002 heartbeat IPC: 0.787733 cumulative IPC: 0.782525 (Simulation time: 1 hr 7 min 10 sec) 
Heartbeat CPU 5 instructions: 210000001 cycles: 128987936 heartbeat IPC: 1.54629 cumulative IPC: 1.56194 (Simulation time: 1 hr 8 min 7 sec) 
Heartbeat CPU 0 instructions: 160000000 cycles: 129984801 heartbeat IPC: 1.10487 cumulative IPC: 1.11479 (Simulation time: 1 hr 8 min 32 sec) 
Heartbeat CPU 3 instructions: 160000000 cycles: 133746915 heartbeat IPC: 1.06235 cumulative IPC: 1.07665 (Simulation time: 1 hr 10 min 15 sec) 
Heartbeat CPU 6 instructions: 140000000 cycles: 134682089 heartbeat IPC: 0.923802 cumulative IPC: 0.919577 (Simulation time: 1 hr 10 min 41 sec) 
Finished CPU 7 instructions: 100000000 cycles: 122823208 cumulative IPC: 0.814178 (Simulation time: 1 hr 10 min 42 sec) 
Heartbeat CPU 5 instructions: 220000000 cycles: 135400213 heartbeat IPC: 1.55951 cumulative IPC: 1.56181 (Simulation time: 1 hr 11 min 0 sec) 
Heartbeat CPU 1 instructions: 120000000 cycles: 136355212 heartbeat IPC: 1.05672 cumulative IPC: 0.803371 (Simulation time: 1 hr 11 min 27 sec) 
Finished CPU 1 instructions: 100000001 cycles: 124475473 cumulative IPC: 0.803371 (Simulation time: 1 hr 11 min 27 sec) 
Heartbeat CPU 4 instructions: 140000000 cycles: 136758924 heartbeat IPC: 0.666086 cumulative IPC: 0.914508 (Simulation time: 1 hr 11 min 38 sec) 
Heartbeat CPU 7 instructions: 130000000 cycles: 138097625 heartbeat IPC: 0.705017 cumulative IPC: 0.810747 (Simulation time: 1 hr 12 min 15 sec) 
Heartbeat CPU 0 instructions: 170000000 cycles: 139204459 heartbeat IPC: 1.08464 cumulative IPC: 1.1126 (Simulation time: 1 hr 12 min 45 sec) 
Heartbeat CPU 5 instructions: 230000003 cycles: 141703991 heartbeat IPC: 1.58635 cumulative IPC: 1.563 (Simulation time: 1 hr 13 min 54 sec) 
Heartbeat CPU 3 instructions: 170000001 cycles: 143702926 heartbeat IPC: 1.00442 cumulative IPC: 1.07119 (Simulation time: 1 hr 14 min 52 sec) 
Heartbeat CPU 6 instructions: 150000002 cycles: 145490155 heartbeat IPC: 0.925235 cumulative IPC: 0.920035 (Simulation time: 1 hr 15 min 49 sec) 
Heartbeat CPU 1 instructions: 130000003 cycles: 146356114 heartbeat IPC: 0.99991 cumulative IPC: 0.817988 (Simulation time: 1 hr 16 min 17 sec) 
Heartbeat CPU 5 instructions: 240000000 cycles: 148032206 heartbeat IPC: 1.58022 cumulative IPC: 1.5638 (Simulation time: 1 hr 17 min 2 sec) 
Heartbeat CPU 0 instructions: 180000000 cycles: 148453296 heartbeat IPC: 1.08122 cumulative IPC: 1.11048 (Simulation time: 1 hr 17 min 13 sec) 
Heartbeat CPU 4 instructions: 150000001 cycles: 153795638 heartbeat IPC: 0.586968 cumulative IPC: 0.875187 (Simulation time: 1 hr 19 min 25 sec) 
Heartbeat CPU 7 instructions: 140000000 cycles: 154462072 heartbeat IPC: 0.611081 cumulative IPC: 0.787831 (Simulation time: 1 hr 19 min 41 sec) 
Heartbeat CPU 5 instructions: 250000003 cycles: 154501790 heartbeat IPC: 1.54569 cumulative IPC: 1.56298 (Simulation time: 1 hr 19 min 42 sec) 
Heartbeat CPU 3 instructions: 180000000 cycles: 154599056 heartbeat IPC: 0.917757 cumulative IPC: 1.05948 (Simulation time: 1 hr 19 min 44 sec) 
Heartbeat CPU 6 instructions: 160000000 cycles: 156558458 heartbeat IPC: 0.903481 cumulative IPC: 0.918768 (Simulation time: 1 hr 20 min 35 sec) 
Heartbeat CPU 0 instructions: 190000000 cycles: 157652275 heartbeat IPC: 1.08708 cumulative IPC: 1.109 (Simulation time: 1 hr 21 min 6 sec) 
Heartbeat CPU 5 instructions: 260000000 cycles: 160872493 heartbeat IPC: 1.56968 cumulative IPC: 1.56327 (Simulation time: 1 hr 22 min 35 sec) 
Heartbeat CPU 3 instructions: 190000002 cycles: 164738054 heartbeat IPC: 0.986291 cumulative IPC: 1.05462 (Simulation time: 1 hr 24 min 22 sec) 
Heartbeat CPU 1 instructions: 140000000 cycles: 164815164 heartbeat IPC: 0.54174 cumulative IPC: 0.784645 (Simulation time: 1 hr 24 min 24 sec) 
Heartbeat CPU 4 instructions: 160000000 cycles: 165785926 heartbeat IPC: 0.834008 cumulative IPC: 0.871979 (Simulation time: 1 hr 24 min 51 sec) 
Heartbeat CPU 0 instructions: 200000000 cycles: 166599171 heartbeat IPC: 1.11771 cumulative IPC: 1.1095 (Simulation time: 1 hr 25 min 14 sec) 
Heartbeat CPU 5 instructions: 270000003 cycles: 167312484 heartbeat IPC: 1.5528 cumulative IPC: 1.56283 (Simulation time: 1 hr 25 min 34 sec) 
Heartbeat CPU 6 instructions: 170000000 cycles: 167564596 heartbeat IPC: 0.908584 cumulative IPC: 0.918048 (Simulation time: 1 hr 25 min 41 sec) 
Heartbeat CPU 5 instructions: 280000000 cycles: 173967414 heartbeat IPC: 1.50265 cumulative IPC: 1.56036 (Simulation time: 1 hr 28 min 15 sec) 
Heartbeat CPU 7 instructions: 150000001 cycles: 174072732 heartbeat IPC: 0.509927 cumulative IPC: 0.75423 (Simulation time: 1 hr 28 min 18 sec) 
Heartbeat CPU 3 instructions: 200000000 cycles: 175062225 heartbeat IPC: 0.968601 cumulative IPC: 1.04918 (Simulation time: 1 hr 28 min 41 sec) 
Heartbeat CPU 0 instructions: 210000003 cycles: 175711927 heartbeat IPC: 1.09736 cumulative IPC: 1.10883 (Simulation time: 1 hr 28 min 56 sec) 
Heartbeat CPU 6 instructions: 180000000 cycles: 178416157 heartbeat IPC: 0.921526 cumulative IPC: 0.918275 (Simulation time: 1 hr 30 min 7 sec) 
Heartbeat CPU 5 instructions: 290000001 cycles: 180394825 heartbeat IPC: 1.55584 cumulative IPC: 1.56019 (Simulation time: 1 hr 31 min 1 sec) 
Heartbeat CPU 4 instructions: 170000002 cycles: 182074226 heartbeat IPC: 0.613938 cumulative IPC: 0.847283 (Simulation time: 1 hr 31 min 49 sec) 
Heartbeat CPU 1 instructions: 150000000 cycles: 182911133 heartbeat IPC: 0.552609 cumulative IPC: 0.760094 (Simulation time: 1 hr 32 min 13 sec) 
Heartbeat CPU 0 instructions: 220000000 cycles: 184946122 heartbeat IPC: 1.08293 cumulative IPC: 1.10745 (Simulation time: 1 hr 33 min 12 sec) 
Heartbeat CPU 3 instructions: 210000001 cycles: 184952136 heartbeat IPC: 1.01113 cumulative IPC: 1.04701 (Simulation time: 1 hr 33 min 12 sec) 
Heartbeat CPU 5 instructions: 300000000 cycles: 186850604 heartbeat IPC: 1.549 cumulative IPC: 1.55978 (Simulation time: 1 hr 34 min 8 sec) 
Heartbeat CPU 6 instructions: 190000000 cycles: 189262195 heartbeat IPC: 0.921996 cumulative IPC: 0.918502 (Simulation time: 1 hr 35 min 18 sec) 
Heartbeat CPU 4 instructions: 180000000 cycles: 191065569 heartbeat IPC: 1.11218 cumulative IPC: 0.860576 (Simulation time: 1 hr 36 min 9 sec) 
Heartbeat CPU 5 instructions: 310000000 cycles: 193153813 heartbeat IPC: 1.58649 cumulative IPC: 1.56071 (Simulation time: 1 hr 37 min 7 sec) 
Heartbeat CPU 0 instructions: 230000000 cycles: 194019765 heartbeat IPC: 1.10209 cumulative IPC: 1.10718 (Simulation time: 1 hr 37 min 31 sec) 
Heartbeat CPU 3 instructions: 220000000 cycles: 194515952 heartbeat IPC: 1.04561 cumulative IPC: 1.04693 (Simulation time: 1 hr 37 min 44 sec) 
Heartbeat CPU 7 instructions: 160000000 cycles: 196486253 heartbeat IPC: 0.446159 cumulative IPC: 0.716826 (Simulation time: 1 hr 38 min 36 sec) 
Heartbeat CPU 1 instructions: 160000000 cycles: 197168016 heartbeat IPC: 0.701416 cumulative IPC: 0.755579 (Simulation time: 1 hr 38 min 55 sec) 
Heartbeat CPU 5 instructions: 320000000 cycles: 199718907 heartbeat IPC: 1.52321 cumulative IPC: 1.55939 (Simulation time: 1 hr 40 min 8 sec) 
Heartbeat CPU 6 instructions: 200000000 cycles: 200080893 heartbeat IPC: 0.924326 cumulative IPC: 0.918837 (Simulation time: 1 hr 40 min 18 sec) 
Heartbeat CPU 4 instructions: 190000001 cycles: 200580554 heartbeat IPC: 1.05097 cumulative IPC: 0.870176 (Simulation time: 1 hr 40 min 33 sec) 
Heartbeat CPU 2 instructions: 50000000 cycles: 203133296 heartbeat IPC: 0.0904114 cumulative IPC: 0.151127 (Simulation time: 1 hr 41 min 46 sec) 
Heartbeat CPU 0 instructions: 240000000 cycles: 203149173 heartbeat IPC: 1.09536 cumulative IPC: 1.10662 (Simulation time: 1 hr 41 min 47 sec) 
Heartbeat CPU 3 instructions: 230000003 cycles: 204057949 heartbeat IPC: 1.048 cumulative IPC: 1.04699 (Simulation time: 1 hr 42 min 12 sec) 
Heartbeat CPU 5 instructions: 330000002 cycles: 206072779 heartbeat IPC: 1.57384 cumulative IPC: 1.55987 (Simulation time: 1 hr 43 min 11 sec) 
Heartbeat CPU 4 instructions: 200000000 cycles: 210067400 heartbeat IPC: 1.05409 cumulative IPC: 0.87898 (Simulation time: 1 hr 45 min 4 sec) 
Heartbeat CPU 6 instructions: 210000001 cycles: 210909974 heartbeat IPC: 0.92344 cumulative IPC: 0.919088 (Simulation time: 1 hr 45 min 28 sec) 
Heartbeat CPU 1 instructions: 170000003 cycles: 211324359 heartbeat IPC: 0.706397 cumulative IPC: 0.752088 (Simulation time: 1 hr 45 min 39 sec) 
Heartbeat CPU 0 instructions: 250000003 cycles: 212164957 heartbeat IPC: 1.10917 cumulative IPC: 1.10673 (Simulation time: 1 hr 46 min 3 sec) 
Heartbeat CPU 5 instructions: 340000000 cycles: 212606063 heartbeat IPC: 1.53062 cumulative IPC: 1.55892 (Simulation time: 1 hr 46 min 15 sec) 
Heartbeat CPU 3 instructions: 240000000 cycles: 213531003 heartbeat IPC: 1.05563 cumulative IPC: 1.04739 (Simulation time: 1 hr 46 min 40 sec) 
Heartbeat CPU 4 instructions: 210000003 cycles: 218598829 heartbeat IPC: 1.17214 cumulative IPC: 0.891079 (Simulation time: 1 hr 49 min 4 sec) 
Heartbeat CPU 5 instructions: 350000002 cycles: 219435554 heartbeat IPC: 1.46424 cumulative IPC: 1.5558 (Simulation time: 1 hr 49 min 28 sec) 
Heartbeat CPU 7 instructions: 170000002 cycles: 220829341 heartbeat IPC: 0.410794 cumulative IPC: 0.681173 (Simulation time: 1 hr 50 min 8 sec) 
Heartbeat CPU 0 instructions: 260000000 cycles: 221215975 heartbeat IPC: 1.10485 cumulative IPC: 1.10665 (Simulation time: 1 hr 50 min 19 sec) 
Heartbeat CPU 6 instructions: 220000000 cycles: 221753244 heartbeat IPC: 0.922231 cumulative IPC: 0.91925 (Simulation time: 1 hr 50 min 34 sec) 
Heartbeat CPU 3 instructions: 250000003 cycles: 222845421 heartbeat IPC: 1.0736 cumulative IPC: 1.04855 (Simulation time: 1 hr 51 min 6 sec) 
Heartbeat CPU 5 instructions: 360000000 cycles: 225567703 heartbeat IPC: 1.63075 cumulative IPC: 1.55795 (Simulation time: 1 hr 52 min 25 sec) 
Heartbeat CPU 1 instructions: 180000000 cycles: 225616884 heartbeat IPC: 0.699666 cumulative IPC: 0.748583 (Simulation time: 1 hr 52 min 26 sec) 
Heartbeat CPU 4 instructions: 220000000 cycles: 228306422 heartbeat IPC: 1.03012 cumulative IPC: 0.897315 (Simulation time: 1 hr 53 min 42 sec) 
Heartbeat CPU 0 instructions: 270000001 cycles: 230326603 heartbeat IPC: 1.09762 cumulative IPC: 1.10627 (Simulation time: 1 hr 54 min 37 sec) 
Heartbeat CPU 3 instructions: 260000000 cycles: 231629872 heartbeat IPC: 1.13837 cumulative IPC: 1.05214 (Simulation time: 1 hr 55 min 12 sec) 
Heartbeat CPU 5 instructions: 370000003 cycles: 231863916 heartbeat IPC: 1.58826 cumulative IPC: 1.55882 (Simulation time: 1 hr 55 min 18 sec) 
Heartbeat CPU 6 instructions: 230000001 cycles: 232622387 heartbeat IPC: 0.920036 cumulative IPC: 0.919289 (Simulation time: 1 hr 55 min 37 sec) 
Heartbeat CPU 5 instructions: 380000000 cycles: 238052800 heartbeat IPC: 1.6158 cumulative IPC: 1.56038 (Simulation time: 1 hr 58 min 4 sec) 
Heartbeat CPU 4 instructions: 230000000 cycles: 238214719 heartbeat IPC: 1.00926 cumulative IPC: 0.902216 (Simulation time: 1 hr 58 min 9 sec) 
Heartbeat CPU 1 instructions: 190000001 cycles: 239115106 heartbeat IPC: 0.740838 cumulative IPC: 0.748123 (Simulation time: 1 hr 58 min 33 sec) 
Heartbeat CPU 0 instructions: 280000000 cycles: 239278612 heartbeat IPC: 1.11707 cumulative IPC: 1.1067 (Simulation time: 1 hr 58 min 37 sec) 
Heartbeat CPU 3 instructions: 270000001 cycles: 242265884 heartbeat IPC: 0.940202 cumulative IPC: 1.04697 (Simulation time: 2 hr 0 min 0 sec) 
Heartbeat CPU 6 instructions: 240000000 cycles: 243525879 heartbeat IPC: 0.917137 cumulative IPC: 0.919187 (Simulation time: 2 hr 0 min 33 sec) 
Heartbeat CPU 5 instructions: 390000003 cycles: 244400011 heartbeat IPC: 1.5755 cumulative IPC: 1.56079 (Simulation time: 2 hr 0 min 54 sec) 
Heartbeat CPU 7 instructions: 180000000 cycles: 247847695 heartbeat IPC: 0.370119 cumulative IPC: 0.645557 (Simulation time: 2 hr 2 min 17 sec) 
Heartbeat CPU 0 instructions: 290000001 cycles: 248345189 heartbeat IPC: 1.10295 cumulative IPC: 1.10655 (Simulation time: 2 hr 2 min 30 sec) 
Heartbeat CPU 4 instructions: 240000000 cycles: 250087606 heartbeat IPC: 0.842255 cumulative IPC: 0.899227 (Simulation time: 2 hr 3 min 15 sec) 
Heartbeat CPU 5 instructions: 400000000 cycles: 250690856 heartbeat IPC: 1.58961 cumulative IPC: 1.56155 (Simulation time: 2 hr 3 min 31 sec) 
Heartbeat CPU 3 instructions: 280000000 cycles: 252185779 heartbeat IPC: 1.00808 cumulative IPC: 1.04537 (Simulation time: 2 hr 4 min 6 sec) 
Heartbeat CPU 6 instructions: 250000000 cycles: 254428475 heartbeat IPC: 0.917213 cumulative IPC: 0.919099 (Simulation time: 2 hr 5 min 3 sec) 
Heartbeat CPU 5 instructions: 410000000 cycles: 256988586 heartbeat IPC: 1.58787 cumulative IPC: 1.56223 (Simulation time: 2 hr 6 min 4 sec) 
Heartbeat CPU 1 instructions: 200000000 cycles: 257406336 heartbeat IPC: 0.54671 cumulative IPC: 0.733118 (Simulation time: 2 hr 6 min 14 sec) 
Heartbeat CPU 0 instructions: 300000000 cycles: 257461744 heartbeat IPC: 1.09691 cumulative IPC: 1.1062 (Simulation time: 2 hr 6 min 16 sec) 
Heartbeat CPU 2 instructions: 60000000 cycles: 257535058 heartbeat IPC: 0.183818 cumulative IPC: 0.158367 (Simulation time: 2 hr 6 min 18 sec) 
Heartbeat CPU 3 instructions: 290000000 cycles: 261557358 heartbeat IPC: 1.06706 cumulative IPC: 1.04618 (Simulation time: 2 hr 8 min 6 sec) 
Heartbeat CPU 5 instructions: 420000000 cycles: 263870678 heartbeat IPC: 1.45305 cumulative IPC: 1.55924 (Simulation time: 2 hr 9 min 5 sec) 
Heartbeat CPU 4 instructions: 250000001 cycles: 264541878 heartbeat IPC: 0.691837 cumulative IPC: 0.887363 (Simulation time: 2 hr 9 min 21 sec) 
Heartbeat CPU 6 instructions: 260000000 cycles: 265270067 heartbeat IPC: 0.922374 cumulative IPC: 0.919239 (Simulation time: 2 hr 9 min 39 sec) 
Heartbeat CPU 0 instructions: 310000000 cycles: 266431406 heartbeat IPC: 1.11487 cumulative IPC: 1.1065 (Simulation time: 2 hr 10 min 8 sec) 
Heartbeat CPU 5 instructions: 430000001 cycles: 269895994 heartbeat IPC: 1.65966 cumulative IPC: 1.56159 (Simulation time: 2 hr 11 min 37 sec) 
Heartbeat CPU 1 instructions: 210000000 cycles: 271199421 heartbeat IPC: 0.725001 cumulative IPC: 0.732686 (Simulation time: 2 hr 12 min 9 sec) 
Heartbeat CPU 3 instructions: 300000000 cycles: 271482829 heartbeat IPC: 1.00751 cumulative IPC: 1.0447 (Simulation time: 2 hr 12 min 16 sec) 
Heartbeat CPU 4 instructions: 260000000 cycles: 275177846 heartbeat IPC: 0.940206 cumulative IPC: 0.889497 (Simulation time: 2 hr 13 min 49 sec) 
Heartbeat CPU 0 instructions: 320000000 cycles: 275531182 heartbeat IPC: 1.09893 cumulative IPC: 1.10624 (Simulation time: 2 hr 13 min 58 sec) 
Heartbeat CPU 5 instructions: 440000000 cycles: 276075837 heartbeat IPC: 1.61816 cumulative IPC: 1.56291 (Simulation time: 2 hr 14 min 12 sec) 
Heartbeat CPU 6 instructions: 270000003 cycles: 276164278 heartbeat IPC: 0.917919 cumulative IPC: 0.919184 (Simulation time: 2 hr 14 min 14 sec) 
Heartbeat CPU 7 instructions: 190000000 cycles: 278241261 heartbeat IPC: 0.329017 cumulative IPC: 0.609438 (Simulation time: 2 hr 15 min 5 sec) 
Heartbeat CPU 3 instructions: 310000000 cycles: 282116670 heartbeat IPC: 0.940394 cumulative IPC: 1.0406 (Simulation time: 2 hr 16 min 38 sec) 
Heartbeat CPU 5 instructions: 450000000 cycles: 282423995 heartbeat IPC: 1.57526 cumulative IPC: 1.5632 (Simulation time: 2 hr 16 min 45 sec) 
Heartbeat CPU 0 instructions: 330000003 cycles: 284706107 heartbeat IPC: 1.08993 cumulative IPC: 1.10569 (Simulation time: 2 hr 17 min 37 sec) 
Heartbeat CPU 4 instructions: 270000000 cycles: 284976204 heartbeat IPC: 1.02058 cumulative IPC: 0.8942 (Simulation time: 2 hr 17 min 43 sec) 
Heartbeat CPU 6 instructions: 280000000 cycles: 287241928 heartbeat IPC: 0.902718 cumulative IPC: 0.918522 (Simulation time: 2 hr 18 min 29 sec) 
Heartbeat CPU 1 instructions: 220000000 cycles: 288528763 heartbeat IPC: 0.577056 cumulative IPC: 0.722938 (Simulation time: 2 hr 18 min 56 sec) 
Heartbeat CPU 5 instructions: 460000000 cycles: 288678504 heartbeat IPC: 1.59885 cumulative IPC: 1.56401 (Simulation time: 2 hr 19 min 0 sec) 
Heartbeat CPU 3 instructions: 320000000 cycles: 292073064 heartbeat IPC: 1.00438 cumulative IPC: 1.03931 (Simulation time: 2 hr 20 min 10 sec) 
Heartbeat CPU 0 instructions: 340000000 cycles: 293886068 heartbeat IPC: 1.08933 cumulative IPC: 1.10516 (Simulation time: 2 hr 20 min 49 sec) 
Heartbeat CPU 5 instructions: 470000000 cycles: 295608116 heartbeat IPC: 1.44308 cumulative IPC: 1.56105 (Simulation time: 2 hr 21 min 24 sec) 
Heartbeat CPU 6 instructions: 290000001 cycles: 298235718 heartbeat IPC: 0.909604 cumulative IPC: 0.91818 (Simulation time: 2 hr 22 min 19 sec) 
Heartbeat CPU 3 instructions: 330000002 cycles: 300981324 heartbeat IPC: 1.12255 cumulative IPC: 1.04188 (Simulation time: 2 hr 23 min 21 sec) 
Heartbeat CPU 5 instructions: 480000000 cycles: 301835119 heartbeat IPC: 1.60591 cumulative IPC: 1.56202 (Simulation time: 2 hr 23 min 42 sec) 
Heartbeat CPU 4 instructions: 280000000 cycles: 302066965 heartbeat IPC: 0.585111 cumulative IPC: 0.875996 (Simulation time: 2 hr 23 min 48 sec) 
Heartbeat CPU 0 instructions: 350000001 cycles: 303015573 heartbeat IPC: 1.09535 cumulative IPC: 1.10485 (Simulation time: 2 hr 24 min 10 sec) 
Heartbeat CPU 7 instructions: 200000000 cycles: 309144549 heartbeat IPC: 0.32359 cumulative IPC: 0.579721 (Simulation time: 2 hr 26 min 20 sec) 
Heartbeat CPU 6 instructions: 300000000 cycles: 309267830 heartbeat IPC: 0.906445 cumulative IPC: 0.917744 (Simulation time: 2 hr 26 min 23 sec) 
Heartbeat CPU 5 instructions: 490000002 cycles: 309793055 heartbeat IPC: 1.25661 cumulative IPC: 1.55386 (Simulation time: 2 hr 26 min 35 sec) 
Heartbeat CPU 1 instructions: 230000001 cycles: 310897095 heartbeat IPC: 0.447061 cumulative IPC: 0.7023 (Simulation time: 2 hr 27 min 1 sec) 
Heartbeat CPU 3 instructions: 340000000 cycles: 311091087 heartbeat IPC: 0.989143 cumulative IPC: 1.04009 (Simulation time: 2 hr 27 min 5 sec) 
Heartbeat CPU 0 instructions: 360000000 cycles: 312275315 heartbeat IPC: 1.07994 cumulative IPC: 1.10408 (Simulation time: 2 hr 27 min 35 sec) 
Heartbeat CPU 4 instructions: 290000001 cycles: 315502705 heartbeat IPC: 0.744284 cumulative IPC: 0.870168 (Simulation time: 2 hr 28 min 50 sec) 
Heartbeat CPU 5 instructions: 500000000 cycles: 315991357 heartbeat IPC: 1.61334 cumulative IPC: 1.55507 (Simulation time: 2 hr 29 min 2 sec) 
Heartbeat CPU 6 instructions: 310000000 cycles: 320116516 heartbeat IPC: 0.921771 cumulative IPC: 0.917886 (Simulation time: 2 hr 30 min 41 sec) 
Heartbeat CPU 3 instructions: 350000000 cycles: 321194380 heartbeat IPC: 0.989776 cumulative IPC: 1.03845 (Simulation time: 2 hr 31 min 8 sec) 
Heartbeat CPU 0 instructions: 370000002 cycles: 321276776 heartbeat IPC: 1.11093 cumulative IPC: 1.10428 (Simulation time: 2 hr 31 min 9 sec) 
Heartbeat CPU 5 instructions: 510000000 cycles: 322157413 heartbeat IPC: 1.62178 cumulative IPC: 1.5564 (Simulation time: 2 hr 31 min 31 sec) 
Heartbeat CPU 2 instructions: 70000002 cycles: 326761477 heartbeat IPC: 0.144454 cumulative IPC: 0.155308 (Simulation time: 2 hr 33 min 25 sec) 
Heartbeat CPU 1 instructions: 240000000 cycles: 327516530 heartbeat IPC: 0.601705 cumulative IPC: 0.697004 (Simulation time: 2 hr 33 min 43 sec) 
Heartbeat CPU 5 instructions: 520000000 cycles: 328428200 heartbeat IPC: 1.5947 cumulative IPC: 1.55716 (Simulation time: 2 hr 34 min 5 sec) 
Heartbeat CPU 4 instructions: 300000000 cycles: 329260331 heartbeat IPC: 0.72687 cumulative IPC: 0.863956 (Simulation time: 2 hr 34 min 25 sec) 
Heartbeat CPU 0 instructions: 380000000 cycles: 330485116 heartbeat IPC: 1.08597 cumulative IPC: 1.10375 (Simulation time: 2 hr 34 min 55 sec) 
Heartbeat CPU 6 instructions: 320000000 cycles: 330956950 heartbeat IPC: 0.922472 cumulative IPC: 0.918042 (Simulation time: 2 hr 35 min 6 sec) 
Heartbeat CPU 3 instructions: 360000000 cycles: 332376057 heartbeat IPC: 0.89432 cumulative IPC: 1.03342 (Simulation time: 2 hr 35 min 42 sec) 
Heartbeat CPU 5 instructions: 530000001 cycles: 334851853 heartbeat IPC: 1.55675 cumulative IPC: 1.55715 (Simulation time: 2 hr 36 min 45 sec) 
Heartbeat CPU 7 instructions: 210000002 cycles: 335285071 heartbeat IPC: 0.382548 cumulative IPC: 0.563784 (Simulation time: 2 hr 36 min 55 sec) 
Heartbeat CPU 0 instructions: 390000002 cycles: 339551422 heartbeat IPC: 1.10299 cumulative IPC: 1.10373 (Simulation time: 2 hr 38 min 37 sec) 
Heartbeat CPU 5 instructions: 540000000 cycles: 341246747 heartbeat IPC: 1.56375 cumulative IPC: 1.55728 (Simulation time: 2 hr 39 min 18 sec) 
Heartbeat CPU 1 instructions: 250000003 cycles: 341569861 heartbeat IPC: 0.711575 cumulative IPC: 0.697625 (Simulation time: 2 hr 39 min 26 sec) 
Heartbeat CPU 6 instructions: 330000001 cycles: 341814296 heartbeat IPC: 0.921035 cumulative IPC: 0.91814 (Simulation time: 2 hr 39 min 32 sec) 
Heartbeat CPU 3 instructions: 370000001 cycles: 343164862 heartbeat IPC: 0.926887 cumulative IPC: 1.02995 (Simulation time: 2 hr 40 min 4 sec) 
Heartbeat CPU 4 instructions: 310000002 cycles: 345367300 heartbeat IPC: 0.620849 cumulative IPC: 0.852215 (Simulation time: 2 hr 41 min 1 sec) 
Heartbeat CPU 5 instructions: 550000003 cycles: 347527590 heartbeat IPC: 1.59214 cumulative IPC: 1.55793 (Simulation time: 2 hr 41 min 54 sec) 
Heartbeat CPU 0 instructions: 400000000 cycles: 348778343 heartbeat IPC: 1.08378 cumulative IPC: 1.10319 (Simulation time: 2 hr 42 min 24 sec) 
Heartbeat CPU 6 instructions: 340000000 cycles: 352822543 heartbeat IPC: 0.90841 cumulative IPC: 0.917826 (Simulation time: 2 hr 43 min 57 sec) 
Heartbeat CPU 3 instructions: 380000000 cycles: 353534600 heartbeat IPC: 0.964344 cumulative IPC: 1.02796 (Simulation time: 2 hr 44 min 13 sec) 
Heartbeat CPU 5 instructions: 560000000 cycles: 354317650 heartbeat IPC: 1.47274 cumulative IPC: 1.55624 (Simulation time: 2 hr 44 min 33 sec) 
Heartbeat CPU 1 instructions: 260000000 cycles: 355458545 heartbeat IPC: 0.72001 cumulative IPC: 0.69853 (Simulation time: 2 hr 45 min 0 sec) 
Heartbeat CPU 0 instructions: 410000002 cycles: 357941607 heartbeat IPC: 1.09131 cumulative IPC: 1.10287 (Simulation time: 2 hr 46 min 6 sec) 
Heartbeat CPU 4 instructions: 320000000 cycles: 358471842 heartbeat IPC: 0.763094 cumulative IPC: 0.848845 (Simulation time: 2 hr 46 min 20 sec) 
Heartbeat CPU 7 instructions: 220000000 cycles: 359779895 heartbeat IPC: 0.408249 cumulative IPC: 0.552833 (Simulation time: 2 hr 46 min 55 sec) 
Heartbeat CPU 5 instructions: 570000003 cycles: 360608233 heartbeat IPC: 1.58968 cumulative IPC: 1.55684 (Simulation time: 2 hr 47 min 15 sec) 
Heartbeat CPU 3 instructions: 390000003 cycles: 363307916 heartbeat IPC: 1.02319 cumulative IPC: 1.02783 (Simulation time: 2 hr 48 min 26 sec) 
Heartbeat CPU 6 instructions: 350000001 cycles: 363696957 heartbeat IPC: 0.91959 cumulative IPC: 0.917881 (Simulation time: 2 hr 48 min 36 sec) 
Heartbeat CPU 1 instructions: 270000000 cycles: 363914367 heartbeat IPC: 1.18262 cumulative IPC: 0.710157 (Simulation time: 2 hr 48 min 41 sec) 
Heartbeat CPU 5 instructions: 580000000 cycles: 366831397 heartbeat IPC: 1.6069 cumulative IPC: 1.55772 (Simulation time: 2 hr 49 min 54 sec) 
Heartbeat CPU 0 instructions: 420000000 cycles: 367042812 heartbeat IPC: 1.09876 cumulative IPC: 1.10277 (Simulation time: 2 hr 50 min 0 sec) 
Heartbeat CPU 2 instructions: 80000000 cycles: 368999287 heartbeat IPC: 0.236755 cumulative IPC: 0.164941 (Simulation time: 2 hr 50 min 49 sec) 
Heartbeat CPU 4 instructions: 330000001 cycles: 371427071 heartbeat IPC: 0.771889 cumulative IPC: 0.846072 (Simulation time: 2 hr 51 min 52 sec) 
Heartbeat CPU 1 instructions: 280000000 cycles: 372461200 heartbeat IPC: 1.17002 cumulative IPC: 0.721058 (Simulation time: 2 hr 52 min 19 sec) 
Heartbeat CPU 3 instructions: 400000000 cycles: 373150257 heartbeat IPC: 1.01602 cumulative IPC: 1.02751 (Simulation time: 2 hr 52 min 37 sec) 
Heartbeat CPU 5 instructions: 590000000 cycles: 373329945 heartbeat IPC: 1.53881 cumulative IPC: 1.55738 (Simulation time: 2 hr 52 min 42 sec) 
Heartbeat CPU 6 instructions: 360000000 cycles: 374548857 heartbeat IPC: 0.921498 cumulative IPC: 0.917989 (Simulation time: 2 hr 53 min 11 sec) 
Heartbeat CPU 0 instructions: 430000001 cycles: 376191750 heartbeat IPC: 1.09302 cumulative IPC: 1.10252 (Simulation time: 2 hr 53 min 51 sec) 
Heartbeat CPU 5 instructions: 600000000 cycles: 379872368 heartbeat IPC: 1.52849 cumulative IPC: 1.55687 (Simulation time: 2 hr 55 min 23 sec) 
Heartbeat CPU 1 instructions: 290000000 cycles: 382674500 heartbeat IPC: 0.979115 cumulative IPC: 0.728166 (Simulation time: 2 hr 56 min 27 sec) 
Heartbeat CPU 7 instructions: 230000003 cycles: 382776433 heartbeat IPC: 0.434848 cumulative IPC: 0.545518 (Simulation time: 2 hr 56 min 30 sec) 
Heartbeat CPU 3 instructions: 410000001 cycles: 383683299 heartbeat IPC: 0.949393 cumulative IPC: 1.02529 (Simulation time: 2 hr 56 min 50 sec) 
Heartbeat CPU 6 instructions: 370000000 cycles: 385432943 heartbeat IPC: 0.918773 cumulative IPC: 0.918012 (Simulation time: 2 hr 57 min 29 sec) 
Heartbeat CPU 0 instructions: 440000000 cycles: 385449467 heartbeat IPC: 1.08018 cumulative IPC: 1.10197 (Simulation time: 2 hr 57 min 29 sec) 
Heartbeat CPU 5 instructions: 610000000 cycles: 386328124 heartbeat IPC: 1.54901 cumulative IPC: 1.55673 (Simulation time: 2 hr 57 min 49 sec) 
Heartbeat CPU 4 instructions: 340000000 cycles: 390326928 heartbeat IPC: 0.529104 cumulative IPC: 0.830243 (Simulation time: 2 hr 59 min 20 sec) 
Heartbeat CPU 5 instructions: 620000000 cycles: 392659807 heartbeat IPC: 1.57936 cumulative IPC: 1.55711 (Simulation time: 3 hr 0 min 16 sec) 
Heartbeat CPU 3 instructions: 420000000 cycles: 394302604 heartbeat IPC: 0.941681 cumulative IPC: 1.02297 (Simulation time: 3 hr 0 min 55 sec) 
Heartbeat CPU 0 instructions: 450000003 cycles: 394454856 heartbeat IPC: 1.11045 cumulative IPC: 1.10217 (Simulation time: 3 hr 0 min 58 sec) 
Heartbeat CPU 6 instructions: 380000000 cycles: 396581445 heartbeat IPC: 0.896981 cumulative IPC: 0.917402 (Simulation time: 3 hr 1 min 50 sec) 
Heartbeat CPU 1 instructions: 300000000 cycles: 398841617 heartbeat IPC: 0.618539 cumulative IPC: 0.723585 (Simulation time: 3 hr 2 min 46 sec) 
Heartbeat CPU 5 instructions: 630000002 cycles: 399570386 heartbeat IPC: 1.44706 cumulative IPC: 1.55515 (Simulation time: 3 hr 3 min 4 sec) 
Heartbeat CPU 4 instructions: 350000002 cycles: 399929430 heartbeat IPC: 1.0414 cumulative IPC: 0.835468 (Simulation time: 3 hr 3 min 13 sec) 
Heartbeat CPU 0 instructions: 460000000 cycles: 403470689 heartbeat IPC: 1.10916 cumulative IPC: 1.10233 (Simulation time: 3 hr 4 min 43 sec) 
Heartbeat CPU 3 instructions: 430000001 cycles: 403654132 heartbeat IPC: 1.06934 cumulative IPC: 1.02408 (Simulation time: 3 hr 4 min 47 sec) 
Heartbeat CPU 7 instructions: 240000000 cycles: 405622509 heartbeat IPC: 0.437712 cumulative IPC: 0.539263 (Simulation time: 3 hr 5 min 36 sec) 
Heartbeat CPU 5 instructions: 640000000 cycles: 405781112 heartbeat IPC: 1.61012 cumulative IPC: 1.55601 (Simulation time: 3 hr 5 min 40 sec) 
Heartbeat CPU 6 instructions: 390000002 cycles: 407551684 heartbeat IPC: 0.911557 cumulative IPC: 0.91724 (Simulation time: 3 hr 6 min 23 sec) 
Heartbeat CPU 2 instructions: 90000000 cycles: 409500979 heartbeat IPC: 0.246903 cumulative IPC: 0.17329 (Simulation time: 3 hr 7 min 12 sec) 
Heartbeat CPU 1 instructions: 310000002 cycles: 411588056 heartbeat IPC: 0.784533 cumulative IPC: 0.725529 (Simulation time: 3 hr 8 min 3 sec) 
Heartbeat CPU 4 instructions: 360000000 cycles: 411763852 heartbeat IPC: 0.844993 cumulative IPC: 0.83575 (Simulation time: 3 hr 8 min 7 sec) 
Heartbeat CPU 3 instructions: 440000000 cycles: 412017147 heartbeat IPC: 1.19574 cumulative IPC: 1.02767 (Simulation time: 3 hr 8 min 13 sec) 
Heartbeat CPU 5 instructions: 650000003 cycles: 412057758 heartbeat IPC: 1.59321 cumulative IPC: 1.5566 (Simulation time: 3 hr 8 min 14 sec) 
Heartbeat CPU 0 instructions: 470000001 cycles: 412278293 heartbeat IPC: 1.13538 cumulative IPC: 1.10306 (Simulation time: 3 hr 8 min 18 sec) 
Heartbeat CPU 6 instructions: 400000000 cycles: 418463532 heartbeat IPC: 0.916435 cumulative IPC: 0.917219 (Simulation time: 3 hr 10 min 46 sec) 
Heartbeat CPU 5 instructions: 660000000 cycles: 418556226 heartbeat IPC: 1.53882 cumulative IPC: 1.55631 (Simulation time: 3 hr 10 min 48 sec) 
Heartbeat CPU 4 instructions: 370000003 cycles: 420138788 heartbeat IPC: 1.19404 cumulative IPC: 0.843099 (Simulation time: 3 hr 11 min 29 sec) 
Heartbeat CPU 0 instructions: 480000000 cycles: 421198741 heartbeat IPC: 1.12102 cumulative IPC: 1.10345 (Simulation time: 3 hr 11 min 54 sec) 
Heartbeat CPU 3 instructions: 450000000 cycles: 423193707 heartbeat IPC: 0.89473 cumulative IPC: 1.02405 (Simulation time: 3 hr 12 min 39 sec) 
Heartbeat CPU 1 instructions: 320000000 cycles: 424716468 heartbeat IPC: 0.761707 cumulative IPC: 0.72668 (Simulation time: 3 hr 13 min 13 sec) 
Heartbeat CPU 5 instructions: 670000002 cycles: 424944160 heartbeat IPC: 1.56545 cumulative IPC: 1.55645 (Simulation time: 3 hr 13 min 19 sec) 
Heartbeat CPU 7 instructions: 250000001 cycles: 427832336 heartbeat IPC: 0.450251 cumulative IPC: 0.53451 (Simulation time: 3 hr 14 min 32 sec) 
Heartbeat CPU 6 instructions: 410000001 cycles: 429352697 heartbeat IPC: 0.918344 cumulative IPC: 0.917248 (Simulation time: 3 hr 15 min 11 sec) 
Heartbeat CPU 0 instructions: 490000001 cycles: 430009422 heartbeat IPC: 1.13499 cumulative IPC: 1.10411 (Simulation time: 3 hr 15 min 27 sec) 
Heartbeat CPU 5 instructions: 680000000 cycles: 431417395 heartbeat IPC: 1.54482 cumulative IPC: 1.55627 (Simulation time: 3 hr 16 min 2 sec) 
Heartbeat CPU 4 instructions: 380000000 cycles: 431885877 heartbeat IPC: 0.851274 cumulative IPC: 0.843328 (Simulation time: 3 hr 16 min 13 sec) 
Heartbeat CPU 3 instructions: 460000000 cycles: 432679835 heartbeat IPC: 1.05417 cumulative IPC: 1.02473 (Simulation time: 3 hr 16 min 34 sec) 
Heartbeat CPU 1 instructions: 330000003 cycles: 434191252 heartbeat IPC: 1.05543 cumulative IPC: 0.734055 (Simulation time: 3 hr 17 min 14 sec) 
Heartbeat CPU 5 instructions: 690000002 cycles: 438001648 heartbeat IPC: 1.51878 cumulative IPC: 1.55569 (Simulation time: 3 hr 18 min 51 sec) 
Heartbeat CPU 0 instructions: 500000000 cycles: 438866112 heartbeat IPC: 1.12909 cumulative IPC: 1.10463 (Simulation time: 3 hr 19 min 11 sec) 
Heartbeat CPU 6 instructions: 420000000 cycles: 440216279 heartbeat IPC: 0.920507 cumulative IPC: 0.917331 (Simulation time: 3 hr 19 min 43 sec) 
Heartbeat CPU 3 instructions: 470000003 cycles: 442350168 heartbeat IPC: 1.03409 cumulative IPC: 1.02494 (Simulation time: 3 hr 20 min 33 sec) 
Heartbeat CPU 4 instructions: 390000001 cycles: 442925270 heartbeat IPC: 0.905847 cumulative IPC: 0.844929 (Simulation time: 3 hr 20 min 46 sec) 
Heartbeat CPU 5 instructions: 700000000 cycles: 444244268 heartbeat IPC: 1.60189 cumulative IPC: 1.55636 (Simulation time: 3 hr 21 min 17 sec) 
Heartbeat CPU 2 instructions: 100000000 cycles: 446236442 heartbeat IPC: 0.272217 cumulative IPC: 0.181656 (Simulation time: 3 hr 22 min 3 sec) 
Heartbeat CPU 0 instructions: 510000001 cycles: 447701612 heartbeat IPC: 1.1318 cumulative IPC: 1.10518 (Simulation time: 3 hr 22 min 35 sec) 
Heartbeat CPU 1 instructions: 340000000 cycles: 449961887 heartbeat IPC: 0.63409 cumulative IPC: 0.730457 (Simulation time: 3 hr 23 min 25 sec) 
Heartbeat CPU 5 instructions: 710000000 cycles: 450614124 heartbeat IPC: 1.56989 cumulative IPC: 1.55656 (Simulation time: 3 hr 23 min 40 sec) 
Heartbeat CPU 6 instructions: 430000003 cycles: 451105367 heartbeat IPC: 0.918351 cumulative IPC: 0.917356 (Simulation time: 3 hr 23 min 52 sec) 
Heartbeat CPU 7 instructions: 260000000 cycles: 451263415 heartbeat IPC: 0.426784 cumulative IPC: 0.528765 (Simulation time: 3 hr 23 min 56 sec) 
Heartbeat CPU 3 instructions: 480000000 cycles: 452031392 heartbeat IPC: 1.03293 cumulative IPC: 1.02512 (Simulation time: 3 hr 24 min 14 sec) 
Heartbeat CPU 4 instructions: 400000000 cycles: 453281257 heartbeat IPC: 0.965625 cumulative IPC: 0.847761 (Simulation time: 3 hr 24 min 44 sec) 
Heartbeat CPU 0 instructions: 520000000 cycles: 456608042 heartbeat IPC: 1.12278 cumulative IPC: 1.10553 (Simulation time: 3 hr 26 min 6 sec) 
Heartbeat CPU 5 instructions: 720000000 cycles: 457107786 heartbeat IPC: 1.53996 cumulative IPC: 1.55632 (Simulation time: 3 hr 26 min 18 sec) 
Heartbeat CPU 3 instructions: 490000000 cycles: 461812330 heartbeat IPC: 1.0224 cumulative IPC: 1.02506 (Simulation time: 3 hr 28 min 5 sec) 
Heartbeat CPU 6 instructions: 440000000 cycles: 461934031 heartbeat IPC: 0.923475 cumulative IPC: 0.917503 (Simulation time: 3 hr 28 min 8 sec) 
Heartbeat CPU 5 instructions: 730000000 cycles: 463437889 heartbeat IPC: 1.57975 cumulative IPC: 1.55664 (Simulation time: 3 hr 28 min 43 sec) 
Heartbeat CPU 4 instructions: 410000000 cycles: 464887095 heartbeat IPC: 0.861635 cumulative IPC: 0.848116 (Simulation time: 3 hr 29 min 14 sec) 
Heartbeat CPU 0 instructions: 530000003 cycles: 466866680 heartbeat IPC: 0.974789 cumulative IPC: 1.10259 (Simulation time: 3 hr 29 min 57 sec) 
Heartbeat CPU 1 instructions: 350000002 cycles: 467183468 heartbeat IPC: 0.580667 cumulative IPC: 0.724791 (Simulation time: 3 hr 30 min 4 sec) 
Heartbeat CPU 5 instructions: 740000000 cycles: 470110978 heartbeat IPC: 1.49856 cumulative IPC: 1.5558 (Simulation time: 3 hr 31 min 8 sec) 
Heartbeat CPU 6 instructions: 450000001 cycles: 472977376 heartbeat IPC: 0.905523 cumulative IPC: 0.917216 (Simulation time: 3 hr 32 min 18 sec) 
Heartbeat CPU 3 instructions: 500000000 cycles: 473148309 heartbeat IPC: 0.882147 cumulative IPC: 1.02155 (Simulation time: 3 hr 32 min 22 sec) 
Heartbeat CPU 7 instructions: 270000000 cycles: 473783039 heartbeat IPC: 0.444057 cumulative IPC: 0.524635 (Simulation time: 3 hr 32 min 37 sec) 
Heartbeat CPU 4 instructions: 420000000 cycles: 474161769 heartbeat IPC: 1.0782 cumulative IPC: 0.852733 (Simulation time: 3 hr 32 min 47 sec) 
Heartbeat CPU 0 instructions: 540000000 cycles: 476737307 heartbeat IPC: 1.01311 cumulative IPC: 1.10069 (Simulation time: 3 hr 33 min 47 sec) 
Heartbeat CPU 5 instructions: 750000001 cycles: 476979765 heartbeat IPC: 1.45586 cumulative IPC: 1.55432 (Simulation time: 3 hr 33 min 52 sec) 
Heartbeat CPU 3 instructions: 510000001 cycles: 481085174 heartbeat IPC: 1.25994 cumulative IPC: 1.02558 (Simulation time: 3 hr 35 min 25 sec) 
Heartbeat CPU 1 instructions: 360000000 cycles: 482269406 heartbeat IPC: 0.662869 cumulative IPC: 0.722805 (Simulation time: 3 hr 35 min 53 sec) 
Heartbeat CPU 5 instructions: 760000000 cycles: 483301080 heartbeat IPC: 1.58195 cumulative IPC: 1.55469 (Simulation time: 3 hr 36 min 17 sec) 
Heartbeat CPU 6 instructions: 460000000 cycles: 484088814 heartbeat IPC: 0.899973 cumulative IPC: 0.91681 (Simulation time: 3 hr 36 min 35 sec) 
Heartbeat CPU 0 instructions: 550000002 cycles: 485587853 heartbeat IPC: 1.12987 cumulative IPC: 1.10123 (Simulation time: 3 hr 37 min 10 sec) 
Heartbeat CPU 4 instructions: 430000001 cycles: 489227090 heartbeat IPC: 0.663776 cumulative IPC: 0.846769 (Simulation time: 3 hr 38 min 34 sec) 
Heartbeat CPU 5 instructions: 770000002 cycles: 489780581 heartbeat IPC: 1.54333 cumulative IPC: 1.55454 (Simulation time: 3 hr 38 min 47 sec) 
Heartbeat CPU 3 instructions: 520000000 cycles: 490849392 heartbeat IPC: 1.02415 cumulative IPC: 1.02555 (Simulation time: 3 hr 39 min 13 sec) 
Heartbeat CPU 0 instructions: 560000000 cycles: 494470521 heartbeat IPC: 1.12579 cumulative IPC: 1.10168 (Simulation time: 3 hr 40 min 39 sec) 
Heartbeat CPU 7 instructions: 280000000 cycles: 494505688 heartbeat IPC: 0.482564 cumulative IPC: 0.522829 (Simulation time: 3 hr 40 min 40 sec) 
Heartbeat CPU 6 instructions: 470000001 cycles: 494991805 heartbeat IPC: 0.91718 cumulative IPC: 0.916819 (Simulation time: 3 hr 40 min 51 sec) 
Heartbeat CPU 1 instructions: 370000000 cycles: 496750361 heartbeat IPC: 0.690562 cumulative IPC: 0.721842 (Simulation time: 3 hr 41 min 33 sec) 
Heartbeat CPU 5 instructions: 780000000 cycles: 497649436 heartbeat IPC: 1.27083 cumulative IPC: 1.54994 (Simulation time: 3 hr 41 min 54 sec) 
Heartbeat CPU 3 instructions: 530000001 cycles: 500261568 heartbeat IPC: 1.06245 cumulative IPC: 1.02626 (Simulation time: 3 hr 42 min 56 sec) 
Heartbeat CPU 0 instructions: 570000002 cycles: 503323031 heartbeat IPC: 1.12962 cumulative IPC: 1.10219 (Simulation time: 3 hr 44 min 10 sec) 
Heartbeat CPU 5 instructions: 790000002 cycles: 503800842 heartbeat IPC: 1.62564 cumulative IPC: 1.55089 (Simulation time: 3 hr 44 min 21 sec) 
Heartbeat CPU 4 instructions: 440000000 cycles: 504258066 heartbeat IPC: 0.665293 cumulative IPC: 0.841229 (Simulation time: 3 hr 44 min 32 sec) 
Heartbeat CPU 6 instructions: 480000000 cycles: 508329500 heartbeat IPC: 0.749755 cumulative IPC: 0.91233 (Simulation time: 3 hr 46 min 3 sec) 
Heartbeat CPU 5 instructions: 800000000 cycles: 510313325 heartbeat IPC: 1.53551 cumulative IPC: 1.55069 (Simulation time: 3 hr 46 min 47 sec) 
Heartbeat CPU 1 instructions: 380000000 cycles: 511308038 heartbeat IPC: 0.686923 cumulative IPC: 0.720824 (Simulation time: 3 hr 47 min 8 sec) 
Heartbeat CPU 3 instructions: 540000000 cycles: 511395538 heartbeat IPC: 0.898152 cumulative IPC: 1.02341 (Simulation time: 3 hr 47 min 10 sec) 
Heartbeat CPU 0 instructions: 580000000 cycles: 512154497 heartbeat IPC: 1.13231 cumulative IPC: 1.10272 (Simulation time: 3 hr 47 min 26 sec) 
Heartbeat CPU 7 instructions: 290000002 cycles: 516459478 heartbeat IPC: 0.455502 cumulative IPC: 0.519899 (Simulation time: 3 hr 49 min 0 sec) 
Heartbeat CPU 5 instructions: 810000001 cycles: 516645440 heartbeat IPC: 1.57925 cumulative IPC: 1.55105 (Simulation time: 3 hr 49 min 4 sec) 
Heartbeat CPU 2 instructions: 110000000 cycles: 518547246 heartbeat IPC: 0.138292 cumulative IPC: 0.175467 (Simulation time: 3 hr 49 min 46 sec) 
Heartbeat CPU 4 instructions: 450000000 cycles: 519459149 heartbeat IPC: 0.657848 cumulative IPC: 0.835737 (Simulation time: 3 hr 50 min 7 sec) 
Heartbeat CPU 0 instructions: 590000000 cycles: 520970087 heartbeat IPC: 1.13435 cumulative IPC: 1.10327 (Simulation time: 3 hr 50 min 42 sec) 
Heartbeat CPU 3 instructions: 550000003 cycles: 521903872 heartbeat IPC: 0.951626 cumulative IPC: 1.02193 (Simulation time: 3 hr 51 min 3 sec) 
Heartbeat CPU 5 instructions: 820000000 cycles: 522908119 heartbeat IPC: 1.59676 cumulative IPC: 1.55161 (Simulation time: 3 hr 51 min 24 sec) 
Heartbeat CPU 1 instructions: 390000000 cycles: 527178635 heartbeat IPC: 0.630096 cumulative IPC: 0.71803 (Simulation time: 3 hr 52 min 55 sec) 
Heartbeat CPU 5 instructions: 830000003 cycles: 529329073 heartbeat IPC: 1.5574 cumulative IPC: 1.55168 (Simulation time: 3 hr 53 min 42 sec) 
Heartbeat CPU 0 instructions: 600000000 cycles: 529787537 heartbeat IPC: 1.13411 cumulative IPC: 1.10379 (Simulation time: 3 hr 53 min 52 sec) 
Heartbeat CPU 3 instructions: 560000000 cycles: 531482150 heartbeat IPC: 1.04403 cumulative IPC: 1.02234 (Simulation time: 3 hr 54 min 32 sec) 
Heartbeat CPU 6 instructions: 490000000 cycles: 533191260 heartbeat IPC: 0.402224 cumulative IPC: 0.888003 (Simulation time: 3 hr 55 min 12 sec) 
Heartbeat CPU 5 instructions: 840000000 cycles: 535684327 heartbeat IPC: 1.5735 cumulative IPC: 1.55194 (Simulation time: 3 hr 56 min 6 sec) 
Heartbeat CPU 4 instructions: 460000000 cycles: 536477363 heartbeat IPC: 0.587606 cumulative IPC: 0.827688 (Simulation time: 3 hr 56 min 23 sec) 
Heartbeat CPU 0 instructions: 610000000 cycles: 538602250 heartbeat IPC: 1.13447 cumulative IPC: 1.1043 (Simulation time: 3 hr 57 min 11 sec) 
Heartbeat CPU 7 instructions: 300000000 cycles: 538756870 heartbeat IPC: 0.448483 cumulative IPC: 0.516877 (Simulation time: 3 hr 57 min 14 sec) 
Heartbeat CPU 1 instructions: 400000000 cycles: 538851588 heartbeat IPC: 0.856681 cumulative IPC: 0.721101 (Simulation time: 3 hr 57 min 17 sec) 
Heartbeat CPU 3 instructions: 570000000 cycles: 541346305 heartbeat IPC: 1.01377 cumulative IPC: 1.02218 (Simulation time: 3 hr 58 min 14 sec) 
Heartbeat CPU 5 instructions: 850000002 cycles: 542068160 heartbeat IPC: 1.56646 cumulative IPC: 1.55212 (Simulation time: 3 hr 58 min 31 sec) 
Heartbeat CPU 4 instructions: 470000000 cycles: 547310447 heartbeat IPC: 0.923098 cumulative IPC: 0.829618 (Simulation time: 4 hr 0 min 22 sec) 
Heartbeat CPU 0 instructions: 620000000 cycles: 547456193 heartbeat IPC: 1.12944 cumulative IPC: 1.10472 (Simulation time: 4 hr 0 min 25 sec) 
Heartbeat CPU 6 instructions: 500000000 cycles: 548464186 heartbeat IPC: 0.654753 cumulative IPC: 0.881364 (Simulation time: 4 hr 0 min 47 sec) 
Heartbeat CPU 5 instructions: 860000000 cycles: 548521046 heartbeat IPC: 1.54969 cumulative IPC: 1.55209 (Simulation time: 4 hr 0 min 48 sec) 
Heartbeat CPU 3 instructions: 580000000 cycles: 551513441 heartbeat IPC: 0.983561 cumulative IPC: 1.02145 (Simulation time: 4 hr 1 min 47 sec) 
Heartbeat CPU 5 instructions: 870000003 cycles: 554852819 heartbeat IPC: 1.57934 cumulative IPC: 1.55241 (Simulation time: 4 hr 2 min 54 sec) 
Heartbeat CPU 0 instructions: 630000002 cycles: 556284351 heartbeat IPC: 1.13274 cumulative IPC: 1.10517 (Simulation time: 4 hr 3 min 23 sec) 
Heartbeat CPU 1 instructions: 410000000 cycles: 558789204 heartbeat IPC: 0.501565 cumulative IPC: 0.713098 (Simulation time: 4 hr 4 min 15 sec) 
Heartbeat CPU 5 instructions: 880000000 cycles: 561090949 heartbeat IPC: 1.60304 cumulative IPC: 1.55298 (Simulation time: 4 hr 5 min 8 sec) 
Heartbeat CPU 3 instructions: 590000002 cycles: 562354075 heartbeat IPC: 0.922455 cumulative IPC: 1.0195 (Simulation time: 4 hr 5 min 37 sec) 
Heartbeat CPU 7 instructions: 310000002 cycles: 563800395 heartbeat IPC: 0.399305 cumulative IPC: 0.511542 (Simulation time: 4 hr 6 min 12 sec) 
Heartbeat CPU 6 instructions: 510000001 cycles: 563967285 heartbeat IPC: 0.645032 cumulative IPC: 0.874728 (Simulation time: 4 hr 6 min 16 sec) 
Heartbeat CPU 4 instructions: 480000000 cycles: 564172610 heartbeat IPC: 0.593044 cumulative IPC: 0.822395 (Simulation time: 4 hr 6 min 21 sec) 
Heartbeat CPU 0 instructions: 640000000 cycles: 565090507 heartbeat IPC: 1.13557 cumulative IPC: 1.10566 (Simulation time: 4 hr 6 min 43 sec) 
Heartbeat CPU 5 instructions: 890000001 cycles: 567396087 heartbeat IPC: 1.58601 cumulative IPC: 1.55336 (Simulation time: 4 hr 7 min 39 sec) 
Heartbeat CPU 1 instructions: 420000000 cycles: 571203962 heartbeat IPC: 0.805493 cumulative IPC: 0.715149 (Simulation time: 4 hr 9 min 11 sec) 
Heartbeat CPU 2 instructions: 120000000 cycles: 571653297 heartbeat IPC: 0.188302 cumulative IPC: 0.176685 (Simulation time: 4 hr 9 min 23 sec) 
Heartbeat CPU 3 instructions: 600000000 cycles: 572026089 heartbeat IPC: 1.03391 cumulative IPC: 1.01975 (Simulation time: 4 hr 9 min 32 sec) 
Heartbeat CPU 4 instructions: 490000003 cycles: 573253629 heartbeat IPC: 1.1012 cumulative IPC: 0.826905 (Simulation time: 4 hr 10 min 3 sec) 
Heartbeat CPU 5 instructions: 900000000 cycles: 573762648 heartbeat IPC: 1.57071 cumulative IPC: 1.55355 (Simulation time: 4 hr 10 min 15 sec) 
Heartbeat CPU 0 instructions: 650000002 cycles: 573919020 heartbeat IPC: 1.13269 cumulative IPC: 1.10608 (Simulation time: 4 hr 10 min 19 sec) 
Finished CPU 2 instructions: 100000000 cycles: 562976648 cumulative IPC: 0.177627 (Simulation time: 4 hr 10 min 42 sec) 

CPU 0 Branch Prediction Accuracy: 91.9063% MPKI: 11.3637

CPU 1 Branch Prediction Accuracy: 99.7526% MPKI: 0.0903027

CPU 2 Branch Prediction Accuracy: 92.5378% MPKI: 13.6993

CPU 3 Branch Prediction Accuracy: 97.7399% MPKI: 3.27159

CPU 4 Branch Prediction Accuracy: 99.3091% MPKI: 0.364872

CPU 5 Branch Prediction Accuracy: 96.9422% MPKI: 4.13681

CPU 6 Branch Prediction Accuracy: 99.8531% MPKI: 0.143886

CPU 7 Branch Prediction Accuracy: 97.5939% MPKI: 0.36767

ChampSim completed all CPUs

Total Simulation Statistics (not including warmup)

CPU 0 cumulative IPC: 1.10578 instructions: 622529913 cycles: 562976647
L1D TOTAL     ACCESS:  107999620  HIT:  107880419  MISS:     119201
L1D LOAD      ACCESS:   84761982  HIT:   84740129  MISS:      21853
L1D RFO       ACCESS:   23237638  HIT:   23140290  MISS:      97348
L1D PREFETCH  ACCESS:          0  HIT:          0  MISS:          0
L1D WRITEBACK ACCESS:          0  HIT:          0  MISS:          0
L1I TOTAL     ACCESS:  151333366  HIT:  151333366  MISS:          0
L1I LOAD      ACCESS:  151333366  HIT:  151333366  MISS:          0
L1I RFO       ACCESS:          0  HIT:          0  MISS:          0
L1I PREFETCH  ACCESS:          0  HIT:          0  MISS:          0
L1I WRITEBACK ACCESS:          0  HIT:          0  MISS:          0
L2C TOTAL     ACCESS:     230499  HIT:     119082  MISS:     111417
L2C LOAD      ACCESS:      21853  HIT:      13646  MISS:       8207
L2C RFO       ACCESS:      97348  HIT:       4699  MISS:      92649
L2C PREFETCH  ACCESS:      13748  HIT:       3347  MISS:      10401
L2C WRITEBACK ACCESS:      97550  HIT:      97390  MISS:        160
LLC TOTAL     ACCESS:     297737  HIT:     133319  MISS:     164418
LLC LOAD      ACCESS:       8188  HIT:       7598  MISS:        590
LLC RFO       ACCESS:      92649  HIT:          2  MISS:      92647
LLC PREFETCH  ACCESS:     104069  HIT:      84278  MISS:      19791
LLC WRITEBACK ACCESS:      92831  HIT:      41441  MISS:      51390

CPU 1 cumulative IPC: 0.715937 instructions: 403055580 cycles: 562976647
L1D TOTAL     ACCESS:  113863911  HIT:  100827589  MISS:   13036322
L1D LOAD      ACCESS:  100472913  HIT:   89765045  MISS:   10707868
L1D RFO       ACCESS:   13390998  HIT:   11062544  MISS:    2328454
L1D PREFETCH  ACCESS:          0  HIT:          0  MISS:          0
L1D WRITEBACK ACCESS:          0  HIT:          0  MISS:          0
L1I TOTAL     ACCESS:   96962217  HIT:   96960902  MISS:       1315
L1I LOAD      ACCESS:   96962217  HIT:   96960902  MISS:       1315
L1I RFO       ACCESS:          0  HIT:          0  MISS:          0
L1I PREFETCH  ACCESS:          0  HIT:          0  MISS:          0
L1I WRITEBACK ACCESS:          0  HIT:          0  MISS:          0
L2C TOTAL     ACCESS:   31550904  HIT:   21057760  MISS:   10493144
L2C LOAD      ACCESS:   10708686  HIT:    6703062  MISS:    4005624
L2C RFO       ACCESS:    2328340  HIT:        413  MISS:    2327927
L2C PREFETCH  ACCESS:   15394572  HIT:   11235324  MISS:    4159248
L2C WRITEBACK ACCESS:    3119306  HIT:    3118961  MISS:        345
LLC TOTAL     ACCESS:   43512257  HIT:   32795374  MISS:   10716883
LLC LOAD      ACCESS:    3211303  HIT:    2748760  MISS:     462543
LLC RFO       ACCESS:    2327924  HIT:      33242  MISS:    2294682
LLC PREFETCH  ACCESS:   34879614  HIT:   26920098  MISS:    7959516
LLC WRITEBACK ACCESS:    3093416  HIT:    3093274  MISS:        142

CPU 2 cumulative IPC: 0.177627 instructions: 100000000 cycles: 562976648
L1D TOTAL     ACCESS:   41119853  HIT:   37405779  MISS:    3714074
L1D LOAD      ACCESS:   31000195  HIT:   27322012  MISS:    3678183
L1D RFO       ACCESS:   10119658  HIT:   10083767  MISS:      35891
L1D PREFETCH  ACCESS:          0  HIT:          0  MISS:          0
L1D WRITEBACK ACCESS:          0  HIT:          0  MISS:          0
L1I TOTAL     ACCESS:   21610934  HIT:   21610934  MISS:          0
L1I LOAD      ACCESS:   21610934  HIT:   21610934  MISS:          0
L1I RFO       ACCESS:          0  HIT:          0  MISS:          0
L1I PREFETCH  ACCESS:          0  HIT:          0  MISS:          0
L1I WRITEBACK ACCESS:          0  HIT:          0  MISS:          0
L2C TOTAL     ACCESS:    5117864  HIT:    2505574  MISS:    2612290
L2C LOAD      ACCESS:    3678179  HIT:    1210013  MISS:    2468166
L2C RFO       ACCESS:      35888  HIT:      29017  MISS:       6871
L2C PREFETCH  ACCESS:    1135540  HIT:     998924  MISS:     136616
L2C WRITEBACK ACCESS:     268257  HIT:     267620  MISS:        637
LLC TOTAL     ACCESS:    6825010  HIT:    2892359  MISS:    3932651
LLC LOAD      ACCESS:    2454725  HIT:     854610  MISS:    1600115
LLC RFO       ACCESS:       6871  HIT:       4525  MISS:       2346
LLC PREFETCH  ACCESS:    4191743  HIT:    1862595  MISS:    2329148
LLC WRITEBACK ACCESS:     171671  HIT:     170629  MISS:       1042

CPU 3 cumulative IPC: 1.01973 instructions: 574086167 cycles: 562976648
L1D TOTAL     ACCESS:  105845656  HIT:   95906242  MISS:    9939414
L1D LOAD      ACCESS:   75388431  HIT:   68753201  MISS:    6635230
L1D RFO       ACCESS:   30457225  HIT:   27153041  MISS:    3304184
L1D PREFETCH  ACCESS:          0  HIT:          0  MISS:          0
L1D WRITEBACK ACCESS:          0  HIT:          0  MISS:          0
L1I TOTAL     ACCESS:  138504613  HIT:  138196394  MISS:     308219
L1I LOAD      ACCESS:  138504613  HIT:  138196394  MISS:     308219
L1I RFO       ACCESS:          0  HIT:          0  MISS:          0
L1I PREFETCH  ACCESS:          0  HIT:          0  MISS:          0
L1I WRITEBACK ACCESS:          0  HIT:          0  MISS:          0
L2C TOTAL     ACCESS:   29894137  HIT:   25236333  MISS:    4657804
L2C LOAD      ACCESS:    6943114  HIT:    4640211  MISS:    2302903
L2C RFO       ACCESS:    3304070  HIT:    1787783  MISS:    1516287
L2C PREFETCH  ACCESS:   15411249  HIT:   14574572  MISS:     836677
L2C WRITEBACK ACCESS:    4235704  HIT:    4233767  MISS:       1937
LLC TOTAL     ACCESS:   14411924  HIT:   12224572  MISS:    2187352
LLC LOAD      ACCESS:    1876063  HIT:    1686857  MISS:     189206
LLC RFO       ACCESS:    1516273  HIT:     777028  MISS:     739245
LLC PREFETCH  ACCESS:    8897807  HIT:    7671511  MISS:    1226296
LLC WRITEBACK ACCESS:    2121781  HIT:    2089176  MISS:      32605

CPU 4 cumulative IPC: 0.827024 instructions: 465595396 cycles: 562976648
L1D TOTAL     ACCESS:  110953561  HIT:  103067175  MISS:    7886386
L1D LOAD      ACCESS:   92904128  HIT:   86477089  MISS:    6427039
L1D RFO       ACCESS:   18049433  HIT:   16590086  MISS:    1459347
L1D PREFETCH  ACCESS:          0  HIT:          0  MISS:          0
L1D WRITEBACK ACCESS:          0  HIT:          0  MISS:          0
L1I TOTAL     ACCESS:  127855122  HIT:  127841679  MISS:      13443
L1I LOAD      ACCESS:  127855122  HIT:  127841679  MISS:      13443
L1I RFO       ACCESS:          0  HIT:          0  MISS:          0
L1I PREFETCH  ACCESS:          0  HIT:          0  MISS:          0
L1I WRITEBACK ACCESS:          0  HIT:          0  MISS:          0
L2C TOTAL     ACCESS:   20720076  HIT:   14976519  MISS:    5743557
L2C LOAD      ACCESS:    6440276  HIT:    3465270  MISS:    2975006
L2C RFO       ACCESS:    1459319  HIT:     275105  MISS:    1184214
L2C PREFETCH  ACCESS:    9978782  HIT:    8399757  MISS:    1579025
L2C WRITEBACK ACCESS:    2841699  HIT:    2836387  MISS:       5312
LLC TOTAL     ACCESS:   20382175  HIT:   15903160  MISS:    4479015
LLC LOAD      ACCESS:    2254734  HIT:    1841770  MISS:     412964
LLC RFO       ACCESS:    1184206  HIT:     200865  MISS:     983341
LLC PREFETCH  ACCESS:   14558328  HIT:   11489602  MISS:    3068726
LLC WRITEBACK ACCESS:    2384907  HIT:    2370923  MISS:      13984

CPU 5 cumulative IPC: 1.55367 instructions: 874682216 cycles: 562976648
L1D TOTAL     ACCESS:  255150634  HIT:  255150519  MISS:        115
L1D LOAD      ACCESS:  110966028  HIT:  110965984  MISS:         44
L1D RFO       ACCESS:  144184606  HIT:  144184535  MISS:         71
L1D PREFETCH  ACCESS:          0  HIT:          0  MISS:          0
L1D WRITEBACK ACCESS:          0  HIT:          0  MISS:          0
L1I TOTAL     ACCESS:  192481065  HIT:  192466584  MISS:      14481
L1I LOAD      ACCESS:  192481065  HIT:  192466584  MISS:      14481
L1I RFO       ACCESS:          0  HIT:          0  MISS:          0
L1I PREFETCH  ACCESS:          0  HIT:          0  MISS:          0
L1I WRITEBACK ACCESS:          0  HIT:          0  MISS:          0
L2C TOTAL     ACCESS:      46213  HIT:      45064  MISS:       1149
L2C LOAD      ACCESS:      14525  HIT:      13594  MISS:        931
L2C RFO       ACCESS:         71  HIT:          0  MISS:         71
L2C PREFETCH  ACCESS:      31617  HIT:      31470  MISS:        147
L2C WRITEBACK ACCESS:          0  HIT:          0  MISS:          0
LLC TOTAL     ACCESS:       3602  HIT:       1555  MISS:       2047
LLC LOAD      ACCESS:        885  HIT:        491  MISS:        394
LLC RFO       ACCESS:         71  HIT:          4  MISS:         67
LLC PREFETCH  ACCESS:       2646  HIT:       1060  MISS:       1586
LLC WRITEBACK ACCESS:          0  HIT:          0  MISS:          0

CPU 6 cumulative IPC: 0.870671 instructions: 490167590 cycles: 562976648
L1D TOTAL     ACCESS:  128984768  HIT:  124924538  MISS:    4060230
L1D LOAD      ACCESS:  112887159  HIT:  108927250  MISS:    3959909
L1D RFO       ACCESS:   16097609  HIT:   15997288  MISS:     100321
L1D PREFETCH  ACCESS:          0  HIT:          0  MISS:          0
L1D WRITEBACK ACCESS:          0  HIT:          0  MISS:          0
L1I TOTAL     ACCESS:  164546840  HIT:  164546504  MISS:        336
L1I LOAD      ACCESS:  164546840  HIT:  164546504  MISS:        336
L1I RFO       ACCESS:          0  HIT:          0  MISS:          0
L1I PREFETCH  ACCESS:          0  HIT:          0  MISS:          0
L1I WRITEBACK ACCESS:          0  HIT:          0  MISS:          0
L2C TOTAL     ACCESS:   20961865  HIT:   20134337  MISS:     827528
L2C LOAD      ACCESS:    3960235  HIT:    3457261  MISS:     502974
L2C RFO       ACCESS:     100321  HIT:       7158  MISS:      93163
L2C PREFETCH  ACCESS:   15515569  HIT:   15284550  MISS:     231019
L2C WRITEBACK ACCESS:    1385740  HIT:    1385368  MISS:        372
LLC TOTAL     ACCESS:    3475453  HIT:    2701101  MISS:     774352
LLC LOAD      ACCESS:     422028  HIT:     297918  MISS:     124110
LLC RFO       ACCESS:      93163  HIT:         31  MISS:      93132
LLC PREFETCH  ACCESS:    2722365  HIT:    2177806  MISS:     544559
LLC WRITEBACK ACCESS:     237897  HIT:     225346  MISS:      12551

CPU 7 cumulative IPC: 0.510438 instructions: 287364613 cycles: 562976648
L1D TOTAL     ACCESS:   79169038  HIT:   60452307  MISS:   18716731
L1D LOAD      ACCESS:   29616909  HIT:   26779172  MISS:    2837737
L1D RFO       ACCESS:   49552129  HIT:   33673135  MISS:   15878994
L1D PREFETCH  ACCESS:          0  HIT:          0  MISS:          0
L1D WRITEBACK ACCESS:          0  HIT:          0  MISS:          0
L1I TOTAL     ACCESS:   69538581  HIT:   69538581  MISS:          0
L1I LOAD      ACCESS:   69538581  HIT:   69538581  MISS:          0
L1I RFO       ACCESS:          0  HIT:          0  MISS:          0
L1I PREFETCH  ACCESS:          0  HIT:          0  MISS:          0
L1I WRITEBACK ACCESS:          0  HIT:          0  MISS:          0
L2C TOTAL     ACCESS:   35204147  HIT:   21286017  MISS:   13918130
L2C LOAD      ACCESS:    2837737  HIT:     593850  MISS:    2243887
L2C RFO       ACCESS:   15878983  HIT:    4800403  MISS:   11078580
L2C PREFETCH  ACCESS:     608436  HIT:      16172  MISS:     592264
L2C WRITEBACK ACCESS:   15878991  HIT:   15875592  MISS:       3399
LLC TOTAL     ACCESS:   30293856  HIT:   18955623  MISS:   11338233
LLC LOAD      ACCESS:    1875244  HIT:    1614102  MISS:     261142
LLC RFO       ACCESS:   11071908  HIT:    2568799  MISS:    8503109
LLC PREFETCH  ACCESS:    6264962  HIT:    3691465  MISS:    2573497
LLC WRITEBACK ACCESS:   11081742  HIT:   11081257  MISS:        485

Region of Interest Statistics

CPU 0 cumulative IPC: 1.12227 instructions: 100000000 cycles: 89104781
L1D TOTAL     ACCESS:   17176425  HIT:   17169733  MISS:       6692
L1D LOAD      ACCESS:   13690648  HIT:   13689395  MISS:       1253
L1D RFO       ACCESS:    3485777  HIT:    3480338  MISS:       5439
L1D PREFETCH  ACCESS:          0  HIT:          0  MISS:          0
L1D WRITEBACK ACCESS:          0  HIT:          0  MISS:          0
L1D PREFETCH  REQUESTED:          0  ISSUED:          0  USEFUL:          0  USELESS:          0
L1I TOTAL     ACCESS:   24214448  HIT:   24214448  MISS:          0
L1I LOAD      ACCESS:   24214448  HIT:   24214448  MISS:          0
L1I RFO       ACCESS:          0  HIT:          0  MISS:          0
L1I PREFETCH  ACCESS:          0  HIT:          0  MISS:          0
L1I WRITEBACK ACCESS:          0  HIT:          0  MISS:          0
L1I PREFETCH  REQUESTED:          0  ISSUED:          0  USEFUL:          0  USELESS:          0
L2C TOTAL     ACCESS:      12811  HIT:       6985  MISS:       5826
L2C LOAD      ACCESS:       1253  HIT:        706  MISS:        547
L2C RFO       ACCESS:       5439  HIT:        586  MISS:       4853
L2C PREFETCH  ACCESS:        668  HIT:        242  MISS:        426
L2C WRITEBACK ACCESS:       5451  HIT:       5451  MISS:          0
L2C PREFETCH  REQUESTED:     155472  ISSUED:     155471  USEFUL:      15897  USELESS:         25
LLC TOTAL     ACCESS:      14655  HIT:       3610  MISS:      11045
LLC LOAD      ACCESS:        547  HIT:        500  MISS:         47
LLC RFO       ACCESS:       4853  HIT:          0  MISS:       4853
LLC PREFETCH  ACCESS:       4270  HIT:       3110  MISS:       1160
LLC WRITEBACK ACCESS:       4985  HIT:          0  MISS:       4985
LLC PREFETCH  REQUESTED:          0  ISSUED:          0  USEFUL:    7297864  USELESS:   11636451
Major fault: 0 Minor fault: 2514

CPU 1 cumulative IPC: 0.803371 instructions: 100000001 cycles: 124475473
L1D TOTAL     ACCESS:   20894641  HIT:   17938872  MISS:    2955769
L1D LOAD      ACCESS:   18000585  HIT:   15798238  MISS:    2202347
L1D RFO       ACCESS:    2894056  HIT:    2140634  MISS:     753422
L1D PREFETCH  ACCESS:          0  HIT:          0  MISS:          0
L1D WRITEBACK ACCESS:          0  HIT:          0  MISS:          0
L1D PREFETCH  REQUESTED:          0  ISSUED:          0  USEFUL:          0  USELESS:          0
L1I TOTAL     ACCESS:   22938354  HIT:   22938067  MISS:        287
L1I LOAD      ACCESS:   22938354  HIT:   22938067  MISS:        287
L1I RFO       ACCESS:          0  HIT:          0  MISS:          0
L1I PREFETCH  ACCESS:          0  HIT:          0  MISS:          0
L1I WRITEBACK ACCESS:          0  HIT:          0  MISS:          0
L1I PREFETCH  REQUESTED:          0  ISSUED:          0  USEFUL:          0  USELESS:          0
L2C TOTAL     ACCESS:    7183905  HIT:    4728262  MISS:    2455643
L2C LOAD      ACCESS:    2202614  HIT:    1401150  MISS:     801464
L2C RFO       ACCESS:     753422  HIT:          3  MISS:     753419
L2C PREFETCH  ACCESS:    3302491  HIT:    2401798  MISS:     900693
L2C WRITEBACK ACCESS:     925378  HIT:     925311  MISS:         67
L2C PREFETCH  REQUESTED:   62522343  ISSUED:   62290533  USEFUL:    4425928  USELESS:      51442
LLC TOTAL     ACCESS:    9783617  HIT:    7341268  MISS:    2442349
LLC LOAD      ACCESS:     661448  HIT:     568820  MISS:      92628
LLC RFO       ACCESS:     753419  HIT:      22597  MISS:     730822
LLC PREFETCH  ACCESS:    7448787  HIT:    5829913  MISS:    1618874
LLC WRITEBACK ACCESS:     919963  HIT:     919938  MISS:         25
LLC PREFETCH  REQUESTED:          0  ISSUED:          0  USEFUL:    7297864  USELESS:   11636451
Major fault: 0 Minor fault: 56821

CPU 2 cumulative IPC: 0.177627 instructions: 100000000 cycles: 562976648
L1D TOTAL     ACCESS:   41119853  HIT:   37405779  MISS:    3714074
L1D LOAD      ACCESS:   31000195  HIT:   27322012  MISS:    3678183
L1D RFO       ACCESS:   10119658  HIT:   10083767  MISS:      35891
L1D PREFETCH  ACCESS:          0  HIT:          0  MISS:          0
L1D WRITEBACK ACCESS:          0  HIT:          0  MISS:          0
L1D PREFETCH  REQUESTED:          0  ISSUED:          0  USEFUL:          0  USELESS:          0
L1I TOTAL     ACCESS:   21610934  HIT:   21610934  MISS:          0
L1I LOAD      ACCESS:   21610934  HIT:   21610934  MISS:          0
L1I RFO       ACCESS:          0  HIT:          0  MISS:          0
L1I PREFETCH  ACCESS:          0  HIT:          0  MISS:          0
L1I WRITEBACK ACCESS:          0  HIT:          0  MISS:          0
L1I PREFETCH  REQUESTED:          0  ISSUED:          0  USEFUL:          0  USELESS:          0
L2C TOTAL     ACCESS:    5117864  HIT:    2505574  MISS:    2612290
L2C LOAD      ACCESS:    3678179  HIT:    1210013  MISS:    2468166
L2C RFO       ACCESS:      35888  HIT:      29017  MISS:       6871
L2C PREFETCH  ACCESS:    1135540  HIT:     998924  MISS:     136616
L2C WRITEBACK ACCESS:     268257  HIT:     267620  MISS:        637
L2C PREFETCH  REQUESTED:    7230263  ISSUED:    7229724  USEFUL:      73895  USELESS:      86998
LLC TOTAL     ACCESS:    6825010  HIT:    2892359  MISS:    3932651
LLC LOAD      ACCESS:    2454725  HIT:     854610  MISS:    1600115
LLC RFO       ACCESS:       6871  HIT:       4525  MISS:       2346
LLC PREFETCH  ACCESS:    4191743  HIT:    1862595  MISS:    2329148
LLC WRITEBACK ACCESS:     171671  HIT:     170629  MISS:       1042
LLC PREFETCH  REQUESTED:          0  ISSUED:          0  USEFUL:    7297864  USELESS:   11636451
Major fault: 0 Minor fault: 119427

CPU 3 cumulative IPC: 1.05878 instructions: 100000000 cycles: 94448160
L1D TOTAL     ACCESS:   18832687  HIT:   16918594  MISS:    1914093
L1D LOAD      ACCESS:   13645613  HIT:   12422439  MISS:    1223174
L1D RFO       ACCESS:    5187074  HIT:    4496155  MISS:     690919
L1D PREFETCH  ACCESS:          0  HIT:          0  MISS:          0
L1D WRITEBACK ACCESS:          0  HIT:          0  MISS:          0
L1D PREFETCH  REQUESTED:          0  ISSUED:          0  USEFUL:          0  USELESS:          0
L1I TOTAL     ACCESS:   23293642  HIT:   23242852  MISS:      50790
L1I LOAD      ACCESS:   23293642  HIT:   23242852  MISS:      50790
L1I RFO       ACCESS:          0  HIT:          0  MISS:          0
L1I PREFETCH  ACCESS:          0  HIT:          0  MISS:          0
L1I WRITEBACK ACCESS:          0  HIT:          0  MISS:          0
L1I PREFETCH  REQUESTED:          0  ISSUED:          0  USEFUL:          0  USELESS:          0
L2C TOTAL     ACCESS:    5653682  HIT:    4811065  MISS:     842617
L2C LOAD      ACCESS:    1273880  HIT:     869314  MISS:     404566
L2C RFO       ACCESS:     690886  HIT:     406588  MISS:     284298
L2C PREFETCH  ACCESS:    2835942  HIT:    2682353  MISS:     153589
L2C WRITEBACK ACCESS:     852974  HIT:     852810  MISS:        164
L2C PREFETCH  REQUESTED:   36249428  ISSUED:   35460508  USEFUL:     894938  USELESS:      47877
LLC TOTAL     ACCESS:    2642966  HIT:    2241808  MISS:     401158
LLC LOAD      ACCESS:     331590  HIT:     298503  MISS:      33087
LLC RFO       ACCESS:     284296  HIT:     137225  MISS:     147071
LLC PREFETCH  ACCESS:    1639862  HIT:    1423190  MISS:     216672
LLC WRITEBACK ACCESS:     387218  HIT:     382890  MISS:       4328
LLC PREFETCH  REQUESTED:          0  ISSUED:          0  USEFUL:    7297864  USELESS:   11636451
Major fault: 0 Minor fault: 18451

CPU 4 cumulative IPC: 0.965505 instructions: 100000000 cycles: 103572710
L1D TOTAL     ACCESS:   23553309  HIT:   22179765  MISS:    1373544
L1D LOAD      ACCESS:   20222001  HIT:   19131405  MISS:    1090596
L1D RFO       ACCESS:    3331308  HIT:    3048360  MISS:     282948
L1D PREFETCH  ACCESS:          0  HIT:          0  MISS:          0
L1D WRITEBACK ACCESS:          0  HIT:          0  MISS:          0
L1D PREFETCH  REQUESTED:          0  ISSUED:          0  USEFUL:          0  USELESS:          0
L1I TOTAL     ACCESS:   26936588  HIT:   26933998  MISS:       2590
L1I LOAD      ACCESS:   26936588  HIT:   26933998  MISS:       2590
L1I RFO       ACCESS:          0  HIT:          0  MISS:          0
L1I PREFETCH  ACCESS:          0  HIT:          0  MISS:          0
L1I WRITEBACK ACCESS:          0  HIT:          0  MISS:          0
L1I PREFETCH  REQUESTED:          0  ISSUED:          0  USEFUL:          0  USELESS:          0
L2C TOTAL     ACCESS:    4030482  HIT:    3051757  MISS:     978725
L2C LOAD      ACCESS:    1093165  HIT:     644830  MISS:     448335
L2C RFO       ACCESS:     282948  HIT:      26709  MISS:     256239
L2C PREFETCH  ACCESS:    2131419  HIT:    1858712  MISS:     272707
L2C WRITEBACK ACCESS:     522950  HIT:     521506  MISS:       1444
L2C PREFETCH  REQUESTED:   38967183  ISSUED:   36141146  USEFUL:    1769962  USELESS:      27302
LLC TOTAL     ACCESS:    3692550  HIT:    3081771  MISS:     610779
LLC LOAD      ACCESS:     356257  HIT:     307974  MISS:      48283
LLC RFO       ACCESS:     256239  HIT:      85961  MISS:     170278
LLC PREFETCH  ACCESS:    2594558  HIT:    2204379  MISS:     390179
LLC WRITEBACK ACCESS:     485496  HIT:     483457  MISS:       2039
LLC PREFETCH  REQUESTED:          0  ISSUED:          0  USEFUL:    7297864  USELESS:   11636451
Major fault: 0 Minor fault: 10908

CPU 5 cumulative IPC: 1.57993 instructions: 100000002 cycles: 63293745
L1D TOTAL     ACCESS:   29644104  HIT:   29644102  MISS:          2
L1D LOAD      ACCESS:   12859220  HIT:   12859218  MISS:          2
L1D RFO       ACCESS:   16784884  HIT:   16784884  MISS:          0
L1D PREFETCH  ACCESS:          0  HIT:          0  MISS:          0
L1D WRITEBACK ACCESS:          0  HIT:          0  MISS:          0
L1D PREFETCH  REQUESTED:          0  ISSUED:          0  USEFUL:          0  USELESS:          0
L1I TOTAL     ACCESS:   21912535  HIT:   21912535  MISS:          0
L1I LOAD      ACCESS:   21912535  HIT:   21912535  MISS:          0
L1I RFO       ACCESS:          0  HIT:          0  MISS:          0
L1I PREFETCH  ACCESS:          0  HIT:          0  MISS:          0
L1I WRITEBACK ACCESS:          0  HIT:          0  MISS:          0
L1I PREFETCH  REQUESTED:          0  ISSUED:          0  USEFUL:          0  USELESS:          0
L2C TOTAL     ACCESS:          4  HIT:          2  MISS:          2
L2C LOAD      ACCESS:          2  HIT:          0  MISS:          2
L2C RFO       ACCESS:          0  HIT:          0  MISS:          0
L2C PREFETCH  ACCESS:          2  HIT:          2  MISS:          0
L2C WRITEBACK ACCESS:          0  HIT:          0  MISS:          0
L2C PREFETCH  REQUESTED:      66902  ISSUED:      66902  USEFUL:        141  USELESS:          0
LLC TOTAL     ACCESS:          2  HIT:          0  MISS:          2
LLC LOAD      ACCESS:          2  HIT:          0  MISS:          2
LLC RFO       ACCESS:          0  HIT:          0  MISS:          0
LLC PREFETCH  ACCESS:          0  HIT:          0  MISS:          0
LLC WRITEBACK ACCESS:          0  HIT:          0  MISS:          0
LLC PREFETCH  REQUESTED:          0  ISSUED:          0  USEFUL:    7297864  USELESS:   11636451
Major fault: 0 Minor fault: 47

CPU 6 cumulative IPC: 0.919189 instructions: 100000002 cycles: 108791506
L1D TOTAL     ACCESS:   26508208  HIT:   25596662  MISS:     911546
L1D LOAD      ACCESS:   23735579  HIT:   22825666  MISS:     909913
L1D RFO       ACCESS:    2772629  HIT:    2770996  MISS:       1633
L1D PREFETCH  ACCESS:          0  HIT:          0  MISS:          0
L1D WRITEBACK ACCESS:          0  HIT:          0  MISS:          0
L1D PREFETCH  REQUESTED:          0  ISSUED:          0  USEFUL:          0  USELESS:          0
L1I TOTAL     ACCESS:   33638479  HIT:   33638479  MISS:          0
L1I LOAD      ACCESS:   33638479  HIT:   33638479  MISS:          0
L1I RFO       ACCESS:          0  HIT:          0  MISS:          0
L1I PREFETCH  ACCESS:          0  HIT:          0  MISS:          0
L1I WRITEBACK ACCESS:          0  HIT:          0  MISS:          0
L1I PREFETCH  REQUESTED:          0  ISSUED:          0  USEFUL:          0  USELESS:          0
L2C TOTAL     ACCESS:    5425836  HIT:    5357380  MISS:      68456
L2C LOAD      ACCESS:     909913  HIT:     877959  MISS:      31954
L2C RFO       ACCESS:       1633  HIT:       1632  MISS:          1
L2C PREFETCH  ACCESS:    4209939  HIT:    4173448  MISS:      36491
L2C WRITEBACK ACCESS:     304351  HIT:     304341  MISS:         10
L2C PREFETCH  REQUESTED:   20427399  ISSUED:   20427111  USEFUL:     234031  USELESS:       7393
LLC TOTAL     ACCESS:     480166  HIT:     399157  MISS:      81009
LLC LOAD      ACCESS:      31853  HIT:      26403  MISS:       5450
LLC RFO       ACCESS:          1  HIT:          1  MISS:          0
LLC PREFETCH  ACCESS:     445977  HIT:     372570  MISS:      73407
LLC WRITEBACK ACCESS:       2335  HIT:        183  MISS:       2152
LLC PREFETCH  REQUESTED:          0  ISSUED:          0  USEFUL:    7297864  USELESS:   11636451
Major fault: 0 Minor fault: 16674

CPU 7 cumulative IPC: 0.814178 instructions: 100000000 cycles: 122823208
L1D TOTAL     ACCESS:   25683368  HIT:   21984808  MISS:    3698560
L1D LOAD      ACCESS:   10708626  HIT:   10148228  MISS:     560398
L1D RFO       ACCESS:   14974742  HIT:   11836580  MISS:    3138162
L1D PREFETCH  ACCESS:          0  HIT:          0  MISS:          0
L1D WRITEBACK ACCESS:          0  HIT:          0  MISS:          0
L1D PREFETCH  REQUESTED:          0  ISSUED:          0  USEFUL:          0  USELESS:          0
L1I TOTAL     ACCESS:   23805010  HIT:   23805010  MISS:          0
L1I LOAD      ACCESS:   23805010  HIT:   23805010  MISS:          0
L1I RFO       ACCESS:          0  HIT:          0  MISS:          0
L1I PREFETCH  ACCESS:          0  HIT:          0  MISS:          0
L1I WRITEBACK ACCESS:          0  HIT:          0  MISS:          0
L1I PREFETCH  REQUESTED:          0  ISSUED:          0  USEFUL:          0  USELESS:          0
L2C TOTAL     ACCESS:    6981904  HIT:    4211856  MISS:    2770048
L2C LOAD      ACCESS:     560398  HIT:     142332  MISS:     418066
L2C RFO       ACCESS:    3138162  HIT:     928548  MISS:    2209614
L2C PREFETCH  ACCESS:     145183  HIT:       2851  MISS:     142332
L2C WRITEBACK ACCESS:    3138161  HIT:    3138125  MISS:         36
L2C PREFETCH  REQUESTED:   16346860  ISSUED:   16346860  USEFUL:     649915  USELESS:         64
LLC TOTAL     ACCESS:    6255277  HIT:    4013688  MISS:    2241589
LLC LOAD      ACCESS:     355207  HIT:     328890  MISS:      26317
LLC RFO       ACCESS:    2208322  HIT:     527183  MISS:    1681139
LLC PREFETCH  ACCESS:    1482180  HIT:     948083  MISS:     534097
LLC WRITEBACK ACCESS:    2209568  HIT:    2209532  MISS:         36
LLC PREFETCH  REQUESTED:          0  ISSUED:          0  USEFUL:    7297864  USELESS:   11636451
Major fault: 0 Minor fault: 96370

DRAM Statistics
 CHANNEL 0
 RQ ROW_BUFFER_HIT:    3654438  ROW_BUFFER_MISS:   13073004
 DBUS_CONGESTED:   39342688
 WQ ROW_BUFFER_HIT:     634072  ROW_BUFFER_MISS:    6833904  FULL:          0

 CHANNEL 1
 RQ ROW_BUFFER_HIT:    3646857  ROW_BUFFER_MISS:   13107963
 DBUS_CONGESTED:   39342688
 WQ ROW_BUFFER_HIT:     633820  ROW_BUFFER_MISS:    6835292  FULL:          0

 AVG_CONGESTED_CYCLE: 14
