Initialize SIGNATURE TABLE
ST_SET: 1
ST_WAY: 256
ST_TAG_BIT: 16
ST_TAG_MASK: ffff

Initialize PATTERN TABLE
PT_SET: 512
PT_WAY: 4
SIG_DELTA_BIT: 7
C_SIG_BIT: 4
C_DELTA_BIT: 4

Initialize PREFETCH FILTER
FILTER_SET: 1024

*** ChampSim Multicore Out-of-Order Simulator ***

Warmup Instructions: 20000000
Simulation Instructions: 100000000
Number of CPUs: 8
LLC sets: 16384
LLC ways: 16
Off-chip DRAM Size: 8192 MB Channels: 2 Width: 64-bit Data Rate: 1600 MT/s

CPU 0 runs /scratch/user/djimenez/champsim-traces/speccpu2017/xz/627.cam4_s/627.cam4_s-573B.champsimtrace.xz
CPU 1 runs /scratch/user/djimenez/champsim-traces/speccpu2017/xz/600.perlbench_s/600.perlbench_s-570B.champsimtrace.xz
CPU 2 runs /scratch/user/djimenez/champsim-traces/speccpu2017/xz/631.deepsjeng_s/631.deepsjeng_s-928B.champsimtrace.xz
CPU 3 runs /scratch/user/djimenez/champsim-traces/speccpu2017/xz/603.bwaves_s/603.bwaves_s-5359B.champsimtrace.xz
CPU 4 runs /scratch/user/djimenez/champsim-traces/speccpu2017/xz/603.bwaves_s/603.bwaves_s-2931B.champsimtrace.xz
CPU 5 runs /scratch/user/djimenez/champsim-traces/speccpu2017/xz/605.mcf_s/605.mcf_s-1644B.champsimtrace.xz
CPU 6 runs /scratch/user/djimenez/champsim-traces/speccpu2017/xz/641.leela_s/641.leela_s-334B.champsimtrace.xz
CPU 7 runs /scratch/user/djimenez/champsim-traces/speccpu2017/xz/621.wrf_s/621.wrf_s-8065B.champsimtrace.xz
Heartbeat CPU 3 instructions: 10000000 cycles: 4003977 heartbeat IPC: 2.49752 cumulative IPC: 2.49752 (Simulation time: 0 hr 2 min 50 sec) 
Heartbeat CPU 0 instructions: 10000003 cycles: 4432730 heartbeat IPC: 2.25595 cumulative IPC: 2.25595 (Simulation time: 0 hr 3 min 8 sec) 
Heartbeat CPU 7 instructions: 10000003 cycles: 4764978 heartbeat IPC: 2.09865 cumulative IPC: 2.09865 (Simulation time: 0 hr 3 min 22 sec) 
Heartbeat CPU 4 instructions: 10000003 cycles: 5229183 heartbeat IPC: 1.91235 cumulative IPC: 1.91235 (Simulation time: 0 hr 3 min 42 sec) 
Heartbeat CPU 2 instructions: 10000003 cycles: 5309237 heartbeat IPC: 1.88351 cumulative IPC: 1.88351 (Simulation time: 0 hr 3 min 45 sec) 
Heartbeat CPU 1 instructions: 10000000 cycles: 5690239 heartbeat IPC: 1.7574 cumulative IPC: 1.7574 (Simulation time: 0 hr 4 min 1 sec) 
Heartbeat CPU 6 instructions: 10000001 cycles: 6393104 heartbeat IPC: 1.56419 cumulative IPC: 1.56419 (Simulation time: 0 hr 4 min 33 sec) 
Heartbeat CPU 3 instructions: 20000000 cycles: 8333715 heartbeat IPC: 2.30961 cumulative IPC: 2.39989 (Simulation time: 0 hr 6 min 3 sec) 
Heartbeat CPU 0 instructions: 20000000 cycles: 8602986 heartbeat IPC: 2.39793 cumulative IPC: 2.32477 (Simulation time: 0 hr 6 min 15 sec) 
Heartbeat CPU 7 instructions: 20000000 cycles: 9277105 heartbeat IPC: 2.21625 cumulative IPC: 2.15584 (Simulation time: 0 hr 6 min 47 sec) 
Heartbeat CPU 4 instructions: 20000000 cycles: 10458235 heartbeat IPC: 1.91239 cumulative IPC: 1.91237 (Simulation time: 0 hr 7 min 41 sec) 
Heartbeat CPU 5 instructions: 10000002 cycles: 10561003 heartbeat IPC: 0.94688 cumulative IPC: 0.94688 (Simulation time: 0 hr 7 min 46 sec) 
Heartbeat CPU 2 instructions: 20000000 cycles: 10751884 heartbeat IPC: 1.83734 cumulative IPC: 1.86014 (Simulation time: 0 hr 7 min 54 sec) 
Heartbeat CPU 1 instructions: 20000000 cycles: 11556464 heartbeat IPC: 1.70467 cumulative IPC: 1.73063 (Simulation time: 0 hr 8 min 32 sec) 
Heartbeat CPU 3 instructions: 30000002 cycles: 12324648 heartbeat IPC: 2.50568 cumulative IPC: 0.811382 (Simulation time: 0 hr 9 min 8 sec) 
Heartbeat CPU 0 instructions: 30000001 cycles: 12770963 heartbeat IPC: 2.39925 cumulative IPC: 0.783026 (Simulation time: 0 hr 9 min 29 sec) 
Heartbeat CPU 6 instructions: 20000000 cycles: 12790363 heartbeat IPC: 1.56317 cumulative IPC: 1.56368 (Simulation time: 0 hr 9 min 29 sec) 
Heartbeat CPU 7 instructions: 30000000 cycles: 13679283 heartbeat IPC: 2.2716 cumulative IPC: 0.731032 (Simulation time: 0 hr 10 min 10 sec) 
Heartbeat CPU 4 instructions: 30000002 cycles: 15687165 heartbeat IPC: 1.91244 cumulative IPC: 0.637464 (Simulation time: 0 hr 11 min 38 sec) 
Heartbeat CPU 2 instructions: 30000000 cycles: 16026364 heartbeat IPC: 1.89592 cumulative IPC: 0.623972 (Simulation time: 0 hr 11 min 54 sec) 
Heartbeat CPU 3 instructions: 40000000 cycles: 16313477 heartbeat IPC: 2.507 cumulative IPC: 1.22598 (Simulation time: 0 hr 12 min 7 sec) 
Heartbeat CPU 0 instructions: 40000000 cycles: 16862347 heartbeat IPC: 2.44416 cumulative IPC: 1.18607 (Simulation time: 0 hr 12 min 31 sec) 
Heartbeat CPU 1 instructions: 30000000 cycles: 17418112 heartbeat IPC: 1.706 cumulative IPC: 0.574115 (Simulation time: 0 hr 12 min 56 sec) 
Heartbeat CPU 7 instructions: 40000000 cycles: 18331681 heartbeat IPC: 2.14943 cumulative IPC: 1.09101 (Simulation time: 0 hr 13 min 36 sec) 
Heartbeat CPU 6 instructions: 30000000 cycles: 19159005 heartbeat IPC: 1.57019 cumulative IPC: 0.521948 (Simulation time: 0 hr 14 min 12 sec) 
Heartbeat CPU 3 instructions: 50000003 cycles: 20300655 heartbeat IPC: 2.50804 cumulative IPC: 1.47778 (Simulation time: 0 hr 14 min 59 sec) 
Heartbeat CPU 4 instructions: 40000000 cycles: 20916026 heartbeat IPC: 1.91246 cumulative IPC: 0.956205 (Simulation time: 0 hr 15 min 26 sec) 
Heartbeat CPU 5 instructions: 20000000 cycles: 21057525 heartbeat IPC: 0.952696 cumulative IPC: 0.949779 (Simulation time: 0 hr 15 min 32 sec) 

Warmup complete CPU 0 instructions: 49643889 cycles: 21057528 (Simulation time: 0 hr 15 min 32 sec) 
Warmup complete CPU 1 instructions: 36331300 cycles: 21057528 (Simulation time: 0 hr 15 min 32 sec) 
Warmup complete CPU 2 instructions: 39504961 cycles: 21057528 (Simulation time: 0 hr 15 min 32 sec) 
Warmup complete CPU 3 instructions: 51901562 cycles: 21057528 (Simulation time: 0 hr 15 min 32 sec) 
Warmup complete CPU 4 instructions: 40270719 cycles: 21057528 (Simulation time: 0 hr 15 min 32 sec) 
Warmup complete CPU 5 instructions: 20000001 cycles: 21057528 (Simulation time: 0 hr 15 min 32 sec) 
Warmup complete CPU 6 instructions: 32966984 cycles: 21057527 (Simulation time: 0 hr 15 min 32 sec) 
Warmup complete CPU 7 instructions: 46081545 cycles: 21057527 (Simulation time: 0 hr 15 min 32 sec) 

Heartbeat CPU 0 instructions: 50000001 cycles: 21492138 heartbeat IPC: 2.15992 cumulative IPC: 0.819383 (Simulation time: 0 hr 15 min 43 sec) 
Heartbeat CPU 2 instructions: 40000000 cycles: 21930611 heartbeat IPC: 1.6937 cumulative IPC: 0.567001 (Simulation time: 0 hr 15 min 55 sec) 
Heartbeat CPU 7 instructions: 50000002 cycles: 24438159 heartbeat IPC: 1.63761 cumulative IPC: 1.15909 (Simulation time: 0 hr 16 min 56 sec) 
Heartbeat CPU 1 instructions: 40000000 cycles: 25584715 heartbeat IPC: 1.2245 cumulative IPC: 0.810371 (Simulation time: 0 hr 17 min 23 sec) 
Heartbeat CPU 3 instructions: 60000000 cycles: 28190316 heartbeat IPC: 1.26748 cumulative IPC: 1.13538 (Simulation time: 0 hr 18 min 25 sec) 
Heartbeat CPU 4 instructions: 50000002 cycles: 30202682 heartbeat IPC: 1.07681 cumulative IPC: 1.06387 (Simulation time: 0 hr 19 min 13 sec) 
Heartbeat CPU 7 instructions: 60000000 cycles: 34078432 heartbeat IPC: 1.03731 cumulative IPC: 1.06893 (Simulation time: 0 hr 20 min 47 sec) 
Heartbeat CPU 0 instructions: 60000000 cycles: 34317274 heartbeat IPC: 0.779719 cumulative IPC: 0.781019 (Simulation time: 0 hr 20 min 53 sec) 
Heartbeat CPU 3 instructions: 70000001 cycles: 37040729 heartbeat IPC: 1.12989 cumulative IPC: 1.13234 (Simulation time: 0 hr 22 min 0 sec) 
Heartbeat CPU 6 instructions: 40000000 cycles: 37229785 heartbeat IPC: 0.55338 cumulative IPC: 0.434882 (Simulation time: 0 hr 22 min 4 sec) 
Heartbeat CPU 1 instructions: 50000002 cycles: 38710680 heartbeat IPC: 0.761849 cumulative IPC: 0.774292 (Simulation time: 0 hr 22 min 42 sec) 
Heartbeat CPU 4 instructions: 60000000 cycles: 39440109 heartbeat IPC: 1.08255 cumulative IPC: 1.07326 (Simulation time: 0 hr 23 min 1 sec) 
Heartbeat CPU 2 instructions: 50000001 cycles: 39761267 heartbeat IPC: 0.560832 cumulative IPC: 0.56112 (Simulation time: 0 hr 23 min 9 sec) 
Heartbeat CPU 7 instructions: 70000002 cycles: 41433294 heartbeat IPC: 1.35965 cumulative IPC: 1.17387 (Simulation time: 0 hr 23 min 53 sec) 
Heartbeat CPU 3 instructions: 80000000 cycles: 45825729 heartbeat IPC: 1.1383 cumulative IPC: 1.13446 (Simulation time: 0 hr 25 min 41 sec) 
Heartbeat CPU 0 instructions: 70000000 cycles: 46294004 heartbeat IPC: 0.834952 cumulative IPC: 0.806615 (Simulation time: 0 hr 25 min 52 sec) 
Heartbeat CPU 4 instructions: 70000001 cycles: 48722650 heartbeat IPC: 1.07729 cumulative IPC: 1.07461 (Simulation time: 0 hr 26 min 52 sec) 
Heartbeat CPU 7 instructions: 80000000 cycles: 51126203 heartbeat IPC: 1.03168 cumulative IPC: 1.12803 (Simulation time: 0 hr 27 min 53 sec) 
Heartbeat CPU 1 instructions: 60000000 cycles: 51655119 heartbeat IPC: 0.772532 cumulative IPC: 0.773548 (Simulation time: 0 hr 28 min 7 sec) 
Heartbeat CPU 3 instructions: 90000001 cycles: 54632946 heartbeat IPC: 1.13543 cumulative IPC: 1.13471 (Simulation time: 0 hr 29 min 22 sec) 
Heartbeat CPU 2 instructions: 60000000 cycles: 57044075 heartbeat IPC: 0.57861 cumulative IPC: 0.569519 (Simulation time: 0 hr 30 min 18 sec) 
Heartbeat CPU 4 instructions: 80000000 cycles: 57999978 heartbeat IPC: 1.0779 cumulative IPC: 1.07544 (Simulation time: 0 hr 30 min 41 sec) 
Heartbeat CPU 0 instructions: 80000000 cycles: 58186506 heartbeat IPC: 0.840866 cumulative IPC: 0.817585 (Simulation time: 0 hr 30 min 45 sec) 
Heartbeat CPU 7 instructions: 90000003 cycles: 58464181 heartbeat IPC: 1.36277 cumulative IPC: 1.17408 (Simulation time: 0 hr 30 min 52 sec) 
Heartbeat CPU 6 instructions: 50000000 cycles: 60507145 heartbeat IPC: 0.429602 cumulative IPC: 0.431766 (Simulation time: 0 hr 31 min 40 sec) 
Heartbeat CPU 3 instructions: 100000000 cycles: 63431379 heartbeat IPC: 1.13657 cumulative IPC: 1.1351 (Simulation time: 0 hr 32 min 44 sec) 
Heartbeat CPU 4 instructions: 90000002 cycles: 67283379 heartbeat IPC: 1.07719 cumulative IPC: 1.07579 (Simulation time: 0 hr 34 min 16 sec) 
Heartbeat CPU 7 instructions: 100000000 cycles: 68227354 heartbeat IPC: 1.02426 cumulative IPC: 1.14307 (Simulation time: 0 hr 34 min 39 sec) 
Heartbeat CPU 0 instructions: 90000002 cycles: 71339617 heartbeat IPC: 0.760277 cumulative IPC: 0.802594 (Simulation time: 0 hr 35 min 50 sec) 
Heartbeat CPU 3 instructions: 110000002 cycles: 72207552 heartbeat IPC: 1.13945 cumulative IPC: 1.13584 (Simulation time: 0 hr 36 min 11 sec) 
Heartbeat CPU 1 instructions: 70000002 cycles: 73628408 heartbeat IPC: 0.455098 cumulative IPC: 0.640444 (Simulation time: 0 hr 36 min 45 sec) 
Heartbeat CPU 2 instructions: 70000001 cycles: 74092509 heartbeat IPC: 0.586564 cumulative IPC: 0.574999 (Simulation time: 0 hr 36 min 55 sec) 
Heartbeat CPU 7 instructions: 110000000 cycles: 75597721 heartbeat IPC: 1.35678 cumulative IPC: 1.17195 (Simulation time: 0 hr 37 min 30 sec) 
Heartbeat CPU 4 instructions: 100000000 cycles: 76593170 heartbeat IPC: 1.07414 cumulative IPC: 1.07551 (Simulation time: 0 hr 37 min 53 sec) 
Heartbeat CPU 5 instructions: 30000003 cycles: 78341124 heartbeat IPC: 0.17457 cumulative IPC: 0.17457 (Simulation time: 0 hr 38 min 31 sec) 
Heartbeat CPU 3 instructions: 120000000 cycles: 81018209 heartbeat IPC: 1.13499 cumulative IPC: 1.13572 (Simulation time: 0 hr 39 min 26 sec) 
Heartbeat CPU 6 instructions: 60000000 cycles: 83517361 heartbeat IPC: 0.43459 cumulative IPC: 0.432806 (Simulation time: 0 hr 40 min 28 sec) 
Heartbeat CPU 0 instructions: 100000000 cycles: 85849904 heartbeat IPC: 0.689166 cumulative IPC: 0.777192 (Simulation time: 0 hr 41 min 20 sec) 
Heartbeat CPU 4 instructions: 110000000 cycles: 86037763 heartbeat IPC: 1.05881 cumulative IPC: 1.07308 (Simulation time: 0 hr 41 min 24 sec) 
Heartbeat CPU 7 instructions: 120000000 cycles: 89253839 heartbeat IPC: 0.732273 cumulative IPC: 1.08391 (Simulation time: 0 hr 42 min 49 sec) 
Heartbeat CPU 3 instructions: 130000000 cycles: 89781834 heartbeat IPC: 1.14108 cumulative IPC: 1.1364 (Simulation time: 0 hr 43 min 3 sec) 
Heartbeat CPU 2 instructions: 80000000 cycles: 91454349 heartbeat IPC: 0.575976 cumulative IPC: 0.57524 (Simulation time: 0 hr 43 min 50 sec) 
Heartbeat CPU 4 instructions: 120000000 cycles: 95967906 heartbeat IPC: 1.00703 cumulative IPC: 1.06433 (Simulation time: 0 hr 45 min 29 sec) 
Heartbeat CPU 1 instructions: 80000000 cycles: 97118884 heartbeat IPC: 0.425704 cumulative IPC: 0.574125 (Simulation time: 0 hr 45 min 54 sec) 
Heartbeat CPU 3 instructions: 140000000 cycles: 98507719 heartbeat IPC: 1.14602 cumulative IPC: 1.13749 (Simulation time: 0 hr 46 min 21 sec) 
Heartbeat CPU 7 instructions: 130000000 cycles: 104458155 heartbeat IPC: 0.657708 cumulative IPC: 1.00621 (Simulation time: 0 hr 48 min 23 sec) 
Heartbeat CPU 4 instructions: 130000001 cycles: 106054441 heartbeat IPC: 0.991421 cumulative IPC: 1.05568 (Simulation time: 0 hr 49 min 0 sec) 
Heartbeat CPU 6 instructions: 70000000 cycles: 106364385 heartbeat IPC: 0.437694 cumulative IPC: 0.434115 (Simulation time: 0 hr 49 min 7 sec) 
Heartbeat CPU 3 instructions: 150000001 cycles: 107234974 heartbeat IPC: 1.14584 cumulative IPC: 1.13833 (Simulation time: 0 hr 49 min 32 sec) 
Heartbeat CPU 2 instructions: 90000000 cycles: 108903379 heartbeat IPC: 0.573098 cumulative IPC: 0.574814 (Simulation time: 0 hr 50 min 11 sec) 
Finished CPU 3 instructions: 100000002 cycles: 87860837 cumulative IPC: 1.13816 (Simulation time: 0 hr 50 min 11 sec) 
Heartbeat CPU 0 instructions: 110000000 cycles: 111318598 heartbeat IPC: 0.392639 cumulative IPC: 0.668684 (Simulation time: 0 hr 51 min 12 sec) 
Heartbeat CPU 4 instructions: 140000000 cycles: 115369634 heartbeat IPC: 1.07351 cumulative IPC: 1.05744 (Simulation time: 0 hr 52 min 53 sec) 
Finished CPU 4 instructions: 100000001 cycles: 94566593 cumulative IPC: 1.05746 (Simulation time: 0 hr 53 min 0 sec) 
Heartbeat CPU 3 instructions: 160000000 cycles: 116196959 heartbeat IPC: 1.11582 cumulative IPC: 1.13621 (Simulation time: 0 hr 53 min 16 sec) 
Heartbeat CPU 7 instructions: 140000000 cycles: 119454280 heartbeat IPC: 0.666839 cumulative IPC: 0.954487 (Simulation time: 0 hr 54 min 37 sec) 
Heartbeat CPU 0 instructions: 120000000 cycles: 122487166 heartbeat IPC: 0.89537 cumulative IPC: 0.693645 (Simulation time: 0 hr 55 min 45 sec) 
Heartbeat CPU 4 instructions: 150000002 cycles: 124590880 heartbeat IPC: 1.08445 cumulative IPC: 1.05984 (Simulation time: 0 hr 56 min 35 sec) 
Heartbeat CPU 3 instructions: 170000001 cycles: 125177215 heartbeat IPC: 1.11355 cumulative IPC: 1.13426 (Simulation time: 0 hr 56 min 49 sec) 
Heartbeat CPU 2 instructions: 100000000 cycles: 126361238 heartbeat IPC: 0.572808 cumulative IPC: 0.574482 (Simulation time: 0 hr 57 min 15 sec) 
Heartbeat CPU 1 instructions: 90000002 cycles: 127148474 heartbeat IPC: 0.333005 cumulative IPC: 0.505874 (Simulation time: 0 hr 57 min 33 sec) 
Finished CPU 7 instructions: 100000000 cycles: 107496059 cumulative IPC: 0.930267 (Simulation time: 0 hr 58 min 6 sec) 
Heartbeat CPU 6 instructions: 80000000 cycles: 129290207 heartbeat IPC: 0.436189 cumulative IPC: 0.434555 (Simulation time: 0 hr 58 min 24 sec) 
Heartbeat CPU 0 instructions: 130000000 cycles: 132547335 heartbeat IPC: 0.994019 cumulative IPC: 0.720748 (Simulation time: 0 hr 59 min 43 sec) 
Heartbeat CPU 4 instructions: 160000000 cycles: 133811038 heartbeat IPC: 1.08458 cumulative IPC: 1.06187 (Simulation time: 1 hr 0 min 11 sec) 
Heartbeat CPU 3 instructions: 180000000 cycles: 134193177 heartbeat IPC: 1.10914 cumulative IPC: 1.13226 (Simulation time: 1 hr 0 min 20 sec) 
Heartbeat CPU 7 instructions: 150000001 cycles: 135807217 heartbeat IPC: 0.611511 cumulative IPC: 0.90561 (Simulation time: 1 hr 0 min 56 sec) 
Heartbeat CPU 5 instructions: 40000000 cycles: 136817325 heartbeat IPC: 0.17101 cumulative IPC: 0.172772 (Simulation time: 1 hr 1 min 20 sec) 
Heartbeat CPU 1 instructions: 100000000 cycles: 141690034 heartbeat IPC: 0.687684 cumulative IPC: 0.527791 (Simulation time: 1 hr 3 min 24 sec) 
Heartbeat CPU 0 instructions: 140000000 cycles: 142551915 heartbeat IPC: 0.999542 cumulative IPC: 0.743706 (Simulation time: 1 hr 3 min 46 sec) 
Heartbeat CPU 3 instructions: 190000001 cycles: 143219516 heartbeat IPC: 1.10787 cumulative IPC: 1.13045 (Simulation time: 1 hr 4 min 5 sec) 
Heartbeat CPU 4 instructions: 170000002 cycles: 143303654 heartbeat IPC: 1.05345 cumulative IPC: 1.06121 (Simulation time: 1 hr 4 min 7 sec) 
Heartbeat CPU 2 instructions: 110000001 cycles: 143615111 heartbeat IPC: 0.57958 cumulative IPC: 0.575199 (Simulation time: 1 hr 4 min 15 sec) 
Heartbeat CPU 7 instructions: 160000000 cycles: 145026783 heartbeat IPC: 1.08465 cumulative IPC: 0.918925 (Simulation time: 1 hr 4 min 51 sec) 
Heartbeat CPU 6 instructions: 90000000 cycles: 152352576 heartbeat IPC: 0.433607 cumulative IPC: 0.434388 (Simulation time: 1 hr 8 min 6 sec) 
Heartbeat CPU 3 instructions: 200000000 cycles: 152500770 heartbeat IPC: 1.07744 cumulative IPC: 1.12671 (Simulation time: 1 hr 8 min 9 sec) 
Heartbeat CPU 4 instructions: 180000000 cycles: 152874985 heartbeat IPC: 1.04479 cumulative IPC: 1.06002 (Simulation time: 1 hr 8 min 18 sec) 
Finished CPU 0 instructions: 100000003 cycles: 133079857 cumulative IPC: 0.751429 (Simulation time: 1 hr 8 min 47 sec) 
Heartbeat CPU 0 instructions: 150000000 cycles: 154623970 heartbeat IPC: 0.828359 cumulative IPC: 0.751357 (Simulation time: 1 hr 9 min 0 sec) 
Heartbeat CPU 1 instructions: 110000000 cycles: 156153892 heartbeat IPC: 0.691378 cumulative IPC: 0.545305 (Simulation time: 1 hr 9 min 38 sec) 
Heartbeat CPU 7 instructions: 170000002 cycles: 158747313 heartbeat IPC: 0.728835 cumulative IPC: 0.899983 (Simulation time: 1 hr 10 min 46 sec) 
Heartbeat CPU 2 instructions: 120000000 cycles: 160789414 heartbeat IPC: 0.582265 cumulative IPC: 0.576068 (Simulation time: 1 hr 11 min 47 sec) 
Heartbeat CPU 3 instructions: 210000001 cycles: 161703807 heartbeat IPC: 1.0866 cumulative IPC: 1.12409 (Simulation time: 1 hr 12 min 11 sec) 
Heartbeat CPU 4 instructions: 190000003 cycles: 162209911 heartbeat IPC: 1.07125 cumulative IPC: 1.06076 (Simulation time: 1 hr 12 min 25 sec) 
Heartbeat CPU 7 instructions: 180000000 cycles: 166746753 heartbeat IPC: 1.25009 cumulative IPC: 0.919206 (Simulation time: 1 hr 14 min 19 sec) 
Heartbeat CPU 0 instructions: 160000000 cycles: 167435483 heartbeat IPC: 0.780548 cumulative IPC: 0.753912 (Simulation time: 1 hr 14 min 36 sec) 
Heartbeat CPU 3 instructions: 220000000 cycles: 170932639 heartbeat IPC: 1.08356 cumulative IPC: 1.12159 (Simulation time: 1 hr 16 min 0 sec) 
Heartbeat CPU 4 instructions: 200000000 cycles: 171416206 heartbeat IPC: 1.08621 cumulative IPC: 1.06232 (Simulation time: 1 hr 16 min 12 sec) 
Heartbeat CPU 1 instructions: 120000000 cycles: 171659015 heartbeat IPC: 0.644948 cumulative IPC: 0.555564 (Simulation time: 1 hr 16 min 18 sec) 
Heartbeat CPU 6 instructions: 100000000 cycles: 175722598 heartbeat IPC: 0.427899 cumulative IPC: 0.433408 (Simulation time: 1 hr 18 min 0 sec) 
Heartbeat CPU 7 instructions: 190000001 cycles: 175851455 heartbeat IPC: 1.09833 cumulative IPC: 0.929742 (Simulation time: 1 hr 18 min 3 sec) 
Heartbeat CPU 2 instructions: 130000000 cycles: 178016342 heartbeat IPC: 0.580487 cumulative IPC: 0.576553 (Simulation time: 1 hr 18 min 57 sec) 
Heartbeat CPU 0 instructions: 170000000 cycles: 179976189 heartbeat IPC: 0.797403 cumulative IPC: 0.757344 (Simulation time: 1 hr 19 min 47 sec) 
Heartbeat CPU 3 instructions: 230000001 cycles: 180000208 heartbeat IPC: 1.10283 cumulative IPC: 1.12052 (Simulation time: 1 hr 19 min 48 sec) 
Heartbeat CPU 4 instructions: 210000002 cycles: 180617009 heartbeat IPC: 1.08686 cumulative IPC: 1.06374 (Simulation time: 1 hr 20 min 4 sec) 
Heartbeat CPU 7 instructions: 200000000 cycles: 184852255 heartbeat IPC: 1.11101 cumulative IPC: 0.939703 (Simulation time: 1 hr 21 min 51 sec) 
Heartbeat CPU 1 instructions: 130000000 cycles: 186942195 heartbeat IPC: 0.654314 cumulative IPC: 0.564662 (Simulation time: 1 hr 22 min 43 sec) 
Heartbeat CPU 3 instructions: 240000000 cycles: 189083037 heartbeat IPC: 1.10098 cumulative IPC: 1.11946 (Simulation time: 1 hr 23 min 33 sec) 
Heartbeat CPU 4 instructions: 220000000 cycles: 189866339 heartbeat IPC: 1.08116 cumulative IPC: 1.06469 (Simulation time: 1 hr 23 min 53 sec) 
Heartbeat CPU 0 instructions: 180000000 cycles: 191161406 heartbeat IPC: 0.894037 cumulative IPC: 0.766332 (Simulation time: 1 hr 24 min 25 sec) 
Heartbeat CPU 7 instructions: 210000003 cycles: 192686546 heartbeat IPC: 1.27644 cumulative IPC: 0.955074 (Simulation time: 1 hr 25 min 1 sec) 
Finished CPU 2 instructions: 100000000 cycles: 173429889 cumulative IPC: 0.576602 (Simulation time: 1 hr 25 min 44 sec) 
Heartbeat CPU 5 instructions: 50000001 cycles: 194527189 heartbeat IPC: 0.173281 cumulative IPC: 0.172941 (Simulation time: 1 hr 25 min 45 sec) 
Heartbeat CPU 2 instructions: 140000000 cycles: 195341930 heartbeat IPC: 0.577181 cumulative IPC: 0.576615 (Simulation time: 1 hr 26 min 4 sec) 
Heartbeat CPU 3 instructions: 250000003 cycles: 198245502 heartbeat IPC: 1.09141 cumulative IPC: 1.11801 (Simulation time: 1 hr 27 min 10 sec) 
Heartbeat CPU 4 instructions: 230000003 cycles: 199085943 heartbeat IPC: 1.08465 cumulative IPC: 1.06572 (Simulation time: 1 hr 27 min 30 sec) 
Heartbeat CPU 6 instructions: 110000002 cycles: 199155957 heartbeat IPC: 0.426742 cumulative IPC: 0.432531 (Simulation time: 1 hr 27 min 32 sec) 
Heartbeat CPU 7 instructions: 220000000 cycles: 201373704 heartbeat IPC: 1.15112 cumulative IPC: 0.964519 (Simulation time: 1 hr 28 min 24 sec) 
Heartbeat CPU 0 instructions: 190000003 cycles: 204858900 heartbeat IPC: 0.730061 cumulative IPC: 0.763629 (Simulation time: 1 hr 29 min 46 sec) 
Finished CPU 1 instructions: 100000000 cycles: 184884695 cumulative IPC: 0.540878 (Simulation time: 1 hr 30 min 12 sec) 
Heartbeat CPU 3 instructions: 260000000 cycles: 207140689 heartbeat IPC: 1.1242 cumulative IPC: 1.11831 (Simulation time: 1 hr 30 min 39 sec) 
Heartbeat CPU 4 instructions: 240000000 cycles: 208343354 heartbeat IPC: 1.08022 cumulative IPC: 1.06644 (Simulation time: 1 hr 31 min 7 sec) 
Heartbeat CPU 7 instructions: 230000000 cycles: 210256936 heartbeat IPC: 1.12572 cumulative IPC: 0.972088 (Simulation time: 1 hr 31 min 52 sec) 
Heartbeat CPU 2 instructions: 150000002 cycles: 212491648 heartbeat IPC: 0.5831 cumulative IPC: 0.577196 (Simulation time: 1 hr 32 min 43 sec) 
Heartbeat CPU 3 instructions: 270000001 cycles: 216041655 heartbeat IPC: 1.12347 cumulative IPC: 1.11854 (Simulation time: 1 hr 34 min 3 sec) 
Heartbeat CPU 1 instructions: 140000000 cycles: 216442816 heartbeat IPC: 0.338976 cumulative IPC: 0.530586 (Simulation time: 1 hr 34 min 13 sec) 
Heartbeat CPU 4 instructions: 250000000 cycles: 217746224 heartbeat IPC: 1.06351 cumulative IPC: 1.0663 (Simulation time: 1 hr 34 min 43 sec) 
Heartbeat CPU 0 instructions: 200000000 cycles: 218379993 heartbeat IPC: 0.739585 cumulative IPC: 0.761982 (Simulation time: 1 hr 34 min 58 sec) 
Heartbeat CPU 7 instructions: 240000000 cycles: 220627068 heartbeat IPC: 0.964308 cumulative IPC: 0.971684 (Simulation time: 1 hr 35 min 53 sec) 
Heartbeat CPU 6 instructions: 120000000 cycles: 222504395 heartbeat IPC: 0.428294 cumulative IPC: 0.43204 (Simulation time: 1 hr 36 min 33 sec) 
Heartbeat CPU 3 instructions: 280000000 cycles: 225057564 heartbeat IPC: 1.10915 cumulative IPC: 1.11813 (Simulation time: 1 hr 37 min 28 sec) 
Heartbeat CPU 4 instructions: 260000000 cycles: 227349397 heartbeat IPC: 1.04132 cumulative IPC: 1.06514 (Simulation time: 1 hr 38 min 16 sec) 
Heartbeat CPU 2 instructions: 160000000 cycles: 229869639 heartbeat IPC: 0.57544 cumulative IPC: 0.57705 (Simulation time: 1 hr 39 min 9 sec) 
Heartbeat CPU 3 instructions: 290000002 cycles: 234009980 heartbeat IPC: 1.11702 cumulative IPC: 1.11808 (Simulation time: 1 hr 40 min 34 sec) 
Heartbeat CPU 7 instructions: 250000000 cycles: 234830112 heartbeat IPC: 0.704074 cumulative IPC: 0.953904 (Simulation time: 1 hr 40 min 51 sec) 
Heartbeat CPU 4 instructions: 270000002 cycles: 237875358 heartbeat IPC: 0.950032 cumulative IPC: 1.05955 (Simulation time: 1 hr 41 min 56 sec) 
Heartbeat CPU 3 instructions: 300000000 cycles: 243034648 heartbeat IPC: 1.10807 cumulative IPC: 1.11768 (Simulation time: 1 hr 44 min 31 sec) 
Heartbeat CPU 7 instructions: 260000000 cycles: 245283600 heartbeat IPC: 0.956618 cumulative IPC: 0.95403 (Simulation time: 1 hr 46 min 28 sec) 
Heartbeat CPU 6 instructions: 130000000 cycles: 245726697 heartbeat IPC: 0.430621 cumulative IPC: 0.431893 (Simulation time: 1 hr 46 min 52 sec) 
Heartbeat CPU 0 instructions: 210000003 cycles: 246228086 heartbeat IPC: 0.359091 cumulative IPC: 0.712154 (Simulation time: 1 hr 47 min 19 sec) 
Heartbeat CPU 1 instructions: 150000001 cycles: 246631503 heartbeat IPC: 0.33125 cumulative IPC: 0.503909 (Simulation time: 1 hr 47 min 41 sec) 
Heartbeat CPU 2 instructions: 170000000 cycles: 247779781 heartbeat IPC: 0.558343 cumulative IPC: 0.575572 (Simulation time: 1 hr 48 min 22 sec) 
Heartbeat CPU 4 instructions: 280000000 cycles: 248055025 heartbeat IPC: 0.98235 cumulative IPC: 1.05609 (Simulation time: 1 hr 48 min 28 sec) 
Heartbeat CPU 3 instructions: 310000000 cycles: 252096618 heartbeat IPC: 1.10351 cumulative IPC: 1.11712 (Simulation time: 1 hr 50 min 5 sec) 
Finished CPU 6 instructions: 100000000 cycles: 231482161 cumulative IPC: 0.431999 (Simulation time: 1 hr 50 min 15 sec) 
Heartbeat CPU 7 instructions: 270000000 cycles: 253987130 heartbeat IPC: 1.14896 cumulative IPC: 0.961314 (Simulation time: 1 hr 50 min 51 sec) 
Heartbeat CPU 5 instructions: 60000000 cycles: 254165966 heartbeat IPC: 0.167676 cumulative IPC: 0.171594 (Simulation time: 1 hr 50 min 55 sec) 
Heartbeat CPU 4 instructions: 290000002 cycles: 257419308 heartbeat IPC: 1.06789 cumulative IPC: 1.05656 (Simulation time: 1 hr 52 min 11 sec) 
Heartbeat CPU 0 instructions: 220000000 cycles: 257930395 heartbeat IPC: 0.854532 cumulative IPC: 0.719188 (Simulation time: 1 hr 52 min 23 sec) 
Heartbeat CPU 3 instructions: 320000000 cycles: 261182875 heartbeat IPC: 1.10056 cumulative IPC: 1.11649 (Simulation time: 1 hr 53 min 36 sec) 
Heartbeat CPU 2 instructions: 180000000 cycles: 265520951 heartbeat IPC: 0.563661 cumulative IPC: 0.574708 (Simulation time: 1 hr 55 min 22 sec) 
Heartbeat CPU 4 instructions: 300000000 cycles: 267172950 heartbeat IPC: 1.02526 cumulative IPC: 1.05531 (Simulation time: 1 hr 56 min 4 sec) 
Heartbeat CPU 7 instructions: 280000000 cycles: 267386585 heartbeat IPC: 0.746299 cumulative IPC: 0.949618 (Simulation time: 1 hr 56 min 10 sec) 
Heartbeat CPU 0 instructions: 230000000 cycles: 268338137 heartbeat IPC: 0.960823 cumulative IPC: 0.729358 (Simulation time: 1 hr 56 min 34 sec) 
Heartbeat CPU 6 instructions: 140000000 cycles: 268671503 heartbeat IPC: 0.435828 cumulative IPC: 0.432258 (Simulation time: 1 hr 56 min 42 sec) 
Heartbeat CPU 3 instructions: 330000001 cycles: 270114728 heartbeat IPC: 1.11959 cumulative IPC: 1.1166 (Simulation time: 1 hr 57 min 16 sec) 
Heartbeat CPU 1 instructions: 160000000 cycles: 270226122 heartbeat IPC: 0.423825 cumulative IPC: 0.496325 (Simulation time: 1 hr 57 min 19 sec) 
Heartbeat CPU 4 instructions: 310000003 cycles: 276627506 heartbeat IPC: 1.05769 cumulative IPC: 1.0554 (Simulation time: 2 hr 0 min 2 sec) 
Heartbeat CPU 7 instructions: 290000001 cycles: 278124887 heartbeat IPC: 0.931246 cumulative IPC: 0.94885 (Simulation time: 2 hr 0 min 41 sec) 
Heartbeat CPU 0 instructions: 240000000 cycles: 278298048 heartbeat IPC: 1.00402 cumulative IPC: 0.739993 (Simulation time: 2 hr 0 min 46 sec) 
Heartbeat CPU 3 instructions: 340000000 cycles: 279045892 heartbeat IPC: 1.11967 cumulative IPC: 1.11671 (Simulation time: 2 hr 1 min 2 sec) 
Heartbeat CPU 2 instructions: 190000000 cycles: 283228235 heartbeat IPC: 0.564739 cumulative IPC: 0.574035 (Simulation time: 2 hr 2 min 41 sec) 
Heartbeat CPU 4 instructions: 320000000 cycles: 285951214 heartbeat IPC: 1.07253 cumulative IPC: 1.05601 (Simulation time: 2 hr 3 min 44 sec) 
Heartbeat CPU 1 instructions: 170000003 cycles: 286854451 heartbeat IPC: 0.601384 cumulative IPC: 0.502898 (Simulation time: 2 hr 4 min 4 sec) 
Heartbeat CPU 3 instructions: 350000000 cycles: 288061075 heartbeat IPC: 1.10924 cumulative IPC: 1.11646 (Simulation time: 2 hr 4 min 31 sec) 
Heartbeat CPU 7 instructions: 300000000 cycles: 289115841 heartbeat IPC: 0.909839 cumulative IPC: 0.947251 (Simulation time: 2 hr 4 min 56 sec) 
Heartbeat CPU 0 instructions: 250000003 cycles: 289562345 heartbeat IPC: 0.887761 cumulative IPC: 0.746192 (Simulation time: 2 hr 5 min 6 sec) 
Heartbeat CPU 6 instructions: 150000000 cycles: 291362344 heartbeat IPC: 0.440706 cumulative IPC: 0.432967 (Simulation time: 2 hr 5 min 47 sec) 
Heartbeat CPU 4 instructions: 330000000 cycles: 295372578 heartbeat IPC: 1.06142 cumulative IPC: 1.05619 (Simulation time: 2 hr 7 min 16 sec) 
Heartbeat CPU 3 instructions: 360000000 cycles: 296961546 heartbeat IPC: 1.12354 cumulative IPC: 1.11669 (Simulation time: 2 hr 7 min 51 sec) 
Heartbeat CPU 2 instructions: 200000000 cycles: 301157924 heartbeat IPC: 0.557734 cumulative IPC: 0.572991 (Simulation time: 2 hr 9 min 18 sec) 
Heartbeat CPU 0 instructions: 260000000 cycles: 302217216 heartbeat IPC: 0.790209 cumulative IPC: 0.748173 (Simulation time: 2 hr 9 min 41 sec) 
Heartbeat CPU 7 instructions: 310000002 cycles: 302241280 heartbeat IPC: 0.761879 cumulative IPC: 0.938598 (Simulation time: 2 hr 9 min 42 sec) 
Heartbeat CPU 4 instructions: 340000000 cycles: 304874008 heartbeat IPC: 1.05247 cumulative IPC: 1.05607 (Simulation time: 2 hr 10 min 39 sec) 
Heartbeat CPU 3 instructions: 370000003 cycles: 305986052 heartbeat IPC: 1.10809 cumulative IPC: 1.11641 (Simulation time: 2 hr 11 min 4 sec) 
Heartbeat CPU 1 instructions: 180000000 cycles: 308453043 heartbeat IPC: 0.462993 cumulative IPC: 0.499899 (Simulation time: 2 hr 11 min 58 sec) 
Heartbeat CPU 7 instructions: 320000000 cycles: 312368517 heartbeat IPC: 0.987436 cumulative IPC: 0.940296 (Simulation time: 2 hr 13 min 21 sec) 
Heartbeat CPU 5 instructions: 70000000 cycles: 313157070 heartbeat IPC: 0.169517 cumulative IPC: 0.171175 (Simulation time: 2 hr 13 min 37 sec) 
Heartbeat CPU 6 instructions: 160000000 cycles: 314127271 heartbeat IPC: 0.439272 cumulative IPC: 0.433457 (Simulation time: 2 hr 13 min 57 sec) 
Heartbeat CPU 4 instructions: 350000000 cycles: 314246434 heartbeat IPC: 1.06696 cumulative IPC: 1.05642 (Simulation time: 2 hr 13 min 59 sec) 
Heartbeat CPU 0 instructions: 270000001 cycles: 314764625 heartbeat IPC: 0.796977 cumulative IPC: 0.750258 (Simulation time: 2 hr 14 min 10 sec) 
Heartbeat CPU 3 instructions: 380000000 cycles: 315039035 heartbeat IPC: 1.10461 cumulative IPC: 1.11605 (Simulation time: 2 hr 14 min 16 sec) 
Heartbeat CPU 2 instructions: 210000001 cycles: 318547092 heartbeat IPC: 0.575071 cumulative IPC: 0.573113 (Simulation time: 2 hr 15 min 31 sec) 
Heartbeat CPU 7 instructions: 330000001 cycles: 323606125 heartbeat IPC: 0.889869 cumulative IPC: 0.938423 (Simulation time: 2 hr 17 min 21 sec) 
Heartbeat CPU 4 instructions: 360000000 cycles: 323647053 heartbeat IPC: 1.06376 cumulative IPC: 1.05664 (Simulation time: 2 hr 17 min 22 sec) 
Heartbeat CPU 3 instructions: 390000002 cycles: 324431034 heartbeat IPC: 1.06474 cumulative IPC: 1.11446 (Simulation time: 2 hr 17 min 39 sec) 
Heartbeat CPU 0 instructions: 280000000 cycles: 326150848 heartbeat IPC: 0.878254 cumulative IPC: 0.755035 (Simulation time: 2 hr 18 min 14 sec) 
Heartbeat CPU 4 instructions: 370000000 cycles: 333304432 heartbeat IPC: 1.03548 cumulative IPC: 1.05599 (Simulation time: 2 hr 20 min 37 sec) 
Heartbeat CPU 3 instructions: 400000000 cycles: 333627390 heartbeat IPC: 1.08739 cumulative IPC: 1.11367 (Simulation time: 2 hr 20 min 44 sec) 
Heartbeat CPU 2 instructions: 220000000 cycles: 336255718 heartbeat IPC: 0.564696 cumulative IPC: 0.57264 (Simulation time: 2 hr 21 min 34 sec) 
Heartbeat CPU 6 instructions: 170000003 cycles: 336958088 heartbeat IPC: 0.438005 cumulative IPC: 0.433785 (Simulation time: 2 hr 21 min 47 sec) 
Heartbeat CPU 7 instructions: 340000000 cycles: 338789512 heartbeat IPC: 0.658615 cumulative IPC: 0.925052 (Simulation time: 2 hr 22 min 23 sec) 
Heartbeat CPU 0 instructions: 290000002 cycles: 339332463 heartbeat IPC: 0.758633 cumulative IPC: 0.755184 (Simulation time: 2 hr 22 min 34 sec) 
Heartbeat CPU 1 instructions: 190000003 cycles: 339339834 heartbeat IPC: 0.323763 cumulative IPC: 0.482806 (Simulation time: 2 hr 22 min 34 sec) 
Heartbeat CPU 4 instructions: 380000000 cycles: 342705602 heartbeat IPC: 1.0637 cumulative IPC: 1.05621 (Simulation time: 2 hr 23 min 45 sec) 
Heartbeat CPU 3 instructions: 410000001 cycles: 342883548 heartbeat IPC: 1.08036 cumulative IPC: 1.11271 (Simulation time: 2 hr 23 min 48 sec) 
Heartbeat CPU 7 instructions: 350000002 cycles: 346725679 heartbeat IPC: 1.26005 cumulative IPC: 0.933215 (Simulation time: 2 hr 25 min 13 sec) 
Heartbeat CPU 4 instructions: 390000001 cycles: 352014665 heartbeat IPC: 1.07422 cumulative IPC: 1.05672 (Simulation time: 2 hr 27 min 4 sec) 
Heartbeat CPU 3 instructions: 420000000 cycles: 352203368 heartbeat IPC: 1.07298 cumulative IPC: 1.11159 (Simulation time: 2 hr 27 min 7 sec) 
Heartbeat CPU 0 instructions: 300000000 cycles: 352487412 heartbeat IPC: 0.76017 cumulative IPC: 0.755382 (Simulation time: 2 hr 27 min 13 sec) 
Heartbeat CPU 2 instructions: 230000003 cycles: 353978579 heartbeat IPC: 0.564243 cumulative IPC: 0.572193 (Simulation time: 2 hr 27 min 41 sec) 
Heartbeat CPU 7 instructions: 360000000 cycles: 356912959 heartbeat IPC: 0.981616 cumulative IPC: 0.934683 (Simulation time: 2 hr 28 min 43 sec) 
Heartbeat CPU 6 instructions: 180000000 cycles: 359725171 heartbeat IPC: 0.439231 cumulative IPC: 0.434151 (Simulation time: 2 hr 29 min 44 sec) 
Heartbeat CPU 3 instructions: 430000000 cycles: 361427599 heartbeat IPC: 1.0841 cumulative IPC: 1.11085 (Simulation time: 2 hr 30 min 20 sec) 
Heartbeat CPU 4 instructions: 400000000 cycles: 361450353 heartbeat IPC: 1.05981 cumulative IPC: 1.05681 (Simulation time: 2 hr 30 min 20 sec) 
Heartbeat CPU 7 instructions: 370000003 cycles: 364881890 heartbeat IPC: 1.25487 cumulative IPC: 0.942104 (Simulation time: 2 hr 31 min 29 sec) 
Heartbeat CPU 1 instructions: 200000000 cycles: 368645520 heartbeat IPC: 0.341231 cumulative IPC: 0.47087 (Simulation time: 2 hr 32 min 37 sec) 
Heartbeat CPU 3 instructions: 440000000 cycles: 370464332 heartbeat IPC: 1.10659 cumulative IPC: 1.11074 (Simulation time: 2 hr 33 min 9 sec) 
Heartbeat CPU 2 instructions: 240000000 cycles: 371446394 heartbeat IPC: 0.572481 cumulative IPC: 0.572207 (Simulation time: 2 hr 33 min 29 sec) 
Heartbeat CPU 4 instructions: 410000002 cycles: 371906514 heartbeat IPC: 0.956374 cumulative IPC: 1.05381 (Simulation time: 2 hr 33 min 38 sec) 
Heartbeat CPU 5 instructions: 80000000 cycles: 373242401 heartbeat IPC: 0.16643 cumulative IPC: 0.170365 (Simulation time: 2 hr 34 min 5 sec) 
Heartbeat CPU 7 instructions: 380000000 cycles: 377345741 heartbeat IPC: 0.80232 cumulative IPC: 0.937214 (Simulation time: 2 hr 35 min 27 sec) 
Heartbeat CPU 3 instructions: 450000002 cycles: 379508754 heartbeat IPC: 1.10565 cumulative IPC: 1.11061 (Simulation time: 2 hr 36 min 11 sec) 
Heartbeat CPU 0 instructions: 310000001 cycles: 381826284 heartbeat IPC: 0.340845 cumulative IPC: 0.72167 (Simulation time: 2 hr 36 min 59 sec) 
Heartbeat CPU 4 instructions: 420000000 cycles: 382146460 heartbeat IPC: 0.976567 cumulative IPC: 1.05162 (Simulation time: 2 hr 37 min 6 sec) 
Heartbeat CPU 6 instructions: 190000002 cycles: 382545939 heartbeat IPC: 0.438197 cumulative IPC: 0.434407 (Simulation time: 2 hr 37 min 15 sec) 
Heartbeat CPU 7 instructions: 390000001 cycles: 387430488 heartbeat IPC: 0.991597 cumulative IPC: 0.938711 (Simulation time: 2 hr 39 min 1 sec) 
Heartbeat CPU 3 instructions: 460000000 cycles: 388369428 heartbeat IPC: 1.12858 cumulative IPC: 1.11104 (Simulation time: 2 hr 39 min 23 sec) 
Heartbeat CPU 2 instructions: 250000002 cycles: 388992480 heartbeat IPC: 0.569928 cumulative IPC: 0.572098 (Simulation time: 2 hr 39 min 37 sec) 
Heartbeat CPU 1 instructions: 210000002 cycles: 391408536 heartbeat IPC: 0.439309 cumulative IPC: 0.46893 (Simulation time: 2 hr 40 min 32 sec) 
Heartbeat CPU 4 instructions: 430000003 cycles: 391554595 heartbeat IPC: 1.06291 cumulative IPC: 1.05191 (Simulation time: 2 hr 40 min 35 sec) 
Heartbeat CPU 0 instructions: 320000000 cycles: 393167032 heartbeat IPC: 0.881776 cumulative IPC: 0.72655 (Simulation time: 2 hr 41 min 14 sec) 
Heartbeat CPU 7 instructions: 400000000 cycles: 395703592 heartbeat IPC: 1.20874 cumulative IPC: 0.944674 (Simulation time: 2 hr 42 min 16 sec) 
Heartbeat CPU 3 instructions: 470000001 cycles: 397334359 heartbeat IPC: 1.11546 cumulative IPC: 1.11115 (Simulation time: 2 hr 42 min 54 sec) 
Heartbeat CPU 4 instructions: 440000000 cycles: 400771330 heartbeat IPC: 1.08498 cumulative IPC: 1.05271 (Simulation time: 2 hr 44 min 12 sec) 
Heartbeat CPU 0 instructions: 330000002 cycles: 403711218 heartbeat IPC: 0.94839 cumulative IPC: 0.732663 (Simulation time: 2 hr 45 min 19 sec) 
Heartbeat CPU 7 instructions: 410000000 cycles: 405685268 heartbeat IPC: 1.00184 cumulative IPC: 0.946158 (Simulation time: 2 hr 46 min 4 sec) 
Heartbeat CPU 2 instructions: 260000000 cycles: 406199355 heartbeat IPC: 0.581163 cumulative IPC: 0.572504 (Simulation time: 2 hr 46 min 16 sec) 
Heartbeat CPU 3 instructions: 480000000 cycles: 406256116 heartbeat IPC: 1.12086 cumulative IPC: 1.11137 (Simulation time: 2 hr 46 min 18 sec) 
Heartbeat CPU 6 instructions: 200000000 cycles: 406282770 heartbeat IPC: 0.421286 cumulative IPC: 0.433598 (Simulation time: 2 hr 46 min 18 sec) 
Heartbeat CPU 1 instructions: 220000000 cycles: 406360798 heartbeat IPC: 0.668795 cumulative IPC: 0.476686 (Simulation time: 2 hr 46 min 20 sec) 
Heartbeat CPU 4 instructions: 450000000 cycles: 410071174 heartbeat IPC: 1.07529 cumulative IPC: 1.05325 (Simulation time: 2 hr 47 min 47 sec) 
Heartbeat CPU 7 instructions: 420000000 cycles: 413535922 heartbeat IPC: 1.27378 cumulative IPC: 0.952711 (Simulation time: 2 hr 49 min 14 sec) 
Heartbeat CPU 0 instructions: 340000000 cycles: 413604112 heartbeat IPC: 1.01083 cumulative IPC: 0.739673 (Simulation time: 2 hr 49 min 16 sec) 
Heartbeat CPU 3 instructions: 490000000 cycles: 415269701 heartbeat IPC: 1.10944 cumulative IPC: 1.11133 (Simulation time: 2 hr 49 min 54 sec) 
Heartbeat CPU 4 instructions: 460000000 cycles: 419367297 heartbeat IPC: 1.07572 cumulative IPC: 1.05378 (Simulation time: 2 hr 51 min 23 sec) 
Heartbeat CPU 1 instructions: 230000002 cycles: 419949123 heartbeat IPC: 0.735926 cumulative IPC: 0.485517 (Simulation time: 2 hr 51 min 37 sec) 
Heartbeat CPU 2 instructions: 270000000 cycles: 423395253 heartbeat IPC: 0.581534 cumulative IPC: 0.572889 (Simulation time: 2 hr 52 min 54 sec) 
Heartbeat CPU 0 instructions: 350000002 cycles: 423987497 heartbeat IPC: 0.963077 cumulative IPC: 0.74543 (Simulation time: 2 hr 53 min 7 sec) 
Heartbeat CPU 3 instructions: 500000000 cycles: 424184852 heartbeat IPC: 1.12169 cumulative IPC: 1.11156 (Simulation time: 2 hr 53 min 11 sec) 
Heartbeat CPU 7 instructions: 430000001 cycles: 427447868 heartbeat IPC: 0.718807 cumulative IPC: 0.944704 (Simulation time: 2 hr 54 min 21 sec) 
Heartbeat CPU 4 instructions: 470000001 cycles: 428522969 heartbeat IPC: 1.09222 cumulative IPC: 1.05464 (Simulation time: 2 hr 54 min 43 sec) 
Heartbeat CPU 6 instructions: 210000000 cycles: 430908941 heartbeat IPC: 0.406072 cumulative IPC: 0.431944 (Simulation time: 2 hr 55 min 35 sec) 
Heartbeat CPU 5 instructions: 90000003 cycles: 431545180 heartbeat IPC: 0.171518 cumulative IPC: 0.170529 (Simulation time: 2 hr 55 min 49 sec) 
Heartbeat CPU 3 instructions: 510000002 cycles: 433146577 heartbeat IPC: 1.11586 cumulative IPC: 1.11165 (Simulation time: 2 hr 56 min 25 sec) 
Heartbeat CPU 1 instructions: 240000000 cycles: 434365700 heartbeat IPC: 0.693646 cumulative IPC: 0.492777 (Simulation time: 2 hr 56 min 51 sec) 
Heartbeat CPU 0 instructions: 360000000 cycles: 435652346 heartbeat IPC: 0.857276 cumulative IPC: 0.748577 (Simulation time: 2 hr 57 min 18 sec) 
Heartbeat CPU 4 instructions: 480000000 cycles: 437711571 heartbeat IPC: 1.0883 cumulative IPC: 1.05538 (Simulation time: 2 hr 58 min 2 sec) 
Heartbeat CPU 2 instructions: 280000000 cycles: 440698640 heartbeat IPC: 0.577922 cumulative IPC: 0.573097 (Simulation time: 2 hr 59 min 6 sec) 
Heartbeat CPU 3 instructions: 520000000 cycles: 442114848 heartbeat IPC: 1.11504 cumulative IPC: 1.11172 (Simulation time: 2 hr 59 min 35 sec) 
Heartbeat CPU 7 instructions: 440000000 cycles: 442377569 heartbeat IPC: 0.669806 cumulative IPC: 0.934963 (Simulation time: 2 hr 59 min 41 sec) 
Heartbeat CPU 4 instructions: 490000001 cycles: 446911758 heartbeat IPC: 1.08693 cumulative IPC: 1.05606 (Simulation time: 3 hr 1 min 15 sec) 
Heartbeat CPU 0 instructions: 370000000 cycles: 448279416 heartbeat IPC: 0.791949 cumulative IPC: 0.749859 (Simulation time: 3 hr 1 min 44 sec) 
Heartbeat CPU 1 instructions: 250000002 cycles: 449884745 heartbeat IPC: 0.64437 cumulative IPC: 0.498263 (Simulation time: 3 hr 2 min 18 sec) 
Heartbeat CPU 3 instructions: 530000000 cycles: 451145768 heartbeat IPC: 1.10731 cumulative IPC: 1.11163 (Simulation time: 3 hr 2 min 44 sec) 
Heartbeat CPU 6 instructions: 220000000 cycles: 453938497 heartbeat IPC: 0.434225 cumulative IPC: 0.432066 (Simulation time: 3 hr 3 min 44 sec) 
Heartbeat CPU 4 instructions: 500000000 cycles: 456103103 heartbeat IPC: 1.08798 cumulative IPC: 1.05674 (Simulation time: 3 hr 4 min 29 sec) 
Heartbeat CPU 7 instructions: 450000000 cycles: 457305351 heartbeat IPC: 0.669892 cumulative IPC: 0.925892 (Simulation time: 3 hr 4 min 54 sec) 
Heartbeat CPU 2 instructions: 290000001 cycles: 458142420 heartbeat IPC: 0.57327 cumulative IPC: 0.573104 (Simulation time: 3 hr 5 min 12 sec) 
Heartbeat CPU 3 instructions: 540000000 cycles: 460132181 heartbeat IPC: 1.11279 cumulative IPC: 1.11165 (Simulation time: 3 hr 5 min 57 sec) 
Heartbeat CPU 0 instructions: 380000000 cycles: 460166993 heartbeat IPC: 0.841214 cumulative IPC: 0.752332 (Simulation time: 3 hr 5 min 57 sec) 
Heartbeat CPU 1 instructions: 260000000 cycles: 464987981 heartbeat IPC: 0.66211 cumulative IPC: 0.503837 (Simulation time: 3 hr 7 min 41 sec) 
Heartbeat CPU 4 instructions: 510000001 cycles: 465287697 heartbeat IPC: 1.08878 cumulative IPC: 1.0574 (Simulation time: 3 hr 7 min 48 sec) 
Heartbeat CPU 3 instructions: 550000001 cycles: 469030254 heartbeat IPC: 1.12384 cumulative IPC: 1.11189 (Simulation time: 3 hr 9 min 7 sec) 
Heartbeat CPU 0 instructions: 390000000 cycles: 472028599 heartbeat IPC: 0.843056 cumulative IPC: 0.754718 (Simulation time: 3 hr 10 min 8 sec) 
Heartbeat CPU 7 instructions: 460000000 cycles: 473677973 heartbeat IPC: 0.610776 cumulative IPC: 0.914494 (Simulation time: 3 hr 10 min 41 sec) 
Heartbeat CPU 4 instructions: 520000000 cycles: 474666196 heartbeat IPC: 1.06627 cumulative IPC: 1.05758 (Simulation time: 3 hr 11 min 2 sec) 
Heartbeat CPU 2 instructions: 300000000 cycles: 475288739 heartbeat IPC: 0.583215 cumulative IPC: 0.573486 (Simulation time: 3 hr 11 min 15 sec) 
Heartbeat CPU 6 instructions: 230000001 cycles: 477290121 heartbeat IPC: 0.428236 cumulative IPC: 0.43187 (Simulation time: 3 hr 11 min 58 sec) 
Heartbeat CPU 3 instructions: 560000000 cycles: 478079432 heartbeat IPC: 1.10507 cumulative IPC: 1.11176 (Simulation time: 3 hr 12 min 15 sec) 
Heartbeat CPU 1 instructions: 270000001 cycles: 480489375 heartbeat IPC: 0.645103 cumulative IPC: 0.508604 (Simulation time: 3 hr 13 min 5 sec) 
Heartbeat CPU 7 instructions: 470000000 cycles: 482667935 heartbeat IPC: 1.11235 cumulative IPC: 0.918347 (Simulation time: 3 hr 13 min 53 sec) 
Heartbeat CPU 4 instructions: 530000001 cycles: 483978948 heartbeat IPC: 1.0738 cumulative IPC: 1.05791 (Simulation time: 3 hr 14 min 21 sec) 
Heartbeat CPU 0 instructions: 400000000 cycles: 485046006 heartbeat IPC: 0.768202 cumulative IPC: 0.755097 (Simulation time: 3 hr 14 min 44 sec) 
Heartbeat CPU 3 instructions: 570000002 cycles: 487032874 heartbeat IPC: 1.11689 cumulative IPC: 1.11186 (Simulation time: 3 hr 15 min 24 sec) 
Heartbeat CPU 5 instructions: 100000000 cycles: 489611017 heartbeat IPC: 0.172218 cumulative IPC: 0.170738 (Simulation time: 3 hr 16 min 13 sec) 
Heartbeat CPU 2 instructions: 310000000 cycles: 492710880 heartbeat IPC: 0.573982 cumulative IPC: 0.573504 (Simulation time: 3 hr 17 min 14 sec) 
Heartbeat CPU 4 instructions: 540000000 cycles: 493648770 heartbeat IPC: 1.03415 cumulative IPC: 1.05742 (Simulation time: 3 hr 17 min 34 sec) 
Heartbeat CPU 3 instructions: 580000000 cycles: 496046445 heartbeat IPC: 1.10944 cumulative IPC: 1.11181 (Simulation time: 3 hr 18 min 26 sec) 
Heartbeat CPU 1 instructions: 280000000 cycles: 496092773 heartbeat IPC: 0.640886 cumulative IPC: 0.512949 (Simulation time: 3 hr 18 min 27 sec) 
Heartbeat CPU 7 instructions: 480000000 cycles: 496733429 heartbeat IPC: 0.71096 cumulative IPC: 0.912215 (Simulation time: 3 hr 18 min 42 sec) 
Heartbeat CPU 6 instructions: 240000000 cycles: 500848727 heartbeat IPC: 0.424473 cumulative IPC: 0.431506 (Simulation time: 3 hr 20 min 11 sec) 
Heartbeat CPU 0 instructions: 410000000 cycles: 501959009 heartbeat IPC: 0.591261 cumulative IPC: 0.749335 (Simulation time: 3 hr 20 min 35 sec) 
Heartbeat CPU 4 instructions: 550000000 cycles: 503219575 heartbeat IPC: 1.04484 cumulative IPC: 1.05717 (Simulation time: 3 hr 21 min 1 sec) 
Heartbeat CPU 3 instructions: 590000002 cycles: 505025724 heartbeat IPC: 1.11368 cumulative IPC: 1.11185 (Simulation time: 3 hr 21 min 37 sec) 
Heartbeat CPU 7 instructions: 490000003 cycles: 505282843 heartbeat IPC: 1.16967 cumulative IPC: 0.91676 (Simulation time: 3 hr 21 min 43 sec) 
Heartbeat CPU 2 instructions: 320000000 cycles: 510575097 heartbeat IPC: 0.559778 cumulative IPC: 0.573003 (Simulation time: 3 hr 23 min 20 sec) 
Heartbeat CPU 4 instructions: 560000000 cycles: 513452322 heartbeat IPC: 0.977255 cumulative IPC: 1.05551 (Simulation time: 3 hr 24 min 15 sec) 
Heartbeat CPU 3 instructions: 600000000 cycles: 514094721 heartbeat IPC: 1.10266 cumulative IPC: 1.11168 (Simulation time: 3 hr 24 min 27 sec) 
Heartbeat CPU 7 instructions: 500000000 cycles: 515345096 heartbeat IPC: 0.993813 cumulative IPC: 0.918329 (Simulation time: 3 hr 24 min 52 sec) 
Heartbeat CPU 1 instructions: 290000001 cycles: 517002075 heartbeat IPC: 0.478256 cumulative IPC: 0.511486 (Simulation time: 3 hr 25 min 25 sec) 
Heartbeat CPU 4 instructions: 570000001 cycles: 523338101 heartbeat IPC: 1.01155 cumulative IPC: 1.05465 (Simulation time: 3 hr 27 min 32 sec) 
Heartbeat CPU 3 instructions: 610000003 cycles: 523479995 heartbeat IPC: 1.0655 cumulative IPC: 1.11082 (Simulation time: 3 hr 27 min 35 sec) 
Heartbeat CPU 6 instructions: 250000000 cycles: 524239756 heartbeat IPC: 0.427514 cumulative IPC: 0.431321 (Simulation time: 3 hr 27 min 51 sec) 
Heartbeat CPU 7 instructions: 510000000 cycles: 524854989 heartbeat IPC: 1.05154 cumulative IPC: 0.920843 (Simulation time: 3 hr 28 min 4 sec) 
Heartbeat CPU 0 instructions: 420000000 cycles: 526567897 heartbeat IPC: 0.406357 cumulative IPC: 0.732638 (Simulation time: 3 hr 28 min 39 sec) 
Heartbeat CPU 2 instructions: 330000002 cycles: 528483919 heartbeat IPC: 0.558384 cumulative IPC: 0.572487 (Simulation time: 3 hr 29 min 20 sec) 
Heartbeat CPU 3 instructions: 620000000 cycles: 532599915 heartbeat IPC: 1.0965 cumulative IPC: 1.11056 (Simulation time: 3 hr 30 min 48 sec) 
Heartbeat CPU 4 instructions: 580000000 cycles: 532606492 heartbeat IPC: 1.07894 cumulative IPC: 1.05509 (Simulation time: 3 hr 30 min 49 sec) 
Heartbeat CPU 7 instructions: 520000000 cycles: 532656005 heartbeat IPC: 1.28188 cumulative IPC: 0.926348 (Simulation time: 3 hr 30 min 50 sec) 
Heartbeat CPU 0 instructions: 430000002 cycles: 537529966 heartbeat IPC: 0.912237 cumulative IPC: 0.73645 (Simulation time: 3 hr 32 min 34 sec) 
Heartbeat CPU 7 instructions: 530000003 cycles: 541278911 heartbeat IPC: 1.1597 cumulative IPC: 0.930216 (Simulation time: 3 hr 33 min 54 sec) 
Heartbeat CPU 4 instructions: 590000002 cycles: 541829614 heartbeat IPC: 1.08423 cumulative IPC: 1.0556 (Simulation time: 3 hr 34 min 6 sec) 
Heartbeat CPU 3 instructions: 630000001 cycles: 541871204 heartbeat IPC: 1.0786 cumulative IPC: 1.10999 (Simulation time: 3 hr 34 min 7 sec) 
Heartbeat CPU 1 instructions: 300000000 cycles: 545738776 heartbeat IPC: 0.347987 cumulative IPC: 0.502531 (Simulation time: 3 hr 35 min 33 sec) 
Heartbeat CPU 2 instructions: 340000000 cycles: 545791735 heartbeat IPC: 0.577774 cumulative IPC: 0.572661 (Simulation time: 3 hr 35 min 34 sec) 
Heartbeat CPU 6 instructions: 260000000 cycles: 546973372 heartbeat IPC: 0.439877 cumulative IPC: 0.431691 (Simulation time: 3 hr 35 min 59 sec) 
Heartbeat CPU 0 instructions: 440000000 cycles: 547652552 heartbeat IPC: 0.98789 cumulative IPC: 0.741283 (Simulation time: 3 hr 36 min 12 sec) 
Heartbeat CPU 7 instructions: 540000000 cycles: 550113271 heartbeat IPC: 1.13194 cumulative IPC: 0.933585 (Simulation time: 3 hr 37 min 5 sec) 
Heartbeat CPU 5 instructions: 110000003 cycles: 550271781 heartbeat IPC: 0.164851 cumulative IPC: 0.170063 (Simulation time: 3 hr 37 min 9 sec) 
Heartbeat CPU 3 instructions: 640000000 cycles: 550947973 heartbeat IPC: 1.10171 cumulative IPC: 1.10985 (Simulation time: 3 hr 37 min 23 sec) 
Heartbeat CPU 4 instructions: 600000000 cycles: 551091982 heartbeat IPC: 1.07964 cumulative IPC: 1.05602 (Simulation time: 3 hr 37 min 26 sec) 
Heartbeat CPU 0 instructions: 450000003 cycles: 557814521 heartbeat IPC: 0.984062 cumulative IPC: 0.74588 (Simulation time: 3 hr 39 min 48 sec) 
Heartbeat CPU 3 instructions: 650000000 cycles: 559950341 heartbeat IPC: 1.11082 cumulative IPC: 1.10987 (Simulation time: 3 hr 40 min 33 sec) 
Heartbeat CPU 7 instructions: 550000000 cycles: 560316068 heartbeat IPC: 0.980123 cumulative IPC: 0.934465 (Simulation time: 3 hr 40 min 41 sec) 
Heartbeat CPU 4 instructions: 610000002 cycles: 560424171 heartbeat IPC: 1.07156 cumulative IPC: 1.05629 (Simulation time: 3 hr 40 min 43 sec) 
Heartbeat CPU 2 instructions: 350000003 cycles: 563223704 heartbeat IPC: 0.573659 cumulative IPC: 0.572693 (Simulation time: 3 hr 41 min 38 sec) 
Heartbeat CPU 3 instructions: 660000000 cycles: 568740546 heartbeat IPC: 1.13763 cumulative IPC: 1.11031 (Simulation time: 3 hr 43 min 25 sec) 
Heartbeat CPU 0 instructions: 460000000 cycles: 569527560 heartbeat IPC: 0.853749 cumulative IPC: 0.748183 (Simulation time: 3 hr 43 min 40 sec) 
Heartbeat CPU 4 instructions: 620000000 cycles: 569609162 heartbeat IPC: 1.08873 cumulative IPC: 1.05684 (Simulation time: 3 hr 43 min 42 sec) 
Heartbeat CPU 6 instructions: 270000000 cycles: 570000464 heartbeat IPC: 0.434271 cumulative IPC: 0.431799 (Simulation time: 3 hr 43 min 49 sec) 
Heartbeat CPU 1 instructions: 310000001 cycles: 573510536 heartbeat IPC: 0.360078 cumulative IPC: 0.49537 (Simulation time: 3 hr 44 min 59 sec) 
Heartbeat CPU 7 instructions: 560000000 cycles: 573885586 heartbeat IPC: 0.736946 cumulative IPC: 0.929617 (Simulation time: 3 hr 45 min 6 sec) 
Heartbeat CPU 3 instructions: 670000002 cycles: 577494146 heartbeat IPC: 1.14239 cumulative IPC: 1.11082 (Simulation time: 3 hr 46 min 21 sec) 
Heartbeat CPU 4 instructions: 630000000 cycles: 578944559 heartbeat IPC: 1.07119 cumulative IPC: 1.05708 (Simulation time: 3 hr 46 min 50 sec) 
Heartbeat CPU 2 instructions: 360000000 cycles: 580584239 heartbeat IPC: 0.576019 cumulative IPC: 0.572797 (Simulation time: 3 hr 47 min 25 sec) 
Heartbeat CPU 0 instructions: 470000001 cycles: 582053697 heartbeat IPC: 0.798331 cumulative IPC: 0.749303 (Simulation time: 3 hr 47 min 56 sec) 
Heartbeat CPU 7 instructions: 570000002 cycles: 582116084 heartbeat IPC: 1.21499 cumulative IPC: 0.933803 (Simulation time: 3 hr 47 min 57 sec) 
Heartbeat CPU 3 instructions: 680000000 cycles: 586291851 heartbeat IPC: 1.13666 cumulative IPC: 1.11122 (Simulation time: 3 hr 49 min 21 sec) 
Heartbeat CPU 4 instructions: 640000000 cycles: 588174142 heartbeat IPC: 1.08347 cumulative IPC: 1.05751 (Simulation time: 3 hr 49 min 59 sec) 
Heartbeat CPU 7 instructions: 580000000 cycles: 590730492 heartbeat IPC: 1.16085 cumulative IPC: 0.937237 (Simulation time: 3 hr 50 min 54 sec) 
Heartbeat CPU 6 instructions: 280000000 cycles: 592929705 heartbeat IPC: 0.436124 cumulative IPC: 0.431972 (Simulation time: 3 hr 51 min 41 sec) 
Heartbeat CPU 0 instructions: 480000000 cycles: 594277874 heartbeat IPC: 0.818051 cumulative IPC: 0.750769 (Simulation time: 3 hr 52 min 9 sec) 
Heartbeat CPU 3 instructions: 690000002 cycles: 595107555 heartbeat IPC: 1.13434 cumulative IPC: 1.11157 (Simulation time: 3 hr 52 min 26 sec) 
Heartbeat CPU 1 instructions: 320000000 cycles: 595904075 heartbeat IPC: 0.446557 cumulative IPC: 0.493469 (Simulation time: 3 hr 52 min 42 sec) 
Heartbeat CPU 4 instructions: 650000000 cycles: 597760603 heartbeat IPC: 1.04314 cumulative IPC: 1.05727 (Simulation time: 3 hr 53 min 20 sec) 
Heartbeat CPU 2 instructions: 370000001 cycles: 598163264 heartbeat IPC: 0.56886 cumulative IPC: 0.572677 (Simulation time: 3 hr 53 min 29 sec) 
Heartbeat CPU 3 instructions: 700000000 cycles: 603913258 heartbeat IPC: 1.13563 cumulative IPC: 1.11194 (Simulation time: 3 hr 55 min 31 sec) 
Heartbeat CPU 7 instructions: 590000001 cycles: 604064526 heartbeat IPC: 0.749961 cumulative IPC: 0.932954 (Simulation time: 3 hr 55 min 34 sec) 
Heartbeat CPU 0 instructions: 490000002 cycles: 605948174 heartbeat IPC: 0.856876 cumulative IPC: 0.752886 (Simulation time: 3 hr 56 min 15 sec) 
Heartbeat CPU 4 instructions: 660000000 cycles: 607419117 heartbeat IPC: 1.03536 cumulative IPC: 1.05691 (Simulation time: 3 hr 56 min 45 sec) 
Heartbeat CPU 5 instructions: 120000000 cycles: 610132580 heartbeat IPC: 0.167054 cumulative IPC: 0.169758 (Simulation time: 3 hr 57 min 44 sec) 
Finished CPU 5 instructions: 100000000 cycles: 589075066 cumulative IPC: 0.169758 (Simulation time: 3 hr 57 min 44 sec) 

CPU 0 Branch Prediction Accuracy: 97.4534% MPKI: 2.9429

CPU 1 Branch Prediction Accuracy: 96.6967% MPKI: 4.5199

CPU 2 Branch Prediction Accuracy: 91.9698% MPKI: 8.14383

CPU 3 Branch Prediction Accuracy: 91.9235% MPKI: 10.9778

CPU 4 Branch Prediction Accuracy: 96.7448% MPKI: 0.266077

CPU 5 Branch Prediction Accuracy: 92.4261% MPKI: 6.09924

CPU 6 Branch Prediction Accuracy: 86.2547% MPKI: 15.1367

CPU 7 Branch Prediction Accuracy: 99.2963% MPKI: 0.350394

ChampSim completed all CPUs

Total Simulation Statistics (not including warmup)

CPU 0 cumulative IPC: 0.752831 instructions: 443473985 cycles: 589075066
L1D TOTAL     ACCESS:   91393579  HIT:   87208571  MISS:    4185008
L1D LOAD      ACCESS:   53558563  HIT:   51989125  MISS:    1569438
L1D RFO       ACCESS:   37835016  HIT:   35219446  MISS:    2615570
L1D PREFETCH  ACCESS:          0  HIT:          0  MISS:          0
L1D WRITEBACK ACCESS:          0  HIT:          0  MISS:          0
L1I TOTAL     ACCESS:  115993160  HIT:  115817413  MISS:     175747
L1I LOAD      ACCESS:  115993160  HIT:  115817413  MISS:     175747
L1I RFO       ACCESS:          0  HIT:          0  MISS:          0
L1I PREFETCH  ACCESS:          0  HIT:          0  MISS:          0
L1I WRITEBACK ACCESS:          0  HIT:          0  MISS:          0
L2C TOTAL     ACCESS:    9867957  HIT:    7358646  MISS:    2509311
L2C LOAD      ACCESS:    1745107  HIT:    1350038  MISS:     395069
L2C RFO       ACCESS:    2615556  HIT:     561292  MISS:    2054264
L2C PREFETCH  ACCESS:    2709222  HIT:    2650669  MISS:      58553
L2C WRITEBACK ACCESS:    2798072  HIT:    2796647  MISS:       1425
LLC TOTAL     ACCESS:    5357850  HIT:    3047087  MISS:    2310763
LLC LOAD      ACCESS:     367838  HIT:     209851  MISS:     157987
LLC RFO       ACCESS:    2054258  HIT:     113207  MISS:    1941051
LLC PREFETCH  ACCESS:     812202  HIT:     640085  MISS:     172117
LLC WRITEBACK ACCESS:    2123552  HIT:    2083944  MISS:      39608

CPU 1 cumulative IPC: 0.498518 instructions: 293664574 cycles: 589075066
L1D TOTAL     ACCESS:  110086412  HIT:  109106222  MISS:     980190
L1D LOAD      ACCESS:   52063020  HIT:   51169219  MISS:     893801
L1D RFO       ACCESS:   58023392  HIT:   57937003  MISS:      86389
L1D PREFETCH  ACCESS:          0  HIT:          0  MISS:          0
L1D WRITEBACK ACCESS:          0  HIT:          0  MISS:          0
L1I TOTAL     ACCESS:   80343910  HIT:   79157168  MISS:    1186742
L1I LOAD      ACCESS:   80343910  HIT:   79157168  MISS:    1186742
L1I RFO       ACCESS:          0  HIT:          0  MISS:          0
L1I PREFETCH  ACCESS:          0  HIT:          0  MISS:          0
L1I WRITEBACK ACCESS:          0  HIT:          0  MISS:          0
L2C TOTAL     ACCESS:    3580265  HIT:    2977076  MISS:     603189
L2C LOAD      ACCESS:    2080526  HIT:    1540414  MISS:     540112
L2C RFO       ACCESS:      86387  HIT:      53397  MISS:      32990
L2C PREFETCH  ACCESS:    1139847  HIT:    1113547  MISS:      26300
L2C WRITEBACK ACCESS:     273505  HIT:     269718  MISS:       3787
LLC TOTAL     ACCESS:    1505405  HIT:     955288  MISS:     550117
LLC LOAD      ACCESS:     538505  HIT:     247848  MISS:     290657
LLC RFO       ACCESS:      32975  HIT:      14675  MISS:      18300
LLC PREFETCH  ACCESS:     822011  HIT:     600954  MISS:     221057
LLC WRITEBACK ACCESS:     111914  HIT:      91811  MISS:      20103

CPU 2 cumulative IPC: 0.572551 instructions: 337275691 cycles: 589075066
L1D TOTAL     ACCESS:  102214637  HIT:  101751176  MISS:     463461
L1D LOAD      ACCESS:   62796303  HIT:   62472035  MISS:     324268
L1D RFO       ACCESS:   39418334  HIT:   39279141  MISS:     139193
L1D PREFETCH  ACCESS:          0  HIT:          0  MISS:          0
L1D WRITEBACK ACCESS:          0  HIT:          0  MISS:          0
L1I TOTAL     ACCESS:   82373607  HIT:   82052087  MISS:     321520
L1I LOAD      ACCESS:   82373607  HIT:   82052087  MISS:     321520
L1I RFO       ACCESS:          0  HIT:          0  MISS:          0
L1I PREFETCH  ACCESS:          0  HIT:          0  MISS:          0
L1I WRITEBACK ACCESS:          0  HIT:          0  MISS:          0
L2C TOTAL     ACCESS:    1256485  HIT:    1146818  MISS:     109667
L2C LOAD      ACCESS:     645782  HIT:     545546  MISS:     100236
L2C RFO       ACCESS:     139189  HIT:     133611  MISS:       5578
L2C PREFETCH  ACCESS:     243426  HIT:     239852  MISS:       3574
L2C WRITEBACK ACCESS:     228088  HIT:     227809  MISS:        279
LLC TOTAL     ACCESS:     305738  HIT:      50533  MISS:     255205
LLC LOAD      ACCESS:     100188  HIT:       2759  MISS:      97429
LLC RFO       ACCESS:       5575  HIT:       1639  MISS:       3936
LLC PREFETCH  ACCESS:     127643  HIT:      40296  MISS:      87347
LLC WRITEBACK ACCESS:      72332  HIT:       5839  MISS:      66493

CPU 3 cumulative IPC: 1.1122 instructions: 655167900 cycles: 589075066
L1D TOTAL     ACCESS:  114656844  HIT:  114581295  MISS:      75549
L1D LOAD      ACCESS:   90186055  HIT:   90176303  MISS:       9752
L1D RFO       ACCESS:   24470789  HIT:   24404992  MISS:      65797
L1D PREFETCH  ACCESS:          0  HIT:          0  MISS:          0
L1D WRITEBACK ACCESS:          0  HIT:          0  MISS:          0
L1I TOTAL     ACCESS:  158772259  HIT:  158772259  MISS:          0
L1I LOAD      ACCESS:  158772259  HIT:  158772259  MISS:          0
L1I RFO       ACCESS:          0  HIT:          0  MISS:          0
L1I PREFETCH  ACCESS:          0  HIT:          0  MISS:          0
L1I WRITEBACK ACCESS:          0  HIT:          0  MISS:          0
L2C TOTAL     ACCESS:     145927  HIT:      78093  MISS:      67834
L2C LOAD      ACCESS:       9748  HIT:       6106  MISS:       3642
L2C RFO       ACCESS:      65797  HIT:       4397  MISS:      61400
L2C PREFETCH  ACCESS:       4560  HIT:       1987  MISS:       2573
L2C WRITEBACK ACCESS:      65822  HIT:      65603  MISS:        219
LLC TOTAL     ACCESS:     154112  HIT:      24689  MISS:     129423
LLC LOAD      ACCESS:       3642  HIT:       3271  MISS:        371
LLC RFO       ACCESS:      61400  HIT:          0  MISS:      61400
LLC PREFETCH  ACCESS:      27518  HIT:      20893  MISS:       6625
LLC WRITEBACK ACCESS:      61552  HIT:        525  MISS:      61027

CPU 4 cumulative IPC: 1.05688 instructions: 622583983 cycles: 589075066
L1D TOTAL     ACCESS:  212963070  HIT:  190509444  MISS:   22453626
L1D LOAD      ACCESS:  111366754  HIT:   98836231  MISS:   12530523
L1D RFO       ACCESS:  101596316  HIT:   91673213  MISS:    9923103
L1D PREFETCH  ACCESS:          0  HIT:          0  MISS:          0
L1D WRITEBACK ACCESS:          0  HIT:          0  MISS:          0
L1I TOTAL     ACCESS:  151695175  HIT:  151695175  MISS:          0
L1I LOAD      ACCESS:  151695175  HIT:  151695175  MISS:          0
L1I RFO       ACCESS:          0  HIT:          0  MISS:          0
L1I PREFETCH  ACCESS:          0  HIT:          0  MISS:          0
L1I WRITEBACK ACCESS:          0  HIT:          0  MISS:          0
L2C TOTAL     ACCESS:   38001933  HIT:   28455106  MISS:    9546827
L2C LOAD      ACCESS:   12524588  HIT:    9795870  MISS:    2728718
L2C RFO       ACCESS:    8834542  HIT:    5127777  MISS:    3706765
L2C PREFETCH  ACCESS:    6649363  HIT:    3538317  MISS:    3111046
L2C WRITEBACK ACCESS:    9993440  HIT:    9993142  MISS:        298
LLC TOTAL     ACCESS:   40806432  HIT:   32320269  MISS:    8486163
LLC LOAD      ACCESS:    2725524  HIT:    2615915  MISS:     109609
LLC RFO       ACCESS:    3706764  HIT:          0  MISS:    3706764
LLC PREFETCH  ACCESS:   30665486  HIT:   25995834  MISS:    4669652
LLC WRITEBACK ACCESS:    3708658  HIT:    3708520  MISS:        138

CPU 5 cumulative IPC: 0.169758 instructions: 100000000 cycles: 589075066
L1D TOTAL     ACCESS:   53537538  HIT:   44514706  MISS:    9022832
L1D LOAD      ACCESS:   33778868  HIT:   29129468  MISS:    4649400
L1D RFO       ACCESS:   19758670  HIT:   15385238  MISS:    4373432
L1D PREFETCH  ACCESS:          0  HIT:          0  MISS:          0
L1D WRITEBACK ACCESS:          0  HIT:          0  MISS:          0
L1I TOTAL     ACCESS:   23968513  HIT:   23968513  MISS:          0
L1I LOAD      ACCESS:   23968513  HIT:   23968513  MISS:          0
L1I RFO       ACCESS:          0  HIT:          0  MISS:          0
L1I PREFETCH  ACCESS:          0  HIT:          0  MISS:          0
L1I WRITEBACK ACCESS:          0  HIT:          0  MISS:          0
L2C TOTAL     ACCESS:   19008910  HIT:   10227849  MISS:    8781061
L2C LOAD      ACCESS:    4649345  HIT:    1129546  MISS:    3519799
L2C RFO       ACCESS:    4373432  HIT:         10  MISS:    4373422
L2C PREFETCH  ACCESS:     963302  HIT:      79993  MISS:     883309
L2C WRITEBACK ACCESS:    9022831  HIT:    9018300  MISS:       4531
LLC TOTAL     ACCESS:   24878663  HIT:   17793654  MISS:    7085009
LLC LOAD      ACCESS:    3455495  HIT:    3238539  MISS:     216956
LLC RFO       ACCESS:    4373422  HIT:      73324  MISS:    4300098
LLC PREFETCH  ACCESS:    8302133  HIT:    5734178  MISS:    2567955
LLC WRITEBACK ACCESS:    8747613  HIT:    8747613  MISS:          0

CPU 6 cumulative IPC: 0.43219 instructions: 254592472 cycles: 589075067
L1D TOTAL     ACCESS:   83785884  HIT:   82701766  MISS:    1084118
L1D LOAD      ACCESS:   52878446  HIT:   52107012  MISS:     771434
L1D RFO       ACCESS:   30907438  HIT:   30594754  MISS:     312684
L1D PREFETCH  ACCESS:          0  HIT:          0  MISS:          0
L1D WRITEBACK ACCESS:          0  HIT:          0  MISS:          0
L1I TOTAL     ACCESS:   60494332  HIT:   60401490  MISS:      92842
L1I LOAD      ACCESS:   60494332  HIT:   60401490  MISS:      92842
L1I RFO       ACCESS:          0  HIT:          0  MISS:          0
L1I PREFETCH  ACCESS:          0  HIT:          0  MISS:          0
L1I WRITEBACK ACCESS:          0  HIT:          0  MISS:          0
L2C TOTAL     ACCESS:    3006275  HIT:    2950890  MISS:      55385
L2C LOAD      ACCESS:     864272  HIT:     843663  MISS:      20609
L2C RFO       ACCESS:     312675  HIT:     290149  MISS:      22526
L2C PREFETCH  ACCESS:    1367111  HIT:    1355070  MISS:      12041
L2C WRITEBACK ACCESS:     462217  HIT:     462008  MISS:        209
LLC TOTAL     ACCESS:     301808  HIT:     226068  MISS:      75740
LLC LOAD      ACCESS:      20078  HIT:      12043  MISS:       8035
LLC RFO       ACCESS:      22525  HIT:        597  MISS:      21928
LLC PREFETCH  ACCESS:     233325  HIT:     192832  MISS:      40493
LLC WRITEBACK ACCESS:      25880  HIT:      20596  MISS:       5284

CPU 7 cumulative IPC: 0.932501 instructions: 549312805 cycles: 589075067
L1D TOTAL     ACCESS:  133250460  HIT:  123805468  MISS:    9444992
L1D LOAD      ACCESS:  112323342  HIT:  104468148  MISS:    7855194
L1D RFO       ACCESS:   20927118  HIT:   19337320  MISS:    1589798
L1D PREFETCH  ACCESS:          0  HIT:          0  MISS:          0
L1D WRITEBACK ACCESS:          0  HIT:          0  MISS:          0
L1I TOTAL     ACCESS:  148895943  HIT:  148880390  MISS:      15553
L1I LOAD      ACCESS:  148895943  HIT:  148880390  MISS:      15553
L1I RFO       ACCESS:          0  HIT:          0  MISS:          0
L1I PREFETCH  ACCESS:          0  HIT:          0  MISS:          0
L1I WRITEBACK ACCESS:          0  HIT:          0  MISS:          0
L2C TOTAL     ACCESS:   24722060  HIT:   17867439  MISS:    6854621
L2C LOAD      ACCESS:    7870449  HIT:    4487169  MISS:    3383280
L2C RFO       ACCESS:    1589759  HIT:     320628  MISS:    1269131
L2C PREFETCH  ACCESS:   12001062  HIT:    9805504  MISS:    2195558
L2C WRITEBACK ACCESS:    3260790  HIT:    3254138  MISS:       6652
LLC TOTAL     ACCESS:   27310501  HIT:   22835842  MISS:    4474659
LLC LOAD      ACCESS:    2867013  HIT:    2485497  MISS:     381516
LLC RFO       ACCESS:    1269120  HIT:     211117  MISS:    1058003
LLC PREFETCH  ACCESS:   20444532  HIT:   17413496  MISS:    3031036
LLC WRITEBACK ACCESS:    2729836  HIT:    2725732  MISS:       4104

Region of Interest Statistics

CPU 0 cumulative IPC: 0.751429 instructions: 100000003 cycles: 133079857
L1D TOTAL     ACCESS:   20526231  HIT:   19540975  MISS:     985256
L1D LOAD      ACCESS:   12048835  HIT:   11696408  MISS:     352427
L1D RFO       ACCESS:    8477396  HIT:    7844567  MISS:     632829
L1D PREFETCH  ACCESS:          0  HIT:          0  MISS:          0
L1D WRITEBACK ACCESS:          0  HIT:          0  MISS:          0
L1D PREFETCH  REQUESTED:          0  ISSUED:          0  USEFUL:          0  USELESS:          0
L1I TOTAL     ACCESS:   26225805  HIT:   26185593  MISS:      40212
L1I LOAD      ACCESS:   26225805  HIT:   26185593  MISS:      40212
L1I RFO       ACCESS:          0  HIT:          0  MISS:          0
L1I PREFETCH  ACCESS:          0  HIT:          0  MISS:          0
L1I WRITEBACK ACCESS:          0  HIT:          0  MISS:          0
L1I PREFETCH  REQUESTED:          0  ISSUED:          0  USEFUL:          0  USELESS:          0
L2C TOTAL     ACCESS:    2303768  HIT:    1691803  MISS:     611965
L2C LOAD      ACCESS:     392626  HIT:     304078  MISS:      88548
L2C RFO       ACCESS:     632825  HIT:     123610  MISS:     509215
L2C PREFETCH  ACCESS:     602677  HIT:     588814  MISS:      13863
L2C WRITEBACK ACCESS:     675640  HIT:     675301  MISS:        339
L2C PREFETCH  REQUESTED:    5554254  ISSUED:    5544975  USEFUL:      55864  USELESS:       5059
LLC TOTAL     ACCESS:    1300824  HIT:     738494  MISS:     562330
LLC LOAD      ACCESS:      82313  HIT:      47664  MISS:      34649
LLC RFO       ACCESS:     509215  HIT:      27117  MISS:     482098
LLC PREFETCH  ACCESS:     184525  HIT:     147374  MISS:      37151
LLC WRITEBACK ACCESS:     524771  HIT:     516339  MISS:       8432
LLC PREFETCH  REQUESTED:          0  ISSUED:          0  USEFUL:    6205479  USELESS:    5724096
Major fault: 0 Minor fault: 6878

CPU 1 cumulative IPC: 0.540878 instructions: 100000000 cycles: 184884695
L1D TOTAL     ACCESS:   37344814  HIT:   37059838  MISS:     284976
L1D LOAD      ACCESS:   17187407  HIT:   16931024  MISS:     256383
L1D RFO       ACCESS:   20157407  HIT:   20128814  MISS:      28593
L1D PREFETCH  ACCESS:          0  HIT:          0  MISS:          0
L1D WRITEBACK ACCESS:          0  HIT:          0  MISS:          0
L1D PREFETCH  REQUESTED:          0  ISSUED:          0  USEFUL:          0  USELESS:          0
L1I TOTAL     ACCESS:   27424288  HIT:   27078239  MISS:     346049
L1I LOAD      ACCESS:   27424288  HIT:   27078239  MISS:     346049
L1I RFO       ACCESS:          0  HIT:          0  MISS:          0
L1I PREFETCH  ACCESS:          0  HIT:          0  MISS:          0
L1I WRITEBACK ACCESS:          0  HIT:          0  MISS:          0
L1I PREFETCH  REQUESTED:          0  ISSUED:          0  USEFUL:          0  USELESS:          0
L2C TOTAL     ACCESS:    1024934  HIT:     859264  MISS:     165670
L2C LOAD      ACCESS:     602430  HIT:     454652  MISS:     147778
L2C RFO       ACCESS:      28593  HIT:      18844  MISS:       9749
L2C PREFETCH  ACCESS:     313777  HIT:     306737  MISS:       7040
L2C WRITEBACK ACCESS:      80134  HIT:      79031  MISS:       1103
L2C PREFETCH  REQUESTED:    2403993  ISSUED:    2401360  USEFUL:      11220  USELESS:      15173
LLC TOTAL     ACCESS:     404594  HIT:     240765  MISS:     163829
LLC LOAD      ACCESS:     147362  HIT:      57541  MISS:      89821
LLC RFO       ACCESS:       9748  HIT:       4217  MISS:       5531
LLC PREFETCH  ACCESS:     215858  HIT:     152985  MISS:      62873
LLC WRITEBACK ACCESS:      31626  HIT:      26022  MISS:       5604
LLC PREFETCH  REQUESTED:          0  ISSUED:          0  USEFUL:    6205479  USELESS:    5724096
Major fault: 0 Minor fault: 5868

CPU 2 cumulative IPC: 0.576602 instructions: 100000000 cycles: 173429889
L1D TOTAL     ACCESS:   30057758  HIT:   29921322  MISS:     136436
L1D LOAD      ACCESS:   18558626  HIT:   18462950  MISS:      95676
L1D RFO       ACCESS:   11499132  HIT:   11458372  MISS:      40760
L1D PREFETCH  ACCESS:          0  HIT:          0  MISS:          0
L1D WRITEBACK ACCESS:          0  HIT:          0  MISS:          0
L1D PREFETCH  REQUESTED:          0  ISSUED:          0  USEFUL:          0  USELESS:          0
L1I TOTAL     ACCESS:   24415801  HIT:   24325987  MISS:      89814
L1I LOAD      ACCESS:   24415801  HIT:   24325987  MISS:      89814
L1I RFO       ACCESS:          0  HIT:          0  MISS:          0
L1I PREFETCH  ACCESS:          0  HIT:          0  MISS:          0
L1I WRITEBACK ACCESS:          0  HIT:          0  MISS:          0
L1I PREFETCH  REQUESTED:          0  ISSUED:          0  USEFUL:          0  USELESS:          0
L2C TOTAL     ACCESS:     355940  HIT:     324926  MISS:      31014
L2C LOAD      ACCESS:     185488  HIT:     156979  MISS:      28509
L2C RFO       ACCESS:      40758  HIT:      39300  MISS:       1458
L2C PREFETCH  ACCESS:      63886  HIT:      62906  MISS:        980
L2C WRITEBACK ACCESS:      65808  HIT:      65741  MISS:         67
L2C PREFETCH  REQUESTED:     437590  ISSUED:     437590  USEFUL:        457  USELESS:       3509
LLC TOTAL     ACCESS:      83059  HIT:      12957  MISS:      70102
LLC LOAD      ACCESS:      28499  HIT:        702  MISS:      27797
LLC RFO       ACCESS:       1458  HIT:        476  MISS:        982
LLC PREFETCH  ACCESS:      33079  HIT:       9962  MISS:      23117
LLC WRITEBACK ACCESS:      20023  HIT:       1817  MISS:      18206
LLC PREFETCH  REQUESTED:          0  ISSUED:          0  USEFUL:    6205479  USELESS:    5724096
Major fault: 0 Minor fault: 60734

CPU 3 cumulative IPC: 1.13816 instructions: 100000002 cycles: 87860837
L1D TOTAL     ACCESS:   17134395  HIT:   17131730  MISS:       2665
L1D LOAD      ACCESS:   13825815  HIT:   13825481  MISS:        334
L1D RFO       ACCESS:    3308580  HIT:    3306249  MISS:       2331
L1D PREFETCH  ACCESS:          0  HIT:          0  MISS:          0
L1D WRITEBACK ACCESS:          0  HIT:          0  MISS:          0
L1D PREFETCH  REQUESTED:          0  ISSUED:          0  USEFUL:          0  USELESS:          0
L1I TOTAL     ACCESS:   24281067  HIT:   24281067  MISS:          0
L1I LOAD      ACCESS:   24281067  HIT:   24281067  MISS:          0
L1I RFO       ACCESS:          0  HIT:          0  MISS:          0
L1I PREFETCH  ACCESS:          0  HIT:          0  MISS:          0
L1I WRITEBACK ACCESS:          0  HIT:          0  MISS:          0
L1I PREFETCH  REQUESTED:          0  ISSUED:          0  USEFUL:          0  USELESS:          0
L2C TOTAL     ACCESS:       5141  HIT:       2800  MISS:       2341
L2C LOAD      ACCESS:        334  HIT:        199  MISS:        135
L2C RFO       ACCESS:       2331  HIT:        205  MISS:       2126
L2C PREFETCH  ACCESS:        139  HIT:         59  MISS:         80
L2C WRITEBACK ACCESS:       2337  HIT:       2337  MISS:          0
L2C PREFETCH  REQUESTED:      43971  ISSUED:      43971  USEFUL:       3591  USELESS:         14
LLC TOTAL     ACCESS:       5258  HIT:        718  MISS:       4540
LLC LOAD      ACCESS:        135  HIT:         93  MISS:         42
LLC RFO       ACCESS:       2126  HIT:          0  MISS:       2126
LLC PREFETCH  ACCESS:        859  HIT:        625  MISS:        234
LLC WRITEBACK ACCESS:       2138  HIT:          0  MISS:       2138
LLC PREFETCH  REQUESTED:          0  ISSUED:          0  USEFUL:    6205479  USELESS:    5724096
Major fault: 0 Minor fault: 1564

CPU 4 cumulative IPC: 1.05746 instructions: 100000001 cycles: 94566593
L1D TOTAL     ACCESS:   34172670  HIT:   30591598  MISS:    3581072
L1D LOAD      ACCESS:   17883647  HIT:   15883582  MISS:    2000065
L1D RFO       ACCESS:   16289023  HIT:   14708016  MISS:    1581007
L1D PREFETCH  ACCESS:          0  HIT:          0  MISS:          0
L1D WRITEBACK ACCESS:          0  HIT:          0  MISS:          0
L1D PREFETCH  REQUESTED:          0  ISSUED:          0  USEFUL:          0  USELESS:          0
L1I TOTAL     ACCESS:   24367578  HIT:   24367578  MISS:          0
L1I LOAD      ACCESS:   24367578  HIT:   24367578  MISS:          0
L1I RFO       ACCESS:          0  HIT:          0  MISS:          0
L1I PREFETCH  ACCESS:          0  HIT:          0  MISS:          0
L1I WRITEBACK ACCESS:          0  HIT:          0  MISS:          0
L1I PREFETCH  REQUESTED:          0  ISSUED:          0  USEFUL:          0  USELESS:          0
L2C TOTAL     ACCESS:    6031345  HIT:    4497877  MISS:    1533468
L2C LOAD      ACCESS:    1999135  HIT:    1545772  MISS:     453363
L2C RFO       ACCESS:    1407283  HIT:     811898  MISS:     595385
L2C PREFETCH  ACCESS:    1032699  HIT:     548046  MISS:     484653
L2C WRITEBACK ACCESS:    1592228  HIT:    1592161  MISS:         67
L2C PREFETCH  REQUESTED:   37797334  ISSUED:   37658469  USEFUL:    3277428  USELESS:        963
LLC TOTAL     ACCESS:    6354972  HIT:    4991884  MISS:    1363088
LLC LOAD      ACCESS:     452896  HIT:     435019  MISS:      17877
LLC RFO       ACCESS:     595385  HIT:          0  MISS:     595385
LLC PREFETCH  ACCESS:    4710938  HIT:    3961134  MISS:     749804
LLC WRITEBACK ACCESS:     595753  HIT:     595731  MISS:         22
LLC PREFETCH  REQUESTED:          0  ISSUED:          0  USEFUL:    6205479  USELESS:    5724096
Major fault: 0 Minor fault: 125456

CPU 5 cumulative IPC: 0.169758 instructions: 100000000 cycles: 589075066
L1D TOTAL     ACCESS:   53537538  HIT:   44514706  MISS:    9022832
L1D LOAD      ACCESS:   33778868  HIT:   29129468  MISS:    4649400
L1D RFO       ACCESS:   19758670  HIT:   15385238  MISS:    4373432
L1D PREFETCH  ACCESS:          0  HIT:          0  MISS:          0
L1D WRITEBACK ACCESS:          0  HIT:          0  MISS:          0
L1D PREFETCH  REQUESTED:          0  ISSUED:          0  USEFUL:          0  USELESS:          0
L1I TOTAL     ACCESS:   23968513  HIT:   23968513  MISS:          0
L1I LOAD      ACCESS:   23968513  HIT:   23968513  MISS:          0
L1I RFO       ACCESS:          0  HIT:          0  MISS:          0
L1I PREFETCH  ACCESS:          0  HIT:          0  MISS:          0
L1I WRITEBACK ACCESS:          0  HIT:          0  MISS:          0
L1I PREFETCH  REQUESTED:          0  ISSUED:          0  USEFUL:          0  USELESS:          0
L2C TOTAL     ACCESS:   19008910  HIT:   10227849  MISS:    8781061
L2C LOAD      ACCESS:    4649345  HIT:    1129546  MISS:    3519799
L2C RFO       ACCESS:    4373432  HIT:         10  MISS:    4373422
L2C PREFETCH  ACCESS:     963302  HIT:      79993  MISS:     883309
L2C WRITEBACK ACCESS:    9022831  HIT:    9018300  MISS:       4531
L2C PREFETCH  REQUESTED:   16590550  ISSUED:   16590550  USEFUL:    1122273  USELESS:      36682
LLC TOTAL     ACCESS:   24878663  HIT:   17793654  MISS:    7085009
LLC LOAD      ACCESS:    3455495  HIT:    3238539  MISS:     216956
LLC RFO       ACCESS:    4373422  HIT:      73324  MISS:    4300098
LLC PREFETCH  ACCESS:    8302133  HIT:    5734178  MISS:    2567955
LLC WRITEBACK ACCESS:    8747613  HIT:    8747613  MISS:          0
LLC PREFETCH  REQUESTED:          0  ISSUED:          0  USEFUL:    6205479  USELESS:    5724096
Major fault: 0 Minor fault: 257383

CPU 6 cumulative IPC: 0.431999 instructions: 100000000 cycles: 231482161
L1D TOTAL     ACCESS:   32946417  HIT:   32547740  MISS:     398677
L1D LOAD      ACCESS:   20803122  HIT:   20516684  MISS:     286438
L1D RFO       ACCESS:   12143295  HIT:   12031056  MISS:     112239
L1D PREFETCH  ACCESS:          0  HIT:          0  MISS:          0
L1D WRITEBACK ACCESS:          0  HIT:          0  MISS:          0
L1D PREFETCH  REQUESTED:          0  ISSUED:          0  USEFUL:          0  USELESS:          0
L1I TOTAL     ACCESS:   23627004  HIT:   23591959  MISS:      35045
L1I LOAD      ACCESS:   23627004  HIT:   23591959  MISS:      35045
L1I RFO       ACCESS:          0  HIT:          0  MISS:          0
L1I PREFETCH  ACCESS:          0  HIT:          0  MISS:          0
L1I WRITEBACK ACCESS:          0  HIT:          0  MISS:          0
L1I PREFETCH  REQUESTED:          0  ISSUED:          0  USEFUL:          0  USELESS:          0
L2C TOTAL     ACCESS:    1114022  HIT:    1110204  MISS:       3818
L2C LOAD      ACCESS:     321482  HIT:     318827  MISS:       2655
L2C RFO       ACCESS:     112231  HIT:     111572  MISS:        659
L2C PREFETCH  ACCESS:     511565  HIT:     511112  MISS:        453
L2C WRITEBACK ACCESS:     168744  HIT:     168693  MISS:         51
L2C PREFETCH  REQUESTED:    1875903  ISSUED:    1875903  USEFUL:      11107  USELESS:       1089
LLC TOTAL     ACCESS:      50707  HIT:      35895  MISS:      14812
LLC LOAD      ACCESS:       2642  HIT:        495  MISS:       2147
LLC RFO       ACCESS:        659  HIT:         74  MISS:        585
LLC PREFETCH  ACCESS:      46408  HIT:      35264  MISS:      11144
LLC WRITEBACK ACCESS:        998  HIT:         62  MISS:        936
LLC PREFETCH  REQUESTED:          0  ISSUED:          0  USEFUL:    6205479  USELESS:    5724096
Major fault: 0 Minor fault: 1507

CPU 7 cumulative IPC: 0.930267 instructions: 100000000 cycles: 107496059
L1D TOTAL     ACCESS:   21427492  HIT:   20334918  MISS:    1092574
L1D LOAD      ACCESS:   18179751  HIT:   17306121  MISS:     873630
L1D RFO       ACCESS:    3247741  HIT:    3028797  MISS:     218944
L1D PREFETCH  ACCESS:          0  HIT:          0  MISS:          0
L1D WRITEBACK ACCESS:          0  HIT:          0  MISS:          0
L1D PREFETCH  REQUESTED:          0  ISSUED:          0  USEFUL:          0  USELESS:          0
L1I TOTAL     ACCESS:   31139895  HIT:   31138171  MISS:       1724
L1I LOAD      ACCESS:   31139895  HIT:   31138171  MISS:       1724
L1I RFO       ACCESS:          0  HIT:          0  MISS:          0
L1I PREFETCH  ACCESS:          0  HIT:          0  MISS:          0
L1I WRITEBACK ACCESS:          0  HIT:          0  MISS:          0
L1I PREFETCH  REQUESTED:          0  ISSUED:          0  USEFUL:          0  USELESS:          0
L2C TOTAL     ACCESS:    3204720  HIT:    2422442  MISS:     782278
L2C LOAD      ACCESS:     875326  HIT:     523371  MISS:     351955
L2C RFO       ACCESS:     218943  HIT:      19521  MISS:     199422
L2C PREFETCH  ACCESS:    1708171  HIT:    1478411  MISS:     229760
L2C WRITEBACK ACCESS:     402280  HIT:     401139  MISS:       1141
L2C PREFETCH  REQUESTED:   48048313  ISSUED:   44104359  USEFUL:    2444164  USELESS:      30723
LLC TOTAL     ACCESS:    3208603  HIT:    2799678  MISS:     408925
LLC LOAD      ACCESS:     298871  HIT:     267485  MISS:      31386
LLC RFO       ACCESS:     199422  HIT:      62224  MISS:     137198
LLC PREFETCH  ACCESS:    2333794  HIT:    2094793  MISS:     239001
LLC WRITEBACK ACCESS:     376516  HIT:     375176  MISS:       1340
LLC PREFETCH  REQUESTED:          0  ISSUED:          0  USEFUL:    6205479  USELESS:    5724096
Major fault: 0 Minor fault: 10908

DRAM Statistics
 CHANNEL 0
 RQ ROW_BUFFER_HIT:    3402852  ROW_BUFFER_MISS:    8178138
 DBUS_CONGESTED:   27730707
 WQ ROW_BUFFER_HIT:     808060  ROW_BUFFER_MISS:    6586948  FULL:          0

 CHANNEL 1
 RQ ROW_BUFFER_HIT:    3390605  ROW_BUFFER_MISS:    8198335
 DBUS_CONGESTED:   27730707
 WQ ROW_BUFFER_HIT:     812936  ROW_BUFFER_MISS:    6583811  FULL:          0

 AVG_CONGESTED_CYCLE: 14
