Initialize SIGNATURE TABLE
ST_SET: 1
ST_WAY: 256
ST_TAG_BIT: 16
ST_TAG_MASK: ffff

Initialize PATTERN TABLE
PT_SET: 512
PT_WAY: 4
SIG_DELTA_BIT: 7
C_SIG_BIT: 4
C_DELTA_BIT: 4

Initialize PREFETCH FILTER
FILTER_SET: 1024

*** ChampSim Multicore Out-of-Order Simulator ***

Warmup Instructions: 20000000
Simulation Instructions: 100000000
Number of CPUs: 8
LLC sets: 16384
LLC ways: 16
Off-chip DRAM Size: 8192 MB Channels: 2 Width: 64-bit Data Rate: 1600 MT/s

CPU 0 runs /scratch/user/djimenez/champsim-traces/speccpu2017/xz/602.gcc_s/602.gcc_s-2375B.champsimtrace.xz
CPU 1 runs /scratch/user/djimenez/champsim-traces/speccpu2017/xz/602.gcc_s/602.gcc_s-734B.champsimtrace.xz
CPU 2 runs /scratch/user/djimenez/champsim-traces/speccpu2017/xz/648.exchange2_s/648.exchange2_s-584B.champsimtrace.xz
CPU 3 runs /scratch/user/djimenez/champsim-traces/speccpu2017/xz/628.pop2_s/628.pop2_s-17B.champsimtrace.xz
CPU 4 runs /scratch/user/djimenez/champsim-traces/speccpu2017/xz/641.leela_s/641.leela_s-1083B.champsimtrace.xz
CPU 5 runs /scratch/user/djimenez/champsim-traces/speccpu2017/xz/600.perlbench_s/600.perlbench_s-210B.champsimtrace.xz
CPU 6 runs /scratch/user/djimenez/champsim-traces/speccpu2017/xz/648.exchange2_s/648.exchange2_s-72B.champsimtrace.xz
CPU 7 runs /scratch/user/djimenez/champsim-traces/speccpu2017/xz/625.x264_s/625.x264_s-18B.champsimtrace.xz
Heartbeat CPU 7 instructions: 10000003 cycles: 3849373 heartbeat IPC: 2.59783 cumulative IPC: 2.59783 (Simulation time: 0 hr 2 min 55 sec) 
Heartbeat CPU 3 instructions: 10000002 cycles: 4121473 heartbeat IPC: 2.42632 cumulative IPC: 2.42632 (Simulation time: 0 hr 3 min 8 sec) 
Heartbeat CPU 6 instructions: 10000000 cycles: 4333684 heartbeat IPC: 2.30751 cumulative IPC: 2.30751 (Simulation time: 0 hr 3 min 17 sec) 
Heartbeat CPU 2 instructions: 10000001 cycles: 4404428 heartbeat IPC: 2.27044 cumulative IPC: 2.27044 (Simulation time: 0 hr 3 min 20 sec) 
Heartbeat CPU 1 instructions: 10000000 cycles: 5366651 heartbeat IPC: 1.86336 cumulative IPC: 1.86336 (Simulation time: 0 hr 4 min 5 sec) 
Heartbeat CPU 5 instructions: 10000002 cycles: 5617623 heartbeat IPC: 1.78011 cumulative IPC: 1.78011 (Simulation time: 0 hr 4 min 16 sec) 
Heartbeat CPU 4 instructions: 10000000 cycles: 6306941 heartbeat IPC: 1.58555 cumulative IPC: 1.58555 (Simulation time: 0 hr 4 min 48 sec) 
Heartbeat CPU 0 instructions: 10000002 cycles: 6789927 heartbeat IPC: 1.47277 cumulative IPC: 1.47277 (Simulation time: 0 hr 5 min 10 sec) 
Heartbeat CPU 7 instructions: 20000000 cycles: 7705430 heartbeat IPC: 2.59332 cumulative IPC: 2.59557 (Simulation time: 0 hr 5 min 52 sec) 
Heartbeat CPU 3 instructions: 20000000 cycles: 8234780 heartbeat IPC: 2.43113 cumulative IPC: 2.42872 (Simulation time: 0 hr 6 min 16 sec) 
Heartbeat CPU 6 instructions: 20000000 cycles: 8670870 heartbeat IPC: 2.30564 cumulative IPC: 2.30657 (Simulation time: 0 hr 6 min 36 sec) 
Heartbeat CPU 2 instructions: 20000000 cycles: 8824677 heartbeat IPC: 2.26232 cumulative IPC: 2.26637 (Simulation time: 0 hr 6 min 43 sec) 
Heartbeat CPU 1 instructions: 20000000 cycles: 10751702 heartbeat IPC: 1.85699 cumulative IPC: 1.86017 (Simulation time: 0 hr 8 min 13 sec) 
Heartbeat CPU 5 instructions: 20000000 cycles: 11504046 heartbeat IPC: 1.69882 cumulative IPC: 1.73852 (Simulation time: 0 hr 8 min 47 sec) 
Heartbeat CPU 7 instructions: 30000001 cycles: 11528794 heartbeat IPC: 2.6155 cumulative IPC: 0.867393 (Simulation time: 0 hr 8 min 49 sec) 
Heartbeat CPU 3 instructions: 30000002 cycles: 12346448 heartbeat IPC: 2.4321 cumulative IPC: 0.80995 (Simulation time: 0 hr 9 min 26 sec) 
Heartbeat CPU 4 instructions: 20000000 cycles: 12630296 heartbeat IPC: 1.58144 cumulative IPC: 1.58349 (Simulation time: 0 hr 9 min 39 sec) 
Heartbeat CPU 6 instructions: 30000000 cycles: 13001253 heartbeat IPC: 2.30926 cumulative IPC: 0.769157 (Simulation time: 0 hr 9 min 55 sec) 
Heartbeat CPU 2 instructions: 30000001 cycles: 13237153 heartbeat IPC: 2.2663 cumulative IPC: 0.75545 (Simulation time: 0 hr 10 min 5 sec) 
Heartbeat CPU 0 instructions: 20000000 cycles: 13338139 heartbeat IPC: 1.52713 cumulative IPC: 1.49946 (Simulation time: 0 hr 10 min 9 sec) 

Warmup complete CPU 0 instructions: 20000001 cycles: 13338140 (Simulation time: 0 hr 10 min 9 sec) 
Warmup complete CPU 1 instructions: 24828418 cycles: 13338139 (Simulation time: 0 hr 10 min 9 sec) 
Warmup complete CPU 2 instructions: 30229401 cycles: 13338139 (Simulation time: 0 hr 10 min 9 sec) 
Warmup complete CPU 3 instructions: 32412883 cycles: 13338139 (Simulation time: 0 hr 10 min 9 sec) 
Warmup complete CPU 4 instructions: 21109880 cycles: 13338139 (Simulation time: 0 hr 10 min 9 sec) 
Warmup complete CPU 5 instructions: 23122697 cycles: 13338139 (Simulation time: 0 hr 10 min 9 sec) 
Warmup complete CPU 6 instructions: 30776430 cycles: 13338139 (Simulation time: 0 hr 10 min 9 sec) 
Warmup complete CPU 7 instructions: 34744620 cycles: 13338139 (Simulation time: 0 hr 10 min 9 sec) 

Heartbeat CPU 7 instructions: 40000000 cycles: 17317472 heartbeat IPC: 1.72751 cumulative IPC: 1.32067 (Simulation time: 0 hr 11 min 55 sec) 
Heartbeat CPU 6 instructions: 40000000 cycles: 19265510 heartbeat IPC: 1.59636 cumulative IPC: 1.5561 (Simulation time: 0 hr 12 min 44 sec) 
Heartbeat CPU 3 instructions: 40000000 cycles: 19741699 heartbeat IPC: 1.35222 cumulative IPC: 1.18483 (Simulation time: 0 hr 12 min 56 sec) 
Heartbeat CPU 2 instructions: 40000000 cycles: 19787558 heartbeat IPC: 1.52662 cumulative IPC: 1.51496 (Simulation time: 0 hr 12 min 57 sec) 
Heartbeat CPU 5 instructions: 30000000 cycles: 23092669 heartbeat IPC: 0.862915 cumulative IPC: 0.705037 (Simulation time: 0 hr 14 min 20 sec) 
Heartbeat CPU 7 instructions: 50000000 cycles: 24886827 heartbeat IPC: 1.32112 cumulative IPC: 1.32096 (Simulation time: 0 hr 15 min 7 sec) 
Heartbeat CPU 1 instructions: 30000003 cycles: 25308695 heartbeat IPC: 0.686955 cumulative IPC: 0.432025 (Simulation time: 0 hr 15 min 18 sec) 
Heartbeat CPU 2 instructions: 50000003 cycles: 26366053 heartbeat IPC: 1.52011 cumulative IPC: 1.51756 (Simulation time: 0 hr 15 min 44 sec) 
Heartbeat CPU 6 instructions: 50000001 cycles: 26385388 heartbeat IPC: 1.40452 cumulative IPC: 1.47338 (Simulation time: 0 hr 15 min 45 sec) 
Heartbeat CPU 3 instructions: 50000001 cycles: 28090057 heartbeat IPC: 1.19784 cumulative IPC: 1.19219 (Simulation time: 0 hr 16 min 30 sec) 
Heartbeat CPU 7 instructions: 60000000 cycles: 32439903 heartbeat IPC: 1.32396 cumulative IPC: 1.32215 (Simulation time: 0 hr 18 min 27 sec) 
Heartbeat CPU 6 instructions: 60000000 cycles: 32900241 heartbeat IPC: 1.53495 cumulative IPC: 1.49389 (Simulation time: 0 hr 18 min 39 sec) 
Heartbeat CPU 2 instructions: 60000000 cycles: 32964063 heartbeat IPC: 1.51561 cumulative IPC: 1.5169 (Simulation time: 0 hr 18 min 41 sec) 
Heartbeat CPU 4 instructions: 30000002 cycles: 33859091 heartbeat IPC: 0.471058 cumulative IPC: 0.433222 (Simulation time: 0 hr 19 min 5 sec) 
Heartbeat CPU 5 instructions: 40000000 cycles: 36093927 heartbeat IPC: 0.769156 cumulative IPC: 0.741671 (Simulation time: 0 hr 20 min 5 sec) 
Heartbeat CPU 3 instructions: 60000000 cycles: 36422330 heartbeat IPC: 1.20015 cumulative IPC: 1.19507 (Simulation time: 0 hr 20 min 14 sec) 
Heartbeat CPU 6 instructions: 70000003 cycles: 39300504 heartbeat IPC: 1.56244 cumulative IPC: 1.51079 (Simulation time: 0 hr 21 min 32 sec) 
Heartbeat CPU 2 instructions: 70000002 cycles: 39472690 heartbeat IPC: 1.53642 cumulative IPC: 1.52176 (Simulation time: 0 hr 21 min 37 sec) 
Heartbeat CPU 7 instructions: 70000003 cycles: 40022563 heartbeat IPC: 1.3188 cumulative IPC: 1.3212 (Simulation time: 0 hr 21 min 52 sec) 
Heartbeat CPU 0 instructions: 30000001 cycles: 43553622 heartbeat IPC: 0.330956 cumulative IPC: 0.330956 (Simulation time: 0 hr 23 min 26 sec) 
Heartbeat CPU 3 instructions: 70000002 cycles: 44670671 heartbeat IPC: 1.21237 cumulative IPC: 1.19962 (Simulation time: 0 hr 23 min 56 sec) 
Heartbeat CPU 6 instructions: 80000000 cycles: 45816201 heartbeat IPC: 1.53475 cumulative IPC: 1.51559 (Simulation time: 0 hr 24 min 27 sec) 
Heartbeat CPU 2 instructions: 80000000 cycles: 45994769 heartbeat IPC: 1.53325 cumulative IPC: 1.52406 (Simulation time: 0 hr 24 min 32 sec) 
Heartbeat CPU 7 instructions: 80000000 cycles: 47604815 heartbeat IPC: 1.31887 cumulative IPC: 1.32068 (Simulation time: 0 hr 25 min 15 sec) 
Heartbeat CPU 1 instructions: 40000000 cycles: 48941564 heartbeat IPC: 0.423139 cumulative IPC: 0.426127 (Simulation time: 0 hr 25 min 50 sec) 
Heartbeat CPU 5 instructions: 50000001 cycles: 49729207 heartbeat IPC: 0.733392 cumulative IPC: 0.738569 (Simulation time: 0 hr 26 min 12 sec) 
Heartbeat CPU 3 instructions: 80000000 cycles: 51737759 heartbeat IPC: 1.41501 cumulative IPC: 1.23926 (Simulation time: 0 hr 27 min 4 sec) 
Heartbeat CPU 6 instructions: 90000002 cycles: 52259171 heartbeat IPC: 1.55208 cumulative IPC: 1.52163 (Simulation time: 0 hr 27 min 17 sec) 
Heartbeat CPU 2 instructions: 90000002 cycles: 53338128 heartbeat IPC: 1.36177 cumulative IPC: 1.49427 (Simulation time: 0 hr 27 min 46 sec) 
Heartbeat CPU 7 instructions: 90000001 cycles: 55212448 heartbeat IPC: 1.31447 cumulative IPC: 1.31955 (Simulation time: 0 hr 28 min 34 sec) 
Heartbeat CPU 4 instructions: 40000000 cycles: 56751379 heartbeat IPC: 0.436828 cumulative IPC: 0.435123 (Simulation time: 0 hr 29 min 13 sec) 
Heartbeat CPU 6 instructions: 100000000 cycles: 58683377 heartbeat IPC: 1.55661 cumulative IPC: 1.52659 (Simulation time: 0 hr 30 min 5 sec) 
Heartbeat CPU 2 instructions: 100000000 cycles: 60117364 heartbeat IPC: 1.47509 cumulative IPC: 1.49149 (Simulation time: 0 hr 30 min 42 sec) 
Heartbeat CPU 3 instructions: 90000002 cycles: 60663675 heartbeat IPC: 1.12033 cumulative IPC: 1.21683 (Simulation time: 0 hr 30 min 56 sec) 
Heartbeat CPU 7 instructions: 100000000 cycles: 62805588 heartbeat IPC: 1.31698 cumulative IPC: 1.31916 (Simulation time: 0 hr 31 min 52 sec) 
Heartbeat CPU 5 instructions: 60000000 cycles: 63299693 heartbeat IPC: 0.736893 cumulative IPC: 0.738114 (Simulation time: 0 hr 32 min 5 sec) 
Heartbeat CPU 6 instructions: 110000003 cycles: 65643710 heartbeat IPC: 1.43671 cumulative IPC: 1.51463 (Simulation time: 0 hr 33 min 10 sec) 
Heartbeat CPU 2 instructions: 110000000 cycles: 67079751 heartbeat IPC: 1.43629 cumulative IPC: 1.48434 (Simulation time: 0 hr 34 min 7 sec) 
Heartbeat CPU 3 instructions: 100000000 cycles: 68865442 heartbeat IPC: 1.21925 cumulative IPC: 1.21719 (Simulation time: 0 hr 35 min 8 sec) 
Heartbeat CPU 0 instructions: 40000000 cycles: 68939493 heartbeat IPC: 0.39392 cumulative IPC: 0.359703 (Simulation time: 0 hr 35 min 10 sec) 
Heartbeat CPU 7 instructions: 110000000 cycles: 70375321 heartbeat IPC: 1.32105 cumulative IPC: 1.31941 (Simulation time: 0 hr 35 min 56 sec) 
Heartbeat CPU 6 instructions: 120000000 cycles: 71872820 heartbeat IPC: 1.60537 cumulative IPC: 1.52429 (Simulation time: 0 hr 36 min 44 sec) 
Heartbeat CPU 1 instructions: 50000000 cycles: 72182526 heartbeat IPC: 0.430275 cumulative IPC: 0.427765 (Simulation time: 0 hr 36 min 54 sec) 
Heartbeat CPU 5 instructions: 70000001 cycles: 73104462 heartbeat IPC: 1.01991 cumulative IPC: 0.784343 (Simulation time: 0 hr 37 min 23 sec) 
Heartbeat CPU 2 instructions: 120000000 cycles: 73985452 heartbeat IPC: 1.44808 cumulative IPC: 1.48021 (Simulation time: 0 hr 37 min 54 sec) 
Heartbeat CPU 3 instructions: 110000001 cycles: 76279119 heartbeat IPC: 1.34886 cumulative IPC: 1.2327 (Simulation time: 0 hr 39 min 10 sec) 
Heartbeat CPU 7 instructions: 120000000 cycles: 77962448 heartbeat IPC: 1.31802 cumulative IPC: 1.31925 (Simulation time: 0 hr 40 min 6 sec) 
Heartbeat CPU 6 instructions: 130000002 cycles: 78026460 heartbeat IPC: 1.62505 cumulative IPC: 1.53387 (Simulation time: 0 hr 40 min 8 sec) 
Finished CPU 6 instructions: 100000000 cycles: 65178133 cumulative IPC: 1.53426 (Simulation time: 0 hr 40 min 22 sec) 
Heartbeat CPU 4 instructions: 50000001 cycles: 79666357 heartbeat IPC: 0.436396 cumulative IPC: 0.435563 (Simulation time: 0 hr 40 min 54 sec) 
Heartbeat CPU 2 instructions: 130000001 cycles: 80743553 heartbeat IPC: 1.47971 cumulative IPC: 1.48016 (Simulation time: 0 hr 41 min 24 sec) 
Finished CPU 2 instructions: 100000003 cycles: 67553113 cumulative IPC: 1.48032 (Simulation time: 0 hr 41 min 28 sec) 
Heartbeat CPU 5 instructions: 80000000 cycles: 83370705 heartbeat IPC: 0.974066 cumulative IPC: 0.812155 (Simulation time: 0 hr 42 min 33 sec) 
Heartbeat CPU 6 instructions: 140000000 cycles: 84321188 heartbeat IPC: 1.58863 cumulative IPC: 1.53873 (Simulation time: 0 hr 42 min 58 sec) 
Heartbeat CPU 3 instructions: 120000000 cycles: 84577354 heartbeat IPC: 1.20508 cumulative IPC: 1.22948 (Simulation time: 0 hr 43 min 5 sec) 
Heartbeat CPU 7 instructions: 130000001 cycles: 85536209 heartbeat IPC: 1.32035 cumulative IPC: 1.31936 (Simulation time: 0 hr 43 min 30 sec) 
Heartbeat CPU 2 instructions: 140000000 cycles: 87538024 heartbeat IPC: 1.47178 cumulative IPC: 1.47939 (Simulation time: 0 hr 44 min 21 sec) 
Finished CPU 7 instructions: 100000002 cycles: 76108195 cumulative IPC: 1.31392 (Simulation time: 0 hr 45 min 10 sec) 
Heartbeat CPU 0 instructions: 50000000 cycles: 90182312 heartbeat IPC: 0.470747 cumulative IPC: 0.3904 (Simulation time: 0 hr 45 min 28 sec) 
Heartbeat CPU 6 instructions: 150000000 cycles: 90427449 heartbeat IPC: 1.63766 cumulative IPC: 1.54656 (Simulation time: 0 hr 45 min 33 sec) 
Heartbeat CPU 3 instructions: 130000001 cycles: 93620444 heartbeat IPC: 1.10582 cumulative IPC: 1.21555 (Simulation time: 0 hr 46 min 49 sec) 
Heartbeat CPU 7 instructions: 140000000 cycles: 93809614 heartbeat IPC: 1.20869 cumulative IPC: 1.30798 (Simulation time: 0 hr 46 min 54 sec) 
Heartbeat CPU 2 instructions: 150000003 cycles: 94527844 heartbeat IPC: 1.43065 cumulative IPC: 1.47519 (Simulation time: 0 hr 47 min 10 sec) 
Heartbeat CPU 1 instructions: 60000000 cycles: 95527741 heartbeat IPC: 0.428353 cumulative IPC: 0.427932 (Simulation time: 0 hr 47 min 35 sec) 
Finished CPU 3 instructions: 100000003 cycles: 83212467 cumulative IPC: 1.20174 (Simulation time: 0 hr 47 min 59 sec) 
Heartbeat CPU 6 instructions: 160000000 cycles: 96794968 heartbeat IPC: 1.57047 cumulative IPC: 1.54839 (Simulation time: 0 hr 48 min 5 sec) 
Heartbeat CPU 5 instructions: 90000000 cycles: 96833408 heartbeat IPC: 0.742793 cumulative IPC: 0.800971 (Simulation time: 0 hr 48 min 6 sec) 
Heartbeat CPU 2 instructions: 160000000 cycles: 101400565 heartbeat IPC: 1.45503 cumulative IPC: 1.47362 (Simulation time: 0 hr 50 min 3 sec) 
Heartbeat CPU 7 instructions: 150000003 cycles: 101447538 heartbeat IPC: 1.30926 cumulative IPC: 1.30809 (Simulation time: 0 hr 50 min 4 sec) 
Heartbeat CPU 3 instructions: 140000000 cycles: 101735063 heartbeat IPC: 1.23234 cumulative IPC: 1.21709 (Simulation time: 0 hr 50 min 11 sec) 
Heartbeat CPU 4 instructions: 60000000 cycles: 102475115 heartbeat IPC: 0.438428 cumulative IPC: 0.436296 (Simulation time: 0 hr 50 min 29 sec) 
Heartbeat CPU 6 instructions: 170000003 cycles: 103094171 heartbeat IPC: 1.5875 cumulative IPC: 1.55113 (Simulation time: 0 hr 50 min 44 sec) 
Heartbeat CPU 2 instructions: 170000000 cycles: 108153395 heartbeat IPC: 1.48086 cumulative IPC: 1.47414 (Simulation time: 0 hr 52 min 55 sec) 
Heartbeat CPU 7 instructions: 160000000 cycles: 108308771 heartbeat IPC: 1.45746 cumulative IPC: 1.31889 (Simulation time: 0 hr 53 min 0 sec) 
Heartbeat CPU 3 instructions: 150000001 cycles: 108741342 heartbeat IPC: 1.42729 cumulative IPC: 1.23253 (Simulation time: 0 hr 53 min 11 sec) 
Heartbeat CPU 6 instructions: 180000000 cycles: 109251358 heartbeat IPC: 1.62412 cumulative IPC: 1.55582 (Simulation time: 0 hr 53 min 24 sec) 
Heartbeat CPU 0 instructions: 60000000 cycles: 109800001 heartbeat IPC: 0.509744 cumulative IPC: 0.414672 (Simulation time: 0 hr 53 min 38 sec) 
Heartbeat CPU 5 instructions: 100000000 cycles: 110836775 heartbeat IPC: 0.714114 cumulative IPC: 0.788496 (Simulation time: 0 hr 54 min 4 sec) 
Heartbeat CPU 2 instructions: 180000000 cycles: 115034574 heartbeat IPC: 1.45324 cumulative IPC: 1.47272 (Simulation time: 0 hr 55 min 53 sec) 
Heartbeat CPU 7 instructions: 170000001 cycles: 115339982 heartbeat IPC: 1.42223 cumulative IPC: 1.32601 (Simulation time: 0 hr 56 min 1 sec) 
Heartbeat CPU 6 instructions: 190000000 cycles: 115370349 heartbeat IPC: 1.63426 cumulative IPC: 1.56052 (Simulation time: 0 hr 56 min 2 sec) 
Heartbeat CPU 3 instructions: 160000000 cycles: 117245278 heartbeat IPC: 1.17593 cumulative IPC: 1.2279 (Simulation time: 0 hr 56 min 51 sec) 
Heartbeat CPU 1 instructions: 70000001 cycles: 119630040 heartbeat IPC: 0.414898 cumulative IPC: 0.424977 (Simulation time: 0 hr 57 min 53 sec) 
Heartbeat CPU 6 instructions: 200000000 cycles: 121802502 heartbeat IPC: 1.55469 cumulative IPC: 1.56018 (Simulation time: 0 hr 58 min 50 sec) 
Heartbeat CPU 2 instructions: 190000000 cycles: 122012556 heartbeat IPC: 1.43308 cumulative IPC: 1.47018 (Simulation time: 0 hr 58 min 55 sec) 
Heartbeat CPU 7 instructions: 180000000 cycles: 122152329 heartbeat IPC: 1.46792 cumulative IPC: 1.33489 (Simulation time: 0 hr 58 min 58 sec) 
Heartbeat CPU 5 instructions: 110000000 cycles: 122730667 heartbeat IPC: 0.840768 cumulative IPC: 0.794179 (Simulation time: 0 hr 59 min 13 sec) 
Heartbeat CPU 4 instructions: 70000000 cycles: 125461633 heartbeat IPC: 0.435038 cumulative IPC: 0.436038 (Simulation time: 1 hr 0 min 23 sec) 
Heartbeat CPU 3 instructions: 170000001 cycles: 126601686 heartbeat IPC: 1.06879 cumulative IPC: 1.21475 (Simulation time: 1 hr 0 min 52 sec) 
Heartbeat CPU 6 instructions: 210000001 cycles: 128187404 heartbeat IPC: 1.56619 cumulative IPC: 1.56051 (Simulation time: 1 hr 1 min 33 sec) 
Heartbeat CPU 2 instructions: 200000000 cycles: 128891506 heartbeat IPC: 1.45371 cumulative IPC: 1.4692 (Simulation time: 1 hr 1 min 52 sec) 
Heartbeat CPU 7 instructions: 190000000 cycles: 129052639 heartbeat IPC: 1.44921 cumulative IPC: 1.34171 (Simulation time: 1 hr 1 min 56 sec) 
Heartbeat CPU 6 instructions: 220000000 cycles: 134590602 heartbeat IPC: 1.56172 cumulative IPC: 1.56058 (Simulation time: 1 hr 4 min 23 sec) 
Heartbeat CPU 5 instructions: 120000000 cycles: 134890753 heartbeat IPC: 0.822363 cumulative IPC: 0.796999 (Simulation time: 1 hr 4 min 31 sec) 
Heartbeat CPU 2 instructions: 210000002 cycles: 135607973 heartbeat IPC: 1.48888 cumulative IPC: 1.47028 (Simulation time: 1 hr 4 min 50 sec) 
Heartbeat CPU 3 instructions: 180000000 cycles: 135891637 heartbeat IPC: 1.07643 cumulative IPC: 1.20427 (Simulation time: 1 hr 4 min 57 sec) 
Heartbeat CPU 7 instructions: 200000000 cycles: 136185152 heartbeat IPC: 1.40203 cumulative IPC: 1.34521 (Simulation time: 1 hr 5 min 4 sec) 
Heartbeat CPU 0 instructions: 70000000 cycles: 136851290 heartbeat IPC: 0.369668 cumulative IPC: 0.404815 (Simulation time: 1 hr 5 min 23 sec) 
Finished CPU 5 instructions: 100000001 cycles: 126032929 cumulative IPC: 0.793443 (Simulation time: 1 hr 6 min 32 sec) 
Heartbeat CPU 6 instructions: 230000003 cycles: 140978591 heartbeat IPC: 1.56544 cumulative IPC: 1.56082 (Simulation time: 1 hr 7 min 18 sec) 
Heartbeat CPU 2 instructions: 220000000 cycles: 142518452 heartbeat IPC: 1.44708 cumulative IPC: 1.46904 (Simulation time: 1 hr 8 min 4 sec) 
Heartbeat CPU 1 instructions: 80000000 cycles: 142933356 heartbeat IPC: 0.429123 cumulative IPC: 0.425722 (Simulation time: 1 hr 8 min 16 sec) 
Heartbeat CPU 7 instructions: 210000001 cycles: 142976267 heartbeat IPC: 1.47251 cumulative IPC: 1.35188 (Simulation time: 1 hr 8 min 18 sec) 
Heartbeat CPU 3 instructions: 190000002 cycles: 144398553 heartbeat IPC: 1.17551 cumulative IPC: 1.2024 (Simulation time: 1 hr 8 min 56 sec) 
Heartbeat CPU 6 instructions: 240000000 cycles: 147400235 heartbeat IPC: 1.55723 cumulative IPC: 1.56065 (Simulation time: 1 hr 10 min 27 sec) 
Heartbeat CPU 4 instructions: 80000000 cycles: 148156231 heartbeat IPC: 0.440634 cumulative IPC: 0.436812 (Simulation time: 1 hr 10 min 47 sec) 
Heartbeat CPU 2 instructions: 230000002 cycles: 149427876 heartbeat IPC: 1.4473 cumulative IPC: 1.46793 (Simulation time: 1 hr 11 min 26 sec) 
Heartbeat CPU 5 instructions: 130000003 cycles: 149595283 heartbeat IPC: 0.680063 cumulative IPC: 0.784379 (Simulation time: 1 hr 11 min 31 sec) 
Heartbeat CPU 7 instructions: 220000000 cycles: 149966587 heartbeat IPC: 1.43055 cumulative IPC: 1.35591 (Simulation time: 1 hr 11 min 45 sec) 
Heartbeat CPU 3 instructions: 200000000 cycles: 152910516 heartbeat IPC: 1.17482 cumulative IPC: 1.20072 (Simulation time: 1 hr 13 min 7 sec) 
Heartbeat CPU 6 instructions: 250000003 cycles: 153772034 heartbeat IPC: 1.56942 cumulative IPC: 1.56104 (Simulation time: 1 hr 13 min 32 sec) 
Heartbeat CPU 0 instructions: 80000000 cycles: 156072159 heartbeat IPC: 0.520268 cumulative IPC: 0.420362 (Simulation time: 1 hr 14 min 32 sec) 
Heartbeat CPU 7 instructions: 230000000 cycles: 156937608 heartbeat IPC: 1.43451 cumulative IPC: 1.35972 (Simulation time: 1 hr 14 min 53 sec) 
Heartbeat CPU 2 instructions: 240000000 cycles: 157066772 heartbeat IPC: 1.30909 cumulative IPC: 1.45949 (Simulation time: 1 hr 14 min 57 sec) 
Heartbeat CPU 6 instructions: 260000000 cycles: 160182249 heartbeat IPC: 1.56001 cumulative IPC: 1.561 (Simulation time: 1 hr 16 min 17 sec) 
Heartbeat CPU 3 instructions: 210000001 cycles: 161425320 heartbeat IPC: 1.17443 cumulative IPC: 1.19921 (Simulation time: 1 hr 16 min 49 sec) 
Heartbeat CPU 2 instructions: 250000003 cycles: 163590558 heartbeat IPC: 1.53285 cumulative IPC: 1.46268 (Simulation time: 1 hr 17 min 42 sec) 
Heartbeat CPU 5 instructions: 140000000 cycles: 163809948 heartbeat IPC: 0.703499 cumulative IPC: 0.776739 (Simulation time: 1 hr 17 min 47 sec) 
Heartbeat CPU 7 instructions: 240000000 cycles: 163836123 heartbeat IPC: 1.44959 cumulative IPC: 1.36384 (Simulation time: 1 hr 17 min 48 sec) 
Heartbeat CPU 1 instructions: 90000003 cycles: 166422802 heartbeat IPC: 0.425723 cumulative IPC: 0.425723 (Simulation time: 1 hr 18 min 52 sec) 
Heartbeat CPU 6 instructions: 270000000 cycles: 166555797 heartbeat IPC: 1.56898 cumulative IPC: 1.56133 (Simulation time: 1 hr 18 min 55 sec) 
Heartbeat CPU 3 instructions: 220000000 cycles: 169933458 heartbeat IPC: 1.17535 cumulative IPC: 1.19791 (Simulation time: 1 hr 20 min 17 sec) 
Heartbeat CPU 2 instructions: 260000000 cycles: 169974677 heartbeat IPC: 1.56639 cumulative IPC: 1.4669 (Simulation time: 1 hr 20 min 18 sec) 
Heartbeat CPU 7 instructions: 250000001 cycles: 170871618 heartbeat IPC: 1.42136 cumulative IPC: 1.36641 (Simulation time: 1 hr 20 min 40 sec) 
Heartbeat CPU 4 instructions: 90000001 cycles: 171424162 heartbeat IPC: 0.429776 cumulative IPC: 0.435776 (Simulation time: 1 hr 20 min 54 sec) 
Heartbeat CPU 6 instructions: 280000000 cycles: 173068469 heartbeat IPC: 1.53547 cumulative IPC: 1.56028 (Simulation time: 1 hr 21 min 34 sec) 
Heartbeat CPU 0 instructions: 90000003 cycles: 173374057 heartbeat IPC: 0.577971 cumulative IPC: 0.437402 (Simulation time: 1 hr 21 min 41 sec) 
Heartbeat CPU 2 instructions: 270000002 cycles: 176264918 heartbeat IPC: 1.58976 cumulative IPC: 1.47165 (Simulation time: 1 hr 22 min 50 sec) 
Heartbeat CPU 5 instructions: 150000002 cycles: 176705159 heartbeat IPC: 0.775482 cumulative IPC: 0.77664 (Simulation time: 1 hr 23 min 0 sec) 
Heartbeat CPU 7 instructions: 260000000 cycles: 177725714 heartbeat IPC: 1.45898 cumulative IPC: 1.37027 (Simulation time: 1 hr 23 min 24 sec) 
Heartbeat CPU 3 instructions: 230000003 cycles: 178466031 heartbeat IPC: 1.17198 cumulative IPC: 1.19657 (Simulation time: 1 hr 23 min 41 sec) 
Heartbeat CPU 6 instructions: 290000003 cycles: 179549765 heartbeat IPC: 1.5429 cumulative IPC: 1.5596 (Simulation time: 1 hr 24 min 7 sec) 
Heartbeat CPU 2 instructions: 280000000 cycles: 183271452 heartbeat IPC: 1.42724 cumulative IPC: 1.46982 (Simulation time: 1 hr 25 min 36 sec) 
Heartbeat CPU 7 instructions: 270000000 cycles: 184581947 heartbeat IPC: 1.45853 cumulative IPC: 1.3738 (Simulation time: 1 hr 26 min 7 sec) 
Heartbeat CPU 6 instructions: 300000000 cycles: 186019421 heartbeat IPC: 1.54568 cumulative IPC: 1.55908 (Simulation time: 1 hr 26 min 40 sec) 
Heartbeat CPU 3 instructions: 240000000 cycles: 186944258 heartbeat IPC: 1.17949 cumulative IPC: 1.19574 (Simulation time: 1 hr 27 min 2 sec) 
Heartbeat CPU 5 instructions: 160000000 cycles: 188344537 heartbeat IPC: 0.859152 cumulative IPC: 0.782127 (Simulation time: 1 hr 27 min 37 sec) 
Heartbeat CPU 2 instructions: 290000001 cycles: 190184688 heartbeat IPC: 1.4465 cumulative IPC: 1.4689 (Simulation time: 1 hr 28 min 23 sec) 
Heartbeat CPU 7 instructions: 280000000 cycles: 191584229 heartbeat IPC: 1.42811 cumulative IPC: 1.37594 (Simulation time: 1 hr 28 min 58 sec) 
Heartbeat CPU 6 instructions: 310000000 cycles: 192416456 heartbeat IPC: 1.56322 cumulative IPC: 1.55923 (Simulation time: 1 hr 29 min 18 sec) 
Heartbeat CPU 4 instructions: 100000000 cycles: 194481669 heartbeat IPC: 0.433698 cumulative IPC: 0.435512 (Simulation time: 1 hr 30 min 9 sec) 
Heartbeat CPU 3 instructions: 250000003 cycles: 195209928 heartbeat IPC: 1.20982 cumulative IPC: 1.19638 (Simulation time: 1 hr 30 min 28 sec) 
Heartbeat CPU 1 instructions: 100000000 cycles: 195904467 heartbeat IPC: 0.339194 cumulative IPC: 0.411749 (Simulation time: 1 hr 30 min 45 sec) 
Heartbeat CPU 2 instructions: 300000000 cycles: 197265135 heartbeat IPC: 1.41234 cumulative IPC: 1.46673 (Simulation time: 1 hr 31 min 19 sec) 
Heartbeat CPU 7 instructions: 290000001 cycles: 198431358 heartbeat IPC: 1.46047 cumulative IPC: 1.37906 (Simulation time: 1 hr 31 min 48 sec) 
Heartbeat CPU 6 instructions: 320000000 cycles: 198774346 heartbeat IPC: 1.57285 cumulative IPC: 1.55969 (Simulation time: 1 hr 31 min 56 sec) 
Heartbeat CPU 0 instructions: 100000000 cycles: 199036726 heartbeat IPC: 0.389671 cumulative IPC: 0.430806 (Simulation time: 1 hr 32 min 3 sec) 
Heartbeat CPU 5 instructions: 170000001 cycles: 201925129 heartbeat IPC: 0.736345 cumulative IPC: 0.778831 (Simulation time: 1 hr 33 min 13 sec) 
Heartbeat CPU 3 instructions: 260000000 cycles: 202535964 heartbeat IPC: 1.36499 cumulative IPC: 1.20291 (Simulation time: 1 hr 33 min 28 sec) 
Heartbeat CPU 2 instructions: 310000003 cycles: 203580320 heartbeat IPC: 1.58349 cumulative IPC: 1.4706 (Simulation time: 1 hr 33 min 54 sec) 
Heartbeat CPU 6 instructions: 330000002 cycles: 205050896 heartbeat IPC: 1.59323 cumulative IPC: 1.56079 (Simulation time: 1 hr 34 min 30 sec) 
Heartbeat CPU 7 instructions: 300000000 cycles: 205218735 heartbeat IPC: 1.47332 cumulative IPC: 1.3824 (Simulation time: 1 hr 34 min 34 sec) 
Heartbeat CPU 2 instructions: 320000000 cycles: 210023250 heartbeat IPC: 1.55209 cumulative IPC: 1.47327 (Simulation time: 1 hr 36 min 32 sec) 
Heartbeat CPU 6 instructions: 340000000 cycles: 211135489 heartbeat IPC: 1.64349 cumulative IPC: 1.56334 (Simulation time: 1 hr 36 min 59 sec) 
Heartbeat CPU 3 instructions: 270000001 cycles: 211991853 heartbeat IPC: 1.05754 cumulative IPC: 1.19599 (Simulation time: 1 hr 37 min 20 sec) 
Heartbeat CPU 7 instructions: 310000000 cycles: 212257064 heartbeat IPC: 1.42079 cumulative IPC: 1.38376 (Simulation time: 1 hr 37 min 26 sec) 
Heartbeat CPU 5 instructions: 180000000 cycles: 213866711 heartbeat IPC: 0.83741 cumulative IPC: 0.782319 (Simulation time: 1 hr 38 min 8 sec) 
Heartbeat CPU 2 instructions: 330000003 cycles: 216381277 heartbeat IPC: 1.57282 cumulative IPC: 1.47639 (Simulation time: 1 hr 39 min 8 sec) 
Heartbeat CPU 4 instructions: 110000001 cycles: 217068463 heartbeat IPC: 0.442737 cumulative IPC: 0.436313 (Simulation time: 1 hr 39 min 27 sec) 
Heartbeat CPU 6 instructions: 350000003 cycles: 217141044 heartbeat IPC: 1.66513 cumulative IPC: 1.56633 (Simulation time: 1 hr 39 min 29 sec) 
Heartbeat CPU 7 instructions: 320000000 cycles: 219061584 heartbeat IPC: 1.46961 cumulative IPC: 1.3866 (Simulation time: 1 hr 40 min 18 sec) 
Heartbeat CPU 1 instructions: 110000002 cycles: 219106316 heartbeat IPC: 0.431 cumulative IPC: 0.41392 (Simulation time: 1 hr 40 min 20 sec) 
Heartbeat CPU 3 instructions: 280000000 cycles: 220288847 heartbeat IPC: 1.20526 cumulative IPC: 1.19636 (Simulation time: 1 hr 40 min 50 sec) 
Heartbeat CPU 2 instructions: 340000000 cycles: 222790452 heartbeat IPC: 1.56026 cumulative IPC: 1.47896 (Simulation time: 1 hr 41 min 53 sec) 
Heartbeat CPU 6 instructions: 360000000 cycles: 223143246 heartbeat IPC: 1.66605 cumulative IPC: 1.56919 (Simulation time: 1 hr 42 min 2 sec) 
Heartbeat CPU 7 instructions: 330000000 cycles: 225847538 heartbeat IPC: 1.47363 cumulative IPC: 1.38938 (Simulation time: 1 hr 43 min 12 sec) 
Heartbeat CPU 5 instructions: 190000003 cycles: 225979388 heartbeat IPC: 0.825582 cumulative IPC: 0.784783 (Simulation time: 1 hr 43 min 15 sec) 
Heartbeat CPU 0 instructions: 110000000 cycles: 225992273 heartbeat IPC: 0.370981 cumulative IPC: 0.423222 (Simulation time: 1 hr 43 min 16 sec) 
Heartbeat CPU 3 instructions: 290000000 cycles: 227843199 heartbeat IPC: 1.32374 cumulative IPC: 1.20084 (Simulation time: 1 hr 44 min 3 sec) 
Heartbeat CPU 2 instructions: 350000000 cycles: 229086325 heartbeat IPC: 1.58834 cumulative IPC: 1.48215 (Simulation time: 1 hr 44 min 33 sec) 
Heartbeat CPU 6 instructions: 370000000 cycles: 229248737 heartbeat IPC: 1.63787 cumulative IPC: 1.57113 (Simulation time: 1 hr 44 min 37 sec) 
Heartbeat CPU 7 instructions: 340000000 cycles: 232615792 heartbeat IPC: 1.47749 cumulative IPC: 1.3921 (Simulation time: 1 hr 45 min 59 sec) 
Heartbeat CPU 6 instructions: 380000000 cycles: 235338465 heartbeat IPC: 1.64211 cumulative IPC: 1.57308 (Simulation time: 1 hr 47 min 0 sec) 
Heartbeat CPU 2 instructions: 360000000 cycles: 236044564 heartbeat IPC: 1.43715 cumulative IPC: 1.48074 (Simulation time: 1 hr 47 min 16 sec) 
Heartbeat CPU 3 instructions: 300000000 cycles: 236376155 heartbeat IPC: 1.17193 cumulative IPC: 1.19974 (Simulation time: 1 hr 47 min 23 sec) 
Heartbeat CPU 7 instructions: 350000003 cycles: 239403623 heartbeat IPC: 1.47323 cumulative IPC: 1.39453 (Simulation time: 1 hr 48 min 40 sec) 
Heartbeat CPU 4 instructions: 120000000 cycles: 239651561 heartbeat IPC: 0.442809 cumulative IPC: 0.436961 (Simulation time: 1 hr 48 min 46 sec) 
Heartbeat CPU 5 instructions: 200000000 cycles: 241289042 heartbeat IPC: 0.653182 cumulative IPC: 0.775945 (Simulation time: 1 hr 49 min 30 sec) 
Heartbeat CPU 6 instructions: 390000002 cycles: 241302284 heartbeat IPC: 1.67678 cumulative IPC: 1.57579 (Simulation time: 1 hr 49 min 30 sec) 
Finished CPU 4 instructions: 100000001 cycles: 228891893 cumulative IPC: 0.436887 (Simulation time: 1 hr 49 min 53 sec) 
Heartbeat CPU 2 instructions: 370000003 cycles: 242422228 heartbeat IPC: 1.56797 cumulative IPC: 1.48317 (Simulation time: 1 hr 49 min 58 sec) 
Heartbeat CPU 1 instructions: 120000000 cycles: 242603772 heartbeat IPC: 0.425578 cumulative IPC: 0.415115 (Simulation time: 1 hr 50 min 2 sec) 
Heartbeat CPU 3 instructions: 310000000 cycles: 245763901 heartbeat IPC: 1.06522 cumulative IPC: 1.1943 (Simulation time: 1 hr 51 min 19 sec) 
Heartbeat CPU 7 instructions: 360000000 cycles: 246196519 heartbeat IPC: 1.47213 cumulative IPC: 1.39679 (Simulation time: 1 hr 51 min 29 sec) 
Heartbeat CPU 6 instructions: 400000000 cycles: 247535705 heartbeat IPC: 1.60426 cumulative IPC: 1.57655 (Simulation time: 1 hr 52 min 0 sec) 
Heartbeat CPU 2 instructions: 380000000 cycles: 248766872 heartbeat IPC: 1.57613 cumulative IPC: 1.48568 (Simulation time: 1 hr 52 min 29 sec) 
Heartbeat CPU 7 instructions: 370000000 cycles: 252974358 heartbeat IPC: 1.4754 cumulative IPC: 1.39902 (Simulation time: 1 hr 54 min 8 sec) 
Heartbeat CPU 6 instructions: 410000002 cycles: 253770183 heartbeat IPC: 1.60398 cumulative IPC: 1.57726 (Simulation time: 1 hr 54 min 27 sec) 
Finished CPU 1 instructions: 100000001 cycles: 240683447 cumulative IPC: 0.415484 (Simulation time: 1 hr 54 min 33 sec) 
Heartbeat CPU 3 instructions: 320000000 cycles: 254106213 heartbeat IPC: 1.19871 cumulative IPC: 1.19446 (Simulation time: 1 hr 54 min 35 sec) 
Heartbeat CPU 2 instructions: 390000000 cycles: 255183529 heartbeat IPC: 1.55844 cumulative IPC: 1.48761 (Simulation time: 1 hr 55 min 1 sec) 
Heartbeat CPU 5 instructions: 210000000 cycles: 256096869 heartbeat IPC: 0.675319 cumulative IPC: 0.769807 (Simulation time: 1 hr 55 min 22 sec) 
Heartbeat CPU 0 instructions: 120000000 cycles: 256760759 heartbeat IPC: 0.325008 cumulative IPC: 0.410808 (Simulation time: 1 hr 55 min 37 sec) 
Finished CPU 0 instructions: 100000001 cycles: 243422627 cumulative IPC: 0.410808 (Simulation time: 1 hr 55 min 37 sec) 

CPU 0 Branch Prediction Accuracy: 93.5438% MPKI: 11.6908

CPU 1 Branch Prediction Accuracy: 99.851% MPKI: 0.305969

CPU 2 Branch Prediction Accuracy: 96.7032% MPKI: 4.52545

CPU 3 Branch Prediction Accuracy: 97.794% MPKI: 3.1245

CPU 4 Branch Prediction Accuracy: 84.8462% MPKI: 16.2775

CPU 5 Branch Prediction Accuracy: 98.5987% MPKI: 1.74065

CPU 6 Branch Prediction Accuracy: 96.871% MPKI: 4.18859

CPU 7 Branch Prediction Accuracy: 96.7242% MPKI: 1.23215

ChampSim completed all CPUs

Total Simulation Statistics (not including warmup)

CPU 0 cumulative IPC: 0.410808 instructions: 100000001 cycles: 243422627
L1D TOTAL     ACCESS:   31692050  HIT:   30718597  MISS:     973453
L1D LOAD      ACCESS:   19641369  HIT:   18771657  MISS:     869712
L1D RFO       ACCESS:   12050681  HIT:   11946940  MISS:     103741
L1D PREFETCH  ACCESS:          0  HIT:          0  MISS:          0
L1D WRITEBACK ACCESS:          0  HIT:          0  MISS:          0
L1I TOTAL     ACCESS:   26990337  HIT:   26619683  MISS:     370654
L1I LOAD      ACCESS:   26990337  HIT:   26619683  MISS:     370654
L1I RFO       ACCESS:          0  HIT:          0  MISS:          0
L1I PREFETCH  ACCESS:          0  HIT:          0  MISS:          0
L1I WRITEBACK ACCESS:          0  HIT:          0  MISS:          0
L2C TOTAL     ACCESS:    2573932  HIT:    2025225  MISS:     548707
L2C LOAD      ACCESS:    1240359  HIT:     806155  MISS:     434204
L2C RFO       ACCESS:     103735  HIT:      30381  MISS:      73354
L2C PREFETCH  ACCESS:     995052  HIT:     955644  MISS:      39408
L2C WRITEBACK ACCESS:     234786  HIT:     233045  MISS:       1741
LLC TOTAL     ACCESS:    1623269  HIT:    1477731  MISS:     145538
LLC LOAD      ACCESS:     430602  HIT:     397201  MISS:      33401
LLC RFO       ACCESS:      73341  HIT:      34645  MISS:      38696
LLC PREFETCH  ACCESS:     971320  HIT:     898092  MISS:      73228
LLC WRITEBACK ACCESS:     148006  HIT:     147793  MISS:        213

CPU 1 cumulative IPC: 0.414497 instructions: 100897855 cycles: 243422628
L1D TOTAL     ACCESS:   31846032  HIT:   30083586  MISS:    1762446
L1D LOAD      ACCESS:   20784983  HIT:   19025293  MISS:    1759690
L1D RFO       ACCESS:   11061049  HIT:   11058293  MISS:       2756
L1D PREFETCH  ACCESS:          0  HIT:          0  MISS:          0
L1D WRITEBACK ACCESS:          0  HIT:          0  MISS:          0
L1I TOTAL     ACCESS:   39332581  HIT:   39332492  MISS:         89
L1I LOAD      ACCESS:   39332581  HIT:   39332492  MISS:         89
L1I RFO       ACCESS:          0  HIT:          0  MISS:          0
L1I PREFETCH  ACCESS:          0  HIT:          0  MISS:          0
L1I WRITEBACK ACCESS:          0  HIT:          0  MISS:          0
L2C TOTAL     ACCESS:    6601769  HIT:    5632073  MISS:     969696
L2C LOAD      ACCESS:    1759779  HIT:    1233310  MISS:     526469
L2C RFO       ACCESS:       2756  HIT:        369  MISS:       2387
L2C PREFETCH  ACCESS:    4819592  HIT:    4378805  MISS:     440787
L2C WRITEBACK ACCESS:      19642  HIT:      19589  MISS:         53
LLC TOTAL     ACCESS:    5749536  HIT:    4763413  MISS:     986123
LLC LOAD      ACCESS:     491831  HIT:     437632  MISS:      54199
LLC RFO       ACCESS:       2387  HIT:        268  MISS:       2119
LLC PREFETCH  ACCESS:    5244351  HIT:    4316527  MISS:     927824
LLC WRITEBACK ACCESS:      10967  HIT:       8986  MISS:       1981

CPU 2 cumulative IPC: 1.48815 instructions: 362250485 cycles: 243422628
L1D TOTAL     ACCESS:  100700444  HIT:  100700427  MISS:         17
L1D LOAD      ACCESS:   43736672  HIT:   43736667  MISS:          5
L1D RFO       ACCESS:   56963772  HIT:   56963760  MISS:         12
L1D PREFETCH  ACCESS:          0  HIT:          0  MISS:          0
L1D WRITEBACK ACCESS:          0  HIT:          0  MISS:          0
L1I TOTAL     ACCESS:   79160711  HIT:   79152399  MISS:       8312
L1I LOAD      ACCESS:   79160711  HIT:   79152399  MISS:       8312
L1I RFO       ACCESS:          0  HIT:          0  MISS:          0
L1I PREFETCH  ACCESS:          0  HIT:          0  MISS:          0
L1I WRITEBACK ACCESS:          0  HIT:          0  MISS:          0
L2C TOTAL     ACCESS:      26504  HIT:      26436  MISS:         68
L2C LOAD      ACCESS:       8317  HIT:       8272  MISS:         45
L2C RFO       ACCESS:         12  HIT:          0  MISS:         12
L2C PREFETCH  ACCESS:      18175  HIT:      18164  MISS:         11
L2C WRITEBACK ACCESS:          0  HIT:          0  MISS:          0
LLC TOTAL     ACCESS:       1207  HIT:        751  MISS:        456
LLC LOAD      ACCESS:         44  HIT:         21  MISS:         23
LLC RFO       ACCESS:         12  HIT:          0  MISS:         12
LLC PREFETCH  ACCESS:       1151  HIT:        730  MISS:        421
LLC WRITEBACK ACCESS:          0  HIT:          0  MISS:          0

CPU 3 cumulative IPC: 1.19717 instructions: 291419456 cycles: 243422628
L1D TOTAL     ACCESS:   52857123  HIT:   47943988  MISS:    4913135
L1D LOAD      ACCESS:   37690080  HIT:   34510830  MISS:    3179250
L1D RFO       ACCESS:   15167043  HIT:   13433158  MISS:    1733885
L1D PREFETCH  ACCESS:          0  HIT:          0  MISS:          0
L1D WRITEBACK ACCESS:          0  HIT:          0  MISS:          0
L1I TOTAL     ACCESS:   69950227  HIT:   69812980  MISS:     137247
L1I LOAD      ACCESS:   69950227  HIT:   69812980  MISS:     137247
L1I RFO       ACCESS:          0  HIT:          0  MISS:          0
L1I PREFETCH  ACCESS:          0  HIT:          0  MISS:          0
L1I WRITEBACK ACCESS:          0  HIT:          0  MISS:          0
L2C TOTAL     ACCESS:   13838112  HIT:   11542659  MISS:    2295453
L2C LOAD      ACCESS:    3316317  HIT:    2276446  MISS:    1039871
L2C RFO       ACCESS:    1733806  HIT:     928373  MISS:     805433
L2C PREFETCH  ACCESS:    6609573  HIT:    6160804  MISS:     448769
L2C WRITEBACK ACCESS:    2178416  HIT:    2177036  MISS:       1380
LLC TOTAL     ACCESS:    8432540  HIT:    7593230  MISS:     839310
LLC LOAD      ACCESS:     948320  HIT:     909330  MISS:      38990
LLC RFO       ACCESS:     805431  HIT:     421018  MISS:     384413
LLC PREFETCH  ACCESS:    5574663  HIT:    5158785  MISS:     415878
LLC WRITEBACK ACCESS:    1104126  HIT:    1104097  MISS:         29

CPU 4 cumulative IPC: 0.436968 instructions: 106367903 cycles: 243422628
L1D TOTAL     ACCESS:   34963197  HIT:   34620669  MISS:     342528
L1D LOAD      ACCESS:   22837064  HIT:   22536435  MISS:     300629
L1D RFO       ACCESS:   12126133  HIT:   12084234  MISS:      41899
L1D PREFETCH  ACCESS:          0  HIT:          0  MISS:          0
L1D WRITEBACK ACCESS:          0  HIT:          0  MISS:          0
L1I TOTAL     ACCESS:   24367209  HIT:   24360420  MISS:       6789
L1I LOAD      ACCESS:   24367209  HIT:   24360420  MISS:       6789
L1I RFO       ACCESS:          0  HIT:          0  MISS:          0
L1I PREFETCH  ACCESS:          0  HIT:          0  MISS:          0
L1I WRITEBACK ACCESS:          0  HIT:          0  MISS:          0
L2C TOTAL     ACCESS:     896275  HIT:     882115  MISS:      14160
L2C LOAD      ACCESS:     307416  HIT:     296197  MISS:      11219
L2C RFO       ACCESS:      41899  HIT:      41009  MISS:        890
L2C PREFETCH  ACCESS:     472048  HIT:     470042  MISS:       2006
L2C WRITEBACK ACCESS:      74912  HIT:      74867  MISS:         45
LLC TOTAL     ACCESS:      97536  HIT:      78243  MISS:      19293
LLC LOAD      ACCESS:      10432  HIT:       6518  MISS:       3914
LLC RFO       ACCESS:        890  HIT:        260  MISS:        630
LLC PREFETCH  ACCESS:      83947  HIT:      70578  MISS:      13369
LLC WRITEBACK ACCESS:       2267  HIT:        887  MISS:       1380

CPU 5 cumulative IPC: 0.769691 instructions: 187360134 cycles: 243422628
L1D TOTAL     ACCESS:   70626572  HIT:   70595907  MISS:      30665
L1D LOAD      ACCESS:   29742251  HIT:   29713072  MISS:      29179
L1D RFO       ACCESS:   40884321  HIT:   40882835  MISS:       1486
L1D PREFETCH  ACCESS:          0  HIT:          0  MISS:          0
L1D WRITEBACK ACCESS:          0  HIT:          0  MISS:          0
L1I TOTAL     ACCESS:   50640792  HIT:   50635807  MISS:       4985
L1I LOAD      ACCESS:   50640792  HIT:   50635807  MISS:       4985
L1I RFO       ACCESS:          0  HIT:          0  MISS:          0
L1I PREFETCH  ACCESS:          0  HIT:          0  MISS:          0
L1I WRITEBACK ACCESS:          0  HIT:          0  MISS:          0
L2C TOTAL     ACCESS:      82154  HIT:      72393  MISS:       9761
L2C LOAD      ACCESS:      34154  HIT:      25479  MISS:       8675
L2C RFO       ACCESS:       1486  HIT:        591  MISS:        895
L2C PREFETCH  ACCESS:      41503  HIT:      41344  MISS:        159
L2C WRITEBACK ACCESS:       5011  HIT:       4979  MISS:         32
LLC TOTAL     ACCESS:      30743  HIT:      13796  MISS:      16947
LLC LOAD      ACCESS:       8670  HIT:       2083  MISS:       6587
LLC RFO       ACCESS:        895  HIT:         11  MISS:        884
LLC PREFETCH  ACCESS:      19889  HIT:      11636  MISS:       8253
LLC WRITEBACK ACCESS:       1289  HIT:         66  MISS:       1223

CPU 6 cumulative IPC: 1.57752 instructions: 384003988 cycles: 243422628
L1D TOTAL     ACCESS:  106671045  HIT:  106670956  MISS:         89
L1D LOAD      ACCESS:   45801213  HIT:   45801179  MISS:         34
L1D RFO       ACCESS:   60869832  HIT:   60869777  MISS:         55
L1D PREFETCH  ACCESS:          0  HIT:          0  MISS:          0
L1D WRITEBACK ACCESS:          0  HIT:          0  MISS:          0
L1I TOTAL     ACCESS:   83354667  HIT:   83352320  MISS:       2347
L1I LOAD      ACCESS:   83354667  HIT:   83352320  MISS:       2347
L1I RFO       ACCESS:          0  HIT:          0  MISS:          0
L1I PREFETCH  ACCESS:          0  HIT:          0  MISS:          0
L1I WRITEBACK ACCESS:          0  HIT:          0  MISS:          0
L2C TOTAL     ACCESS:       6029  HIT:       4999  MISS:       1030
L2C LOAD      ACCESS:       2381  HIT:       1543  MISS:        838
L2C RFO       ACCESS:         55  HIT:          1  MISS:         54
L2C PREFETCH  ACCESS:       3593  HIT:       3455  MISS:        138
L2C WRITEBACK ACCESS:          0  HIT:          0  MISS:          0
LLC TOTAL     ACCESS:       2803  HIT:       1533  MISS:       1270
LLC LOAD      ACCESS:        822  HIT:        515  MISS:        307
LLC RFO       ACCESS:         54  HIT:          1  MISS:         53
LLC PREFETCH  ACCESS:       1927  HIT:       1017  MISS:        910
LLC WRITEBACK ACCESS:          0  HIT:          0  MISS:          0

CPU 7 cumulative IPC: 1.4 instructions: 340790557 cycles: 243422628
L1D TOTAL     ACCESS:   53623448  HIT:   53039331  MISS:     584117
L1D LOAD      ACCESS:   31401679  HIT:   31002490  MISS:     399189
L1D RFO       ACCESS:   22221769  HIT:   22036841  MISS:     184928
L1D PREFETCH  ACCESS:          0  HIT:          0  MISS:          0
L1D WRITEBACK ACCESS:          0  HIT:          0  MISS:          0
L1I TOTAL     ACCESS:   78818470  HIT:   77332972  MISS:    1485498
L1I LOAD      ACCESS:   78818470  HIT:   77332972  MISS:    1485498
L1I RFO       ACCESS:          0  HIT:          0  MISS:          0
L1I PREFETCH  ACCESS:          0  HIT:          0  MISS:          0
L1I WRITEBACK ACCESS:          0  HIT:          0  MISS:          0
L2C TOTAL     ACCESS:    4535503  HIT:    4278799  MISS:     256704
L2C LOAD      ACCESS:    1884680  HIT:    1729321  MISS:     155359
L2C RFO       ACCESS:     184411  HIT:     105386  MISS:      79025
L2C PREFETCH  ACCESS:    2249160  HIT:    2228704  MISS:      20456
L2C WRITEBACK ACCESS:     217252  HIT:     215388  MISS:       1864
LLC TOTAL     ACCESS:    1163070  HIT:     954159  MISS:     208911
LLC LOAD      ACCESS:     154617  HIT:     101426  MISS:      53191
LLC RFO       ACCESS:      79022  HIT:       6593  MISS:      72429
LLC PREFETCH  ACCESS:     844162  HIT:     761210  MISS:      82952
LLC WRITEBACK ACCESS:      85269  HIT:      84930  MISS:        339

Region of Interest Statistics

CPU 0 cumulative IPC: 0.410808 instructions: 100000001 cycles: 243422627
L1D TOTAL     ACCESS:   31692050  HIT:   30718597  MISS:     973453
L1D LOAD      ACCESS:   19641369  HIT:   18771657  MISS:     869712
L1D RFO       ACCESS:   12050681  HIT:   11946940  MISS:     103741
L1D PREFETCH  ACCESS:          0  HIT:          0  MISS:          0
L1D WRITEBACK ACCESS:          0  HIT:          0  MISS:          0
L1D PREFETCH  REQUESTED:          0  ISSUED:          0  USEFUL:          0  USELESS:          0
L1I TOTAL     ACCESS:   26990337  HIT:   26619683  MISS:     370654
L1I LOAD      ACCESS:   26990337  HIT:   26619683  MISS:     370654
L1I RFO       ACCESS:          0  HIT:          0  MISS:          0
L1I PREFETCH  ACCESS:          0  HIT:          0  MISS:          0
L1I WRITEBACK ACCESS:          0  HIT:          0  MISS:          0
L1I PREFETCH  REQUESTED:          0  ISSUED:          0  USEFUL:          0  USELESS:          0
L2C TOTAL     ACCESS:    2573932  HIT:    2025225  MISS:     548707
L2C LOAD      ACCESS:    1240359  HIT:     806155  MISS:     434204
L2C RFO       ACCESS:     103735  HIT:      30381  MISS:      73354
L2C PREFETCH  ACCESS:     995052  HIT:     955644  MISS:      39408
L2C WRITEBACK ACCESS:     234786  HIT:     233045  MISS:       1741
L2C PREFETCH  REQUESTED:    2985183  ISSUED:    2982482  USEFUL:      54335  USELESS:       9030
LLC TOTAL     ACCESS:    1623269  HIT:    1477731  MISS:     145538
LLC LOAD      ACCESS:     430602  HIT:     397201  MISS:      33401
LLC RFO       ACCESS:      73341  HIT:      34645  MISS:      38696
LLC PREFETCH  ACCESS:     971320  HIT:     898092  MISS:      73228
LLC WRITEBACK ACCESS:     148006  HIT:     147793  MISS:        213
LLC PREFETCH  REQUESTED:          0  ISSUED:          0  USEFUL:     928025  USELESS:     864762
Major fault: 0 Minor fault: 4261

CPU 1 cumulative IPC: 0.415484 instructions: 100000001 cycles: 240683447
L1D TOTAL     ACCESS:   31577718  HIT:   29835208  MISS:    1742510
L1D LOAD      ACCESS:   20598619  HIT:   18858804  MISS:    1739815
L1D RFO       ACCESS:   10979099  HIT:   10976404  MISS:       2695
L1D PREFETCH  ACCESS:          0  HIT:          0  MISS:          0
L1D WRITEBACK ACCESS:          0  HIT:          0  MISS:          0
L1D PREFETCH  REQUESTED:          0  ISSUED:          0  USEFUL:          0  USELESS:          0
L1I TOTAL     ACCESS:   38967066  HIT:   38966977  MISS:         89
L1I LOAD      ACCESS:   38967066  HIT:   38966977  MISS:         89
L1I RFO       ACCESS:          0  HIT:          0  MISS:          0
L1I PREFETCH  ACCESS:          0  HIT:          0  MISS:          0
L1I WRITEBACK ACCESS:          0  HIT:          0  MISS:          0
L1I PREFETCH  REQUESTED:          0  ISSUED:          0  USEFUL:          0  USELESS:          0
L2C TOTAL     ACCESS:    6553917  HIT:    5591768  MISS:     962149
L2C LOAD      ACCESS:    1739904  HIT:    1218461  MISS:     521443
L2C RFO       ACCESS:       2695  HIT:        334  MISS:       2361
L2C PREFETCH  ACCESS:    4792517  HIT:    4354223  MISS:     438294
L2C WRITEBACK ACCESS:      18801  HIT:      18750  MISS:         51
L2C PREFETCH  REQUESTED:   12411804  ISSUED:   12411804  USEFUL:     551629  USELESS:       2978
LLC TOTAL     ACCESS:    5713931  HIT:    4736999  MISS:     976932
LLC LOAD      ACCESS:     486822  HIT:     434222  MISS:      52600
LLC RFO       ACCESS:       2361  HIT:        257  MISS:       2104
LLC PREFETCH  ACCESS:    5214301  HIT:    4293707  MISS:     920594
LLC WRITEBACK ACCESS:      10447  HIT:       8813  MISS:       1634
LLC PREFETCH  REQUESTED:          0  ISSUED:          0  USEFUL:     928025  USELESS:     864762
Major fault: 0 Minor fault: 8858

CPU 2 cumulative IPC: 1.48032 instructions: 100000003 cycles: 67553113
L1D TOTAL     ACCESS:   29113437  HIT:   29113437  MISS:          0
L1D LOAD      ACCESS:   12600254  HIT:   12600254  MISS:          0
L1D RFO       ACCESS:   16513183  HIT:   16513183  MISS:          0
L1D PREFETCH  ACCESS:          0  HIT:          0  MISS:          0
L1D WRITEBACK ACCESS:          0  HIT:          0  MISS:          0
L1D PREFETCH  REQUESTED:          0  ISSUED:          0  USEFUL:          0  USELESS:          0
L1I TOTAL     ACCESS:   21754074  HIT:   21752881  MISS:       1193
L1I LOAD      ACCESS:   21754074  HIT:   21752881  MISS:       1193
L1I RFO       ACCESS:          0  HIT:          0  MISS:          0
L1I PREFETCH  ACCESS:          0  HIT:          0  MISS:          0
L1I WRITEBACK ACCESS:          0  HIT:          0  MISS:          0
L1I PREFETCH  REQUESTED:          0  ISSUED:          0  USEFUL:          0  USELESS:          0
L2C TOTAL     ACCESS:       3976  HIT:       3963  MISS:         13
L2C LOAD      ACCESS:       1193  HIT:       1186  MISS:          7
L2C RFO       ACCESS:          0  HIT:          0  MISS:          0
L2C PREFETCH  ACCESS:       2783  HIT:       2777  MISS:          6
L2C WRITEBACK ACCESS:          0  HIT:          0  MISS:          0
L2C PREFETCH  REQUESTED:      41763  ISSUED:      41763  USEFUL:        226  USELESS:          0
LLC TOTAL     ACCESS:        227  HIT:        106  MISS:        121
LLC LOAD      ACCESS:          7  HIT:          7  MISS:          0
LLC RFO       ACCESS:          0  HIT:          0  MISS:          0
LLC PREFETCH  ACCESS:        220  HIT:         99  MISS:        121
LLC WRITEBACK ACCESS:          0  HIT:          0  MISS:          0
LLC PREFETCH  REQUESTED:          0  ISSUED:          0  USEFUL:     928025  USELESS:     864762
Major fault: 0 Minor fault: 46

CPU 3 cumulative IPC: 1.20174 instructions: 100000003 cycles: 83212467
L1D TOTAL     ACCESS:   18881210  HIT:   16996001  MISS:    1885209
L1D LOAD      ACCESS:   13536356  HIT:   12354478  MISS:    1181878
L1D RFO       ACCESS:    5344854  HIT:    4641523  MISS:     703331
L1D PREFETCH  ACCESS:          0  HIT:          0  MISS:          0
L1D WRITEBACK ACCESS:          0  HIT:          0  MISS:          0
L1D PREFETCH  REQUESTED:          0  ISSUED:          0  USEFUL:          0  USELESS:          0
L1I TOTAL     ACCESS:   23366768  HIT:   23320033  MISS:      46735
L1I LOAD      ACCESS:   23366768  HIT:   23320033  MISS:      46735
L1I RFO       ACCESS:          0  HIT:          0  MISS:          0
L1I PREFETCH  ACCESS:          0  HIT:          0  MISS:          0
L1I WRITEBACK ACCESS:          0  HIT:          0  MISS:          0
L1I PREFETCH  REQUESTED:          0  ISSUED:          0  USEFUL:          0  USELESS:          0
L2C TOTAL     ACCESS:    5358782  HIT:    4492165  MISS:     866617
L2C LOAD      ACCESS:    1228529  HIT:     854873  MISS:     373656
L2C RFO       ACCESS:     703284  HIT:     384722  MISS:     318562
L2C PREFETCH  ACCESS:    2559523  HIT:    2385640  MISS:     173883
L2C WRITEBACK ACCESS:     867446  HIT:     866930  MISS:        516
L2C PREFETCH  REQUESTED:   18906286  ISSUED:   18502632  USEFUL:     554632  USELESS:      19225
LLC TOTAL     ACCESS:    3316540  HIT:    2979367  MISS:     337173
LLC LOAD      ACCESS:     335218  HIT:     322706  MISS:      12512
LLC RFO       ACCESS:     318562  HIT:     147318  MISS:     171244
LLC PREFETCH  ACCESS:    2234089  HIT:    2080678  MISS:     153411
LLC WRITEBACK ACCESS:     428671  HIT:     428665  MISS:          6
LLC PREFETCH  REQUESTED:          0  ISSUED:          0  USEFUL:     928025  USELESS:     864762
Major fault: 0 Minor fault: 12274

CPU 4 cumulative IPC: 0.436887 instructions: 100000001 cycles: 228891893
L1D TOTAL     ACCESS:   32887981  HIT:   32568596  MISS:     319385
L1D LOAD      ACCESS:   21482691  HIT:   21202569  MISS:     280122
L1D RFO       ACCESS:   11405290  HIT:   11366027  MISS:      39263
L1D PREFETCH  ACCESS:          0  HIT:          0  MISS:          0
L1D WRITEBACK ACCESS:          0  HIT:          0  MISS:          0
L1D PREFETCH  REQUESTED:          0  ISSUED:          0  USEFUL:          0  USELESS:          0
L1I TOTAL     ACCESS:   22903737  HIT:   22897366  MISS:       6371
L1I LOAD      ACCESS:   22903737  HIT:   22897366  MISS:       6371
L1I RFO       ACCESS:          0  HIT:          0  MISS:          0
L1I PREFETCH  ACCESS:          0  HIT:          0  MISS:          0
L1I WRITEBACK ACCESS:          0  HIT:          0  MISS:          0
L1I PREFETCH  REQUESTED:          0  ISSUED:          0  USEFUL:          0  USELESS:          0
L2C TOTAL     ACCESS:     835068  HIT:     821499  MISS:      13569
L2C LOAD      ACCESS:     286491  HIT:     275764  MISS:      10727
L2C RFO       ACCESS:      39263  HIT:      38387  MISS:        876
L2C PREFETCH  ACCESS:     439268  HIT:     437344  MISS:       1924
L2C WRITEBACK ACCESS:      70046  HIT:      70004  MISS:         42
L2C PREFETCH  REQUESTED:     724579  ISSUED:     724579  USEFUL:       1838  USELESS:        714
LLC TOTAL     ACCESS:      93028  HIT:      74565  MISS:      18463
LLC LOAD      ACCESS:       9961  HIT:       6237  MISS:       3724
LLC RFO       ACCESS:        876  HIT:        246  MISS:        630
LLC PREFETCH  ACCESS:      80003  HIT:      67219  MISS:      12784
LLC WRITEBACK ACCESS:       2188  HIT:        863  MISS:       1325
LLC PREFETCH  REQUESTED:          0  ISSUED:          0  USEFUL:     928025  USELESS:     864762
Major fault: 0 Minor fault: 603

CPU 5 cumulative IPC: 0.793443 instructions: 100000001 cycles: 126032929
L1D TOTAL     ACCESS:   37909785  HIT:   37897216  MISS:      12569
L1D LOAD      ACCESS:   15767826  HIT:   15755847  MISS:      11979
L1D RFO       ACCESS:   22141959  HIT:   22141369  MISS:        590
L1D PREFETCH  ACCESS:          0  HIT:          0  MISS:          0
L1D WRITEBACK ACCESS:          0  HIT:          0  MISS:          0
L1D PREFETCH  REQUESTED:          0  ISSUED:          0  USEFUL:          0  USELESS:          0
L1I TOTAL     ACCESS:   27067772  HIT:   27066091  MISS:       1681
L1I LOAD      ACCESS:   27067772  HIT:   27066091  MISS:       1681
L1I RFO       ACCESS:          0  HIT:          0  MISS:          0
L1I PREFETCH  ACCESS:          0  HIT:          0  MISS:          0
L1I WRITEBACK ACCESS:          0  HIT:          0  MISS:          0
L1I PREFETCH  REQUESTED:          0  ISSUED:          0  USEFUL:          0  USELESS:          0
L2C TOTAL     ACCESS:      32599  HIT:      29034  MISS:       3565
L2C LOAD      ACCESS:      13655  HIT:      10509  MISS:       3146
L2C RFO       ACCESS:        590  HIT:        235  MISS:        355
L2C PREFETCH  ACCESS:      16348  HIT:      16290  MISS:         58
L2C WRITEBACK ACCESS:       2006  HIT:       2000  MISS:          6
L2C PREFETCH  REQUESTED:      74978  ISSUED:      74978  USEFUL:        147  USELESS:         83
LLC TOTAL     ACCESS:      11665  HIT:       5622  MISS:       6043
LLC LOAD      ACCESS:       3146  HIT:        617  MISS:       2529
LLC RFO       ACCESS:        355  HIT:          2  MISS:        353
LLC PREFETCH  ACCESS:       7890  HIT:       4999  MISS:       2891
LLC WRITEBACK ACCESS:        274  HIT:          4  MISS:        270
LLC PREFETCH  REQUESTED:          0  ISSUED:          0  USEFUL:     928025  USELESS:     864762
Major fault: 0 Minor fault: 1187

CPU 6 cumulative IPC: 1.53426 instructions: 100000000 cycles: 65178133
L1D TOTAL     ACCESS:   27818787  HIT:   27818698  MISS:         89
L1D LOAD      ACCESS:   12004689  HIT:   12004655  MISS:         34
L1D RFO       ACCESS:   15814098  HIT:   15814043  MISS:         55
L1D PREFETCH  ACCESS:          0  HIT:          0  MISS:          0
L1D WRITEBACK ACCESS:          0  HIT:          0  MISS:          0
L1D PREFETCH  REQUESTED:          0  ISSUED:          0  USEFUL:          0  USELESS:          0
L1I TOTAL     ACCESS:   21835909  HIT:   21833562  MISS:       2347
L1I LOAD      ACCESS:   21835909  HIT:   21833562  MISS:       2347
L1I RFO       ACCESS:          0  HIT:          0  MISS:          0
L1I PREFETCH  ACCESS:          0  HIT:          0  MISS:          0
L1I WRITEBACK ACCESS:          0  HIT:          0  MISS:          0
L1I PREFETCH  REQUESTED:          0  ISSUED:          0  USEFUL:          0  USELESS:          0
L2C TOTAL     ACCESS:       6029  HIT:       4999  MISS:       1030
L2C LOAD      ACCESS:       2381  HIT:       1543  MISS:        838
L2C RFO       ACCESS:         55  HIT:          1  MISS:         54
L2C PREFETCH  ACCESS:       3593  HIT:       3455  MISS:        138
L2C WRITEBACK ACCESS:          0  HIT:          0  MISS:          0
L2C PREFETCH  REQUESTED:      11381  ISSUED:      11381  USEFUL:        139  USELESS:          0
LLC TOTAL     ACCESS:       2803  HIT:       1533  MISS:       1270
LLC LOAD      ACCESS:        822  HIT:        515  MISS:        307
LLC RFO       ACCESS:         54  HIT:          1  MISS:         53
LLC PREFETCH  ACCESS:       1927  HIT:       1017  MISS:        910
LLC WRITEBACK ACCESS:          0  HIT:          0  MISS:          0
LLC PREFETCH  REQUESTED:          0  ISSUED:          0  USEFUL:     928025  USELESS:     864762
Major fault: 0 Minor fault: 47

CPU 7 cumulative IPC: 1.31392 instructions: 100000002 cycles: 76108195
L1D TOTAL     ACCESS:   14728029  HIT:   14684533  MISS:      43496
L1D LOAD      ACCESS:    8223917  HIT:    8182077  MISS:      41840
L1D RFO       ACCESS:    6504112  HIT:    6502456  MISS:       1656
L1D PREFETCH  ACCESS:          0  HIT:          0  MISS:          0
L1D WRITEBACK ACCESS:          0  HIT:          0  MISS:          0
L1D PREFETCH  REQUESTED:          0  ISSUED:          0  USEFUL:          0  USELESS:          0
L1I TOTAL     ACCESS:   24666545  HIT:   24666512  MISS:         33
L1I LOAD      ACCESS:   24666545  HIT:   24666512  MISS:         33
L1I RFO       ACCESS:          0  HIT:          0  MISS:          0
L1I PREFETCH  ACCESS:          0  HIT:          0  MISS:          0
L1I WRITEBACK ACCESS:          0  HIT:          0  MISS:          0
L1I PREFETCH  REQUESTED:          0  ISSUED:          0  USEFUL:          0  USELESS:          0
L2C TOTAL     ACCESS:      81565  HIT:      45649  MISS:      35916
L2C LOAD      ACCESS:      41873  HIT:      12010  MISS:      29863
L2C RFO       ACCESS:       1645  HIT:        287  MISS:       1358
L2C PREFETCH  ACCESS:      34370  HIT:      29728  MISS:       4642
L2C WRITEBACK ACCESS:       3677  HIT:       3624  MISS:         53
L2C PREFETCH  REQUESTED:    5123811  ISSUED:    5043318  USEFUL:      18803  USELESS:       1640
LLC TOTAL     ACCESS:      97681  HIT:      60214  MISS:      37467
LLC LOAD      ACCESS:      29817  HIT:       9790  MISS:      20027
LLC RFO       ACCESS:       1358  HIT:          5  MISS:       1353
LLC PREFETCH  ACCESS:      65163  HIT:      49150  MISS:      16013
LLC WRITEBACK ACCESS:       1343  HIT:       1269  MISS:         74
LLC PREFETCH  REQUESTED:          0  ISSUED:          0  USEFUL:     928025  USELESS:     864762
Major fault: 0 Minor fault: 3923

DRAM Statistics
 CHANNEL 0
 RQ ROW_BUFFER_HIT:     687307  ROW_BUFFER_MISS:     418378
 DBUS_CONGESTED:    1054822
 WQ ROW_BUFFER_HIT:      48473  ROW_BUFFER_MISS:     240282  FULL:          0

 CHANNEL 1
 RQ ROW_BUFFER_HIT:     686826  ROW_BUFFER_MISS:     420126
 DBUS_CONGESTED:    1054822
 WQ ROW_BUFFER_HIT:      48156  ROW_BUFFER_MISS:     240593  FULL:          0

 AVG_CONGESTED_CYCLE: 13
