Initialize SIGNATURE TABLE
ST_SET: 1
ST_WAY: 256
ST_TAG_BIT: 16
ST_TAG_MASK: ffff

Initialize PATTERN TABLE
PT_SET: 512
PT_WAY: 4
SIG_DELTA_BIT: 7
C_SIG_BIT: 4
C_DELTA_BIT: 4

Initialize PREFETCH FILTER
FILTER_SET: 1024

*** ChampSim Multicore Out-of-Order Simulator ***

Warmup Instructions: 200000000
Simulation Instructions: 1000000000
Number of CPUs: 4
LLC sets: 8192
LLC ways: 16
Off-chip DRAM Size: 8192 MB Channels: 2 Width: 64-bit Data Rate: 1600 MT/s

CPU 0 runs /scratch/user/djimenez/champsim-traces/speccpu2006/xz//481.wrf-455B.champsimtrace.xz
CPU 1 runs /scratch/user/djimenez/champsim-traces/speccpu2006/xz//400.perlbench-41B.champsimtrace.xz
CPU 2 runs /scratch/user/djimenez/champsim-traces/speccpu2006/xz//416.gamess-875B.champsimtrace.xz
CPU 3 runs /scratch/user/djimenez/champsim-traces/speccpu2006/xz//445.gobmk-2B.champsimtrace.xz
Heartbeat CPU 2 instructions: 10000003 cycles: 5488961 heartbeat IPC: 1.82184 cumulative IPC: 1.82184 (Simulation time: 0 hr 3 min 17 sec) 
Heartbeat CPU 0 instructions: 10000001 cycles: 6209012 heartbeat IPC: 1.61056 cumulative IPC: 1.61056 (Simulation time: 0 hr 3 min 42 sec) 
Heartbeat CPU 3 instructions: 10000002 cycles: 6279419 heartbeat IPC: 1.5925 cumulative IPC: 1.5925 (Simulation time: 0 hr 3 min 45 sec) 
Heartbeat CPU 1 instructions: 10000002 cycles: 6696844 heartbeat IPC: 1.49324 cumulative IPC: 1.49324 (Simulation time: 0 hr 4 min 1 sec) 
Heartbeat CPU 2 instructions: 20000000 cycles: 10705960 heartbeat IPC: 1.91681 cumulative IPC: 1.86812 (Simulation time: 0 hr 5 min 49 sec) 
Heartbeat CPU 3 instructions: 20000000 cycles: 12426059 heartbeat IPC: 1.6269 cumulative IPC: 1.60952 (Simulation time: 0 hr 6 min 19 sec) 
Heartbeat CPU 0 instructions: 20000000 cycles: 13083771 heartbeat IPC: 1.4546 cumulative IPC: 1.52861 (Simulation time: 0 hr 6 min 31 sec) 
Heartbeat CPU 1 instructions: 20000000 cycles: 13316814 heartbeat IPC: 1.51058 cumulative IPC: 1.50186 (Simulation time: 0 hr 6 min 35 sec) 
Heartbeat CPU 2 instructions: 30000001 cycles: 16053405 heartbeat IPC: 1.87005 cumulative IPC: 1.86876 (Simulation time: 0 hr 7 min 25 sec) 
Heartbeat CPU 3 instructions: 30000001 cycles: 18627232 heartbeat IPC: 1.6126 cumulative IPC: 1.61055 (Simulation time: 0 hr 8 min 11 sec) 
Heartbeat CPU 1 instructions: 30000000 cycles: 19030830 heartbeat IPC: 1.75008 cumulative IPC: 1.57639 (Simulation time: 0 hr 8 min 18 sec) 
Heartbeat CPU 0 instructions: 30000003 cycles: 19958440 heartbeat IPC: 1.45462 cumulative IPC: 1.50312 (Simulation time: 0 hr 8 min 35 sec) 
Heartbeat CPU 2 instructions: 40000000 cycles: 21161824 heartbeat IPC: 1.95755 cumulative IPC: 1.8902 (Simulation time: 0 hr 8 min 57 sec) 
Heartbeat CPU 3 instructions: 40000000 cycles: 24723856 heartbeat IPC: 1.64025 cumulative IPC: 1.61787 (Simulation time: 0 hr 10 min 0 sec) 
Heartbeat CPU 1 instructions: 40000000 cycles: 25229777 heartbeat IPC: 1.61318 cumulative IPC: 1.58543 (Simulation time: 0 hr 10 min 10 sec) 
Heartbeat CPU 2 instructions: 50000003 cycles: 26203210 heartbeat IPC: 1.98358 cumulative IPC: 1.90816 (Simulation time: 0 hr 10 min 26 sec) 
Heartbeat CPU 0 instructions: 40000000 cycles: 26857587 heartbeat IPC: 1.44945 cumulative IPC: 1.48934 (Simulation time: 0 hr 10 min 37 sec) 
Heartbeat CPU 3 instructions: 50000002 cycles: 30842461 heartbeat IPC: 1.63436 cumulative IPC: 1.62114 (Simulation time: 0 hr 11 min 48 sec) 
Heartbeat CPU 1 instructions: 50000002 cycles: 31286290 heartbeat IPC: 1.65112 cumulative IPC: 1.59814 (Simulation time: 0 hr 11 min 56 sec) 
Heartbeat CPU 2 instructions: 60000000 cycles: 31564024 heartbeat IPC: 1.86539 cumulative IPC: 1.9009 (Simulation time: 0 hr 12 min 6 sec) 
Heartbeat CPU 0 instructions: 50000001 cycles: 33546399 heartbeat IPC: 1.49503 cumulative IPC: 1.49047 (Simulation time: 0 hr 12 min 43 sec) 
Heartbeat CPU 1 instructions: 60000000 cycles: 36662511 heartbeat IPC: 1.86004 cumulative IPC: 1.63655 (Simulation time: 0 hr 13 min 46 sec) 
Heartbeat CPU 3 instructions: 60000000 cycles: 36936370 heartbeat IPC: 1.64098 cumulative IPC: 1.62442 (Simulation time: 0 hr 13 min 52 sec) 
Heartbeat CPU 2 instructions: 70000003 cycles: 37061025 heartbeat IPC: 1.81917 cumulative IPC: 1.88878 (Simulation time: 0 hr 13 min 54 sec) 
Heartbeat CPU 0 instructions: 60000000 cycles: 37091392 heartbeat IPC: 2.82088 cumulative IPC: 1.61763 (Simulation time: 0 hr 13 min 55 sec) 
Heartbeat CPU 1 instructions: 70000002 cycles: 42576244 heartbeat IPC: 1.69098 cumulative IPC: 1.64411 (Simulation time: 0 hr 15 min 36 sec) 
Heartbeat CPU 2 instructions: 80000000 cycles: 42612189 heartbeat IPC: 1.80142 cumulative IPC: 1.8774 (Simulation time: 0 hr 15 min 37 sec) 
Heartbeat CPU 0 instructions: 70000001 cycles: 42816575 heartbeat IPC: 1.74667 cumulative IPC: 1.63488 (Simulation time: 0 hr 15 min 40 sec) 
Heartbeat CPU 3 instructions: 70000001 cycles: 43279275 heartbeat IPC: 1.57656 cumulative IPC: 1.6174 (Simulation time: 0 hr 15 min 49 sec) 
Heartbeat CPU 2 instructions: 90000000 cycles: 47849683 heartbeat IPC: 1.90931 cumulative IPC: 1.88089 (Simulation time: 0 hr 17 min 36 sec) 
Heartbeat CPU 1 instructions: 80000000 cycles: 48336725 heartbeat IPC: 1.73597 cumulative IPC: 1.65506 (Simulation time: 0 hr 17 min 47 sec) 
Heartbeat CPU 0 instructions: 80000000 cycles: 49520173 heartbeat IPC: 1.49174 cumulative IPC: 1.6155 (Simulation time: 0 hr 18 min 18 sec) 
Heartbeat CPU 3 instructions: 80000000 cycles: 49726757 heartbeat IPC: 1.55099 cumulative IPC: 1.60879 (Simulation time: 0 hr 18 min 22 sec) 
Heartbeat CPU 2 instructions: 100000000 cycles: 52884998 heartbeat IPC: 1.98597 cumulative IPC: 1.8909 (Simulation time: 0 hr 19 min 26 sec) 
Heartbeat CPU 1 instructions: 90000001 cycles: 54112429 heartbeat IPC: 1.73139 cumulative IPC: 1.6632 (Simulation time: 0 hr 19 min 48 sec) 
Heartbeat CPU 3 instructions: 90000001 cycles: 56065531 heartbeat IPC: 1.57759 cumulative IPC: 1.60526 (Simulation time: 0 hr 20 min 25 sec) 
Heartbeat CPU 0 instructions: 90000002 cycles: 56224058 heartbeat IPC: 1.49167 cumulative IPC: 1.60074 (Simulation time: 0 hr 20 min 27 sec) 
Heartbeat CPU 2 instructions: 110000000 cycles: 58133748 heartbeat IPC: 1.90522 cumulative IPC: 1.89219 (Simulation time: 0 hr 21 min 4 sec) 
Heartbeat CPU 1 instructions: 100000000 cycles: 59901802 heartbeat IPC: 1.7273 cumulative IPC: 1.6694 (Simulation time: 0 hr 21 min 38 sec) 
Heartbeat CPU 0 instructions: 100000000 cycles: 60929731 heartbeat IPC: 2.12509 cumulative IPC: 1.64123 (Simulation time: 0 hr 21 min 59 sec) 
Heartbeat CPU 3 instructions: 100000000 cycles: 62277346 heartbeat IPC: 1.60984 cumulative IPC: 1.60572 (Simulation time: 0 hr 22 min 26 sec) 
Heartbeat CPU 2 instructions: 120000000 cycles: 63383454 heartbeat IPC: 1.90487 cumulative IPC: 1.89324 (Simulation time: 0 hr 22 min 48 sec) 
Heartbeat CPU 0 instructions: 110000003 cycles: 64987849 heartbeat IPC: 2.4642 cumulative IPC: 1.69262 (Simulation time: 0 hr 23 min 19 sec) 
Heartbeat CPU 1 instructions: 110000000 cycles: 65507331 heartbeat IPC: 1.78395 cumulative IPC: 1.6792 (Simulation time: 0 hr 23 min 29 sec) 
Heartbeat CPU 3 instructions: 110000000 cycles: 68374514 heartbeat IPC: 1.64011 cumulative IPC: 1.60879 (Simulation time: 0 hr 24 min 26 sec) 
Heartbeat CPU 2 instructions: 130000002 cycles: 68640711 heartbeat IPC: 1.90213 cumulative IPC: 1.89392 (Simulation time: 0 hr 24 min 31 sec) 
Heartbeat CPU 0 instructions: 120000000 cycles: 69444226 heartbeat IPC: 2.24397 cumulative IPC: 1.72801 (Simulation time: 0 hr 24 min 46 sec) 
Heartbeat CPU 1 instructions: 120000000 cycles: 71423066 heartbeat IPC: 1.69041 cumulative IPC: 1.68013 (Simulation time: 0 hr 25 min 24 sec) 
Heartbeat CPU 2 instructions: 140000000 cycles: 73753034 heartbeat IPC: 1.95606 cumulative IPC: 1.89823 (Simulation time: 0 hr 26 min 10 sec) 
Heartbeat CPU 0 instructions: 130000002 cycles: 73792290 heartbeat IPC: 2.29987 cumulative IPC: 1.7617 (Simulation time: 0 hr 26 min 10 sec) 
Heartbeat CPU 3 instructions: 120000000 cycles: 74752138 heartbeat IPC: 1.56798 cumulative IPC: 1.60531 (Simulation time: 0 hr 26 min 29 sec) 
Heartbeat CPU 0 instructions: 140000000 cycles: 77225525 heartbeat IPC: 2.9127 cumulative IPC: 1.81287 (Simulation time: 0 hr 27 min 20 sec) 
Heartbeat CPU 1 instructions: 130000001 cycles: 77712302 heartbeat IPC: 1.59002 cumulative IPC: 1.67284 (Simulation time: 0 hr 27 min 30 sec) 
Heartbeat CPU 2 instructions: 150000002 cycles: 78763540 heartbeat IPC: 1.99581 cumulative IPC: 1.90443 (Simulation time: 0 hr 27 min 51 sec) 
Heartbeat CPU 3 instructions: 130000002 cycles: 81117416 heartbeat IPC: 1.57102 cumulative IPC: 1.60262 (Simulation time: 0 hr 28 min 36 sec) 
Heartbeat CPU 0 instructions: 150000000 cycles: 82298266 heartbeat IPC: 1.97132 cumulative IPC: 1.82264 (Simulation time: 0 hr 28 min 58 sec) 
Heartbeat CPU 1 instructions: 140000000 cycles: 83438569 heartbeat IPC: 1.74634 cumulative IPC: 1.67788 (Simulation time: 0 hr 29 min 20 sec) 
Heartbeat CPU 2 instructions: 160000000 cycles: 83872879 heartbeat IPC: 1.9572 cumulative IPC: 1.90765 (Simulation time: 0 hr 29 min 29 sec) 
Heartbeat CPU 0 instructions: 160000000 cycles: 87261547 heartbeat IPC: 2.0148 cumulative IPC: 1.83357 (Simulation time: 0 hr 30 min 35 sec) 
Heartbeat CPU 3 instructions: 140000000 cycles: 87690020 heartbeat IPC: 1.52147 cumulative IPC: 1.59653 (Simulation time: 0 hr 30 min 43 sec) 
Heartbeat CPU 2 instructions: 170000003 cycles: 89018636 heartbeat IPC: 1.94335 cumulative IPC: 1.90971 (Simulation time: 0 hr 31 min 11 sec) 
Heartbeat CPU 1 instructions: 150000000 cycles: 89199530 heartbeat IPC: 1.73582 cumulative IPC: 1.68162 (Simulation time: 0 hr 31 min 15 sec) 
Heartbeat CPU 0 instructions: 170000000 cycles: 91202588 heartbeat IPC: 2.5374 cumulative IPC: 1.86398 (Simulation time: 0 hr 31 min 54 sec) 
Heartbeat CPU 3 instructions: 150000001 cycles: 94047585 heartbeat IPC: 1.57293 cumulative IPC: 1.59494 (Simulation time: 0 hr 32 min 51 sec) 
Heartbeat CPU 2 instructions: 180000000 cycles: 94450193 heartbeat IPC: 1.84109 cumulative IPC: 1.90577 (Simulation time: 0 hr 32 min 59 sec) 
Heartbeat CPU 0 instructions: 180000000 cycles: 94886668 heartbeat IPC: 2.71438 cumulative IPC: 1.897 (Simulation time: 0 hr 33 min 7 sec) 
Heartbeat CPU 1 instructions: 160000000 cycles: 94913775 heartbeat IPC: 1.75001 cumulative IPC: 1.68574 (Simulation time: 0 hr 33 min 8 sec) 
Heartbeat CPU 0 instructions: 190000001 cycles: 98467129 heartbeat IPC: 2.79294 cumulative IPC: 1.92958 (Simulation time: 0 hr 34 min 18 sec) 
Heartbeat CPU 2 instructions: 190000000 cycles: 99958757 heartbeat IPC: 1.81536 cumulative IPC: 1.90078 (Simulation time: 0 hr 34 min 47 sec) 
Heartbeat CPU 3 instructions: 160000000 cycles: 100125931 heartbeat IPC: 1.64518 cumulative IPC: 1.59799 (Simulation time: 0 hr 34 min 50 sec) 
Heartbeat CPU 1 instructions: 170000001 cycles: 101238166 heartbeat IPC: 1.58118 cumulative IPC: 1.67921 (Simulation time: 0 hr 35 min 11 sec) 
Heartbeat CPU 0 instructions: 200000000 cycles: 102096177 heartbeat IPC: 2.75554 cumulative IPC: 1.95894 (Simulation time: 0 hr 35 min 27 sec) 
Heartbeat CPU 2 instructions: 200000000 cycles: 105498585 heartbeat IPC: 1.80511 cumulative IPC: 1.89576 (Simulation time: 0 hr 36 min 32 sec) 
Heartbeat CPU 0 instructions: 210000001 cycles: 106048482 heartbeat IPC: 2.53017 cumulative IPC: 0.0942965 (Simulation time: 0 hr 36 min 42 sec) 
Heartbeat CPU 3 instructions: 170000000 cycles: 106339370 heartbeat IPC: 1.60941 cumulative IPC: 1.59866 (Simulation time: 0 hr 36 min 48 sec) 
Heartbeat CPU 1 instructions: 180000000 cycles: 107940979 heartbeat IPC: 1.49191 cumulative IPC: 1.66758 (Simulation time: 0 hr 37 min 17 sec) 
Heartbeat CPU 0 instructions: 220000000 cycles: 110371006 heartbeat IPC: 2.31346 cumulative IPC: 0.181207 (Simulation time: 0 hr 38 min 2 sec) 
Heartbeat CPU 2 instructions: 210000002 cycles: 110771783 heartbeat IPC: 1.89638 cumulative IPC: 0.0902757 (Simulation time: 0 hr 38 min 10 sec) 
Heartbeat CPU 3 instructions: 180000000 cycles: 112740099 heartbeat IPC: 1.56232 cumulative IPC: 1.59659 (Simulation time: 0 hr 38 min 47 sec) 
Heartbeat CPU 1 instructions: 190000001 cycles: 114492736 heartbeat IPC: 1.52631 cumulative IPC: 1.65949 (Simulation time: 0 hr 39 min 21 sec) 
Heartbeat CPU 0 instructions: 230000002 cycles: 115701209 heartbeat IPC: 1.8761 cumulative IPC: 0.259289 (Simulation time: 0 hr 39 min 45 sec) 
Heartbeat CPU 2 instructions: 220000000 cycles: 115836333 heartbeat IPC: 1.97451 cumulative IPC: 0.172657 (Simulation time: 0 hr 39 min 48 sec) 
Heartbeat CPU 3 instructions: 190000003 cycles: 119015196 heartbeat IPC: 1.5936 cumulative IPC: 1.59643 (Simulation time: 0 hr 40 min 47 sec) 
Heartbeat CPU 1 instructions: 200000000 cycles: 120298243 heartbeat IPC: 1.7225 cumulative IPC: 1.66253 (Simulation time: 0 hr 41 min 12 sec) 
Heartbeat CPU 2 instructions: 230000000 cycles: 120890679 heartbeat IPC: 1.9785 cumulative IPC: 0.248158 (Simulation time: 0 hr 41 min 24 sec) 
Heartbeat CPU 0 instructions: 240000000 cycles: 121457479 heartbeat IPC: 1.73724 cumulative IPC: 0.329333 (Simulation time: 0 hr 41 min 35 sec) 
Heartbeat CPU 3 instructions: 200000000 cycles: 125117900 heartbeat IPC: 1.63862 cumulative IPC: 1.59849 (Simulation time: 0 hr 42 min 43 sec) 

Warmup complete CPU 0 instructions: 247384030 cycles: 125117901 (Simulation time: 0 hr 42 min 43 sec) 
Warmup complete CPU 1 instructions: 207818578 cycles: 125117901 (Simulation time: 0 hr 42 min 43 sec) 
Warmup complete CPU 2 instructions: 238173128 cycles: 125117901 (Simulation time: 0 hr 42 min 43 sec) 
Warmup complete CPU 3 instructions: 200000001 cycles: 125117901 (Simulation time: 0 hr 42 min 43 sec) 

Heartbeat CPU 2 instructions: 240000000 cycles: 127184907 heartbeat IPC: 1.58876 cumulative IPC: 0.883825 (Simulation time: 0 hr 43 min 4 sec) 
Heartbeat CPU 0 instructions: 250000001 cycles: 127657990 heartbeat IPC: 1.61277 cumulative IPC: 1.02987 (Simulation time: 0 hr 43 min 8 sec) 
Heartbeat CPU 1 instructions: 210000001 cycles: 129502339 heartbeat IPC: 1.08647 cumulative IPC: 0.497538 (Simulation time: 0 hr 43 min 27 sec) 
Heartbeat CPU 0 instructions: 260000000 cycles: 135938985 heartbeat IPC: 1.20758 cumulative IPC: 1.16587 (Simulation time: 0 hr 44 min 36 sec) 
Heartbeat CPU 2 instructions: 250000000 cycles: 139695790 heartbeat IPC: 0.799304 cumulative IPC: 0.811288 (Simulation time: 0 hr 45 min 15 sec) 
Heartbeat CPU 0 instructions: 270000000 cycles: 143824238 heartbeat IPC: 1.26819 cumulative IPC: 1.209 (Simulation time: 0 hr 46 min 0 sec) 
Heartbeat CPU 3 instructions: 210000003 cycles: 146514665 heartbeat IPC: 0.46736 cumulative IPC: 0.46736 (Simulation time: 0 hr 46 min 29 sec) 
Heartbeat CPU 1 instructions: 220000000 cycles: 149015526 heartbeat IPC: 0.512474 cumulative IPC: 0.509734 (Simulation time: 0 hr 46 min 55 sec) 
Heartbeat CPU 2 instructions: 260000000 cycles: 151800635 heartbeat IPC: 0.826115 cumulative IPC: 0.818015 (Simulation time: 0 hr 47 min 26 sec) 
Heartbeat CPU 0 instructions: 280000000 cycles: 151921882 heartbeat IPC: 1.23493 cumulative IPC: 1.21683 (Simulation time: 0 hr 47 min 27 sec) 
Heartbeat CPU 0 instructions: 290000003 cycles: 159810380 heartbeat IPC: 1.26767 cumulative IPC: 1.22839 (Simulation time: 0 hr 48 min 50 sec) 
Heartbeat CPU 2 instructions: 270000002 cycles: 164560841 heartbeat IPC: 0.783687 cumulative IPC: 0.806909 (Simulation time: 0 hr 49 min 41 sec) 
Heartbeat CPU 1 instructions: 230000001 cycles: 166016222 heartbeat IPC: 0.588211 cumulative IPC: 0.542355 (Simulation time: 0 hr 49 min 56 sec) 
Heartbeat CPU 0 instructions: 300000000 cycles: 167160010 heartbeat IPC: 1.36061 cumulative IPC: 1.25151 (Simulation time: 0 hr 50 min 9 sec) 
Heartbeat CPU 3 instructions: 220000000 cycles: 169663162 heartbeat IPC: 0.431993 cumulative IPC: 0.448982 (Simulation time: 0 hr 50 min 36 sec) 
Heartbeat CPU 0 instructions: 310000002 cycles: 174309314 heartbeat IPC: 1.39874 cumulative IPC: 1.2729 (Simulation time: 0 hr 51 min 24 sec) 
Heartbeat CPU 2 instructions: 280000000 cycles: 177589346 heartbeat IPC: 0.767548 cumulative IPC: 0.797136 (Simulation time: 0 hr 52 min 0 sec) 
Heartbeat CPU 0 instructions: 320000000 cycles: 180958085 heartbeat IPC: 1.50404 cumulative IPC: 1.30042 (Simulation time: 0 hr 52 min 37 sec) 
Heartbeat CPU 1 instructions: 240000000 cycles: 185362174 heartbeat IPC: 0.516904 cumulative IPC: 0.534182 (Simulation time: 0 hr 53 min 25 sec) 
Heartbeat CPU 0 instructions: 330000003 cycles: 188874881 heartbeat IPC: 1.26314 cumulative IPC: 1.29579 (Simulation time: 0 hr 53 min 59 sec) 
Heartbeat CPU 2 instructions: 290000000 cycles: 190352873 heartbeat IPC: 0.783482 cumulative IPC: 0.794465 (Simulation time: 0 hr 54 min 14 sec) 
Heartbeat CPU 3 instructions: 230000002 cycles: 191058162 heartbeat IPC: 0.467399 cumulative IPC: 0.454957 (Simulation time: 0 hr 54 min 21 sec) 
Heartbeat CPU 0 instructions: 340000000 cycles: 197660083 heartbeat IPC: 1.13828 cumulative IPC: 1.27672 (Simulation time: 0 hr 55 min 44 sec) 
Heartbeat CPU 2 instructions: 300000000 cycles: 202418632 heartbeat IPC: 0.828792 cumulative IPC: 0.799823 (Simulation time: 0 hr 56 min 39 sec) 
Heartbeat CPU 1 instructions: 250000001 cycles: 204201825 heartbeat IPC: 0.530795 cumulative IPC: 0.533375 (Simulation time: 0 hr 57 min 0 sec) 
Heartbeat CPU 0 instructions: 350000002 cycles: 206480382 heartbeat IPC: 1.13375 cumulative IPC: 1.26122 (Simulation time: 0 hr 57 min 26 sec) 
Heartbeat CPU 3 instructions: 240000000 cycles: 212002625 heartbeat IPC: 0.477453 cumulative IPC: 0.46038 (Simulation time: 0 hr 58 min 37 sec) 
Heartbeat CPU 2 instructions: 310000000 cycles: 213732370 heartbeat IPC: 0.883881 cumulative IPC: 0.810555 (Simulation time: 0 hr 59 min 0 sec) 
Heartbeat CPU 0 instructions: 360000000 cycles: 215288529 heartbeat IPC: 1.13531 cumulative IPC: 1.24892 (Simulation time: 0 hr 59 min 17 sec) 
Heartbeat CPU 1 instructions: 260000000 cycles: 222696303 heartbeat IPC: 0.540702 cumulative IPC: 0.534764 (Simulation time: 1 hr 0 min 42 sec) 
Heartbeat CPU 0 instructions: 370000002 cycles: 224043564 heartbeat IPC: 1.1422 cumulative IPC: 1.23948 (Simulation time: 1 hr 0 min 56 sec) 
Heartbeat CPU 2 instructions: 320000000 cycles: 225526102 heartbeat IPC: 0.847908 cumulative IPC: 0.814942 (Simulation time: 1 hr 1 min 12 sec) 
Heartbeat CPU 0 instructions: 380000000 cycles: 232828274 heartbeat IPC: 1.13834 cumulative IPC: 1.23123 (Simulation time: 1 hr 2 min 36 sec) 
Heartbeat CPU 3 instructions: 250000000 cycles: 233372861 heartbeat IPC: 0.467941 cumulative IPC: 0.461873 (Simulation time: 1 hr 2 min 43 sec) 
Heartbeat CPU 2 instructions: 330000000 cycles: 236527720 heartbeat IPC: 0.908957 cumulative IPC: 0.824226 (Simulation time: 1 hr 3 min 20 sec) 
Heartbeat CPU 0 instructions: 390000002 cycles: 241529833 heartbeat IPC: 1.14922 cumulative IPC: 1.2251 (Simulation time: 1 hr 4 min 15 sec) 
Heartbeat CPU 1 instructions: 270000001 cycles: 241617695 heartbeat IPC: 0.528502 cumulative IPC: 0.533747 (Simulation time: 1 hr 4 min 16 sec) 
Heartbeat CPU 2 instructions: 340000000 cycles: 248292060 heartbeat IPC: 0.850026 cumulative IPC: 0.82669 (Simulation time: 1 hr 5 min 35 sec) 
Heartbeat CPU 0 instructions: 400000000 cycles: 249465498 heartbeat IPC: 1.26013 cumulative IPC: 1.22733 (Simulation time: 1 hr 5 min 48 sec) 
Heartbeat CPU 3 instructions: 260000000 cycles: 252703602 heartbeat IPC: 0.517311 cumulative IPC: 0.470272 (Simulation time: 1 hr 6 min 30 sec) 
Heartbeat CPU 0 instructions: 410000001 cycles: 257382888 heartbeat IPC: 1.26304 cumulative IPC: 1.22947 (Simulation time: 1 hr 7 min 23 sec) 
Heartbeat CPU 2 instructions: 350000002 cycles: 259443708 heartbeat IPC: 0.896729 cumulative IPC: 0.832505 (Simulation time: 1 hr 7 min 46 sec) 
Heartbeat CPU 1 instructions: 280000000 cycles: 259667931 heartbeat IPC: 0.554009 cumulative IPC: 0.536465 (Simulation time: 1 hr 7 min 48 sec) 
Heartbeat CPU 0 instructions: 420000000 cycles: 265304680 heartbeat IPC: 1.26234 cumulative IPC: 1.23133 (Simulation time: 1 hr 8 min 47 sec) 
Heartbeat CPU 2 instructions: 360000000 cycles: 272956553 heartbeat IPC: 0.740036 cumulative IPC: 0.824053 (Simulation time: 1 hr 10 min 8 sec) 
Heartbeat CPU 0 instructions: 430000003 cycles: 273251126 heartbeat IPC: 1.25842 cumulative IPC: 1.23278 (Simulation time: 1 hr 10 min 11 sec) 
Heartbeat CPU 3 instructions: 270000001 cycles: 273433049 heartbeat IPC: 0.482406 cumulative IPC: 0.471968 (Simulation time: 1 hr 10 min 13 sec) 
Heartbeat CPU 1 instructions: 290000000 cycles: 280108020 heartbeat IPC: 0.489235 cumulative IPC: 0.530237 (Simulation time: 1 hr 11 min 17 sec) 
Heartbeat CPU 0 instructions: 440000000 cycles: 283777087 heartbeat IPC: 0.950032 cumulative IPC: 1.21402 (Simulation time: 1 hr 11 min 52 sec) 
Heartbeat CPU 2 instructions: 370000001 cycles: 286652329 heartbeat IPC: 0.730152 cumulative IPC: 0.816091 (Simulation time: 1 hr 12 min 19 sec) 
Heartbeat CPU 3 instructions: 280000000 cycles: 293869729 heartbeat IPC: 0.489316 cumulative IPC: 0.474069 (Simulation time: 1 hr 13 min 29 sec) 
Heartbeat CPU 0 instructions: 450000001 cycles: 294985149 heartbeat IPC: 0.892215 cumulative IPC: 1.19279 (Simulation time: 1 hr 13 min 39 sec) 
Heartbeat CPU 1 instructions: 300000000 cycles: 300219732 heartbeat IPC: 0.497223 cumulative IPC: 0.526445 (Simulation time: 1 hr 14 min 31 sec) 
Heartbeat CPU 2 instructions: 380000000 cycles: 300393048 heartbeat IPC: 0.727764 cumulative IPC: 0.809167 (Simulation time: 1 hr 14 min 32 sec) 
Heartbeat CPU 0 instructions: 460000000 cycles: 306206016 heartbeat IPC: 0.891197 cumulative IPC: 1.1741 (Simulation time: 1 hr 15 min 27 sec) 
Heartbeat CPU 2 instructions: 390000000 cycles: 314593559 heartbeat IPC: 0.7042 cumulative IPC: 0.8013 (Simulation time: 1 hr 16 min 46 sec) 
Heartbeat CPU 3 instructions: 290000000 cycles: 315518748 heartbeat IPC: 0.461915 cumulative IPC: 0.472687 (Simulation time: 1 hr 16 min 54 sec) 
Heartbeat CPU 0 instructions: 470000000 cycles: 317380561 heartbeat IPC: 0.894891 cumulative IPC: 1.15787 (Simulation time: 1 hr 17 min 12 sec) 
Heartbeat CPU 1 instructions: 310000002 cycles: 318737529 heartbeat IPC: 0.540021 cumulative IPC: 0.527743 (Simulation time: 1 hr 17 min 26 sec) 
Heartbeat CPU 0 instructions: 480000000 cycles: 324756754 heartbeat IPC: 1.35571 cumulative IPC: 1.16518 (Simulation time: 1 hr 18 min 30 sec) 
Heartbeat CPU 2 instructions: 400000000 cycles: 327202815 heartbeat IPC: 0.793068 cumulative IPC: 0.800786 (Simulation time: 1 hr 18 min 57 sec) 
Heartbeat CPU 0 instructions: 490000000 cycles: 331894696 heartbeat IPC: 1.40096 cumulative IPC: 1.17332 (Simulation time: 1 hr 19 min 47 sec) 
Heartbeat CPU 1 instructions: 320000000 cycles: 337830763 heartbeat IPC: 0.523746 cumulative IPC: 0.527384 (Simulation time: 1 hr 20 min 51 sec) 
Heartbeat CPU 2 instructions: 410000001 cycles: 338802513 heartbeat IPC: 0.862091 cumulative IPC: 0.804114 (Simulation time: 1 hr 21 min 1 sec) 
Heartbeat CPU 3 instructions: 300000000 cycles: 338817980 heartbeat IPC: 0.429199 cumulative IPC: 0.467946 (Simulation time: 1 hr 21 min 2 sec) 
Heartbeat CPU 0 instructions: 500000000 cycles: 339059732 heartbeat IPC: 1.39567 cumulative IPC: 1.18077 (Simulation time: 1 hr 21 min 4 sec) 
Heartbeat CPU 0 instructions: 510000003 cycles: 347654876 heartbeat IPC: 1.16345 cumulative IPC: 1.1801 (Simulation time: 1 hr 22 min 30 sec) 
Heartbeat CPU 2 instructions: 420000000 cycles: 350072299 heartbeat IPC: 0.887328 cumulative IPC: 0.808283 (Simulation time: 1 hr 22 min 53 sec) 
Heartbeat CPU 1 instructions: 330000000 cycles: 355716653 heartbeat IPC: 0.5591 cumulative IPC: 0.529844 (Simulation time: 1 hr 23 min 49 sec) 
Heartbeat CPU 0 instructions: 520000000 cycles: 356860412 heartbeat IPC: 1.0863 cumulative IPC: 1.17637 (Simulation time: 1 hr 24 min 2 sec) 
Heartbeat CPU 3 instructions: 310000001 cycles: 361881867 heartbeat IPC: 0.433578 cumulative IPC: 0.464598 (Simulation time: 1 hr 24 min 51 sec) 
Heartbeat CPU 2 instructions: 430000001 cycles: 362343690 heartbeat IPC: 0.814904 cumulative IPC: 0.808626 (Simulation time: 1 hr 24 min 56 sec) 
Heartbeat CPU 0 instructions: 530000001 cycles: 366081207 heartbeat IPC: 1.08451 cumulative IPC: 1.17286 (Simulation time: 1 hr 25 min 33 sec) 
Heartbeat CPU 2 instructions: 440000000 cycles: 374594318 heartbeat IPC: 0.816285 cumulative IPC: 0.809002 (Simulation time: 1 hr 26 min 55 sec) 
Heartbeat CPU 0 instructions: 540000000 cycles: 375247575 heartbeat IPC: 1.09094 cumulative IPC: 1.16986 (Simulation time: 1 hr 27 min 1 sec) 
Heartbeat CPU 1 instructions: 340000000 cycles: 381340822 heartbeat IPC: 0.390257 cumulative IPC: 0.515884 (Simulation time: 1 hr 28 min 0 sec) 
Heartbeat CPU 0 instructions: 550000001 cycles: 384361334 heartbeat IPC: 1.09724 cumulative IPC: 1.1673 (Simulation time: 1 hr 28 min 29 sec) 
Heartbeat CPU 3 instructions: 320000000 cycles: 384677085 heartbeat IPC: 0.438688 cumulative IPC: 0.462322 (Simulation time: 1 hr 28 min 32 sec) 
Heartbeat CPU 2 instructions: 450000001 cycles: 386914625 heartbeat IPC: 0.811668 cumulative IPC: 0.809127 (Simulation time: 1 hr 28 min 53 sec) 
Heartbeat CPU 0 instructions: 560000000 cycles: 393532950 heartbeat IPC: 1.09032 cumulative IPC: 1.16467 (Simulation time: 1 hr 30 min 0 sec) 
Heartbeat CPU 2 instructions: 460000000 cycles: 399075909 heartbeat IPC: 0.822282 cumulative IPC: 0.809711 (Simulation time: 1 hr 30 min 55 sec) 
Heartbeat CPU 0 instructions: 570000000 cycles: 402713263 heartbeat IPC: 1.08929 cumulative IPC: 1.16218 (Simulation time: 1 hr 31 min 30 sec) 
Heartbeat CPU 3 instructions: 330000003 cycles: 406396652 heartbeat IPC: 0.460414 cumulative IPC: 0.462175 (Simulation time: 1 hr 32 min 5 sec) 
Heartbeat CPU 1 instructions: 350000001 cycles: 407931593 heartbeat IPC: 0.37607 cumulative IPC: 0.502739 (Simulation time: 1 hr 32 min 20 sec) 
Heartbeat CPU 2 instructions: 470000000 cycles: 411240923 heartbeat IPC: 0.822029 cumulative IPC: 0.810235 (Simulation time: 1 hr 32 min 52 sec) 
Heartbeat CPU 0 instructions: 580000000 cycles: 411860146 heartbeat IPC: 1.09327 cumulative IPC: 1.15998 (Simulation time: 1 hr 32 min 59 sec) 
Heartbeat CPU 0 instructions: 590000001 cycles: 420992672 heartbeat IPC: 1.09499 cumulative IPC: 1.15798 (Simulation time: 1 hr 34 min 26 sec) 
Heartbeat CPU 2 instructions: 480000000 cycles: 423311971 heartbeat IPC: 0.828429 cumulative IPC: 0.810971 (Simulation time: 1 hr 34 min 49 sec) 
Heartbeat CPU 3 instructions: 340000000 cycles: 429221384 heartbeat IPC: 0.438121 cumulative IPC: 0.46037 (Simulation time: 1 hr 35 min 48 sec) 
Heartbeat CPU 0 instructions: 600000000 cycles: 430156353 heartbeat IPC: 1.09126 cumulative IPC: 1.15597 (Simulation time: 1 hr 35 min 58 sec) 
Heartbeat CPU 1 instructions: 360000000 cycles: 433556376 heartbeat IPC: 0.390247 cumulative IPC: 0.493393 (Simulation time: 1 hr 36 min 35 sec) 
Heartbeat CPU 2 instructions: 490000002 cycles: 434506811 heartbeat IPC: 0.893269 cumulative IPC: 0.813949 (Simulation time: 1 hr 36 min 45 sec) 
Heartbeat CPU 0 instructions: 610000002 cycles: 439255888 heartbeat IPC: 1.09896 cumulative IPC: 1.15432 (Simulation time: 1 hr 37 min 34 sec) 
Heartbeat CPU 2 instructions: 500000000 cycles: 445778272 heartbeat IPC: 0.887196 cumulative IPC: 0.816524 (Simulation time: 1 hr 38 min 46 sec) 
Heartbeat CPU 0 instructions: 620000000 cycles: 446534827 heartbeat IPC: 1.37383 cumulative IPC: 1.15929 (Simulation time: 1 hr 38 min 55 sec) 
Heartbeat CPU 3 instructions: 350000003 cycles: 452163953 heartbeat IPC: 0.435871 cumulative IPC: 0.458651 (Simulation time: 1 hr 39 min 54 sec) 
Heartbeat CPU 1 instructions: 370000000 cycles: 452390153 heartbeat IPC: 0.530961 cumulative IPC: 0.495555 (Simulation time: 1 hr 39 min 56 sec) 
Heartbeat CPU 0 instructions: 630000000 cycles: 455076693 heartbeat IPC: 1.1707 cumulative IPC: 1.15959 (Simulation time: 1 hr 40 min 27 sec) 
Heartbeat CPU 2 instructions: 510000001 cycles: 456960745 heartbeat IPC: 0.894257 cumulative IPC: 0.819143 (Simulation time: 1 hr 40 min 47 sec) 
Heartbeat CPU 0 instructions: 640000000 cycles: 463866936 heartbeat IPC: 1.13762 cumulative IPC: 1.15902 (Simulation time: 1 hr 42 min 1 sec) 
Heartbeat CPU 2 instructions: 520000000 cycles: 469693525 heartbeat IPC: 0.785374 cumulative IPC: 0.817896 (Simulation time: 1 hr 43 min 1 sec) 
Heartbeat CPU 1 instructions: 380000000 cycles: 472070944 heartbeat IPC: 0.50811 cumulative IPC: 0.496267 (Simulation time: 1 hr 43 min 26 sec) 
Heartbeat CPU 0 instructions: 650000003 cycles: 472658308 heartbeat IPC: 1.13748 cumulative IPC: 1.15847 (Simulation time: 1 hr 43 min 31 sec) 
Heartbeat CPU 3 instructions: 360000000 cycles: 475354531 heartbeat IPC: 0.431209 cumulative IPC: 0.456834 (Simulation time: 1 hr 43 min 59 sec) 
Heartbeat CPU 0 instructions: 660000000 cycles: 481473350 heartbeat IPC: 1.13442 cumulative IPC: 1.15788 (Simulation time: 1 hr 45 min 1 sec) 
Heartbeat CPU 2 instructions: 530000002 cycles: 483361033 heartbeat IPC: 0.731662 cumulative IPC: 0.814606 (Simulation time: 1 hr 45 min 20 sec) 
Heartbeat CPU 0 instructions: 670000001 cycles: 490283359 heartbeat IPC: 1.13507 cumulative IPC: 1.15733 (Simulation time: 1 hr 46 min 30 sec) 
Heartbeat CPU 1 instructions: 390000002 cycles: 491603516 heartbeat IPC: 0.511965 cumulative IPC: 0.497104 (Simulation time: 1 hr 46 min 44 sec) 
Heartbeat CPU 2 instructions: 540000000 cycles: 497176091 heartbeat IPC: 0.723848 cumulative IPC: 0.811236 (Simulation time: 1 hr 47 min 40 sec) 
Heartbeat CPU 3 instructions: 370000003 cycles: 497429944 heartbeat IPC: 0.452993 cumulative IPC: 0.456606 (Simulation time: 1 hr 47 min 43 sec) 
Heartbeat CPU 0 instructions: 680000000 cycles: 499045174 heartbeat IPC: 1.14132 cumulative IPC: 1.15695 (Simulation time: 1 hr 47 min 59 sec) 
Heartbeat CPU 0 instructions: 690000000 cycles: 507711716 heartbeat IPC: 1.15386 cumulative IPC: 1.15688 (Simulation time: 1 hr 49 min 26 sec) 
Heartbeat CPU 1 instructions: 400000000 cycles: 511243000 heartbeat IPC: 0.509178 cumulative IPC: 0.497718 (Simulation time: 1 hr 50 min 3 sec) 
Heartbeat CPU 2 instructions: 550000001 cycles: 511259093 heartbeat IPC: 0.710076 cumulative IPC: 0.807546 (Simulation time: 1 hr 50 min 3 sec) 
Heartbeat CPU 0 instructions: 700000000 cycles: 515661402 heartbeat IPC: 1.25791 cumulative IPC: 1.15894 (Simulation time: 1 hr 50 min 48 sec) 
Heartbeat CPU 3 instructions: 380000000 cycles: 519680563 heartbeat IPC: 0.449426 cumulative IPC: 0.456201 (Simulation time: 1 hr 51 min 29 sec) 
Heartbeat CPU 0 instructions: 710000000 cycles: 523587342 heartbeat IPC: 1.26168 cumulative IPC: 1.16098 (Simulation time: 1 hr 52 min 9 sec) 
Heartbeat CPU 2 instructions: 560000000 cycles: 525287358 heartbeat IPC: 0.712846 cumulative IPC: 0.804226 (Simulation time: 1 hr 52 min 27 sec) 
Heartbeat CPU 1 instructions: 410000000 cycles: 528705100 heartbeat IPC: 0.572669 cumulative IPC: 0.500961 (Simulation time: 1 hr 53 min 3 sec) 
Heartbeat CPU 0 instructions: 720000000 cycles: 531500782 heartbeat IPC: 1.26367 cumulative IPC: 1.16298 (Simulation time: 1 hr 53 min 34 sec) 
Heartbeat CPU 2 instructions: 570000001 cycles: 537166244 heartbeat IPC: 0.84183 cumulative IPC: 0.805311 (Simulation time: 1 hr 54 min 34 sec) 
Heartbeat CPU 0 instructions: 730000000 cycles: 539444474 heartbeat IPC: 1.25886 cumulative IPC: 1.16482 (Simulation time: 1 hr 54 min 59 sec) 
Heartbeat CPU 3 instructions: 390000002 cycles: 542249755 heartbeat IPC: 0.443082 cumulative IPC: 0.455491 (Simulation time: 1 hr 55 min 29 sec) 
Heartbeat CPU 1 instructions: 420000000 cycles: 545865177 heartbeat IPC: 0.582748 cumulative IPC: 0.504297 (Simulation time: 1 hr 56 min 3 sec) 
Heartbeat CPU 2 instructions: 580000000 cycles: 548579342 heartbeat IPC: 0.876186 cumulative IPC: 0.807221 (Simulation time: 1 hr 56 min 30 sec) 
Heartbeat CPU 0 instructions: 740000000 cycles: 550039598 heartbeat IPC: 0.94383 cumulative IPC: 1.15931 (Simulation time: 1 hr 56 min 45 sec) 
Heartbeat CPU 2 instructions: 590000003 cycles: 560984350 heartbeat IPC: 0.806126 cumulative IPC: 0.80719 (Simulation time: 1 hr 58 min 32 sec) 
Heartbeat CPU 0 instructions: 750000000 cycles: 561255320 heartbeat IPC: 0.891606 cumulative IPC: 1.15243 (Simulation time: 1 hr 58 min 35 sec) 
Heartbeat CPU 3 instructions: 400000000 cycles: 564791664 heartbeat IPC: 0.443618 cumulative IPC: 0.454883 (Simulation time: 1 hr 59 min 9 sec) 
Heartbeat CPU 1 instructions: 430000002 cycles: 565686378 heartbeat IPC: 0.50451 cumulative IPC: 0.504306 (Simulation time: 1 hr 59 min 18 sec) 
Heartbeat CPU 0 instructions: 760000000 cycles: 572484456 heartbeat IPC: 0.89054 cumulative IPC: 1.14585 (Simulation time: 2 hr 0 min 25 sec) 
Heartbeat CPU 2 instructions: 600000000 cycles: 573247576 heartbeat IPC: 0.815446 cumulative IPC: 0.807416 (Simulation time: 2 hr 0 min 32 sec) 
Heartbeat CPU 0 instructions: 770000001 cycles: 583512182 heartbeat IPC: 0.906805 cumulative IPC: 1.1401 (Simulation time: 2 hr 2 min 14 sec) 
Heartbeat CPU 1 instructions: 440000000 cycles: 583972582 heartbeat IPC: 0.54686 cumulative IPC: 0.506002 (Simulation time: 2 hr 2 min 19 sec) 
Heartbeat CPU 2 instructions: 610000001 cycles: 585310058 heartbeat IPC: 0.829017 cumulative IPC: 0.807982 (Simulation time: 2 hr 2 min 33 sec) 
Heartbeat CPU 3 instructions: 410000001 cycles: 587021923 heartbeat IPC: 0.449837 cumulative IPC: 0.45464 (Simulation time: 2 hr 2 min 52 sec) 
Heartbeat CPU 0 instructions: 780000000 cycles: 590881460 heartbeat IPC: 1.35698 cumulative IPC: 1.14353 (Simulation time: 2 hr 3 min 33 sec) 
Heartbeat CPU 2 instructions: 620000000 cycles: 597718430 heartbeat IPC: 0.805907 cumulative IPC: 0.807927 (Simulation time: 2 hr 4 min 46 sec) 
Heartbeat CPU 0 instructions: 790000001 cycles: 598025594 heartbeat IPC: 1.39975 cumulative IPC: 1.1474 (Simulation time: 2 hr 4 min 49 sec) 
Heartbeat CPU 1 instructions: 450000000 cycles: 602734217 heartbeat IPC: 0.533003 cumulative IPC: 0.507063 (Simulation time: 2 hr 5 min 39 sec) 
Heartbeat CPU 0 instructions: 800000000 cycles: 605196501 heartbeat IPC: 1.39452 cumulative IPC: 1.15109 (Simulation time: 2 hr 6 min 6 sec) 
Heartbeat CPU 2 instructions: 630000002 cycles: 609811177 heartbeat IPC: 0.826942 cumulative IPC: 0.808402 (Simulation time: 2 hr 6 min 51 sec) 
Heartbeat CPU 3 instructions: 420000000 cycles: 609969695 heartbeat IPC: 0.435772 cumulative IPC: 0.453747 (Simulation time: 2 hr 6 min 52 sec) 
Heartbeat CPU 0 instructions: 810000003 cycles: 614871508 heartbeat IPC: 1.03359 cumulative IPC: 1.14877 (Simulation time: 2 hr 7 min 38 sec) 
Heartbeat CPU 1 instructions: 460000000 cycles: 621151637 heartbeat IPC: 0.542964 cumulative IPC: 0.508396 (Simulation time: 2 hr 8 min 42 sec) 
Heartbeat CPU 2 instructions: 640000000 cycles: 621973322 heartbeat IPC: 0.822223 cumulative IPC: 0.80874 (Simulation time: 2 hr 8 min 50 sec) 
Heartbeat CPU 0 instructions: 820000000 cycles: 622934936 heartbeat IPC: 1.24017 cumulative IPC: 1.15025 (Simulation time: 2 hr 9 min 0 sec) 
Heartbeat CPU 0 instructions: 830000002 cycles: 631197991 heartbeat IPC: 1.21021 cumulative IPC: 1.15123 (Simulation time: 2 hr 10 min 23 sec) 
Heartbeat CPU 3 instructions: 430000003 cycles: 633557805 heartbeat IPC: 0.423943 cumulative IPC: 0.452364 (Simulation time: 2 hr 10 min 47 sec) 
Heartbeat CPU 2 instructions: 650000000 cycles: 634258607 heartbeat IPC: 0.813982 cumulative IPC: 0.808867 (Simulation time: 2 hr 10 min 54 sec) 
Heartbeat CPU 0 instructions: 840000000 cycles: 640339295 heartbeat IPC: 1.09394 cumulative IPC: 1.15022 (Simulation time: 2 hr 11 min 57 sec) 
Heartbeat CPU 1 instructions: 470000003 cycles: 640656994 heartbeat IPC: 0.51268 cumulative IPC: 0.508558 (Simulation time: 2 hr 12 min 1 sec) 
Heartbeat CPU 2 instructions: 660000000 cycles: 646021676 heartbeat IPC: 0.850118 cumulative IPC: 0.809798 (Simulation time: 2 hr 12 min 56 sec) 
Heartbeat CPU 0 instructions: 850000002 cycles: 649477565 heartbeat IPC: 1.0943 cumulative IPC: 1.14924 (Simulation time: 2 hr 13 min 32 sec) 
Heartbeat CPU 3 instructions: 440000000 cycles: 656764464 heartbeat IPC: 0.430911 cumulative IPC: 0.451428 (Simulation time: 2 hr 14 min 49 sec) 
Heartbeat CPU 2 instructions: 670000000 cycles: 657687336 heartbeat IPC: 0.857217 cumulative IPC: 0.810837 (Simulation time: 2 hr 14 min 59 sec) 
Heartbeat CPU 1 instructions: 480000000 cycles: 658239768 heartbeat IPC: 0.568738 cumulative IPC: 0.510543 (Simulation time: 2 hr 15 min 5 sec) 
Heartbeat CPU 0 instructions: 860000000 cycles: 658546856 heartbeat IPC: 1.10262 cumulative IPC: 1.14845 (Simulation time: 2 hr 15 min 8 sec) 
Heartbeat CPU 0 instructions: 870000002 cycles: 667586265 heartbeat IPC: 1.10627 cumulative IPC: 1.14775 (Simulation time: 2 hr 16 min 44 sec) 
Heartbeat CPU 2 instructions: 680000000 cycles: 668838047 heartbeat IPC: 0.896804 cumulative IPC: 0.8126 (Simulation time: 2 hr 16 min 57 sec) 
Heartbeat CPU 1 instructions: 490000003 cycles: 676636758 heartbeat IPC: 0.543567 cumulative IPC: 0.511644 (Simulation time: 2 hr 18 min 19 sec) 
Heartbeat CPU 0 instructions: 880000000 cycles: 676687495 heartbeat IPC: 1.09875 cumulative IPC: 1.14694 (Simulation time: 2 hr 18 min 20 sec) 
Heartbeat CPU 3 instructions: 450000001 cycles: 679518666 heartbeat IPC: 0.439479 cumulative IPC: 0.450937 (Simulation time: 2 hr 18 min 49 sec) 
Heartbeat CPU 2 instructions: 690000001 cycles: 680292224 heartbeat IPC: 0.873044 cumulative IPC: 0.813847 (Simulation time: 2 hr 18 min 58 sec) 
Heartbeat CPU 0 instructions: 890000001 cycles: 685789147 heartbeat IPC: 1.0987 cumulative IPC: 1.14615 (Simulation time: 2 hr 19 min 56 sec) 
Heartbeat CPU 2 instructions: 700000000 cycles: 691859859 heartbeat IPC: 0.864481 cumulative IPC: 0.81488 (Simulation time: 2 hr 21 min 0 sec) 
Heartbeat CPU 0 instructions: 900000000 cycles: 694844610 heartbeat IPC: 1.10431 cumulative IPC: 1.14549 (Simulation time: 2 hr 21 min 31 sec) 
Heartbeat CPU 1 instructions: 500000000 cycles: 695775981 heartbeat IPC: 0.522487 cumulative IPC: 0.512008 (Simulation time: 2 hr 21 min 40 sec) 
Heartbeat CPU 3 instructions: 460000000 cycles: 702106609 heartbeat IPC: 0.442714 cumulative IPC: 0.450615 (Simulation time: 2 hr 22 min 44 sec) 
Heartbeat CPU 0 instructions: 910000003 cycles: 703912626 heartbeat IPC: 1.10278 cumulative IPC: 1.14482 (Simulation time: 2 hr 23 min 2 sec) 
Heartbeat CPU 2 instructions: 710000001 cycles: 705443440 heartbeat IPC: 0.736183 cumulative IPC: 0.813038 (Simulation time: 2 hr 23 min 17 sec) 
Heartbeat CPU 0 instructions: 920000000 cycles: 713499620 heartbeat IPC: 1.04308 cumulative IPC: 1.14316 (Simulation time: 2 hr 24 min 35 sec) 
Heartbeat CPU 1 instructions: 510000000 cycles: 717592172 heartbeat IPC: 0.458375 cumulative IPC: 0.510033 (Simulation time: 2 hr 25 min 18 sec) 
Heartbeat CPU 2 instructions: 720000000 cycles: 718997271 heartbeat IPC: 0.737799 cumulative IPC: 0.811321 (Simulation time: 2 hr 25 min 33 sec) 
Heartbeat CPU 0 instructions: 930000000 cycles: 720789427 heartbeat IPC: 1.37178 cumulative IPC: 1.14596 (Simulation time: 2 hr 25 min 52 sec) 
Heartbeat CPU 3 instructions: 470000000 cycles: 724524541 heartbeat IPC: 0.446071 cumulative IPC: 0.450445 (Simulation time: 2 hr 26 min 32 sec) 
Heartbeat CPU 0 instructions: 940000000 cycles: 728908638 heartbeat IPC: 1.23165 cumulative IPC: 1.14711 (Simulation time: 2 hr 27 min 15 sec) 
Heartbeat CPU 2 instructions: 730000001 cycles: 732710057 heartbeat IPC: 0.729246 cumulative IPC: 0.809469 (Simulation time: 2 hr 27 min 53 sec) 
Heartbeat CPU 1 instructions: 520000000 cycles: 736987683 heartbeat IPC: 0.515583 cumulative IPC: 0.510209 (Simulation time: 2 hr 28 min 37 sec) 
Heartbeat CPU 0 instructions: 950000000 cycles: 737078749 heartbeat IPC: 1.22397 cumulative IPC: 1.14814 (Simulation time: 2 hr 28 min 38 sec) 
Heartbeat CPU 0 instructions: 960000000 cycles: 745822969 heartbeat IPC: 1.14361 cumulative IPC: 1.14807 (Simulation time: 2 hr 30 min 9 sec) 
Heartbeat CPU 2 instructions: 740000000 cycles: 745904407 heartbeat IPC: 0.7579 cumulative IPC: 0.808373 (Simulation time: 2 hr 30 min 10 sec) 
Heartbeat CPU 3 instructions: 480000000 cycles: 747773818 heartbeat IPC: 0.430121 cumulative IPC: 0.449687 (Simulation time: 2 hr 30 min 30 sec) 
Heartbeat CPU 0 instructions: 970000002 cycles: 755245150 heartbeat IPC: 1.06133 cumulative IPC: 1.14678 (Simulation time: 2 hr 31 min 49 sec) 
Heartbeat CPU 1 instructions: 530000001 cycles: 756258244 heartbeat IPC: 0.518926 cumulative IPC: 0.510475 (Simulation time: 2 hr 32 min 0 sec) 
Heartbeat CPU 2 instructions: 750000003 cycles: 757416502 heartbeat IPC: 0.868652 cumulative IPC: 0.80947 (Simulation time: 2 hr 32 min 11 sec) 
Heartbeat CPU 0 instructions: 980000000 cycles: 761469587 heartbeat IPC: 1.60657 cumulative IPC: 1.15128 (Simulation time: 2 hr 32 min 59 sec) 
Heartbeat CPU 0 instructions: 990000001 cycles: 767384319 heartbeat IPC: 1.69069 cumulative IPC: 1.15624 (Simulation time: 2 hr 34 min 9 sec) 
Heartbeat CPU 2 instructions: 760000000 cycles: 768889436 heartbeat IPC: 0.871616 cumulative IPC: 0.810578 (Simulation time: 2 hr 34 min 26 sec) 
Heartbeat CPU 3 instructions: 490000003 cycles: 769357709 heartbeat IPC: 0.463309 cumulative IPC: 0.450143 (Simulation time: 2 hr 34 min 32 sec) 
Heartbeat CPU 0 instructions: 1000000000 cycles: 773281103 heartbeat IPC: 1.69584 cumulative IPC: 1.16115 (Simulation time: 2 hr 35 min 17 sec) 
Heartbeat CPU 1 instructions: 540000000 cycles: 774995153 heartbeat IPC: 0.533706 cumulative IPC: 0.511145 (Simulation time: 2 hr 35 min 37 sec) 
Heartbeat CPU 0 instructions: 1010000001 cycles: 779138552 heartbeat IPC: 1.70723 cumulative IPC: 1.16604 (Simulation time: 2 hr 36 min 23 sec) 
Heartbeat CPU 2 instructions: 770000001 cycles: 781082511 heartbeat IPC: 0.820138 cumulative IPC: 0.810755 (Simulation time: 2 hr 36 min 45 sec) 
Heartbeat CPU 0 instructions: 1020000000 cycles: 784992517 heartbeat IPC: 1.70824 cumulative IPC: 1.17085 (Simulation time: 2 hr 37 min 30 sec) 
Heartbeat CPU 3 instructions: 500000000 cycles: 789941707 heartbeat IPC: 0.485814 cumulative IPC: 0.451247 (Simulation time: 2 hr 38 min 24 sec) 
Heartbeat CPU 0 instructions: 1030000001 cycles: 790868858 heartbeat IPC: 1.70174 cumulative IPC: 1.17554 (Simulation time: 2 hr 38 min 34 sec) 
Heartbeat CPU 2 instructions: 780000000 cycles: 793218365 heartbeat IPC: 0.824005 cumulative IPC: 0.810996 (Simulation time: 2 hr 38 min 57 sec) 
Heartbeat CPU 1 instructions: 550000002 cycles: 795005047 heartbeat IPC: 0.499753 cumulative IPC: 0.510805 (Simulation time: 2 hr 39 min 16 sec) 
Heartbeat CPU 0 instructions: 1040000000 cycles: 796751828 heartbeat IPC: 1.69982 cumulative IPC: 1.18013 (Simulation time: 2 hr 39 min 33 sec) 
Heartbeat CPU 0 instructions: 1050000000 cycles: 802804458 heartbeat IPC: 1.65217 cumulative IPC: 1.18435 (Simulation time: 2 hr 40 min 33 sec) 
Heartbeat CPU 2 instructions: 790000000 cycles: 805443891 heartbeat IPC: 0.817961 cumulative IPC: 0.811121 (Simulation time: 2 hr 40 min 58 sec) 
Heartbeat CPU 0 instructions: 1060000000 cycles: 810792676 heartbeat IPC: 1.25184 cumulative IPC: 1.18513 (Simulation time: 2 hr 41 min 49 sec) 
Heartbeat CPU 3 instructions: 510000003 cycles: 812125286 heartbeat IPC: 0.450784 cumulative IPC: 0.451232 (Simulation time: 2 hr 42 min 3 sec) 
Heartbeat CPU 1 instructions: 560000000 cycles: 813132538 heartbeat IPC: 0.551648 cumulative IPC: 0.511881 (Simulation time: 2 hr 42 min 12 sec) 
Heartbeat CPU 0 instructions: 1070000002 cycles: 816883876 heartbeat IPC: 1.64171 cumulative IPC: 1.18915 (Simulation time: 2 hr 42 min 53 sec) 
Heartbeat CPU 2 instructions: 800000000 cycles: 817588639 heartbeat IPC: 0.823401 cumulative IPC: 0.811337 (Simulation time: 2 hr 43 min 0 sec) 
Heartbeat CPU 0 instructions: 1080000000 cycles: 822785428 heartbeat IPC: 1.69447 cumulative IPC: 1.19343 (Simulation time: 2 hr 43 min 55 sec) 
Heartbeat CPU 0 instructions: 1090000003 cycles: 828688267 heartbeat IPC: 1.6941 cumulative IPC: 1.19763 (Simulation time: 2 hr 44 min 55 sec) 
Heartbeat CPU 2 instructions: 810000002 cycles: 829595179 heartbeat IPC: 0.83288 cumulative IPC: 0.811704 (Simulation time: 2 hr 45 min 5 sec) 
Heartbeat CPU 3 instructions: 520000000 cycles: 832633043 heartbeat IPC: 0.48762 cumulative IPC: 0.452287 (Simulation time: 2 hr 45 min 36 sec) 
Heartbeat CPU 1 instructions: 570000002 cycles: 834178143 heartbeat IPC: 0.475159 cumulative IPC: 0.510791 (Simulation time: 2 hr 45 min 53 sec) 
Heartbeat CPU 0 instructions: 1100000000 cycles: 834621930 heartbeat IPC: 1.6853 cumulative IPC: 1.20171 (Simulation time: 2 hr 45 min 57 sec) 
Heartbeat CPU 0 instructions: 1110000002 cycles: 840520531 heartbeat IPC: 1.69532 cumulative IPC: 1.20578 (Simulation time: 2 hr 47 min 0 sec) 
Heartbeat CPU 2 instructions: 820000000 cycles: 840953830 heartbeat IPC: 0.880386 cumulative IPC: 0.812794 (Simulation time: 2 hr 47 min 4 sec) 
Heartbeat CPU 0 instructions: 1120000000 cycles: 846465229 heartbeat IPC: 1.68217 cumulative IPC: 1.2097 (Simulation time: 2 hr 48 min 0 sec) 
Heartbeat CPU 2 instructions: 830000000 cycles: 852065841 heartbeat IPC: 0.899927 cumulative IPC: 0.814126 (Simulation time: 2 hr 48 min 54 sec) 
Heartbeat CPU 0 instructions: 1130000002 cycles: 852458401 heartbeat IPC: 1.66857 cumulative IPC: 1.21348 (Simulation time: 2 hr 48 min 58 sec) 
Heartbeat CPU 3 instructions: 530000000 cycles: 855066122 heartbeat IPC: 0.44577 cumulative IPC: 0.452087 (Simulation time: 2 hr 49 min 24 sec) 
Heartbeat CPU 0 instructions: 1140000000 cycles: 858549245 heartbeat IPC: 1.64181 cumulative IPC: 1.21704 (Simulation time: 2 hr 49 min 56 sec) 
Heartbeat CPU 1 instructions: 580000000 cycles: 861685121 heartbeat IPC: 0.363544 cumulative IPC: 0.505292 (Simulation time: 2 hr 50 min 24 sec) 
Heartbeat CPU 2 instructions: 840000000 cycles: 863356333 heartbeat IPC: 0.885701 cumulative IPC: 0.81522 (Simulation time: 2 hr 50 min 40 sec) 
Heartbeat CPU 0 instructions: 1150000000 cycles: 866539182 heartbeat IPC: 1.25157 cumulative IPC: 1.21741 (Simulation time: 2 hr 51 min 10 sec) 
Heartbeat CPU 0 instructions: 1160000000 cycles: 872780197 heartbeat IPC: 1.6023 cumulative IPC: 1.22063 (Simulation time: 2 hr 52 min 8 sec) 
Heartbeat CPU 2 instructions: 850000000 cycles: 876404346 heartbeat IPC: 0.7664 cumulative IPC: 0.814372 (Simulation time: 2 hr 52 min 44 sec) 
Heartbeat CPU 3 instructions: 540000000 cycles: 877207480 heartbeat IPC: 0.451643 cumulative IPC: 0.452074 (Simulation time: 2 hr 52 min 52 sec) 
Heartbeat CPU 0 instructions: 1170000002 cycles: 878717347 heartbeat IPC: 1.68431 cumulative IPC: 1.22428 (Simulation time: 2 hr 53 min 8 sec) 
Heartbeat CPU 0 instructions: 1180000000 cycles: 884653207 heartbeat IPC: 1.68468 cumulative IPC: 1.22788 (Simulation time: 2 hr 54 min 5 sec) 
Heartbeat CPU 2 instructions: 860000000 cycles: 890066631 heartbeat IPC: 0.731942 cumulative IPC: 0.8129 (Simulation time: 2 hr 54 min 57 sec) 
Heartbeat CPU 1 instructions: 590000002 cycles: 890264260 heartbeat IPC: 0.349906 cumulative IPC: 0.499488 (Simulation time: 2 hr 54 min 59 sec) 
Heartbeat CPU 0 instructions: 1190000000 cycles: 890570175 heartbeat IPC: 1.69005 cumulative IPC: 1.23145 (Simulation time: 2 hr 55 min 2 sec) 
Heartbeat CPU 0 instructions: 1200000000 cycles: 896440492 heartbeat IPC: 1.70349 cumulative IPC: 1.23504 (Simulation time: 2 hr 56 min 2 sec) 
Heartbeat CPU 3 instructions: 550000000 cycles: 899626326 heartbeat IPC: 0.446053 cumulative IPC: 0.4519 (Simulation time: 2 hr 56 min 34 sec) 
Heartbeat CPU 0 instructions: 1210000003 cycles: 902304877 heartbeat IPC: 1.70521 cumulative IPC: 1.23859 (Simulation time: 2 hr 57 min 1 sec) 
Heartbeat CPU 2 instructions: 870000000 cycles: 904112096 heartbeat IPC: 0.711974 cumulative IPC: 0.81108 (Simulation time: 2 hr 57 min 19 sec) 
Heartbeat CPU 0 instructions: 1220000000 cycles: 908174545 heartbeat IPC: 1.70367 cumulative IPC: 1.24208 (Simulation time: 2 hr 58 min 0 sec) 
Heartbeat CPU 1 instructions: 600000000 cycles: 908709597 heartbeat IPC: 0.542142 cumulative IPC: 0.500492 (Simulation time: 2 hr 58 min 6 sec) 
Heartbeat CPU 0 instructions: 1230000001 cycles: 914096466 heartbeat IPC: 1.68864 cumulative IPC: 1.24543 (Simulation time: 2 hr 58 min 57 sec) 
Heartbeat CPU 2 instructions: 880000000 cycles: 918071935 heartbeat IPC: 0.716341 cumulative IPC: 0.809412 (Simulation time: 2 hr 59 min 33 sec) 
Heartbeat CPU 0 instructions: 1240000000 cycles: 921963693 heartbeat IPC: 1.2711 cumulative IPC: 1.24568 (Simulation time: 3 hr 0 min 9 sec) 
Heartbeat CPU 3 instructions: 560000000 cycles: 922446505 heartbeat IPC: 0.438209 cumulative IPC: 0.451508 (Simulation time: 3 hr 0 min 14 sec) 
Heartbeat CPU 1 instructions: 610000002 cycles: 926539045 heartbeat IPC: 0.56087 cumulative IPC: 0.501835 (Simulation time: 3 hr 0 min 53 sec) 
Finished CPU 0 instructions: 1000000001 cycles: 801610187 cumulative IPC: 1.24749 (Simulation time: 3 hr 0 min 55 sec) 
Heartbeat CPU 0 instructions: 1250000001 cycles: 928270744 heartbeat IPC: 1.58553 cumulative IPC: 1.24835 (Simulation time: 3 hr 1 min 11 sec) 
Heartbeat CPU 2 instructions: 890000001 cycles: 931715766 heartbeat IPC: 0.732932 cumulative IPC: 0.808119 (Simulation time: 3 hr 1 min 46 sec) 
Heartbeat CPU 0 instructions: 1260000000 cycles: 934168533 heartbeat IPC: 1.69555 cumulative IPC: 1.25161 (Simulation time: 3 hr 2 min 13 sec) 
Heartbeat CPU 0 instructions: 1270000002 cycles: 940068966 heartbeat IPC: 1.69479 cumulative IPC: 1.25482 (Simulation time: 3 hr 3 min 21 sec) 
Heartbeat CPU 2 instructions: 900000000 cycles: 943610240 heartbeat IPC: 0.840726 cumulative IPC: 0.808593 (Simulation time: 3 hr 4 min 0 sec) 
Heartbeat CPU 3 instructions: 570000000 cycles: 944886513 heartbeat IPC: 0.445633 cumulative IPC: 0.451347 (Simulation time: 3 hr 4 min 14 sec) 
Heartbeat CPU 0 instructions: 1280000000 cycles: 945977428 heartbeat IPC: 1.69249 cumulative IPC: 1.25797 (Simulation time: 3 hr 4 min 26 sec) 
Heartbeat CPU 1 instructions: 620000000 cycles: 946690386 heartbeat IPC: 0.496245 cumulative IPC: 0.501698 (Simulation time: 3 hr 4 min 34 sec) 
Heartbeat CPU 0 instructions: 1290000001 cycles: 951869941 heartbeat IPC: 1.69707 cumulative IPC: 1.2611 (Simulation time: 3 hr 5 min 30 sec) 
Heartbeat CPU 2 instructions: 910000000 cycles: 957188769 heartbeat IPC: 0.736457 cumulative IPC: 0.807415 (Simulation time: 3 hr 6 min 28 sec) 
Heartbeat CPU 0 instructions: 1300000000 cycles: 957777949 heartbeat IPC: 1.69262 cumulative IPC: 1.26416 (Simulation time: 3 hr 6 min 34 sec) 
Heartbeat CPU 0 instructions: 1310000002 cycles: 963720845 heartbeat IPC: 1.68268 cumulative IPC: 1.26713 (Simulation time: 3 hr 7 min 37 sec) 
Heartbeat CPU 1 instructions: 630000001 cycles: 965623634 heartbeat IPC: 0.528171 cumulative IPC: 0.502295 (Simulation time: 3 hr 7 min 57 sec) 
Heartbeat CPU 3 instructions: 580000000 cycles: 966016183 heartbeat IPC: 0.473268 cumulative IPC: 0.451898 (Simulation time: 3 hr 8 min 1 sec) 
Heartbeat CPU 0 instructions: 1320000000 cycles: 969621839 heartbeat IPC: 1.69463 cumulative IPC: 1.27011 (Simulation time: 3 hr 8 min 37 sec) 
Heartbeat CPU 2 instructions: 920000000 cycles: 971164480 heartbeat IPC: 0.715527 cumulative IPC: 0.805898 (Simulation time: 3 hr 8 min 52 sec) 
Heartbeat CPU 0 instructions: 1330000001 cycles: 977444533 heartbeat IPC: 1.27833 cumulative IPC: 1.27019 (Simulation time: 3 hr 9 min 53 sec) 
Heartbeat CPU 0 instructions: 1340000000 cycles: 983866197 heartbeat IPC: 1.55723 cumulative IPC: 1.27234 (Simulation time: 3 hr 10 min 59 sec) 
Heartbeat CPU 2 instructions: 930000001 cycles: 985146626 heartbeat IPC: 0.715198 cumulative IPC: 0.804423 (Simulation time: 3 hr 11 min 13 sec) 
Heartbeat CPU 1 instructions: 640000000 cycles: 986207363 heartbeat IPC: 0.485821 cumulative IPC: 0.501901 (Simulation time: 3 hr 11 min 25 sec) 
Heartbeat CPU 3 instructions: 590000002 cycles: 988040231 heartbeat IPC: 0.454049 cumulative IPC: 0.451953 (Simulation time: 3 hr 11 min 44 sec) 
Heartbeat CPU 0 instructions: 1350000001 cycles: 989793676 heartbeat IPC: 1.68706 cumulative IPC: 1.27518 (Simulation time: 3 hr 12 min 4 sec) 
Heartbeat CPU 0 instructions: 1360000000 cycles: 995716449 heartbeat IPC: 1.6884 cumulative IPC: 1.27799 (Simulation time: 3 hr 13 min 8 sec) 
Heartbeat CPU 2 instructions: 940000000 cycles: 999318010 heartbeat IPC: 0.705647 cumulative IPC: 0.802822 (Simulation time: 3 hr 13 min 48 sec) 
Heartbeat CPU 0 instructions: 1370000003 cycles: 1001571707 heartbeat IPC: 1.70787 cumulative IPC: 1.28086 (Simulation time: 3 hr 14 min 13 sec) 
Heartbeat CPU 1 instructions: 650000000 cycles: 1005216827 heartbeat IPC: 0.526054 cumulative IPC: 0.502422 (Simulation time: 3 hr 14 min 53 sec) 
Heartbeat CPU 0 instructions: 1380000000 cycles: 1007424180 heartbeat IPC: 1.70868 cumulative IPC: 1.2837 (Simulation time: 3 hr 15 min 16 sec) 
Heartbeat CPU 3 instructions: 600000000 cycles: 1008347941 heartbeat IPC: 0.492424 cumulative IPC: 0.452883 (Simulation time: 3 hr 15 min 27 sec) 
Heartbeat CPU 0 instructions: 1390000000 cycles: 1013279625 heartbeat IPC: 1.70781 cumulative IPC: 1.2865 (Simulation time: 3 hr 16 min 20 sec) 
Heartbeat CPU 2 instructions: 950000002 cycles: 1013420325 heartbeat IPC: 0.709104 cumulative IPC: 0.801334 (Simulation time: 3 hr 16 min 21 sec) 
Heartbeat CPU 0 instructions: 1400000000 cycles: 1019150906 heartbeat IPC: 1.70321 cumulative IPC: 1.28923 (Simulation time: 3 hr 17 min 21 sec) 
Heartbeat CPU 1 instructions: 660000000 cycles: 1021983854 heartbeat IPC: 0.596409 cumulative IPC: 0.504179 (Simulation time: 3 hr 17 min 51 sec) 
Heartbeat CPU 0 instructions: 1410000000 cycles: 1024961797 heartbeat IPC: 1.72091 cumulative IPC: 1.29202 (Simulation time: 3 hr 18 min 21 sec) 
Heartbeat CPU 2 instructions: 960000000 cycles: 1027342610 heartbeat IPC: 0.718273 cumulative IPC: 0.800052 (Simulation time: 3 hr 18 min 44 sec) 
Heartbeat CPU 3 instructions: 610000001 cycles: 1031615990 heartbeat IPC: 0.429774 cumulative IPC: 0.45229 (Simulation time: 3 hr 19 min 26 sec) 
Heartbeat CPU 0 instructions: 1420000000 cycles: 1032742329 heartbeat IPC: 1.28526 cumulative IPC: 1.29196 (Simulation time: 3 hr 19 min 37 sec) 
Heartbeat CPU 1 instructions: 670000002 cycles: 1038459027 heartbeat IPC: 0.606974 cumulative IPC: 0.506034 (Simulation time: 3 hr 20 min 36 sec) 
Heartbeat CPU 0 instructions: 1430000000 cycles: 1039272125 heartbeat IPC: 1.53144 cumulative IPC: 1.29367 (Simulation time: 3 hr 20 min 45 sec) 
Heartbeat CPU 2 instructions: 970000003 cycles: 1040514814 heartbeat IPC: 0.759175 cumulative IPC: 0.799464 (Simulation time: 3 hr 20 min 58 sec) 
Heartbeat CPU 0 instructions: 1440000000 cycles: 1045169584 heartbeat IPC: 1.69565 cumulative IPC: 1.29625 (Simulation time: 3 hr 21 min 49 sec) 
Heartbeat CPU 0 instructions: 1450000002 cycles: 1051062396 heartbeat IPC: 1.69698 cumulative IPC: 1.2988 (Simulation time: 3 hr 22 min 50 sec) 
Heartbeat CPU 2 instructions: 980000000 cycles: 1052364364 heartbeat IPC: 0.843914 cumulative IPC: 0.800032 (Simulation time: 3 hr 23 min 4 sec) 
Heartbeat CPU 3 instructions: 620000000 cycles: 1054671026 heartbeat IPC: 0.433745 cumulative IPC: 0.45183 (Simulation time: 3 hr 23 min 28 sec) 
Heartbeat CPU 0 instructions: 1460000000 cycles: 1056967770 heartbeat IPC: 1.69337 cumulative IPC: 1.3013 (Simulation time: 3 hr 23 min 52 sec) 
Heartbeat CPU 1 instructions: 680000000 cycles: 1057475526 heartbeat IPC: 0.525859 cumulative IPC: 0.506438 (Simulation time: 3 hr 23 min 58 sec) 
Heartbeat CPU 0 instructions: 1470000000 cycles: 1062875119 heartbeat IPC: 1.69281 cumulative IPC: 1.30377 (Simulation time: 3 hr 24 min 51 sec) 
Heartbeat CPU 2 instructions: 990000003 cycles: 1065331748 heartbeat IPC: 0.771166 cumulative IPC: 0.799634 (Simulation time: 3 hr 25 min 16 sec) 
Heartbeat CPU 0 instructions: 1480000000 cycles: 1068758782 heartbeat IPC: 1.69962 cumulative IPC: 1.30623 (Simulation time: 3 hr 25 min 50 sec) 
Heartbeat CPU 0 instructions: 1490000002 cycles: 1074690663 heartbeat IPC: 1.68581 cumulative IPC: 1.30861 (Simulation time: 3 hr 26 min 49 sec) 
Heartbeat CPU 1 instructions: 690000001 cycles: 1076393397 heartbeat IPC: 0.528601 cumulative IPC: 0.506879 (Simulation time: 3 hr 27 min 6 sec) 
Heartbeat CPU 3 instructions: 630000003 cycles: 1077587609 heartbeat IPC: 0.436365 cumulative IPC: 0.451458 (Simulation time: 3 hr 27 min 18 sec) 
Heartbeat CPU 2 instructions: 1000000000 cycles: 1079252198 heartbeat IPC: 0.718367 cumulative IPC: 0.798448 (Simulation time: 3 hr 27 min 34 sec) 
Heartbeat CPU 0 instructions: 1500000000 cycles: 1080469145 heartbeat IPC: 1.73056 cumulative IPC: 1.31116 (Simulation time: 3 hr 27 min 45 sec) 
Heartbeat CPU 0 instructions: 1510000003 cycles: 1088198011 heartbeat IPC: 1.29385 cumulative IPC: 1.31102 (Simulation time: 3 hr 28 min 57 sec) 
Heartbeat CPU 2 instructions: 1010000000 cycles: 1092955817 heartbeat IPC: 0.729734 cumulative IPC: 0.797475 (Simulation time: 3 hr 29 min 40 sec) 
Heartbeat CPU 1 instructions: 700000000 cycles: 1094977040 heartbeat IPC: 0.538108 cumulative IPC: 0.507477 (Simulation time: 3 hr 29 min 57 sec) 
Heartbeat CPU 3 instructions: 640000000 cycles: 1099036777 heartbeat IPC: 0.466218 cumulative IPC: 0.451783 (Simulation time: 3 hr 30 min 29 sec) 
Heartbeat CPU 0 instructions: 1520000000 cycles: 1102349165 heartbeat IPC: 0.706656 cumulative IPC: 1.30227 (Simulation time: 3 hr 30 min 55 sec) 
Heartbeat CPU 2 instructions: 1020000000 cycles: 1106894391 heartbeat IPC: 0.717434 cumulative IPC: 0.796339 (Simulation time: 3 hr 31 min 31 sec) 
Heartbeat CPU 1 instructions: 710000000 cycles: 1113613533 heartbeat IPC: 0.536582 cumulative IPC: 0.508026 (Simulation time: 3 hr 32 min 25 sec) 
Heartbeat CPU 3 instructions: 650000003 cycles: 1119304695 heartbeat IPC: 0.493391 cumulative IPC: 0.452631 (Simulation time: 3 hr 33 min 13 sec) 
Heartbeat CPU 2 instructions: 1030000002 cycles: 1119631105 heartbeat IPC: 0.785132 cumulative IPC: 0.796195 (Simulation time: 3 hr 33 min 16 sec) 
Heartbeat CPU 0 instructions: 1530000000 cycles: 1120992410 heartbeat IPC: 0.536387 cumulative IPC: 1.28793 (Simulation time: 3 hr 33 min 28 sec) 
Heartbeat CPU 1 instructions: 720000000 cycles: 1132120914 heartbeat IPC: 0.540325 cumulative IPC: 0.50862 (Simulation time: 3 hr 34 min 58 sec) 
Heartbeat CPU 2 instructions: 1040000000 cycles: 1133139418 heartbeat IPC: 0.740285 cumulative IPC: 0.795446 (Simulation time: 3 hr 35 min 6 sec) 
Heartbeat CPU 3 instructions: 660000000 cycles: 1139442476 heartbeat IPC: 0.496579 cumulative IPC: 0.453504 (Simulation time: 3 hr 35 min 55 sec) 
Heartbeat CPU 0 instructions: 1540000000 cycles: 1139619554 heartbeat IPC: 0.536851 cumulative IPC: 1.27414 (Simulation time: 3 hr 35 min 56 sec) 
Heartbeat CPU 2 instructions: 1050000002 cycles: 1146438289 heartbeat IPC: 0.751944 cumulative IPC: 0.79488 (Simulation time: 3 hr 36 min 53 sec) 
Heartbeat CPU 1 instructions: 730000000 cycles: 1150106470 heartbeat IPC: 0.556002 cumulative IPC: 0.509451 (Simulation time: 3 hr 37 min 23 sec) 
Heartbeat CPU 0 instructions: 1550000003 cycles: 1158284519 heartbeat IPC: 0.535763 cumulative IPC: 1.2608 (Simulation time: 3 hr 38 min 28 sec) 
Heartbeat CPU 3 instructions: 670000002 cycles: 1159174900 heartbeat IPC: 0.50678 cumulative IPC: 0.45452 (Simulation time: 3 hr 38 min 36 sec) 
Heartbeat CPU 2 instructions: 1060000000 cycles: 1159357955 heartbeat IPC: 0.774014 cumulative IPC: 0.794619 (Simulation time: 3 hr 38 min 37 sec) 
Heartbeat CPU 1 instructions: 740000000 cycles: 1170012378 heartbeat IPC: 0.502363 cumulative IPC: 0.509316 (Simulation time: 3 hr 40 min 7 sec) 
Heartbeat CPU 2 instructions: 1070000001 cycles: 1171829735 heartbeat IPC: 0.80181 cumulative IPC: 0.794705 (Simulation time: 3 hr 40 min 22 sec) 
Heartbeat CPU 0 instructions: 1560000000 cycles: 1176921940 heartbeat IPC: 0.536555 cumulative IPC: 1.24797 (Simulation time: 3 hr 41 min 4 sec) 
Heartbeat CPU 3 instructions: 680000000 cycles: 1179437270 heartbeat IPC: 0.493526 cumulative IPC: 0.45527 (Simulation time: 3 hr 41 min 26 sec) 
Heartbeat CPU 2 instructions: 1080000000 cycles: 1183888546 heartbeat IPC: 0.829269 cumulative IPC: 0.795098 (Simulation time: 3 hr 42 min 3 sec) 
Heartbeat CPU 1 instructions: 750000000 cycles: 1186525051 heartbeat IPC: 0.605595 cumulative IPC: 0.510814 (Simulation time: 3 hr 42 min 24 sec) 
Heartbeat CPU 0 instructions: 1570000002 cycles: 1195548782 heartbeat IPC: 0.53686 cumulative IPC: 1.23559 (Simulation time: 3 hr 43 min 37 sec) 
Heartbeat CPU 2 instructions: 1090000001 cycles: 1198156953 heartbeat IPC: 0.700849 cumulative IPC: 0.793845 (Simulation time: 3 hr 43 min 57 sec) 
Heartbeat CPU 3 instructions: 690000002 cycles: 1198754426 heartbeat IPC: 0.517675 cumulative IPC: 0.456393 (Simulation time: 3 hr 44 min 2 sec) 
Heartbeat CPU 1 instructions: 760000000 cycles: 1205139238 heartbeat IPC: 0.537225 cumulative IPC: 0.511269 (Simulation time: 3 hr 44 min 53 sec) 
Heartbeat CPU 2 instructions: 1100000000 cycles: 1212666475 heartbeat IPC: 0.689202 cumulative IPC: 0.792449 (Simulation time: 3 hr 45 min 53 sec) 
Heartbeat CPU 0 instructions: 1580000000 cycles: 1214221870 heartbeat IPC: 0.53553 cumulative IPC: 1.22359 (Simulation time: 3 hr 46 min 5 sec) 
Heartbeat CPU 3 instructions: 700000000 cycles: 1219240086 heartbeat IPC: 0.488146 cumulative IPC: 0.456987 (Simulation time: 3 hr 46 min 45 sec) 
Heartbeat CPU 1 instructions: 770000000 cycles: 1223640106 heartbeat IPC: 0.540515 cumulative IPC: 0.511762 (Simulation time: 3 hr 47 min 21 sec) 
Heartbeat CPU 2 instructions: 1110000001 cycles: 1225429397 heartbeat IPC: 0.78352 cumulative IPC: 0.792346 (Simulation time: 3 hr 47 min 36 sec) 
Heartbeat CPU 0 instructions: 1590000001 cycles: 1232856789 heartbeat IPC: 0.536627 cumulative IPC: 1.21203 (Simulation time: 3 hr 48 min 35 sec) 
Heartbeat CPU 2 instructions: 1120000000 cycles: 1238000152 heartbeat IPC: 0.795497 cumulative IPC: 0.792381 (Simulation time: 3 hr 49 min 17 sec) 
Heartbeat CPU 3 instructions: 710000001 cycles: 1241843982 heartbeat IPC: 0.442402 cumulative IPC: 0.456692 (Simulation time: 3 hr 49 min 48 sec) 
Heartbeat CPU 1 instructions: 780000000 cycles: 1243573796 heartbeat IPC: 0.501663 cumulative IPC: 0.511582 (Simulation time: 3 hr 50 min 2 sec) 
Heartbeat CPU 2 instructions: 1130000000 cycles: 1250672275 heartbeat IPC: 0.789134 cumulative IPC: 0.792345 (Simulation time: 3 hr 50 min 58 sec) 
Heartbeat CPU 0 instructions: 1600000000 cycles: 1251492637 heartbeat IPC: 0.5366 cumulative IPC: 1.20086 (Simulation time: 3 hr 51 min 5 sec) 
Heartbeat CPU 3 instructions: 720000000 cycles: 1261869352 heartbeat IPC: 0.499366 cumulative IPC: 0.457444 (Simulation time: 3 hr 52 min 30 sec) 
Heartbeat CPU 2 instructions: 1140000000 cycles: 1263230788 heartbeat IPC: 0.796273 cumulative IPC: 0.792388 (Simulation time: 3 hr 52 min 41 sec) 
Heartbeat CPU 1 instructions: 790000001 cycles: 1265266662 heartbeat IPC: 0.460981 cumulative IPC: 0.510619 (Simulation time: 3 hr 52 min 58 sec) 
Heartbeat CPU 0 instructions: 1610000001 cycles: 1270163793 heartbeat IPC: 0.535586 cumulative IPC: 1.19001 (Simulation time: 3 hr 53 min 39 sec) 
Heartbeat CPU 2 instructions: 1150000003 cycles: 1275000065 heartbeat IPC: 0.84967 cumulative IPC: 0.792974 (Simulation time: 3 hr 54 min 21 sec) 
Heartbeat CPU 3 instructions: 730000003 cycles: 1283828144 heartbeat IPC: 0.455399 cumulative IPC: 0.457405 (Simulation time: 3 hr 55 min 35 sec) 
Heartbeat CPU 1 instructions: 800000000 cycles: 1285314690 heartbeat IPC: 0.498802 cumulative IPC: 0.510415 (Simulation time: 3 hr 55 min 48 sec) 
Heartbeat CPU 2 instructions: 1160000000 cycles: 1286849379 heartbeat IPC: 0.84393 cumulative IPC: 0.793494 (Simulation time: 3 hr 56 min 1 sec) 
Heartbeat CPU 0 instructions: 1620000000 cycles: 1288783003 heartbeat IPC: 0.53708 cumulative IPC: 1.17956 (Simulation time: 3 hr 56 min 17 sec) 
Heartbeat CPU 2 instructions: 1170000000 cycles: 1300289622 heartbeat IPC: 0.744034 cumulative IPC: 0.792928 (Simulation time: 3 hr 57 min 49 sec) 
Heartbeat CPU 1 instructions: 810000001 cycles: 1303137028 heartbeat IPC: 0.561094 cumulative IPC: 0.511181 (Simulation time: 3 hr 58 min 12 sec) 
Heartbeat CPU 3 instructions: 740000000 cycles: 1306145878 heartbeat IPC: 0.448074 cumulative IPC: 0.457229 (Simulation time: 3 hr 58 min 36 sec) 
Heartbeat CPU 0 instructions: 1630000002 cycles: 1307419327 heartbeat IPC: 0.536587 cumulative IPC: 1.16943 (Simulation time: 3 hr 58 min 46 sec) 
Heartbeat CPU 2 instructions: 1180000000 cycles: 1314577964 heartbeat IPC: 0.699871 cumulative IPC: 0.79181 (Simulation time: 3 hr 59 min 42 sec) 
Heartbeat CPU 1 instructions: 820000000 cycles: 1321469676 heartbeat IPC: 0.545475 cumulative IPC: 0.511707 (Simulation time: 4 hr 0 min 37 sec) 
Heartbeat CPU 0 instructions: 1640000000 cycles: 1326091553 heartbeat IPC: 0.535555 cumulative IPC: 1.15957 (Simulation time: 4 hr 1 min 16 sec) 
Heartbeat CPU 3 instructions: 750000001 cycles: 1326797445 heartbeat IPC: 0.484225 cumulative IPC: 0.457693 (Simulation time: 4 hr 1 min 21 sec) 
Heartbeat CPU 2 instructions: 1190000003 cycles: 1328907625 heartbeat IPC: 0.697853 cumulative IPC: 0.790692 (Simulation time: 4 hr 1 min 38 sec) 
Heartbeat CPU 1 instructions: 830000000 cycles: 1340759826 heartbeat IPC: 0.518399 cumulative IPC: 0.511813 (Simulation time: 4 hr 3 min 12 sec) 
Heartbeat CPU 2 instructions: 1200000000 cycles: 1343325985 heartbeat IPC: 0.69356 cumulative IPC: 0.789542 (Simulation time: 4 hr 3 min 32 sec) 
Heartbeat CPU 0 instructions: 1650000000 cycles: 1344713911 heartbeat IPC: 0.536989 cumulative IPC: 1.15007 (Simulation time: 4 hr 3 min 44 sec) 
Heartbeat CPU 3 instructions: 760000000 cycles: 1348101100 heartbeat IPC: 0.469403 cumulative IPC: 0.457897 (Simulation time: 4 hr 4 min 12 sec) 
Heartbeat CPU 2 instructions: 1210000000 cycles: 1355664456 heartbeat IPC: 0.810473 cumulative IPC: 0.789752 (Simulation time: 4 hr 5 min 13 sec) 
Heartbeat CPU 1 instructions: 840000000 cycles: 1359109185 heartbeat IPC: 0.544978 cumulative IPC: 0.512306 (Simulation time: 4 hr 5 min 41 sec) 
Heartbeat CPU 0 instructions: 1660000000 cycles: 1363359316 heartbeat IPC: 0.536325 cumulative IPC: 1.14082 (Simulation time: 4 hr 6 min 15 sec) 
Heartbeat CPU 2 instructions: 1220000000 cycles: 1367698820 heartbeat IPC: 0.830954 cumulative IPC: 0.790151 (Simulation time: 4 hr 6 min 52 sec) 
Heartbeat CPU 3 instructions: 770000001 cycles: 1370191785 heartbeat IPC: 0.45268 cumulative IPC: 0.457804 (Simulation time: 4 hr 7 min 12 sec) 
Heartbeat CPU 1 instructions: 850000000 cycles: 1376093238 heartbeat IPC: 0.588788 cumulative IPC: 0.513345 (Simulation time: 4 hr 8 min 0 sec) 
Heartbeat CPU 2 instructions: 1230000000 cycles: 1380410889 heartbeat IPC: 0.786654 cumulative IPC: 0.790116 (Simulation time: 4 hr 8 min 35 sec) 
Heartbeat CPU 0 instructions: 1670000001 cycles: 1382032209 heartbeat IPC: 0.535536 cumulative IPC: 1.13183 (Simulation time: 4 hr 8 min 48 sec) 
Finished CPU 2 instructions: 1000000001 cycles: 1265625321 cumulative IPC: 0.790123 (Simulation time: 4 hr 9 min 59 sec) 
Heartbeat CPU 3 instructions: 780000000 cycles: 1391832043 heartbeat IPC: 0.462102 cumulative IPC: 0.457878 (Simulation time: 4 hr 10 min 8 sec) 
Heartbeat CPU 2 instructions: 1240000000 cycles: 1392900151 heartbeat IPC: 0.800688 cumulative IPC: 0.79022 (Simulation time: 4 hr 10 min 16 sec) 
Heartbeat CPU 1 instructions: 860000000 cycles: 1395503611 heartbeat IPC: 0.515188 cumulative IPC: 0.513373 (Simulation time: 4 hr 10 min 36 sec) 
Heartbeat CPU 0 instructions: 1680000000 cycles: 1400670402 heartbeat IPC: 0.536533 cumulative IPC: 1.12313 (Simulation time: 4 hr 11 min 16 sec) 
Heartbeat CPU 2 instructions: 1250000001 cycles: 1405875096 heartbeat IPC: 0.770716 cumulative IPC: 0.790022 (Simulation time: 4 hr 11 min 57 sec) 
Heartbeat CPU 0 instructions: 1690000001 cycles: 1412710675 heartbeat IPC: 0.830546 cumulative IPC: 1.1204 (Simulation time: 4 hr 12 min 57 sec) 
Heartbeat CPU 3 instructions: 790000000 cycles: 1413786441 heartbeat IPC: 0.45549 cumulative IPC: 0.457837 (Simulation time: 4 hr 13 min 6 sec) 
Heartbeat CPU 2 instructions: 1260000000 cycles: 1418746593 heartbeat IPC: 0.77691 cumulative IPC: 0.789892 (Simulation time: 4 hr 13 min 50 sec) 
Heartbeat CPU 1 instructions: 870000002 cycles: 1419692692 heartbeat IPC: 0.41341 cumulative IPC: 0.511505 (Simulation time: 4 hr 13 min 59 sec) 
Heartbeat CPU 0 instructions: 1700000000 cycles: 1421027959 heartbeat IPC: 1.20232 cumulative IPC: 1.12092 (Simulation time: 4 hr 14 min 11 sec) 
Heartbeat CPU 0 instructions: 1710000003 cycles: 1427870483 heartbeat IPC: 1.46145 cumulative IPC: 1.12271 (Simulation time: 4 hr 15 min 20 sec) 
Heartbeat CPU 2 instructions: 1270000000 cycles: 1431580530 heartbeat IPC: 0.779184 cumulative IPC: 0.789787 (Simulation time: 4 hr 16 min 0 sec) 
Heartbeat CPU 3 instructions: 800000000 cycles: 1434467237 heartbeat IPC: 0.48354 cumulative IPC: 0.458243 (Simulation time: 4 hr 16 min 31 sec) 
Heartbeat CPU 0 instructions: 1720000000 cycles: 1434719544 heartbeat IPC: 1.46005 cumulative IPC: 1.12448 (Simulation time: 4 hr 16 min 34 sec) 
Heartbeat CPU 2 instructions: 1280000000 cycles: 1443197356 heartbeat IPC: 0.86082 cumulative IPC: 0.790413 (Simulation time: 4 hr 17 min 46 sec) 
Heartbeat CPU 1 instructions: 880000000 cycles: 1446001801 heartbeat IPC: 0.380096 cumulative IPC: 0.508888 (Simulation time: 4 hr 18 min 9 sec) 
Heartbeat CPU 0 instructions: 1730000000 cycles: 1449861340 heartbeat IPC: 0.660424 cumulative IPC: 1.11917 (Simulation time: 4 hr 18 min 40 sec) 
Heartbeat CPU 2 instructions: 1290000001 cycles: 1455096329 heartbeat IPC: 0.840409 cumulative IPC: 0.79086 (Simulation time: 4 hr 19 min 23 sec) 
Heartbeat CPU 3 instructions: 810000003 cycles: 1456134721 heartbeat IPC: 0.461521 cumulative IPC: 0.458296 (Simulation time: 4 hr 19 min 32 sec) 
Heartbeat CPU 0 instructions: 1740000000 cycles: 1465323408 heartbeat IPC: 0.646744 cumulative IPC: 1.11372 (Simulation time: 4 hr 20 min 44 sec) 
Heartbeat CPU 2 instructions: 1300000000 cycles: 1466982340 heartbeat IPC: 0.841325 cumulative IPC: 0.791307 (Simulation time: 4 hr 20 min 57 sec) 
Heartbeat CPU 1 instructions: 890000001 cycles: 1476777132 heartbeat IPC: 0.324936 cumulative IPC: 0.504699 (Simulation time: 4 hr 22 min 13 sec) 
Heartbeat CPU 3 instructions: 820000000 cycles: 1477997711 heartbeat IPC: 0.457394 cumulative IPC: 0.458282 (Simulation time: 4 hr 22 min 22 sec) 
Heartbeat CPU 2 instructions: 1310000000 cycles: 1479521191 heartbeat IPC: 0.797521 cumulative IPC: 0.791365 (Simulation time: 4 hr 22 min 34 sec) 
Heartbeat CPU 0 instructions: 1750000000 cycles: 1481777846 heartbeat IPC: 0.607739 cumulative IPC: 1.10758 (Simulation time: 4 hr 22 min 51 sec) 
Heartbeat CPU 2 instructions: 1320000000 cycles: 1493497566 heartbeat IPC: 0.715493 cumulative IPC: 0.79059 (Simulation time: 4 hr 24 min 23 sec) 
Heartbeat CPU 3 instructions: 830000001 cycles: 1498242819 heartbeat IPC: 0.493947 cumulative IPC: 0.458807 (Simulation time: 4 hr 24 min 59 sec) 
Heartbeat CPU 1 instructions: 900000000 cycles: 1498621865 heartbeat IPC: 0.457776 cumulative IPC: 0.503953 (Simulation time: 4 hr 25 min 2 sec) 
Heartbeat CPU 0 instructions: 1760000000 cycles: 1499654363 heartbeat IPC: 0.559393 cumulative IPC: 1.10046 (Simulation time: 4 hr 25 min 10 sec) 
Heartbeat CPU 2 instructions: 1330000003 cycles: 1507685719 heartbeat IPC: 0.704814 cumulative IPC: 0.789709 (Simulation time: 4 hr 26 min 12 sec) 
Heartbeat CPU 0 instructions: 1770000003 cycles: 1517511152 heartbeat IPC: 0.560011 cumulative IPC: 1.09352 (Simulation time: 4 hr 27 min 29 sec) 
Heartbeat CPU 3 instructions: 840000000 cycles: 1518374986 heartbeat IPC: 0.496717 cumulative IPC: 0.459355 (Simulation time: 4 hr 27 min 35 sec) 
Heartbeat CPU 1 instructions: 910000000 cycles: 1520652353 heartbeat IPC: 0.453916 cumulative IPC: 0.503163 (Simulation time: 4 hr 27 min 53 sec) 
Heartbeat CPU 2 instructions: 1340000000 cycles: 1522011960 heartbeat IPC: 0.69802 cumulative IPC: 0.788769 (Simulation time: 4 hr 28 min 2 sec) 
Heartbeat CPU 0 instructions: 1780000000 cycles: 1533847719 heartbeat IPC: 0.612124 cumulative IPC: 1.08794 (Simulation time: 4 hr 29 min 30 sec) 
Heartbeat CPU 2 instructions: 1350000000 cycles: 1535750448 heartbeat IPC: 0.727882 cumulative IPC: 0.788176 (Simulation time: 4 hr 29 min 44 sec) 
Heartbeat CPU 3 instructions: 850000002 cycles: 1538005599 heartbeat IPC: 0.509409 cumulative IPC: 0.460051 (Simulation time: 4 hr 30 min 2 sec) 
Heartbeat CPU 2 instructions: 1360000000 cycles: 1547803148 heartbeat IPC: 0.82969 cumulative IPC: 0.788528 (Simulation time: 4 hr 31 min 18 sec) 
Heartbeat CPU 1 instructions: 920000000 cycles: 1549316214 heartbeat IPC: 0.348871 cumulative IPC: 0.500058 (Simulation time: 4 hr 31 min 30 sec) 
Heartbeat CPU 0 instructions: 1790000003 cycles: 1549654682 heartbeat IPC: 0.632633 cumulative IPC: 1.08289 (Simulation time: 4 hr 31 min 33 sec) 
Heartbeat CPU 3 instructions: 860000000 cycles: 1557636988 heartbeat IPC: 0.509388 cumulative IPC: 0.460727 (Simulation time: 4 hr 32 min 35 sec) 
Heartbeat CPU 2 instructions: 1370000003 cycles: 1559835499 heartbeat IPC: 0.831093 cumulative IPC: 0.788885 (Simulation time: 4 hr 32 min 53 sec) 
Heartbeat CPU 0 instructions: 1800000000 cycles: 1562467805 heartbeat IPC: 0.78045 cumulative IPC: 1.08019 (Simulation time: 4 hr 33 min 17 sec) 
Heartbeat CPU 0 instructions: 1810000002 cycles: 1571682216 heartbeat IPC: 1.08526 cumulative IPC: 1.08023 (Simulation time: 4 hr 34 min 37 sec) 
Heartbeat CPU 2 instructions: 1380000000 cycles: 1572127356 heartbeat IPC: 0.813546 cumulative IPC: 0.789094 (Simulation time: 4 hr 34 min 41 sec) 
Heartbeat CPU 0 instructions: 1820000000 cycles: 1577079909 heartbeat IPC: 1.85264 cumulative IPC: 1.0831 (Simulation time: 4 hr 35 min 24 sec) 
Heartbeat CPU 1 instructions: 930000001 cycles: 1577705401 heartbeat IPC: 0.352247 cumulative IPC: 0.497169 (Simulation time: 4 hr 35 min 30 sec) 
Heartbeat CPU 3 instructions: 870000001 cycles: 1578000237 heartbeat IPC: 0.491081 cumulative IPC: 0.461152 (Simulation time: 4 hr 35 min 32 sec) 
Heartbeat CPU 0 instructions: 1830000000 cycles: 1582619941 heartbeat IPC: 1.80504 cumulative IPC: 1.08584 (Simulation time: 4 hr 36 min 12 sec) 
Heartbeat CPU 2 instructions: 1390000000 cycles: 1584723402 heartbeat IPC: 0.7939 cumulative IPC: 0.789136 (Simulation time: 4 hr 36 min 33 sec) 
Heartbeat CPU 0 instructions: 1840000000 cycles: 1589672989 heartbeat IPC: 1.41783 cumulative IPC: 1.08744 (Simulation time: 4 hr 37 min 23 sec) 
Heartbeat CPU 0 instructions: 1850000001 cycles: 1596804623 heartbeat IPC: 1.4022 cumulative IPC: 1.08897 (Simulation time: 4 hr 38 min 35 sec) 
Heartbeat CPU 2 instructions: 1400000000 cycles: 1597386236 heartbeat IPC: 0.789713 cumulative IPC: 0.789141 (Simulation time: 4 hr 38 min 41 sec) 
Heartbeat CPU 3 instructions: 880000000 cycles: 1599778177 heartbeat IPC: 0.45918 cumulative IPC: 0.461123 (Simulation time: 4 hr 39 min 6 sec) 
Heartbeat CPU 0 instructions: 1860000000 cycles: 1603763261 heartbeat IPC: 1.43706 cumulative IPC: 1.0906 (Simulation time: 4 hr 39 min 47 sec) 
Heartbeat CPU 1 instructions: 940000000 cycles: 1606970593 heartbeat IPC: 0.341703 cumulative IPC: 0.494099 (Simulation time: 4 hr 40 min 20 sec) 
Heartbeat CPU 2 instructions: 1410000000 cycles: 1609891839 heartbeat IPC: 0.799642 cumulative IPC: 0.789229 (Simulation time: 4 hr 40 min 51 sec) 
Heartbeat CPU 0 instructions: 1870000003 cycles: 1610323130 heartbeat IPC: 1.52442 cumulative IPC: 1.09252 (Simulation time: 4 hr 40 min 55 sec) 
Heartbeat CPU 0 instructions: 1880000000 cycles: 1616866637 heartbeat IPC: 1.52823 cumulative IPC: 1.09443 (Simulation time: 4 hr 42 min 4 sec) 
Heartbeat CPU 3 instructions: 890000000 cycles: 1621481864 heartbeat IPC: 0.460751 cumulative IPC: 0.461118 (Simulation time: 4 hr 42 min 53 sec) 
Heartbeat CPU 2 instructions: 1420000000 cycles: 1622518248 heartbeat IPC: 0.791991 cumulative IPC: 0.789252 (Simulation time: 4 hr 43 min 5 sec) 
Heartbeat CPU 0 instructions: 1890000002 cycles: 1623378855 heartbeat IPC: 1.53558 cumulative IPC: 1.09635 (Simulation time: 4 hr 43 min 16 sec) 
Heartbeat CPU 0 instructions: 1900000000 cycles: 1629834232 heartbeat IPC: 1.5491 cumulative IPC: 1.09829 (Simulation time: 4 hr 44 min 32 sec) 
Heartbeat CPU 1 instructions: 950000002 cycles: 1630162492 heartbeat IPC: 0.431185 cumulative IPC: 0.493129 (Simulation time: 4 hr 44 min 35 sec) 
Heartbeat CPU 2 instructions: 1430000000 cycles: 1634911411 heartbeat IPC: 0.806897 cumulative IPC: 0.789397 (Simulation time: 4 hr 45 min 29 sec) 
Heartbeat CPU 0 instructions: 1910000003 cycles: 1636364191 heartbeat IPC: 1.5314 cumulative IPC: 1.10016 (Simulation time: 4 hr 45 min 47 sec) 
Heartbeat CPU 3 instructions: 900000000 cycles: 1642862686 heartbeat IPC: 0.467709 cumulative IPC: 0.461211 (Simulation time: 4 hr 47 min 6 sec) 
Heartbeat CPU 0 instructions: 1920000000 cycles: 1642970408 heartbeat IPC: 1.51373 cumulative IPC: 1.10196 (Simulation time: 4 hr 47 min 7 sec) 
Heartbeat CPU 2 instructions: 1440000000 cycles: 1646622290 heartbeat IPC: 0.853907 cumulative IPC: 0.789894 (Simulation time: 4 hr 47 min 53 sec) 
Heartbeat CPU 0 instructions: 1930000000 cycles: 1649575870 heartbeat IPC: 1.5139 cumulative IPC: 1.10375 (Simulation time: 4 hr 48 min 25 sec) 
Heartbeat CPU 1 instructions: 960000000 cycles: 1651292974 heartbeat IPC: 0.47325 cumulative IPC: 0.492854 (Simulation time: 4 hr 48 min 44 sec) 
Heartbeat CPU 0 instructions: 1940000000 cycles: 1656140085 heartbeat IPC: 1.52341 cumulative IPC: 1.10555 (Simulation time: 4 hr 49 min 39 sec) 
Heartbeat CPU 2 instructions: 1450000002 cycles: 1658465457 heartbeat IPC: 0.844369 cumulative IPC: 0.790315 (Simulation time: 4 hr 50 min 7 sec) 
Heartbeat CPU 0 instructions: 1950000003 cycles: 1662682847 heartbeat IPC: 1.52841 cumulative IPC: 1.10735 (Simulation time: 4 hr 50 min 54 sec) 
Heartbeat CPU 3 instructions: 910000001 cycles: 1665350565 heartbeat IPC: 0.444684 cumulative IPC: 0.460969 (Simulation time: 4 hr 51 min 21 sec) 
Heartbeat CPU 0 instructions: 1960000000 cycles: 1669251241 heartbeat IPC: 1.52244 cumulative IPC: 1.10911 (Simulation time: 4 hr 52 min 1 sec) 
Heartbeat CPU 2 instructions: 1460000000 cycles: 1669866969 heartbeat IPC: 0.877077 cumulative IPC: 0.790955 (Simulation time: 4 hr 52 min 7 sec) 
Heartbeat CPU 1 instructions: 970000000 cycles: 1675383862 heartbeat IPC: 0.415095 cumulative IPC: 0.491646 (Simulation time: 4 hr 53 min 3 sec) 
Heartbeat CPU 0 instructions: 1970000000 cycles: 1675998155 heartbeat IPC: 1.48216 cumulative IPC: 1.11073 (Simulation time: 4 hr 53 min 10 sec) 
Heartbeat CPU 2 instructions: 1470000000 cycles: 1681573063 heartbeat IPC: 0.854256 cumulative IPC: 0.791431 (Simulation time: 4 hr 54 min 6 sec) 
Heartbeat CPU 0 instructions: 1980000000 cycles: 1682770149 heartbeat IPC: 1.47667 cumulative IPC: 1.11233 (Simulation time: 4 hr 54 min 18 sec) 
Heartbeat CPU 3 instructions: 920000000 cycles: 1686786696 heartbeat IPC: 0.466502 cumulative IPC: 0.461045 (Simulation time: 4 hr 54 min 58 sec) 
Heartbeat CPU 0 instructions: 1990000001 cycles: 1689433545 heartbeat IPC: 1.50074 cumulative IPC: 1.11398 (Simulation time: 4 hr 55 min 25 sec) 
Heartbeat CPU 2 instructions: 1480000000 cycles: 1695205190 heartbeat IPC: 0.733561 cumulative IPC: 0.790929 (Simulation time: 4 hr 56 min 23 sec) 
*** Reached end of trace for Core: 0 Repeating trace: /scratch/user/djimenez/champsim-traces/speccpu2006/xz//481.wrf-455B.champsimtrace.xz
Heartbeat CPU 0 instructions: 2000000000 cycles: 1696050427 heartbeat IPC: 1.51129 cumulative IPC: 1.11565 (Simulation time: 4 hr 56 min 32 sec) 
Heartbeat CPU 1 instructions: 980000000 cycles: 1702703156 heartbeat IPC: 0.366042 cumulative IPC: 0.48947 (Simulation time: 4 hr 57 min 31 sec) 
Heartbeat CPU 3 instructions: 930000003 cycles: 1707289132 heartbeat IPC: 0.487747 cumulative IPC: 0.461391 (Simulation time: 4 hr 58 min 13 sec) 
Heartbeat CPU 0 instructions: 2010000001 cycles: 1707550714 heartbeat IPC: 0.869544 cumulative IPC: 1.11386 (Simulation time: 4 hr 58 min 15 sec) 
[...]
Heartbeat CPU 0 instructions: 2510000003 cycles: 2133780565 heartbeat IPC: 1.1575 cumulative IPC: 1.12643 (Simulation time: 6 hr 7 min 8 sec) 
Heartbeat CPU 2 instructions: 1830000000 cycles: 2138402867 heartbeat IPC: 0.799151 cumulative IPC: 0.790661 (Simulation time: 6 hr 7 min 42 sec) 
Heartbeat CPU 3 instructions: 1140000000 cycles: 2141231292 heartbeat IPC: 0.435959 cumulative IPC: 0.466244 (Simulation time: 6 hr 8 min 5 sec) 
Heartbeat CPU 0 instructions: 2520000000 cycles: 2143152336 heartbeat IPC: 1.06703 cumulative IPC: 1.12615 (Simulation time: 6 hr 8 min 21 sec) 
Heartbeat CPU 1 instructions: 1170000000 cycles: 2145434459 heartbeat IPC: 0.422474 cumulative IPC: 0.476253 (Simulation time: 6 hr 8 min 41 sec) 
Heartbeat CPU 2 instructions: 1840000000 cycles: 2152373556 heartbeat IPC: 0.715784 cumulative IPC: 0.790145 (Simulation time: 6 hr 9 min 38 sec) 
Heartbeat CPU 0 instructions: 2530000001 cycles: 2152400179 heartbeat IPC: 1.08133 cumulative IPC: 1.12595 (Simulation time: 6 hr 9 min 38 sec) 
Heartbeat CPU 0 instructions: 2540000000 cycles: 2161587270 heartbeat IPC: 1.08848 cumulative IPC: 1.12578 (Simulation time: 6 hr 10 min 55 sec) 
Heartbeat CPU 3 instructions: 1150000000 cycles: 2163774765 heartbeat IPC: 0.443587 cumulative IPC: 0.465993 (Simulation time: 6 hr 11 min 13 sec) 
Heartbeat CPU 2 instructions: 1850000000 cycles: 2166441439 heartbeat IPC: 0.710839 cumulative IPC: 0.789599 (Simulation time: 6 hr 11 min 35 sec) 
Heartbeat CPU 0 instructions: 2550000001 cycles: 2170720005 heartbeat IPC: 1.09496 cumulative IPC: 1.12564 (Simulation time: 6 hr 12 min 10 sec) 
Heartbeat CPU 1 instructions: 1180000000 cycles: 2173360175 heartbeat IPC: 0.358093 cumulative IPC: 0.474642 (Simulation time: 6 hr 12 min 32 sec) 
Heartbeat CPU 0 instructions: 2560000000 cycles: 2179868381 heartbeat IPC: 1.09309 cumulative IPC: 1.1255 (Simulation time: 6 hr 13 min 27 sec) 
Heartbeat CPU 2 instructions: 1860000000 cycles: 2180795757 heartbeat IPC: 0.696654 cumulative IPC: 0.78895 (Simulation time: 6 hr 13 min 35 sec) 
Heartbeat CPU 3 instructions: 1160000000 cycles: 2185432575 heartbeat IPC: 0.461727 cumulative IPC: 0.465948 (Simulation time: 6 hr 14 min 13 sec) 
Heartbeat CPU 0 instructions: 2570000000 cycles: 2189049902 heartbeat IPC: 1.08914 cumulative IPC: 1.12534 (Simulation time: 6 hr 14 min 42 sec) 
Heartbeat CPU 2 instructions: 1870000000 cycles: 2194982149 heartbeat IPC: 0.704901 cumulative IPC: 0.788374 (Simulation time: 6 hr 15 min 31 sec) 
Heartbeat CPU 0 instructions: 2580000000 cycles: 2198204814 heartbeat IPC: 1.09231 cumulative IPC: 1.12519 (Simulation time: 6 hr 15 min 58 sec) 
Heartbeat CPU 1 instructions: 1190000001 cycles: 2202653321 heartbeat IPC: 0.341377 cumulative IPC: 0.472763 (Simulation time: 6 hr 16 min 36 sec) 
Heartbeat CPU 0 instructions: 2590000001 cycles: 2207294198 heartbeat IPC: 1.10018 cumulative IPC: 1.12508 (Simulation time: 6 hr 17 min 19 sec) 
Heartbeat CPU 3 instructions: 1170000001 cycles: 2207344549 heartbeat IPC: 0.456372 cumulative IPC: 0.465847 (Simulation time: 6 hr 17 min 19 sec) 
Heartbeat CPU 2 instructions: 1880000000 cycles: 2207759495 heartbeat IPC: 0.782635 cumulative IPC: 0.788339 (Simulation time: 6 hr 17 min 23 sec) 
Heartbeat CPU 0 instructions: 2600000000 cycles: 2216422552 heartbeat IPC: 1.09549 cumulative IPC: 1.12495 (Simulation time: 6 hr 18 min 41 sec) 
Heartbeat CPU 2 instructions: 1890000001 cycles: 2220932245 heartbeat IPC: 0.759143 cumulative IPC: 0.788155 (Simulation time: 6 hr 19 min 20 sec) 
Heartbeat CPU 1 instructions: 1200000000 cycles: 2222768321 heartbeat IPC: 0.497141 cumulative IPC: 0.472997 (Simulation time: 6 hr 19 min 35 sec) 
Heartbeat CPU 0 instructions: 2610000002 cycles: 2225448912 heartbeat IPC: 1.10787 cumulative IPC: 1.12488 (Simulation time: 6 hr 19 min 59 sec) 
Heartbeat CPU 3 instructions: 1180000000 cycles: 2229335460 heartbeat IPC: 0.454733 cumulative IPC: 0.465731 (Simulation time: 6 hr 20 min 35 sec) 
Heartbeat CPU 0 instructions: 2620000000 cycles: 2232739919 heartbeat IPC: 1.37155 cumulative IPC: 1.12573 (Simulation time: 6 hr 21 min 7 sec) 
Heartbeat CPU 2 instructions: 1900000000 cycles: 2235000305 heartbeat IPC: 0.71083 cumulative IPC: 0.78764 (Simulation time: 6 hr 21 min 28 sec) 
Finished CPU 1 instructions: 1000000000 cycles: 2112538852 cumulative IPC: 0.473364 (Simulation time: 6 hr 21 min 51 sec) 
Heartbeat CPU 0 instructions: 2630000000 cycles: 2241303031 heartbeat IPC: 1.1678 cumulative IPC: 1.1259 (Simulation time: 6 hr 22 min 23 sec) 
Heartbeat CPU 1 instructions: 1210000000 cycles: 2241960044 heartbeat IPC: 0.521058 cumulative IPC: 0.473432 (Simulation time: 6 hr 22 min 29 sec) 
Heartbeat CPU 2 instructions: 1910000001 cycles: 2249221415 heartbeat IPC: 0.70318 cumulative IPC: 0.787074 (Simulation time: 6 hr 23 min 35 sec) 
Heartbeat CPU 3 instructions: 1190000003 cycles: 2249410012 heartbeat IPC: 0.498143 cumulative IPC: 0.466038 (Simulation time: 6 hr 23 min 36 sec) 
Heartbeat CPU 0 instructions: 2640000000 cycles: 2250098530 heartbeat IPC: 1.13695 cumulative IPC: 1.12595 (Simulation time: 6 hr 23 min 42 sec) 
Heartbeat CPU 0 instructions: 2650000003 cycles: 2258876269 heartbeat IPC: 1.13925 cumulative IPC: 1.126 (Simulation time: 6 hr 25 min 3 sec) 
Heartbeat CPU 1 instructions: 1220000000 cycles: 2261360398 heartbeat IPC: 0.515455 cumulative IPC: 0.473814 (Simulation time: 6 hr 25 min 25 sec) 
Heartbeat CPU 2 instructions: 1920000000 cycles: 2263419375 heartbeat IPC: 0.704326 cumulative IPC: 0.786525 (Simulation time: 6 hr 25 min 44 sec) 
Heartbeat CPU 0 instructions: 2660000000 cycles: 2267697670 heartbeat IPC: 1.13361 cumulative IPC: 1.12603 (Simulation time: 6 hr 26 min 23 sec) 
Heartbeat CPU 3 instructions: 1200000000 cycles: 2269740273 heartbeat IPC: 0.491877 cumulative IPC: 0.466283 (Simulation time: 6 hr 26 min 41 sec) 
Finished CPU 3 instructions: 1000000000 cycles: 2144622380 cumulative IPC: 0.466283 (Simulation time: 6 hr 26 min 41 sec) 

CPU 0 Branch Prediction Accuracy: 99.3529% MPKI: 0.340647

CPU 1 Branch Prediction Accuracy: 97.5405% MPKI: 4.54159

CPU 2 Branch Prediction Accuracy: 97.032% MPKI: 2.75941

CPU 3 Branch Prediction Accuracy: 85.8753% MPKI: 23.5965

ChampSim completed all CPUs

Total Simulation Statistics (not including warmup)

CPU 0 cumulative IPC: 1.12605 instructions: 2414949421 cycles: 2144622380
L1D TOTAL     ACCESS:  623739822  HIT:  600335985  MISS:   23403837
L1D LOAD      ACCESS:  501657418  HIT:  482384732  MISS:   19272686
L1D RFO       ACCESS:  122082404  HIT:  117951253  MISS:    4131151
L1D PREFETCH  ACCESS:          0  HIT:          0  MISS:          0
L1D WRITEBACK ACCESS:          0  HIT:          0  MISS:          0
L1I TOTAL     ACCESS:  591738778  HIT:  591732721  MISS:       6057
L1I LOAD      ACCESS:  591738778  HIT:  591732721  MISS:       6057
L1I RFO       ACCESS:          0  HIT:          0  MISS:          0
L1I PREFETCH  ACCESS:          0  HIT:          0  MISS:          0
L1I WRITEBACK ACCESS:          0  HIT:          0  MISS:          0
L2C TOTAL     ACCESS:   76445278  HIT:   60146009  MISS:   16299269
L2C LOAD      ACCESS:   19278678  HIT:   14062424  MISS:    5216254
L2C RFO       ACCESS:    4131147  HIT:    1327587  MISS:    2803560
L2C PREFETCH  ACCESS:   45084001  HIT:   36806521  MISS:    8277480
L2C WRITEBACK ACCESS:    7951452  HIT:    7949477  MISS:       1975
LLC TOTAL     ACCESS:  110211156  HIT:   96187226  MISS:   14023930
LLC LOAD      ACCESS:    5188271  HIT:    4679464  MISS:     508807
LLC RFO       ACCESS:    2803537  HIT:     310443  MISS:    2493094
LLC PREFETCH  ACCESS:   96219454  HIT:   85203706  MISS:   11015748
LLC WRITEBACK ACCESS:    5999894  HIT:    5993613  MISS:       6281

CPU 1 cumulative IPC: 0.473878 instructions: 1016289526 cycles: 2144622380
L1D TOTAL     ACCESS:  328427045  HIT:  325828503  MISS:    2598542
L1D LOAD      ACCESS:  185491247  HIT:  183126227  MISS:    2365020
L1D RFO       ACCESS:  142935798  HIT:  142702276  MISS:     233522
L1D PREFETCH  ACCESS:          0  HIT:          0  MISS:          0
L1D WRITEBACK ACCESS:          0  HIT:          0  MISS:          0
L1I TOTAL     ACCESS:  301570175  HIT:  299773172  MISS:    1797003
L1I LOAD      ACCESS:  301570175  HIT:  299773172  MISS:    1797003
L1I RFO       ACCESS:          0  HIT:          0  MISS:          0
L1I PREFETCH  ACCESS:          0  HIT:          0  MISS:          0
L1I WRITEBACK ACCESS:          0  HIT:          0  MISS:          0
L2C TOTAL     ACCESS:    7149455  HIT:    5802626  MISS:    1346829
L2C LOAD      ACCESS:    4161981  HIT:    2951487  MISS:    1210494
L2C RFO       ACCESS:     233515  HIT:     145421  MISS:      88094
L2C PREFETCH  ACCESS:    2054005  HIT:    2011477  MISS:      42528
L2C WRITEBACK ACCESS:     699954  HIT:     694241  MISS:       5713
LLC TOTAL     ACCESS:    3457905  HIT:    2287846  MISS:    1170059
LLC LOAD      ACCESS:    1209610  HIT:     638043  MISS:     571567
LLC RFO       ACCESS:      88082  HIT:      41877  MISS:      46205
LLC PREFETCH  ACCESS:    1907855  HIT:    1375576  MISS:     532279
LLC WRITEBACK ACCESS:     252358  HIT:     232350  MISS:      20008

CPU 2 cumulative IPC: 0.786277 instructions: 1686266936 cycles: 2144622380
L1D TOTAL     ACCESS:  578318880  HIT:  573016841  MISS:    5302039
L1D LOAD      ACCESS:  367372712  HIT:  363604512  MISS:    3768200
L1D RFO       ACCESS:  210946168  HIT:  209412329  MISS:    1533839
L1D PREFETCH  ACCESS:          0  HIT:          0  MISS:          0
L1D WRITEBACK ACCESS:          0  HIT:          0  MISS:          0
L1I TOTAL     ACCESS:  430646708  HIT:  429775051  MISS:     871657
L1I LOAD      ACCESS:  430646708  HIT:  429775051  MISS:     871657
L1I RFO       ACCESS:          0  HIT:          0  MISS:          0
L1I PREFETCH  ACCESS:          0  HIT:          0  MISS:          0
L1I WRITEBACK ACCESS:          0  HIT:          0  MISS:          0
L2C TOTAL     ACCESS:   11376787  HIT:   11190732  MISS:     186055
L2C LOAD      ACCESS:    4639587  HIT:    4485026  MISS:     154561
L2C RFO       ACCESS:    1522630  HIT:    1516468  MISS:       6162
L2C PREFETCH  ACCESS:    3392690  HIT:    3368370  MISS:      24320
L2C WRITEBACK ACCESS:    1821880  HIT:    1820868  MISS:       1012
LLC TOTAL     ACCESS:    1119778  HIT:     940243  MISS:     179535
LLC LOAD      ACCESS:     154463  HIT:     112585  MISS:      41878
LLC RFO       ACCESS:       6162  HIT:       4751  MISS:       1411
LLC PREFETCH  ACCESS:     897358  HIT:     791552  MISS:     105806
LLC WRITEBACK ACCESS:      61795  HIT:      31355  MISS:      30440

CPU 3 cumulative IPC: 0.466283 instructions: 1000000000 cycles: 2144622380
L1D TOTAL     ACCESS:  314826735  HIT:  310451827  MISS:    4374908
L1D LOAD      ACCESS:  183365247  HIT:  180747750  MISS:    2617497
L1D RFO       ACCESS:  131461488  HIT:  129704077  MISS:    1757411
L1D PREFETCH  ACCESS:          0  HIT:          0  MISS:          0
L1D WRITEBACK ACCESS:          0  HIT:          0  MISS:          0
L1I TOTAL     ACCESS:  229300773  HIT:  225800305  MISS:    3500468
L1I LOAD      ACCESS:  229300773  HIT:  225800305  MISS:    3500468
L1I RFO       ACCESS:          0  HIT:          0  MISS:          0
L1I PREFETCH  ACCESS:          0  HIT:          0  MISS:          0
L1I WRITEBACK ACCESS:          0  HIT:          0  MISS:          0
L2C TOTAL     ACCESS:   15243979  HIT:   13301066  MISS:    1942913
L2C LOAD      ACCESS:    6117933  HIT:    4809680  MISS:    1308253
L2C RFO       ACCESS:    1757370  HIT:    1313865  MISS:     443505
L2C PREFETCH  ACCESS:    4962486  HIT:    4775920  MISS:     186566
L2C WRITEBACK ACCESS:    2406190  HIT:    2401601  MISS:       4589
LLC TOTAL     ACCESS:    5829913  HIT:    5018257  MISS:     811656
LLC LOAD      ACCESS:    1273546  HIT:    1014688  MISS:     258858
LLC RFO       ACCESS:     443504  HIT:     348592  MISS:      94912
LLC PREFETCH  ACCESS:    3310439  HIT:    2901185  MISS:     409254
LLC WRITEBACK ACCESS:     802424  HIT:     753792  MISS:      48632

Region of Interest Statistics

CPU 0 cumulative IPC: 1.24749 instructions: 1000000001 cycles: 801610187
L1D TOTAL     ACCESS:  266799426  HIT:  256012889  MISS:   10786537
L1D LOAD      ACCESS:  211452138  HIT:  202464644  MISS:    8987494
L1D RFO       ACCESS:   55347288  HIT:   53548245  MISS:    1799043
L1D PREFETCH  ACCESS:          0  HIT:          0  MISS:          0
L1D WRITEBACK ACCESS:          0  HIT:          0  MISS:          0
L1D PREFETCH  REQUESTED:          0  ISSUED:          0  USEFUL:          0  USELESS:          0
L1I TOTAL     ACCESS:  230462743  HIT:  230460032  MISS:       2711
L1I LOAD      ACCESS:  230462743  HIT:  230460032  MISS:       2711
L1I RFO       ACCESS:          0  HIT:          0  MISS:          0
L1I PREFETCH  ACCESS:          0  HIT:          0  MISS:          0
L1I WRITEBACK ACCESS:          0  HIT:          0  MISS:          0
L1I PREFETCH  REQUESTED:          0  ISSUED:          0  USEFUL:          0  USELESS:          0
L2C TOTAL     ACCESS:   35389822  HIT:   27861922  MISS:    7527900
L2C LOAD      ACCESS:    8990169  HIT:    6605797  MISS:    2384372
L2C RFO       ACCESS:    1799042  HIT:     645089  MISS:    1153953
L2C PREFETCH  ACCESS:   20856714  HIT:   16868191  MISS:    3988523
L2C WRITEBACK ACCESS:    3743897  HIT:    3742845  MISS:       1052
L2C PREFETCH  REQUESTED:  148714936  ISSUED:  148017878  USEFUL:    9146226  USELESS:      41739
LLC TOTAL     ACCESS:   53594259  HIT:   47151819  MISS:    6442440
LLC LOAD      ACCESS:    2370671  HIT:    2132215  MISS:     238456
LLC RFO       ACCESS:    1153935  HIT:     165109  MISS:     988826
LLC PREFETCH  ACCESS:   47324077  HIT:   42112343  MISS:    5211734
LLC WRITEBACK ACCESS:    2745576  HIT:    2742152  MISS:       3424
LLC PREFETCH  REQUESTED:          0  ISSUED:          0  USEFUL:    5003909  USELESS:    8565743
Major fault: 0 Minor fault: 33861

CPU 1 cumulative IPC: 0.473364 instructions: 1000000000 cycles: 2112538852
L1D TOTAL     ACCESS:  323455552  HIT:  320865041  MISS:    2590511
L1D LOAD      ACCESS:  182662759  HIT:  180305497  MISS:    2357262
L1D RFO       ACCESS:  140792793  HIT:  140559544  MISS:     233249
L1D PREFETCH  ACCESS:          0  HIT:          0  MISS:          0
L1D WRITEBACK ACCESS:          0  HIT:          0  MISS:          0
L1D PREFETCH  REQUESTED:          0  ISSUED:          0  USEFUL:          0  USELESS:          0
L1I TOTAL     ACCESS:  296836325  HIT:  295045748  MISS:    1790577
L1I LOAD      ACCESS:  296836325  HIT:  295045748  MISS:    1790577
L1I RFO       ACCESS:          0  HIT:          0  MISS:          0
L1I PREFETCH  ACCESS:          0  HIT:          0  MISS:          0
L1I WRITEBACK ACCESS:          0  HIT:          0  MISS:          0
L1I PREFETCH  REQUESTED:          0  ISSUED:          0  USEFUL:          0  USELESS:          0
L2C TOTAL     ACCESS:    7126725  HIT:    5787765  MISS:    1338960
L2C LOAD      ACCESS:    4147797  HIT:    2944786  MISS:    1203011
L2C RFO       ACCESS:     233242  HIT:     145338  MISS:      87904
L2C PREFETCH  ACCESS:    2046591  HIT:    2004245  MISS:      42346
L2C WRITEBACK ACCESS:     699095  HIT:     693396  MISS:       5699
L2C PREFETCH  REQUESTED:    5070207  ISSUED:    5070146  USEFUL:      26376  USELESS:      23985
LLC TOTAL     ACCESS:    3441198  HIT:    2281137  MISS:    1160061
LLC LOAD      ACCESS:    1202128  HIT:     636315  MISS:     565813
LLC RFO       ACCESS:      87892  HIT:      41863  MISS:      46029
LLC PREFETCH  ACCESS:    1899602  HIT:    1371086  MISS:     528516
LLC WRITEBACK ACCESS:     251576  HIT:     231873  MISS:      19703
LLC PREFETCH  REQUESTED:          0  ISSUED:          0  USEFUL:    5003909  USELESS:    8565743
Major fault: 0 Minor fault: 5290

CPU 2 cumulative IPC: 0.790123 instructions: 1000000001 cycles: 1265625321
L1D TOTAL     ACCESS:  340518761  HIT:  337543058  MISS:    2975703
L1D LOAD      ACCESS:  218102272  HIT:  215950746  MISS:    2151526
L1D RFO       ACCESS:  122416489  HIT:  121592312  MISS:     824177
L1D PREFETCH  ACCESS:          0  HIT:          0  MISS:          0
L1D WRITEBACK ACCESS:          0  HIT:          0  MISS:          0
L1D PREFETCH  REQUESTED:          0  ISSUED:          0  USEFUL:          0  USELESS:          0
L1I TOTAL     ACCESS:  255389827  HIT:  254918579  MISS:     471248
L1I LOAD      ACCESS:  255389827  HIT:  254918579  MISS:     471248
L1I RFO       ACCESS:          0  HIT:          0  MISS:          0
L1I PREFETCH  ACCESS:          0  HIT:          0  MISS:          0
L1I WRITEBACK ACCESS:          0  HIT:          0  MISS:          0
L1I PREFETCH  REQUESTED:          0  ISSUED:          0  USEFUL:          0  USELESS:          0
L2C TOTAL     ACCESS:    6314723  HIT:    6219259  MISS:      95464
L2C LOAD      ACCESS:    2622638  HIT:    2543457  MISS:      79181
L2C RFO       ACCESS:     818643  HIT:     814866  MISS:       3777
L2C PREFETCH  ACCESS:    1892856  HIT:    1880835  MISS:      12021
L2C WRITEBACK ACCESS:     980586  HIT:     980101  MISS:        485
L2C PREFETCH  REQUESTED:    5416291  ISSUED:    5415055  USEFUL:      23315  USELESS:       1398
LLC TOTAL     ACCESS:     592267  HIT:     499233  MISS:      93034
LLC LOAD      ACCESS:      79137  HIT:      57647  MISS:      21490
LLC RFO       ACCESS:       3777  HIT:       2936  MISS:        841
LLC PREFETCH  ACCESS:     478841  HIT:     424162  MISS:      54679
LLC WRITEBACK ACCESS:      30512  HIT:      14488  MISS:      16024
LLC PREFETCH  REQUESTED:          0  ISSUED:          0  USEFUL:    5003909  USELESS:    8565743
Major fault: 0 Minor fault: 232

CPU 3 cumulative IPC: 0.466283 instructions: 1000000000 cycles: 2144622380
L1D TOTAL     ACCESS:  314826735  HIT:  310451827  MISS:    4374908
L1D LOAD      ACCESS:  183365247  HIT:  180747750  MISS:    2617497
L1D RFO       ACCESS:  131461488  HIT:  129704077  MISS:    1757411
L1D PREFETCH  ACCESS:          0  HIT:          0  MISS:          0
L1D WRITEBACK ACCESS:          0  HIT:          0  MISS:          0
L1D PREFETCH  REQUESTED:          0  ISSUED:          0  USEFUL:          0  USELESS:          0
L1I TOTAL     ACCESS:  229300773  HIT:  225800305  MISS:    3500468
L1I LOAD      ACCESS:  229300773  HIT:  225800305  MISS:    3500468
L1I RFO       ACCESS:          0  HIT:          0  MISS:          0
L1I PREFETCH  ACCESS:          0  HIT:          0  MISS:          0
L1I WRITEBACK ACCESS:          0  HIT:          0  MISS:          0
L1I PREFETCH  REQUESTED:          0  ISSUED:          0  USEFUL:          0  USELESS:          0
L2C TOTAL     ACCESS:   15243979  HIT:   13301066  MISS:    1942913
L2C LOAD      ACCESS:    6117933  HIT:    4809680  MISS:    1308253
L2C RFO       ACCESS:    1757370  HIT:    1313865  MISS:     443505
L2C PREFETCH  ACCESS:    4962486  HIT:    4775920  MISS:     186566
L2C WRITEBACK ACCESS:    2406190  HIT:    2401601  MISS:       4589
L2C PREFETCH  REQUESTED:   14114921  ISSUED:   14111915  USEFUL:     261006  USELESS:      21479
LLC TOTAL     ACCESS:    5829913  HIT:    5018257  MISS:     811656
LLC LOAD      ACCESS:    1273546  HIT:    1014688  MISS:     258858
LLC RFO       ACCESS:     443504  HIT:     348592  MISS:      94912
LLC PREFETCH  ACCESS:    3310439  HIT:    2901185  MISS:     409254
LLC WRITEBACK ACCESS:     802424  HIT:     753792  MISS:      48632
LLC PREFETCH  REQUESTED:          0  ISSUED:          0  USEFUL:    5003909  USELESS:    8565743
Major fault: 0 Minor fault: 3902

DRAM Statistics
 CHANNEL 0
 RQ ROW_BUFFER_HIT:    4391583  ROW_BUFFER_MISS:    3642372
 DBUS_CONGESTED:    9018032
 WQ ROW_BUFFER_HIT:     436001  ROW_BUFFER_MISS:    2210634  FULL:          0

 CHANNEL 1
 RQ ROW_BUFFER_HIT:    4385607  ROW_BUFFER_MISS:    3658264
 DBUS_CONGESTED:    9018032
 WQ ROW_BUFFER_HIT:     435330  ROW_BUFFER_MISS:    2212170  FULL:          0

 AVG_CONGESTED_CYCLE: 13
