Initialize SIGNATURE TABLE
ST_SET: 1
ST_WAY: 256
ST_TAG_BIT: 16
ST_TAG_MASK: ffff

Initialize PATTERN TABLE
PT_SET: 512
PT_WAY: 4
SIG_DELTA_BIT: 7
C_SIG_BIT: 4
C_DELTA_BIT: 4

Initialize PREFETCH FILTER
FILTER_SET: 1024

*** ChampSim Multicore Out-of-Order Simulator ***

Warmup Instructions: 200000000
Simulation Instructions: 1000000000
Number of CPUs: 4
LLC sets: 8192
LLC ways: 16
Off-chip DRAM Size: 8192 MB Channels: 2 Width: 64-bit Data Rate: 1600 MT/s

CPU 0 runs /scratch/user/djimenez/champsim-traces/speccpu2006/xz//410.bwaves-2097B.champsimtrace.xz
CPU 1 runs /scratch/user/djimenez/champsim-traces/speccpu2006/xz//456.hmmer-327B.champsimtrace.xz
CPU 2 runs /scratch/user/djimenez/champsim-traces/speccpu2006/xz//470.lbm-1274B.champsimtrace.xz
CPU 3 runs /scratch/user/djimenez/champsim-traces/speccpu2006/xz//444.namd-166B.champsimtrace.xz
Heartbeat CPU 2 instructions: 10000003 cycles: 3769300 heartbeat IPC: 2.65301 cumulative IPC: 2.65301 (Simulation time: 0 hr 1 min 48 sec) 
Heartbeat CPU 3 instructions: 10000001 cycles: 4868534 heartbeat IPC: 2.05401 cumulative IPC: 2.05401 (Simulation time: 0 hr 2 min 22 sec) 
Heartbeat CPU 1 instructions: 10000002 cycles: 6251235 heartbeat IPC: 1.59968 cumulative IPC: 1.59968 (Simulation time: 0 hr 3 min 0 sec) 
Heartbeat CPU 0 instructions: 10000000 cycles: 6589918 heartbeat IPC: 1.51747 cumulative IPC: 1.51747 (Simulation time: 0 hr 3 min 9 sec) 
Heartbeat CPU 2 instructions: 20000000 cycles: 7534033 heartbeat IPC: 2.65623 cumulative IPC: 2.65462 (Simulation time: 0 hr 3 min 32 sec) 
Heartbeat CPU 3 instructions: 20000000 cycles: 9780817 heartbeat IPC: 2.03571 cumulative IPC: 2.04482 (Simulation time: 0 hr 4 min 27 sec) 
Heartbeat CPU 2 instructions: 30000003 cycles: 11303335 heartbeat IPC: 2.65301 cumulative IPC: 2.65408 (Simulation time: 0 hr 5 min 5 sec) 
Heartbeat CPU 1 instructions: 20000000 cycles: 12483495 heartbeat IPC: 1.60455 cumulative IPC: 1.60212 (Simulation time: 0 hr 5 min 35 sec) 
Heartbeat CPU 0 instructions: 20000000 cycles: 13180338 heartbeat IPC: 1.51735 cumulative IPC: 1.51741 (Simulation time: 0 hr 5 min 52 sec) 
Heartbeat CPU 3 instructions: 30000003 cycles: 14055812 heartbeat IPC: 2.33918 cumulative IPC: 2.13435 (Simulation time: 0 hr 6 min 14 sec) 
Heartbeat CPU 2 instructions: 40000000 cycles: 15072644 heartbeat IPC: 2.65301 cumulative IPC: 2.65381 (Simulation time: 0 hr 6 min 51 sec) 
Heartbeat CPU 1 instructions: 30000000 cycles: 18717243 heartbeat IPC: 1.60417 cumulative IPC: 1.6028 (Simulation time: 0 hr 8 min 29 sec) 
Heartbeat CPU 2 instructions: 50000000 cycles: 18841764 heartbeat IPC: 2.65314 cumulative IPC: 2.65368 (Simulation time: 0 hr 8 min 32 sec) 
Heartbeat CPU 3 instructions: 40000000 cycles: 18885484 heartbeat IPC: 2.07053 cumulative IPC: 2.11803 (Simulation time: 0 hr 8 min 33 sec) 
Heartbeat CPU 0 instructions: 30000002 cycles: 19769766 heartbeat IPC: 1.51758 cumulative IPC: 1.51747 (Simulation time: 0 hr 8 min 57 sec) 
Heartbeat CPU 2 instructions: 60000000 cycles: 22610964 heartbeat IPC: 2.65308 cumulative IPC: 2.65358 (Simulation time: 0 hr 10 min 15 sec) 
Heartbeat CPU 3 instructions: 50000000 cycles: 23114179 heartbeat IPC: 2.3648 cumulative IPC: 2.16317 (Simulation time: 0 hr 10 min 27 sec) 
Heartbeat CPU 1 instructions: 40000000 cycles: 24963175 heartbeat IPC: 1.60104 cumulative IPC: 1.60236 (Simulation time: 0 hr 11 min 17 sec) 
Heartbeat CPU 0 instructions: 40000000 cycles: 26359811 heartbeat IPC: 1.51744 cumulative IPC: 1.51746 (Simulation time: 0 hr 11 min 56 sec) 
Heartbeat CPU 2 instructions: 70000002 cycles: 26380286 heartbeat IPC: 2.653 cumulative IPC: 2.6535 (Simulation time: 0 hr 11 min 56 sec) 
Heartbeat CPU 3 instructions: 60000000 cycles: 27986378 heartbeat IPC: 2.05246 cumulative IPC: 2.1439 (Simulation time: 0 hr 12 min 47 sec) 
Heartbeat CPU 2 instructions: 80000000 cycles: 30145177 heartbeat IPC: 2.65612 cumulative IPC: 2.65382 (Simulation time: 0 hr 13 min 46 sec) 
Heartbeat CPU 1 instructions: 50000000 cycles: 31208414 heartbeat IPC: 1.60122 cumulative IPC: 1.60213 (Simulation time: 0 hr 14 min 13 sec) 
Heartbeat CPU 3 instructions: 70000000 cycles: 32814317 heartbeat IPC: 2.07128 cumulative IPC: 2.13322 (Simulation time: 0 hr 14 min 57 sec) 
Heartbeat CPU 0 instructions: 50000002 cycles: 32950593 heartbeat IPC: 1.51727 cumulative IPC: 1.51742 (Simulation time: 0 hr 15 min 0 sec) 
Heartbeat CPU 2 instructions: 90000003 cycles: 33914235 heartbeat IPC: 2.65318 cumulative IPC: 2.65375 (Simulation time: 0 hr 15 min 25 sec) 
Heartbeat CPU 3 instructions: 80000000 cycles: 37255264 heartbeat IPC: 2.25177 cumulative IPC: 2.14735 (Simulation time: 0 hr 16 min 54 sec) 
Heartbeat CPU 1 instructions: 60000000 cycles: 37450183 heartbeat IPC: 1.60211 cumulative IPC: 1.60213 (Simulation time: 0 hr 17 min 0 sec) 
Heartbeat CPU 2 instructions: 100000000 cycles: 37683385 heartbeat IPC: 2.65312 cumulative IPC: 2.65369 (Simulation time: 0 hr 17 min 7 sec) 
Heartbeat CPU 0 instructions: 60000000 cycles: 39539858 heartbeat IPC: 1.51762 cumulative IPC: 1.51746 (Simulation time: 0 hr 18 min 11 sec) 
Heartbeat CPU 2 instructions: 110000003 cycles: 41452852 heartbeat IPC: 2.6529 cumulative IPC: 2.65362 (Simulation time: 0 hr 19 min 11 sec) 
Heartbeat CPU 3 instructions: 90000001 cycles: 41851952 heartbeat IPC: 2.17548 cumulative IPC: 2.15044 (Simulation time: 0 hr 19 min 22 sec) 
Heartbeat CPU 1 instructions: 70000002 cycles: 43695438 heartbeat IPC: 1.60122 cumulative IPC: 1.602 (Simulation time: 0 hr 20 min 12 sec) 
Heartbeat CPU 2 instructions: 120000000 cycles: 45221911 heartbeat IPC: 2.65318 cumulative IPC: 2.65358 (Simulation time: 0 hr 20 min 51 sec) 
Heartbeat CPU 0 instructions: 70000002 cycles: 46129839 heartbeat IPC: 1.51746 cumulative IPC: 1.51746 (Simulation time: 0 hr 21 min 14 sec) 
Heartbeat CPU 3 instructions: 100000000 cycles: 46356053 heartbeat IPC: 2.2202 cumulative IPC: 2.15722 (Simulation time: 0 hr 21 min 20 sec) 
Heartbeat CPU 2 instructions: 130000003 cycles: 48991254 heartbeat IPC: 2.65298 cumulative IPC: 2.65353 (Simulation time: 0 hr 22 min 25 sec) 
Heartbeat CPU 1 instructions: 80000000 cycles: 49936918 heartbeat IPC: 1.60218 cumulative IPC: 1.60202 (Simulation time: 0 hr 22 min 49 sec) 
Heartbeat CPU 3 instructions: 110000000 cycles: 51020373 heartbeat IPC: 2.14394 cumulative IPC: 2.156 (Simulation time: 0 hr 23 min 15 sec) 
Heartbeat CPU 0 instructions: 80000000 cycles: 52719857 heartbeat IPC: 1.51745 cumulative IPC: 1.51745 (Simulation time: 0 hr 23 min 57 sec) 
Heartbeat CPU 2 instructions: 140000000 cycles: 52760342 heartbeat IPC: 2.65316 cumulative IPC: 2.65351 (Simulation time: 0 hr 23 min 58 sec) 
Heartbeat CPU 3 instructions: 120000000 cycles: 55874443 heartbeat IPC: 2.06013 cumulative IPC: 2.14767 (Simulation time: 0 hr 25 min 12 sec) 
Heartbeat CPU 1 instructions: 90000002 cycles: 56175816 heartbeat IPC: 1.60285 cumulative IPC: 1.60211 (Simulation time: 0 hr 25 min 19 sec) 
Heartbeat CPU 2 instructions: 150000003 cycles: 56525264 heartbeat IPC: 2.6561 cumulative IPC: 2.65368 (Simulation time: 0 hr 25 min 27 sec) 
Heartbeat CPU 0 instructions: 90000000 cycles: 59309175 heartbeat IPC: 1.51761 cumulative IPC: 1.51747 (Simulation time: 0 hr 26 min 32 sec) 
Heartbeat CPU 2 instructions: 160000000 cycles: 60294528 heartbeat IPC: 2.65304 cumulative IPC: 2.65364 (Simulation time: 0 hr 26 min 55 sec) 
Heartbeat CPU 3 instructions: 130000000 cycles: 60339373 heartbeat IPC: 2.23968 cumulative IPC: 2.15448 (Simulation time: 0 hr 26 min 56 sec) 
Heartbeat CPU 1 instructions: 100000000 cycles: 62418132 heartbeat IPC: 1.60197 cumulative IPC: 1.6021 (Simulation time: 0 hr 27 min 45 sec) 
Heartbeat CPU 2 instructions: 170000003 cycles: 64063761 heartbeat IPC: 2.65306 cumulative IPC: 2.65361 (Simulation time: 0 hr 28 min 25 sec) 
Heartbeat CPU 3 instructions: 140000000 cycles: 64884691 heartbeat IPC: 2.20007 cumulative IPC: 2.15767 (Simulation time: 0 hr 28 min 45 sec) 
Heartbeat CPU 0 instructions: 100000000 cycles: 65899650 heartbeat IPC: 1.51734 cumulative IPC: 1.51746 (Simulation time: 0 hr 29 min 10 sec) 
Heartbeat CPU 2 instructions: 180000000 cycles: 67832834 heartbeat IPC: 2.65317 cumulative IPC: 2.65358 (Simulation time: 0 hr 29 min 58 sec) 
Heartbeat CPU 1 instructions: 110000001 cycles: 68663692 heartbeat IPC: 1.60114 cumulative IPC: 1.60201 (Simulation time: 0 hr 30 min 19 sec) 
Heartbeat CPU 3 instructions: 150000000 cycles: 69433439 heartbeat IPC: 2.19841 cumulative IPC: 2.16034 (Simulation time: 0 hr 30 min 38 sec) 
Heartbeat CPU 2 instructions: 190000000 cycles: 71602153 heartbeat IPC: 2.653 cumulative IPC: 2.65355 (Simulation time: 0 hr 31 min 35 sec) 
Heartbeat CPU 0 instructions: 110000001 cycles: 72489131 heartbeat IPC: 1.51757 cumulative IPC: 1.51747 (Simulation time: 0 hr 31 min 56 sec) 
Heartbeat CPU 3 instructions: 160000000 cycles: 73971085 heartbeat IPC: 2.20379 cumulative IPC: 2.16301 (Simulation time: 0 hr 32 min 33 sec) 
Heartbeat CPU 1 instructions: 120000000 cycles: 74907069 heartbeat IPC: 1.6017 cumulative IPC: 1.60198 (Simulation time: 0 hr 32 min 56 sec) 
Heartbeat CPU 2 instructions: 200000000 cycles: 75371357 heartbeat IPC: 2.65308 cumulative IPC: 2.65353 (Simulation time: 0 hr 33 min 7 sec) 
Heartbeat CPU 3 instructions: 170000000 cycles: 78471995 heartbeat IPC: 2.22177 cumulative IPC: 2.16638 (Simulation time: 0 hr 34 min 24 sec) 
Heartbeat CPU 0 instructions: 120000000 cycles: 79078937 heartbeat IPC: 1.5175 cumulative IPC: 1.51747 (Simulation time: 0 hr 34 min 40 sec) 
Heartbeat CPU 2 instructions: 210000000 cycles: 79136191 heartbeat IPC: 2.65616 cumulative IPC: 0.126364 (Simulation time: 0 hr 34 min 41 sec) 
Heartbeat CPU 1 instructions: 130000001 cycles: 81143012 heartbeat IPC: 1.60361 cumulative IPC: 1.60211 (Simulation time: 0 hr 35 min 31 sec) 
Heartbeat CPU 2 instructions: 220000000 cycles: 82905233 heartbeat IPC: 2.65319 cumulative IPC: 0.241239 (Simulation time: 0 hr 36 min 14 sec) 
Heartbeat CPU 3 instructions: 180000000 cycles: 83122733 heartbeat IPC: 2.1502 cumulative IPC: 2.16547 (Simulation time: 0 hr 36 min 19 sec) 
Heartbeat CPU 0 instructions: 130000000 cycles: 85668917 heartbeat IPC: 1.51746 cumulative IPC: 1.51747 (Simulation time: 0 hr 37 min 23 sec) 
Heartbeat CPU 2 instructions: 230000003 cycles: 86674468 heartbeat IPC: 2.65306 cumulative IPC: 0.346123 (Simulation time: 0 hr 37 min 48 sec) 
Heartbeat CPU 1 instructions: 140000000 cycles: 87374636 heartbeat IPC: 1.60472 cumulative IPC: 1.6023 (Simulation time: 0 hr 38 min 5 sec) 
Heartbeat CPU 3 instructions: 190000002 cycles: 87435921 heartbeat IPC: 2.31847 cumulative IPC: 2.17302 (Simulation time: 0 hr 38 min 7 sec) 
Heartbeat CPU 2 instructions: 240000000 cycles: 90443498 heartbeat IPC: 2.6532 cumulative IPC: 0.442265 (Simulation time: 0 hr 39 min 20 sec) 
Heartbeat CPU 0 instructions: 140000000 cycles: 92258517 heartbeat IPC: 1.51754 cumulative IPC: 1.51748 (Simulation time: 0 hr 40 min 5 sec) 
Heartbeat CPU 3 instructions: 200000000 cycles: 92444400 heartbeat IPC: 1.99661 cumulative IPC: 2.16346 (Simulation time: 0 hr 40 min 10 sec) 
Heartbeat CPU 1 instructions: 150000001 cycles: 93621530 heartbeat IPC: 1.6008 cumulative IPC: 1.6022 (Simulation time: 0 hr 40 min 39 sec) 
Heartbeat CPU 2 instructions: 250000003 cycles: 94212593 heartbeat IPC: 2.65316 cumulative IPC: 0.530715 (Simulation time: 0 hr 40 min 53 sec) 
Heartbeat CPU 3 instructions: 210000001 cycles: 97177649 heartbeat IPC: 2.11271 cumulative IPC: 0.102904 (Simulation time: 0 hr 42 min 6 sec) 
Heartbeat CPU 2 instructions: 260000000 cycles: 97981758 heartbeat IPC: 2.65311 cumulative IPC: 0.612359 (Simulation time: 0 hr 42 min 26 sec) 
Heartbeat CPU 0 instructions: 150000001 cycles: 98847874 heartbeat IPC: 1.5176 cumulative IPC: 1.51748 (Simulation time: 0 hr 42 min 47 sec) 
Heartbeat CPU 1 instructions: 160000000 cycles: 99857147 heartbeat IPC: 1.60369 cumulative IPC: 1.60229 (Simulation time: 0 hr 43 min 12 sec) 
Heartbeat CPU 3 instructions: 220000000 cycles: 101790761 heartbeat IPC: 2.16773 cumulative IPC: 0.196481 (Simulation time: 0 hr 43 min 59 sec) 
Heartbeat CPU 2 instructions: 270000001 cycles: 102504967 heartbeat IPC: 2.21082 cumulative IPC: 0.682894 (Simulation time: 0 hr 44 min 17 sec) 
Heartbeat CPU 0 instructions: 160000000 cycles: 105438465 heartbeat IPC: 1.51731 cumulative IPC: 1.51747 (Simulation time: 0 hr 45 min 30 sec) 
Heartbeat CPU 1 instructions: 170000000 cycles: 106100372 heartbeat IPC: 1.60174 cumulative IPC: 1.60226 (Simulation time: 0 hr 45 min 46 sec) 
Heartbeat CPU 3 instructions: 230000000 cycles: 106271060 heartbeat IPC: 2.23199 cumulative IPC: 0.282297 (Simulation time: 0 hr 45 min 50 sec) 
Heartbeat CPU 2 instructions: 280000000 cycles: 106274191 heartbeat IPC: 2.65307 cumulative IPC: 0.75277 (Simulation time: 0 hr 45 min 50 sec) 
Heartbeat CPU 2 instructions: 290000002 cycles: 110043347 heartbeat IPC: 2.65311 cumulative IPC: 0.81786 (Simulation time: 0 hr 47 min 23 sec) 
Heartbeat CPU 3 instructions: 240000000 cycles: 110799365 heartbeat IPC: 2.20833 cumulative IPC: 0.361013 (Simulation time: 0 hr 47 min 42 sec) 
Heartbeat CPU 0 instructions: 170000000 cycles: 112027281 heartbeat IPC: 1.51772 cumulative IPC: 1.51749 (Simulation time: 0 hr 48 min 13 sec) 
Heartbeat CPU 1 instructions: 180000000 cycles: 112313257 heartbeat IPC: 1.60956 cumulative IPC: 1.60266 (Simulation time: 0 hr 48 min 19 sec) 
Heartbeat CPU 2 instructions: 300000000 cycles: 113809558 heartbeat IPC: 2.65519 cumulative IPC: 0.878661 (Simulation time: 0 hr 48 min 56 sec) 
Heartbeat CPU 3 instructions: 250000000 cycles: 115527254 heartbeat IPC: 2.11511 cumulative IPC: 0.432798 (Simulation time: 0 hr 49 min 39 sec) 
Heartbeat CPU 2 instructions: 310000003 cycles: 117598854 heartbeat IPC: 2.63901 cumulative IPC: 0.935383 (Simulation time: 0 hr 50 min 30 sec) 
Heartbeat CPU 1 instructions: 190000000 cycles: 118566431 heartbeat IPC: 1.59919 cumulative IPC: 1.60248 (Simulation time: 0 hr 50 min 54 sec) 
Heartbeat CPU 0 instructions: 180000000 cycles: 118617214 heartbeat IPC: 1.51747 cumulative IPC: 1.51749 (Simulation time: 0 hr 50 min 55 sec) 
Heartbeat CPU 3 instructions: 260000000 cycles: 120390619 heartbeat IPC: 2.05619 cumulative IPC: 0.498378 (Simulation time: 0 hr 51 min 38 sec) 
Heartbeat CPU 2 instructions: 320000000 cycles: 121410260 heartbeat IPC: 2.6237 cumulative IPC: 0.988384 (Simulation time: 0 hr 52 min 6 sec) 
Heartbeat CPU 3 instructions: 270000000 cycles: 124778074 heartbeat IPC: 2.27923 cumulative IPC: 0.560996 (Simulation time: 0 hr 53 min 30 sec) 
Heartbeat CPU 1 instructions: 200000000 cycles: 124816431 heartbeat IPC: 1.6 cumulative IPC: 1.60235 (Simulation time: 0 hr 53 min 31 sec) 
Heartbeat CPU 0 instructions: 190000002 cycles: 125207190 heartbeat IPC: 1.51746 cumulative IPC: 1.51748 (Simulation time: 0 hr 53 min 41 sec) 
Heartbeat CPU 2 instructions: 330000001 cycles: 125239600 heartbeat IPC: 2.61142 cumulative IPC: 1.03801 (Simulation time: 0 hr 53 min 42 sec) 
Heartbeat CPU 2 instructions: 340000000 cycles: 129087099 heartbeat IPC: 2.59909 cumulative IPC: 1.08454 (Simulation time: 0 hr 55 min 15 sec) 
Heartbeat CPU 3 instructions: 280000000 cycles: 129475111 heartbeat IPC: 2.129 cumulative IPC: 0.617879 (Simulation time: 0 hr 55 min 25 sec) 
Heartbeat CPU 1 instructions: 210000001 cycles: 131067717 heartbeat IPC: 1.59967 cumulative IPC: 0.0762964 (Simulation time: 0 hr 56 min 3 sec) 
Heartbeat CPU 0 instructions: 200000000 cycles: 131796796 heartbeat IPC: 1.51754 cumulative IPC: 1.51749 (Simulation time: 0 hr 56 min 21 sec) 

Warmup complete CPU 0 instructions: 200000002 cycles: 131796814 (Simulation time: 0 hr 56 min 21 sec) 
Warmup complete CPU 1 instructions: 211167550 cycles: 131796813 (Simulation time: 0 hr 56 min 21 sec) 
Warmup complete CPU 2 instructions: 346996271 cycles: 131796813 (Simulation time: 0 hr 56 min 21 sec) 
Warmup complete CPU 3 instructions: 285006592 cycles: 131796813 (Simulation time: 0 hr 56 min 21 sec) 

Heartbeat CPU 3 instructions: 290000001 cycles: 135513345 heartbeat IPC: 1.65611 cumulative IPC: 1.34357 (Simulation time: 0 hr 57 min 16 sec) 
Heartbeat CPU 2 instructions: 350000003 cycles: 135678351 heartbeat IPC: 1.51716 cumulative IPC: 0.773851 (Simulation time: 0 hr 57 min 18 sec) 
Heartbeat CPU 0 instructions: 210000000 cycles: 141864015 heartbeat IPC: 0.993323 cumulative IPC: 0.993325 (Simulation time: 0 hr 58 min 49 sec) 
Heartbeat CPU 1 instructions: 220000000 cycles: 142188141 heartbeat IPC: 0.899246 cumulative IPC: 0.849983 (Simulation time: 0 hr 58 min 54 sec) 
Heartbeat CPU 3 instructions: 300000000 cycles: 144239458 heartbeat IPC: 1.14599 cumulative IPC: 1.205 (Simulation time: 0 hr 59 min 23 sec) 
Heartbeat CPU 2 instructions: 360000000 cycles: 148780016 heartbeat IPC: 0.763262 cumulative IPC: 0.765682 (Simulation time: 1 hr 0 min 29 sec) 
Heartbeat CPU 0 instructions: 220000000 cycles: 151836247 heartbeat IPC: 1.00278 cumulative IPC: 0.998032 (Simulation time: 1 hr 1 min 14 sec) 
Heartbeat CPU 3 instructions: 310000001 cycles: 153052963 heartbeat IPC: 1.13462 cumulative IPC: 1.17582 (Simulation time: 1 hr 1 min 31 sec) 
Heartbeat CPU 1 instructions: 230000003 cycles: 153953951 heartbeat IPC: 0.849921 cumulative IPC: 0.84995 (Simulation time: 1 hr 1 min 44 sec) 
Heartbeat CPU 3 instructions: 320000000 cycles: 161063664 heartbeat IPC: 1.24833 cumulative IPC: 1.19567 (Simulation time: 1 hr 3 min 28 sec) 
Heartbeat CPU 0 instructions: 230000001 cycles: 161868684 heartbeat IPC: 0.996767 cumulative IPC: 0.99761 (Simulation time: 1 hr 3 min 41 sec) 
Heartbeat CPU 2 instructions: 370000003 cycles: 161885492 heartbeat IPC: 0.76304 cumulative IPC: 0.764531 (Simulation time: 1 hr 3 min 41 sec) 
Heartbeat CPU 1 instructions: 240000000 cycles: 165712912 heartbeat IPC: 0.850415 cumulative IPC: 0.850111 (Simulation time: 1 hr 4 min 37 sec) 
Heartbeat CPU 3 instructions: 330000000 cycles: 169422617 heartbeat IPC: 1.19632 cumulative IPC: 1.19581 (Simulation time: 1 hr 5 min 30 sec) 
Heartbeat CPU 0 instructions: 240000000 cycles: 171876668 heartbeat IPC: 0.999202 cumulative IPC: 0.998008 (Simulation time: 1 hr 6 min 6 sec) 
Heartbeat CPU 2 instructions: 380000000 cycles: 174998554 heartbeat IPC: 0.762598 cumulative IPC: 0.763944 (Simulation time: 1 hr 6 min 51 sec) 
Heartbeat CPU 1 instructions: 250000002 cycles: 177359700 heartbeat IPC: 0.858606 cumulative IPC: 0.852283 (Simulation time: 1 hr 7 min 26 sec) 
Heartbeat CPU 3 instructions: 340000000 cycles: 177536759 heartbeat IPC: 1.23242 cumulative IPC: 1.20231 (Simulation time: 1 hr 7 min 29 sec) 
Heartbeat CPU 0 instructions: 250000003 cycles: 181867403 heartbeat IPC: 1.00093 cumulative IPC: 0.99859 (Simulation time: 1 hr 8 min 33 sec) 
Heartbeat CPU 3 instructions: 350000001 cycles: 186052766 heartbeat IPC: 1.17426 cumulative IPC: 1.1979 (Simulation time: 1 hr 9 min 33 sec) 
Heartbeat CPU 2 instructions: 390000003 cycles: 188144384 heartbeat IPC: 0.760698 cumulative IPC: 0.763187 (Simulation time: 1 hr 10 min 3 sec) 
Heartbeat CPU 1 instructions: 260000000 cycles: 189071979 heartbeat IPC: 0.853805 cumulative IPC: 0.852594 (Simulation time: 1 hr 10 min 17 sec) 
Heartbeat CPU 0 instructions: 260000000 cycles: 191827053 heartbeat IPC: 1.00405 cumulative IPC: 0.999496 (Simulation time: 1 hr 10 min 57 sec) 
Heartbeat CPU 3 instructions: 360000000 cycles: 194900529 heartbeat IPC: 1.13023 cumulative IPC: 1.18842 (Simulation time: 1 hr 11 min 42 sec) 
Heartbeat CPU 1 instructions: 270000000 cycles: 200871306 heartbeat IPC: 0.847506 cumulative IPC: 0.851725 (Simulation time: 1 hr 13 min 9 sec) 
Heartbeat CPU 2 instructions: 400000000 cycles: 201094677 heartbeat IPC: 0.772183 cumulative IPC: 0.764868 (Simulation time: 1 hr 13 min 12 sec) 
Heartbeat CPU 0 instructions: 270000003 cycles: 201818142 heartbeat IPC: 1.00089 cumulative IPC: 0.999695 (Simulation time: 1 hr 13 min 23 sec) 
Heartbeat CPU 3 instructions: 370000002 cycles: 202822575 heartbeat IPC: 1.2623 cumulative IPC: 1.19666 (Simulation time: 1 hr 13 min 37 sec) 
Heartbeat CPU 3 instructions: 380000000 cycles: 210911230 heartbeat IPC: 1.2363 cumulative IPC: 1.20071 (Simulation time: 1 hr 15 min 31 sec) 
Heartbeat CPU 0 instructions: 280000000 cycles: 211803392 heartbeat IPC: 1.00148 cumulative IPC: 0.999918 (Simulation time: 1 hr 15 min 43 sec) 
Heartbeat CPU 1 instructions: 280000000 cycles: 212517669 heartbeat IPC: 0.858637 cumulative IPC: 0.852722 (Simulation time: 1 hr 15 min 53 sec) 
Heartbeat CPU 2 instructions: 410000001 cycles: 213615697 heartbeat IPC: 0.798657 cumulative IPC: 0.770039 (Simulation time: 1 hr 16 min 8 sec) 
Heartbeat CPU 3 instructions: 390000003 cycles: 218984021 heartbeat IPC: 1.23873 cumulative IPC: 1.20423 (Simulation time: 1 hr 17 min 28 sec) 
Heartbeat CPU 0 instructions: 290000003 cycles: 221867462 heartbeat IPC: 0.993634 cumulative IPC: 0.999216 (Simulation time: 1 hr 18 min 11 sec) 
Heartbeat CPU 1 instructions: 290000002 cycles: 224257810 heartbeat IPC: 0.851779 cumulative IPC: 0.852602 (Simulation time: 1 hr 18 min 45 sec) 
Heartbeat CPU 2 instructions: 420000000 cycles: 226042671 heartbeat IPC: 0.804701 cumulative IPC: 0.774609 (Simulation time: 1 hr 19 min 11 sec) 
Heartbeat CPU 3 instructions: 400000000 cycles: 227491520 heartbeat IPC: 1.17543 cumulative IPC: 1.20167 (Simulation time: 1 hr 19 min 32 sec) 
Heartbeat CPU 0 instructions: 300000000 cycles: 231835925 heartbeat IPC: 1.00316 cumulative IPC: 0.999609 (Simulation time: 1 hr 20 min 35 sec) 
Heartbeat CPU 1 instructions: 300000000 cycles: 235931835 heartbeat IPC: 0.856602 cumulative IPC: 0.853051 (Simulation time: 1 hr 21 min 35 sec) 
Heartbeat CPU 3 instructions: 410000001 cycles: 236476476 heartbeat IPC: 1.11297 cumulative IPC: 1.19406 (Simulation time: 1 hr 21 min 43 sec) 
Heartbeat CPU 2 instructions: 430000002 cycles: 238129188 heartbeat IPC: 0.827368 cumulative IPC: 0.780606 (Simulation time: 1 hr 22 min 7 sec) 
Heartbeat CPU 0 instructions: 310000000 cycles: 241808499 heartbeat IPC: 1.00275 cumulative IPC: 0.999894 (Simulation time: 1 hr 23 min 1 sec) 
Heartbeat CPU 3 instructions: 420000000 cycles: 244373980 heartbeat IPC: 1.26622 cumulative IPC: 1.19912 (Simulation time: 1 hr 23 min 40 sec) 
Heartbeat CPU 1 instructions: 310000001 cycles: 247648264 heartbeat IPC: 0.853502 cumulative IPC: 0.853096 (Simulation time: 1 hr 24 min 28 sec) 
Heartbeat CPU 2 instructions: 440000000 cycles: 250125390 heartbeat IPC: 0.833597 cumulative IPC: 0.785979 (Simulation time: 1 hr 25 min 2 sec) 
Heartbeat CPU 0 instructions: 320000000 cycles: 251985964 heartbeat IPC: 0.982563 cumulative IPC: 0.998426 (Simulation time: 1 hr 25 min 26 sec) 
Heartbeat CPU 3 instructions: 430000001 cycles: 252558221 heartbeat IPC: 1.22186 cumulative IPC: 1.20066 (Simulation time: 1 hr 25 min 34 sec) 
Heartbeat CPU 1 instructions: 320000000 cycles: 259484493 heartbeat IPC: 0.844864 cumulative IPC: 0.852333 (Simulation time: 1 hr 27 min 3 sec) 
Heartbeat CPU 3 instructions: 440000000 cycles: 260814321 heartbeat IPC: 1.21123 cumulative IPC: 1.20134 (Simulation time: 1 hr 27 min 21 sec) 
Heartbeat CPU 2 instructions: 450000003 cycles: 262029528 heartbeat IPC: 0.840044 cumulative IPC: 0.790921 (Simulation time: 1 hr 27 min 37 sec) 
Heartbeat CPU 0 instructions: 330000000 cycles: 262553175 heartbeat IPC: 0.946324 cumulative IPC: 0.994215 (Simulation time: 1 hr 27 min 44 sec) 
Heartbeat CPU 3 instructions: 450000002 cycles: 268988415 heartbeat IPC: 1.22338 cumulative IPC: 1.20265 (Simulation time: 1 hr 29 min 8 sec) 
Heartbeat CPU 1 instructions: 330000003 cycles: 271483012 heartbeat IPC: 0.833436 cumulative IPC: 0.85071 (Simulation time: 1 hr 29 min 39 sec) 
Heartbeat CPU 0 instructions: 340000000 cycles: 272452096 heartbeat IPC: 1.01021 cumulative IPC: 0.995341 (Simulation time: 1 hr 29 min 52 sec) 
Heartbeat CPU 2 instructions: 460000000 cycles: 274686471 heartbeat IPC: 0.79008 cumulative IPC: 0.790846 (Simulation time: 1 hr 30 min 21 sec) 
Heartbeat CPU 3 instructions: 460000000 cycles: 277195127 heartbeat IPC: 1.21851 cumulative IPC: 1.20354 (Simulation time: 1 hr 30 min 55 sec) 
Heartbeat CPU 0 instructions: 350000000 cycles: 281987336 heartbeat IPC: 1.04874 cumulative IPC: 0.998731 (Simulation time: 1 hr 32 min 2 sec) 
Heartbeat CPU 1 instructions: 340000000 cycles: 283915116 heartbeat IPC: 0.804369 cumulative IPC: 0.846923 (Simulation time: 1 hr 32 min 29 sec) 
Heartbeat CPU 3 instructions: 470000001 cycles: 285587653 heartbeat IPC: 1.19154 cumulative IPC: 1.20289 (Simulation time: 1 hr 32 min 53 sec) 
Heartbeat CPU 2 instructions: 470000002 cycles: 287745825 heartbeat IPC: 0.765735 cumulative IPC: 0.788743 (Simulation time: 1 hr 33 min 25 sec) 
Heartbeat CPU 0 instructions: 360000000 cycles: 292044544 heartbeat IPC: 0.994312 cumulative IPC: 0.998454 (Simulation time: 1 hr 34 min 30 sec) 
Heartbeat CPU 3 instructions: 480000000 cycles: 293215516 heartbeat IPC: 1.31098 cumulative IPC: 1.208 (Simulation time: 1 hr 34 min 47 sec) 
Heartbeat CPU 1 instructions: 350000003 cycles: 295705287 heartbeat IPC: 0.848164 cumulative IPC: 0.847012 (Simulation time: 1 hr 35 min 24 sec) 
Heartbeat CPU 2 instructions: 480000000 cycles: 299784334 heartbeat IPC: 0.830667 cumulative IPC: 0.791748 (Simulation time: 1 hr 36 min 23 sec) 
Heartbeat CPU 0 instructions: 370000000 cycles: 301951139 heartbeat IPC: 1.00943 cumulative IPC: 0.999093 (Simulation time: 1 hr 36 min 55 sec) 
Heartbeat CPU 3 instructions: 490000003 cycles: 302953312 heartbeat IPC: 1.02693 cumulative IPC: 1.1977 (Simulation time: 1 hr 37 min 10 sec) 
Heartbeat CPU 1 instructions: 360000000 cycles: 307352513 heartbeat IPC: 0.858573 cumulative IPC: 0.847779 (Simulation time: 1 hr 38 min 16 sec) 
Heartbeat CPU 2 instructions: 490000000 cycles: 311690134 heartbeat IPC: 0.839927 cumulative IPC: 0.794936 (Simulation time: 1 hr 39 min 19 sec) 
Heartbeat CPU 3 instructions: 500000000 cycles: 311836978 heartbeat IPC: 1.12566 cumulative IPC: 1.19414 (Simulation time: 1 hr 39 min 21 sec) 
Heartbeat CPU 0 instructions: 380000000 cycles: 311864234 heartbeat IPC: 1.00877 cumulative IPC: 0.999626 (Simulation time: 1 hr 39 min 21 sec) 
Heartbeat CPU 1 instructions: 370000001 cycles: 319092210 heartbeat IPC: 0.851811 cumulative IPC: 0.848032 (Simulation time: 1 hr 41 min 7 sec) 
Heartbeat CPU 3 instructions: 510000000 cycles: 320538080 heartbeat IPC: 1.14928 cumulative IPC: 1.19207 (Simulation time: 1 hr 41 min 29 sec) 
Heartbeat CPU 0 instructions: 390000001 cycles: 321805000 heartbeat IPC: 1.00596 cumulative IPC: 0.999957 (Simulation time: 1 hr 41 min 48 sec) 
Heartbeat CPU 2 instructions: 500000000 cycles: 323564658 heartbeat IPC: 0.842139 cumulative IPC: 0.797859 (Simulation time: 1 hr 42 min 15 sec) 
Heartbeat CPU 3 instructions: 520000000 cycles: 329041773 heartbeat IPC: 1.17596 cumulative IPC: 1.19138 (Simulation time: 1 hr 43 min 35 sec) 
Heartbeat CPU 1 instructions: 380000000 cycles: 330742959 heartbeat IPC: 0.858314 cumulative IPC: 0.848634 (Simulation time: 1 hr 43 min 59 sec) 
Heartbeat CPU 0 instructions: 400000000 cycles: 331701677 heartbeat IPC: 1.01044 cumulative IPC: 1.00048 (Simulation time: 1 hr 44 min 13 sec) 
Heartbeat CPU 2 instructions: 510000001 cycles: 335395135 heartbeat IPC: 0.845275 cumulative IPC: 0.800614 (Simulation time: 1 hr 45 min 8 sec) 
Heartbeat CPU 3 instructions: 530000001 cycles: 337137855 heartbeat IPC: 1.23517 cumulative IPC: 1.1931 (Simulation time: 1 hr 45 min 34 sec) 
Heartbeat CPU 0 instructions: 410000003 cycles: 341612839 heartbeat IPC: 1.00896 cumulative IPC: 1.00088 (Simulation time: 1 hr 46 min 41 sec) 
Heartbeat CPU 1 instructions: 390000000 cycles: 342488095 heartbeat IPC: 0.851416 cumulative IPC: 0.848789 (Simulation time: 1 hr 46 min 53 sec) 
Heartbeat CPU 3 instructions: 540000000 cycles: 345939243 heartbeat IPC: 1.13618 cumulative IPC: 1.19077 (Simulation time: 1 hr 47 min 45 sec) 
Heartbeat CPU 2 instructions: 520000000 cycles: 347244994 heartbeat IPC: 0.843892 cumulative IPC: 0.802995 (Simulation time: 1 hr 48 min 4 sec) 
Heartbeat CPU 0 instructions: 420000000 cycles: 351527192 heartbeat IPC: 1.00864 cumulative IPC: 1.00123 (Simulation time: 1 hr 49 min 7 sec) 
Heartbeat CPU 1 instructions: 400000000 cycles: 354194377 heartbeat IPC: 0.854242 cumulative IPC: 0.849076 (Simulation time: 1 hr 49 min 45 sec) 
Heartbeat CPU 3 instructions: 550000000 cycles: 355300643 heartbeat IPC: 1.06822 cumulative IPC: 1.18563 (Simulation time: 1 hr 50 min 1 sec) 
Heartbeat CPU 2 instructions: 530000002 cycles: 358897737 heartbeat IPC: 0.858167 cumulative IPC: 0.805826 (Simulation time: 1 hr 50 min 57 sec) 
Heartbeat CPU 0 instructions: 430000001 cycles: 361484049 heartbeat IPC: 1.00433 cumulative IPC: 1.00136 (Simulation time: 1 hr 51 min 37 sec) 
Heartbeat CPU 3 instructions: 560000000 cycles: 361869873 heartbeat IPC: 1.52225 cumulative IPC: 1.19524 (Simulation time: 1 hr 51 min 43 sec) 
Heartbeat CPU 1 instructions: 410000000 cycles: 365887818 heartbeat IPC: 0.85518 cumulative IPC: 0.849381 (Simulation time: 1 hr 52 min 41 sec) 
Heartbeat CPU 2 instructions: 540000000 cycles: 370786876 heartbeat IPC: 0.841104 cumulative IPC: 0.807581 (Simulation time: 1 hr 53 min 53 sec) 
Heartbeat CPU 3 instructions: 570000002 cycles: 370932781 heartbeat IPC: 1.1034 cumulative IPC: 1.19176 (Simulation time: 1 hr 53 min 55 sec) 
Heartbeat CPU 0 instructions: 440000000 cycles: 371415089 heartbeat IPC: 1.00694 cumulative IPC: 1.00159 (Simulation time: 1 hr 54 min 2 sec) 
Heartbeat CPU 1 instructions: 420000000 cycles: 377507932 heartbeat IPC: 0.860577 cumulative IPC: 0.84991 (Simulation time: 1 hr 55 min 45 sec) 
Heartbeat CPU 3 instructions: 580000000 cycles: 378239458 heartbeat IPC: 1.36861 cumulative IPC: 1.19701 (Simulation time: 1 hr 55 min 58 sec) 
Heartbeat CPU 0 instructions: 450000001 cycles: 381348416 heartbeat IPC: 1.00671 cumulative IPC: 1.0018 (Simulation time: 1 hr 56 min 47 sec) 
Heartbeat CPU 2 instructions: 550000001 cycles: 382656541 heartbeat IPC: 0.842484 cumulative IPC: 0.809232 (Simulation time: 1 hr 57 min 11 sec) 
Heartbeat CPU 3 instructions: 590000003 cycles: 387410630 heartbeat IPC: 1.09037 cumulative IPC: 1.19318 (Simulation time: 1 hr 58 min 20 sec) 
Heartbeat CPU 1 instructions: 430000002 cycles: 389217875 heartbeat IPC: 0.853975 cumulative IPC: 0.850095 (Simulation time: 1 hr 58 min 47 sec) 
Heartbeat CPU 0 instructions: 460000000 cycles: 391316999 heartbeat IPC: 1.00315 cumulative IPC: 1.00185 (Simulation time: 1 hr 59 min 17 sec) 
Heartbeat CPU 2 instructions: 560000000 cycles: 394493512 heartbeat IPC: 0.844811 cumulative IPC: 0.810835 (Simulation time: 2 hr 0 min 1 sec) 
Heartbeat CPU 3 instructions: 600000000 cycles: 396646389 heartbeat IPC: 1.08275 cumulative IPC: 1.18933 (Simulation time: 2 hr 0 min 31 sec) 
Heartbeat CPU 1 instructions: 440000000 cycles: 400912464 heartbeat IPC: 0.855096 cumulative IPC: 0.850313 (Simulation time: 2 hr 1 min 32 sec) 
Heartbeat CPU 0 instructions: 470000002 cycles: 401275500 heartbeat IPC: 1.00417 cumulative IPC: 1.00193 (Simulation time: 2 hr 1 min 37 sec) 
Heartbeat CPU 3 instructions: 610000003 cycles: 403761851 heartbeat IPC: 1.40539 cumulative IPC: 1.19498 (Simulation time: 2 hr 2 min 13 sec) 
Heartbeat CPU 2 instructions: 570000003 cycles: 406285749 heartbeat IPC: 0.848016 cumulative IPC: 0.812433 (Simulation time: 2 hr 2 min 48 sec) 
Heartbeat CPU 0 instructions: 480000000 cycles: 411210049 heartbeat IPC: 1.00659 cumulative IPC: 1.0021 (Simulation time: 2 hr 3 min 57 sec) 
Heartbeat CPU 1 instructions: 450000001 cycles: 412667242 heartbeat IPC: 0.850718 cumulative IPC: 0.85033 (Simulation time: 2 hr 4 min 17 sec) 
Heartbeat CPU 3 instructions: 620000000 cycles: 412798031 heartbeat IPC: 1.10666 cumulative IPC: 1.19214 (Simulation time: 2 hr 4 min 18 sec) 
Heartbeat CPU 2 instructions: 580000000 cycles: 418120526 heartbeat IPC: 0.844967 cumulative IPC: 0.813777 (Simulation time: 2 hr 5 min 39 sec) 
Heartbeat CPU 3 instructions: 630000003 cycles: 420581341 heartbeat IPC: 1.2848 cumulative IPC: 1.19464 (Simulation time: 2 hr 6 min 15 sec) 
Heartbeat CPU 0 instructions: 490000002 cycles: 421147900 heartbeat IPC: 1.00625 cumulative IPC: 1.00224 (Simulation time: 2 hr 6 min 23 sec) 
Heartbeat CPU 1 instructions: 460000000 cycles: 424228349 heartbeat IPC: 0.864969 cumulative IPC: 0.850908 (Simulation time: 2 hr 7 min 9 sec) 
Heartbeat CPU 2 instructions: 590000003 cycles: 429720094 heartbeat IPC: 0.862101 cumulative IPC: 0.815659 (Simulation time: 2 hr 8 min 29 sec) 
Heartbeat CPU 3 instructions: 640000000 cycles: 429756916 heartbeat IPC: 1.08985 cumulative IPC: 1.19141 (Simulation time: 2 hr 8 min 30 sec) 
Heartbeat CPU 0 instructions: 500000000 cycles: 431101620 heartbeat IPC: 1.00465 cumulative IPC: 1.00232 (Simulation time: 2 hr 8 min 49 sec) 
Heartbeat CPU 1 instructions: 470000001 cycles: 435838690 heartbeat IPC: 0.861301 cumulative IPC: 0.851305 (Simulation time: 2 hr 9 min 59 sec) 
Heartbeat CPU 3 instructions: 650000000 cycles: 438091683 heartbeat IPC: 1.19979 cumulative IPC: 1.19164 (Simulation time: 2 hr 10 min 33 sec) 
Heartbeat CPU 0 instructions: 510000001 cycles: 441073840 heartbeat IPC: 1.00279 cumulative IPC: 1.00234 (Simulation time: 2 hr 11 min 17 sec) 
Heartbeat CPU 2 instructions: 600000000 cycles: 441545275 heartbeat IPC: 0.845653 cumulative IPC: 0.816804 (Simulation time: 2 hr 11 min 25 sec) 
Heartbeat CPU 3 instructions: 660000000 cycles: 446093920 heartbeat IPC: 1.24965 cumulative IPC: 1.19312 (Simulation time: 2 hr 12 min 31 sec) 
Heartbeat CPU 1 instructions: 480000000 cycles: 447513682 heartbeat IPC: 0.856532 cumulative IPC: 0.851499 (Simulation time: 2 hr 12 min 52 sec) 
Heartbeat CPU 0 instructions: 520000000 cycles: 451056297 heartbeat IPC: 1.00176 cumulative IPC: 1.00232 (Simulation time: 2 hr 13 min 44 sec) 
Heartbeat CPU 2 instructions: 610000000 cycles: 453314186 heartbeat IPC: 0.849696 cumulative IPC: 0.818008 (Simulation time: 2 hr 14 min 18 sec) 
Heartbeat CPU 3 instructions: 670000003 cycles: 454167895 heartbeat IPC: 1.23855 cumulative IPC: 1.19426 (Simulation time: 2 hr 14 min 31 sec) 
Heartbeat CPU 1 instructions: 490000000 cycles: 459299018 heartbeat IPC: 0.848512 cumulative IPC: 0.851391 (Simulation time: 2 hr 15 min 46 sec) 
Heartbeat CPU 0 instructions: 530000002 cycles: 460983514 heartbeat IPC: 1.00733 cumulative IPC: 1.00247 (Simulation time: 2 hr 16 min 10 sec) 
Heartbeat CPU 3 instructions: 680000000 cycles: 463353416 heartbeat IPC: 1.08867 cumulative IPC: 1.19133 (Simulation time: 2 hr 16 min 45 sec) 
Heartbeat CPU 2 instructions: 620000000 cycles: 465191830 heartbeat IPC: 0.841918 cumulative IPC: 0.81886 (Simulation time: 2 hr 17 min 12 sec) 
Heartbeat CPU 0 instructions: 540000000 cycles: 470920813 heartbeat IPC: 1.00631 cumulative IPC: 1.00258 (Simulation time: 2 hr 18 min 36 sec) 
Heartbeat CPU 1 instructions: 500000000 cycles: 470940873 heartbeat IPC: 0.85897 cumulative IPC: 0.851651 (Simulation time: 2 hr 18 min 36 sec) 
Heartbeat CPU 3 instructions: 690000001 cycles: 472190850 heartbeat IPC: 1.13155 cumulative IPC: 1.18978 (Simulation time: 2 hr 18 min 54 sec) 
Heartbeat CPU 2 instructions: 630000000 cycles: 477046063 heartbeat IPC: 0.843581 cumulative IPC: 0.819708 (Simulation time: 2 hr 20 min 7 sec) 
Heartbeat CPU 3 instructions: 700000000 cycles: 479767202 heartbeat IPC: 1.3199 cumulative IPC: 1.19261 (Simulation time: 2 hr 20 min 47 sec) 
Heartbeat CPU 0 instructions: 550000002 cycles: 480893707 heartbeat IPC: 1.00272 cumulative IPC: 1.00259 (Simulation time: 2 hr 21 min 5 sec) 
Heartbeat CPU 1 instructions: 510000002 cycles: 482656972 heartbeat IPC: 0.853527 cumulative IPC: 0.851714 (Simulation time: 2 hr 21 min 31 sec) 
Heartbeat CPU 3 instructions: 710000000 cycles: 488063974 heartbeat IPC: 1.20529 cumulative IPC: 1.19291 (Simulation time: 2 hr 22 min 50 sec) 
Heartbeat CPU 2 instructions: 640000000 cycles: 488788018 heartbeat IPC: 0.851647 cumulative IPC: 0.820759 (Simulation time: 2 hr 23 min 1 sec) 
Heartbeat CPU 0 instructions: 560000000 cycles: 490828377 heartbeat IPC: 1.00658 cumulative IPC: 1.0027 (Simulation time: 2 hr 23 min 31 sec) 
Heartbeat CPU 1 instructions: 520000000 cycles: 494348874 heartbeat IPC: 0.855293 cumulative IPC: 0.851829 (Simulation time: 2 hr 24 min 24 sec) 
Heartbeat CPU 3 instructions: 720000000 cycles: 495934324 heartbeat IPC: 1.27059 cumulative IPC: 1.19459 (Simulation time: 2 hr 24 min 48 sec) 
Heartbeat CPU 2 instructions: 650000001 cycles: 500599273 heartbeat IPC: 0.84665 cumulative IPC: 0.821588 (Simulation time: 2 hr 25 min 56 sec) 
Heartbeat CPU 0 instructions: 570000003 cycles: 500825479 heartbeat IPC: 1.00029 cumulative IPC: 1.00263 (Simulation time: 2 hr 26 min 0 sec) 
Heartbeat CPU 3 instructions: 730000003 cycles: 504471011 heartbeat IPC: 1.17141 cumulative IPC: 1.19405 (Simulation time: 2 hr 26 min 53 sec) 
Heartbeat CPU 1 instructions: 530000003 cycles: 506086205 heartbeat IPC: 0.851983 cumulative IPC: 0.851834 (Simulation time: 2 hr 27 min 16 sec) 
Heartbeat CPU 0 instructions: 580000000 cycles: 510749022 heartbeat IPC: 1.0077 cumulative IPC: 1.00276 (Simulation time: 2 hr 28 min 26 sec) 
Heartbeat CPU 3 instructions: 740000000 cycles: 512300452 heartbeat IPC: 1.27723 cumulative IPC: 1.19577 (Simulation time: 2 hr 28 min 49 sec) 
Heartbeat CPU 2 instructions: 660000000 cycles: 512494940 heartbeat IPC: 0.840642 cumulative IPC: 0.822184 (Simulation time: 2 hr 28 min 52 sec) 
Heartbeat CPU 1 instructions: 540000000 cycles: 517673605 heartbeat IPC: 0.863006 cumulative IPC: 0.85217 (Simulation time: 2 hr 30 min 8 sec) 
Heartbeat CPU 0 instructions: 590000000 cycles: 520639903 heartbeat IPC: 1.01103 cumulative IPC: 1.00298 (Simulation time: 2 hr 30 min 51 sec) 
Heartbeat CPU 3 instructions: 750000003 cycles: 521320272 heartbeat IPC: 1.10867 cumulative IPC: 1.19375 (Simulation time: 2 hr 31 min 1 sec) 
Heartbeat CPU 2 instructions: 670000001 cycles: 524268326 heartbeat IPC: 0.849373 cumulative IPC: 0.822999 (Simulation time: 2 hr 31 min 45 sec) 
Heartbeat CPU 3 instructions: 760000000 cycles: 529290388 heartbeat IPC: 1.25469 cumulative IPC: 1.19497 (Simulation time: 2 hr 32 min 59 sec) 
Heartbeat CPU 1 instructions: 550000001 cycles: 529399764 heartbeat IPC: 0.852794 cumulative IPC: 0.852188 (Simulation time: 2 hr 33 min 0 sec) 
Heartbeat CPU 0 instructions: 600000000 cycles: 530644546 heartbeat IPC: 0.999536 cumulative IPC: 1.00289 (Simulation time: 2 hr 33 min 18 sec) 
Heartbeat CPU 2 instructions: 680000000 cycles: 536017047 heartbeat IPC: 0.851156 cumulative IPC: 0.823818 (Simulation time: 2 hr 34 min 37 sec) 
Heartbeat CPU 3 instructions: 770000003 cycles: 538881931 heartbeat IPC: 1.04259 cumulative IPC: 1.19138 (Simulation time: 2 hr 35 min 19 sec) 
Heartbeat CPU 0 instructions: 610000003 cycles: 540476300 heartbeat IPC: 1.01711 cumulative IPC: 1.00323 (Simulation time: 2 hr 35 min 42 sec) 
Heartbeat CPU 1 instructions: 560000000 cycles: 541032049 heartbeat IPC: 0.859676 cumulative IPC: 0.852401 (Simulation time: 2 hr 35 min 50 sec) 
Heartbeat CPU 3 instructions: 780000000 cycles: 546875055 heartbeat IPC: 1.25107 cumulative IPC: 1.19253 (Simulation time: 2 hr 37 min 17 sec) 
Heartbeat CPU 2 instructions: 690000002 cycles: 547849141 heartbeat IPC: 0.845159 cumulative IPC: 0.824425 (Simulation time: 2 hr 37 min 31 sec) 
Heartbeat CPU 0 instructions: 620000000 cycles: 550426723 heartbeat IPC: 1.00498 cumulative IPC: 1.00327 (Simulation time: 2 hr 38 min 8 sec) 
Heartbeat CPU 1 instructions: 570000001 cycles: 552779867 heartbeat IPC: 0.851222 cumulative IPC: 0.852368 (Simulation time: 2 hr 38 min 43 sec) 
Heartbeat CPU 3 instructions: 790000002 cycles: 556000237 heartbeat IPC: 1.09587 cumulative IPC: 1.19045 (Simulation time: 2 hr 39 min 30 sec) 
Heartbeat CPU 2 instructions: 700000000 cycles: 560106031 heartbeat IPC: 0.815867 cumulative IPC: 0.82418 (Simulation time: 2 hr 40 min 31 sec) 
Heartbeat CPU 0 instructions: 630000001 cycles: 560354208 heartbeat IPC: 1.0073 cumulative IPC: 1.00337 (Simulation time: 2 hr 40 min 35 sec) 
Heartbeat CPU 3 instructions: 800000000 cycles: 564293480 heartbeat IPC: 1.2058 cumulative IPC: 1.19075 (Simulation time: 2 hr 41 min 28 sec) 
Heartbeat CPU 1 instructions: 580000000 cycles: 564560890 heartbeat IPC: 0.848823 cumulative IPC: 0.852271 (Simulation time: 2 hr 41 min 31 sec) 
Heartbeat CPU 0 instructions: 640000000 cycles: 570435846 heartbeat IPC: 0.991902 cumulative IPC: 1.0031 (Simulation time: 2 hr 42 min 50 sec) 
Heartbeat CPU 3 instructions: 810000002 cycles: 572153183 heartbeat IPC: 1.27231 cumulative IPC: 1.1922 (Simulation time: 2 hr 43 min 16 sec) 
Heartbeat CPU 1 instructions: 590000000 cycles: 576336278 heartbeat IPC: 0.849229 cumulative IPC: 0.852191 (Simulation time: 2 hr 44 min 17 sec) 
Heartbeat CPU 2 instructions: 710000003 cycles: 579575058 heartbeat IPC: 0.513637 cumulative IPC: 0.810677 (Simulation time: 2 hr 45 min 4 sec) 
Heartbeat CPU 0 instructions: 650000000 cycles: 580344016 heartbeat IPC: 1.00927 cumulative IPC: 1.00324 (Simulation time: 2 hr 45 min 16 sec) 
Heartbeat CPU 3 instructions: 820000000 cycles: 581190283 heartbeat IPC: 1.10655 cumulative IPC: 1.19048 (Simulation time: 2 hr 45 min 28 sec) 
Heartbeat CPU 1 instructions: 600000000 cycles: 587997244 heartbeat IPC: 0.857562 cumulative IPC: 0.852328 (Simulation time: 2 hr 47 min 14 sec) 
Heartbeat CPU 3 instructions: 830000000 cycles: 589615171 heartbeat IPC: 1.18696 cumulative IPC: 1.19041 (Simulation time: 2 hr 47 min 39 sec) 
Heartbeat CPU 0 instructions: 660000000 cycles: 590309529 heartbeat IPC: 1.00346 cumulative IPC: 1.00324 (Simulation time: 2 hr 47 min 51 sec) 
Heartbeat CPU 2 instructions: 720000000 cycles: 591461463 heartbeat IPC: 0.841297 cumulative IPC: 0.811469 (Simulation time: 2 hr 48 min 9 sec) 
Heartbeat CPU 3 instructions: 840000000 cycles: 597499253 heartbeat IPC: 1.26838 cumulative IPC: 1.19173 (Simulation time: 2 hr 49 min 41 sec) 
Heartbeat CPU 1 instructions: 610000000 cycles: 599751622 heartbeat IPC: 0.850747 cumulative IPC: 0.852288 (Simulation time: 2 hr 50 min 15 sec) 
Heartbeat CPU 0 instructions: 670000002 cycles: 600322692 heartbeat IPC: 0.998686 cumulative IPC: 1.00315 (Simulation time: 2 hr 50 min 23 sec) 
Heartbeat CPU 2 instructions: 730000000 cycles: 603359394 heartbeat IPC: 0.840482 cumulative IPC: 0.812201 (Simulation time: 2 hr 51 min 9 sec) 
Heartbeat CPU 3 instructions: 850000000 cycles: 606306483 heartbeat IPC: 1.13543 cumulative IPC: 1.19069 (Simulation time: 2 hr 51 min 53 sec) 
Heartbeat CPU 0 instructions: 680000000 cycles: 610234202 heartbeat IPC: 1.00893 cumulative IPC: 1.00327 (Simulation time: 2 hr 52 min 54 sec) 
Heartbeat CPU 1 instructions: 620000000 cycles: 611336114 heartbeat IPC: 0.863223 cumulative IPC: 0.852553 (Simulation time: 2 hr 53 min 11 sec) 
Heartbeat CPU 3 instructions: 860000000 cycles: 614070452 heartbeat IPC: 1.288 cumulative IPC: 1.19226 (Simulation time: 2 hr 53 min 52 sec) 
Heartbeat CPU 2 instructions: 740000000 cycles: 615507117 heartbeat IPC: 0.8232 cumulative IPC: 0.812477 (Simulation time: 2 hr 54 min 13 sec) 
Heartbeat CPU 0 instructions: 690000002 cycles: 620166484 heartbeat IPC: 1.00682 cumulative IPC: 1.00334 (Simulation time: 2 hr 55 min 23 sec) 
Heartbeat CPU 3 instructions: 870000001 cycles: 621991771 heartbeat IPC: 1.26242 cumulative IPC: 1.19339 (Simulation time: 2 hr 55 min 51 sec) 
Heartbeat CPU 1 instructions: 630000002 cycles: 623006473 heartbeat IPC: 0.856872 cumulative IPC: 0.852655 (Simulation time: 2 hr 56 min 7 sec) 
Heartbeat CPU 2 instructions: 750000001 cycles: 627782606 heartbeat IPC: 0.814632 cumulative IPC: 0.812531 (Simulation time: 2 hr 57 min 18 sec) 
Heartbeat CPU 0 instructions: 700000000 cycles: 630122568 heartbeat IPC: 1.00441 cumulative IPC: 1.00336 (Simulation time: 2 hr 57 min 53 sec) 
Heartbeat CPU 3 instructions: 880000000 cycles: 630632828 heartbeat IPC: 1.15727 cumulative IPC: 1.19276 (Simulation time: 2 hr 58 min 1 sec) 
Heartbeat CPU 1 instructions: 640000000 cycles: 634669689 heartbeat IPC: 0.857396 cumulative IPC: 0.852765 (Simulation time: 2 hr 59 min 2 sec) 
Heartbeat CPU 3 instructions: 890000000 cycles: 638804343 heartbeat IPC: 1.22376 cumulative IPC: 1.19326 (Simulation time: 3 hr 0 min 3 sec) 
Heartbeat CPU 0 instructions: 710000001 cycles: 640017269 heartbeat IPC: 1.01064 cumulative IPC: 1.0035 (Simulation time: 3 hr 0 min 21 sec) 
Heartbeat CPU 2 instructions: 760000000 cycles: 640365445 heartbeat IPC: 0.794733 cumulative IPC: 0.81209 (Simulation time: 3 hr 0 min 25 sec) 
Heartbeat CPU 1 instructions: 650000000 cycles: 646487332 heartbeat IPC: 0.846192 cumulative IPC: 0.852614 (Simulation time: 3 hr 1 min 53 sec) 
Heartbeat CPU 3 instructions: 900000000 cycles: 646926645 heartbeat IPC: 1.23118 cumulative IPC: 1.19386 (Simulation time: 3 hr 1 min 59 sec) 
Heartbeat CPU 0 instructions: 720000000 cycles: 649205587 heartbeat IPC: 1.08834 cumulative IPC: 1.00501 (Simulation time: 3 hr 2 min 31 sec) 
Heartbeat CPU 2 instructions: 770000002 cycles: 653075617 heartbeat IPC: 0.786772 cumulative IPC: 0.811473 (Simulation time: 3 hr 3 min 24 sec) 
Heartbeat CPU 3 instructions: 910000001 cycles: 655648534 heartbeat IPC: 1.14654 cumulative IPC: 1.19307 (Simulation time: 3 hr 4 min 28 sec) 
Heartbeat CPU 1 instructions: 660000000 cycles: 658403394 heartbeat IPC: 0.839203 cumulative IPC: 0.852311 (Simulation time: 3 hr 5 min 28 sec) 
Heartbeat CPU 0 instructions: 730000000 cycles: 658470046 heartbeat IPC: 1.07939 cumulative IPC: 1.00632 (Simulation time: 3 hr 5 min 31 sec) 
Heartbeat CPU 3 instructions: 920000000 cycles: 662798645 heartbeat IPC: 1.39858 cumulative IPC: 1.19584 (Simulation time: 3 hr 6 min 41 sec) 
Heartbeat CPU 2 instructions: 780000000 cycles: 667374202 heartbeat IPC: 0.69937 cumulative IPC: 0.80848 (Simulation time: 3 hr 7 min 53 sec) 
Heartbeat CPU 0 instructions: 740000000 cycles: 668261489 heartbeat IPC: 1.0213 cumulative IPC: 1.00659 (Simulation time: 3 hr 8 min 6 sec) 
Heartbeat CPU 1 instructions: 670000003 cycles: 671008049 heartbeat IPC: 0.793358 cumulative IPC: 0.850933 (Simulation time: 3 hr 8 min 49 sec) 
Heartbeat CPU 3 instructions: 930000002 cycles: 671987450 heartbeat IPC: 1.08828 cumulative IPC: 1.19401 (Simulation time: 3 hr 9 min 7 sec) 
Heartbeat CPU 0 instructions: 750000002 cycles: 678064277 heartbeat IPC: 1.02012 cumulative IPC: 1.00683 (Simulation time: 3 hr 10 min 34 sec) 
Heartbeat CPU 3 instructions: 940000000 cycles: 679787563 heartbeat IPC: 1.28203 cumulative IPC: 1.19526 (Simulation time: 3 hr 10 min 58 sec) 
Heartbeat CPU 2 instructions: 790000000 cycles: 682498827 heartbeat IPC: 0.661173 cumulative IPC: 0.804435 (Simulation time: 3 hr 11 min 35 sec) 
Heartbeat CPU 1 instructions: 680000000 cycles: 683567601 heartbeat IPC: 0.796207 cumulative IPC: 0.849687 (Simulation time: 3 hr 11 min 50 sec) 
Heartbeat CPU 0 instructions: 760000000 cycles: 687764726 heartbeat IPC: 1.03088 cumulative IPC: 1.00725 (Simulation time: 3 hr 12 min 48 sec) 
Heartbeat CPU 3 instructions: 950000000 cycles: 689031023 heartbeat IPC: 1.08185 cumulative IPC: 1.19338 (Simulation time: 3 hr 13 min 5 sec) 
Heartbeat CPU 1 instructions: 690000000 cycles: 695794852 heartbeat IPC: 0.817845 cumulative IPC: 0.848997 (Simulation time: 3 hr 14 min 36 sec) 
Heartbeat CPU 2 instructions: 800000000 cycles: 696203382 heartbeat IPC: 0.729684 cumulative IPC: 0.80262 (Simulation time: 3 hr 14 min 42 sec) 
Heartbeat CPU 0 instructions: 770000003 cycles: 696537099 heartbeat IPC: 1.13994 cumulative IPC: 1.00931 (Simulation time: 3 hr 14 min 46 sec) 
Heartbeat CPU 3 instructions: 960000000 cycles: 698648007 heartbeat IPC: 1.03983 cumulative IPC: 1.19078 (Simulation time: 3 hr 15 min 15 sec) 
Heartbeat CPU 0 instructions: 780000000 cycles: 706926650 heartbeat IPC: 0.962505 cumulative IPC: 1.00847 (Simulation time: 3 hr 17 min 7 sec) 
Heartbeat CPU 1 instructions: 700000000 cycles: 707642388 heartbeat IPC: 0.844057 cumulative IPC: 0.848895 (Simulation time: 3 hr 17 min 17 sec) 
Heartbeat CPU 3 instructions: 970000000 cycles: 707898026 heartbeat IPC: 1.08108 cumulative IPC: 1.18902 (Simulation time: 3 hr 17 min 20 sec) 
Heartbeat CPU 2 instructions: 810000001 cycles: 709542084 heartbeat IPC: 0.749698 cumulative IPC: 0.801398 (Simulation time: 3 hr 17 min 43 sec) 
Heartbeat CPU 3 instructions: 980000000 cycles: 716750059 heartbeat IPC: 1.12968 cumulative IPC: 1.18812 (Simulation time: 3 hr 20 min 29 sec) 
Heartbeat CPU 0 instructions: 790000000 cycles: 717505526 heartbeat IPC: 0.94528 cumulative IPC: 1.00733 (Simulation time: 3 hr 20 min 41 sec) 
Heartbeat CPU 1 instructions: 710000001 cycles: 719622150 heartbeat IPC: 0.834741 cumulative IPC: 0.848607 (Simulation time: 3 hr 21 min 9 sec) 
Heartbeat CPU 2 instructions: 820000000 cycles: 723642480 heartbeat IPC: 0.7092 cumulative IPC: 0.799201 (Simulation time: 3 hr 22 min 4 sec) 
Heartbeat CPU 3 instructions: 990000002 cycles: 725945982 heartbeat IPC: 1.08744 cumulative IPC: 1.18656 (Simulation time: 3 hr 22 min 36 sec) 
Heartbeat CPU 0 instructions: 800000000 cycles: 727974319 heartbeat IPC: 0.95522 cumulative IPC: 1.00641 (Simulation time: 3 hr 23 min 5 sec) 
Heartbeat CPU 1 instructions: 720000000 cycles: 731895334 heartbeat IPC: 0.814784 cumulative IPC: 0.847915 (Simulation time: 3 hr 24 min 0 sec) 
Heartbeat CPU 3 instructions: 1000000000 cycles: 735119554 heartbeat IPC: 1.09009 cumulative IPC: 1.18509 (Simulation time: 3 hr 24 min 44 sec) 
Heartbeat CPU 2 instructions: 830000002 cycles: 738028445 heartbeat IPC: 0.695122 cumulative IPC: 0.796731 (Simulation time: 3 hr 25 min 25 sec) 
Heartbeat CPU 0 instructions: 810000003 cycles: 738404720 heartbeat IPC: 0.958736 cumulative IPC: 1.00559 (Simulation time: 3 hr 25 min 30 sec) 
Heartbeat CPU 1 instructions: 730000001 cycles: 743893291 heartbeat IPC: 0.833475 cumulative IPC: 0.847632 (Simulation time: 3 hr 26 min 51 sec) 
Heartbeat CPU 3 instructions: 1010000001 cycles: 744068656 heartbeat IPC: 1.11743 cumulative IPC: 1.1841 (Simulation time: 3 hr 26 min 54 sec) 
Heartbeat CPU 0 instructions: 820000000 cycles: 748475298 heartbeat IPC: 0.992991 cumulative IPC: 1.00539 (Simulation time: 3 hr 27 min 59 sec) 
Heartbeat CPU 2 instructions: 840000000 cycles: 750986841 heartbeat IPC: 0.7717 cumulative IPC: 0.796207 (Simulation time: 3 hr 28 min 35 sec) 
Heartbeat CPU 3 instructions: 1020000000 cycles: 753270547 heartbeat IPC: 1.08673 cumulative IPC: 1.18266 (Simulation time: 3 hr 29 min 9 sec) 
Heartbeat CPU 1 instructions: 740000000 cycles: 755585002 heartbeat IPC: 0.855307 cumulative IPC: 0.847776 (Simulation time: 3 hr 29 min 43 sec) 
Heartbeat CPU 0 instructions: 830000000 cycles: 758514545 heartbeat IPC: 0.996091 cumulative IPC: 1.00524 (Simulation time: 3 hr 30 min 27 sec) 
Heartbeat CPU 3 instructions: 1030000003 cycles: 762434308 heartbeat IPC: 1.09126 cumulative IPC: 1.18133 (Simulation time: 3 hr 31 min 24 sec) 
Heartbeat CPU 2 instructions: 850000002 cycles: 763713788 heartbeat IPC: 0.785735 cumulative IPC: 0.795997 (Simulation time: 3 hr 31 min 43 sec) 
Heartbeat CPU 1 instructions: 750000001 cycles: 767321012 heartbeat IPC: 0.852078 cumulative IPC: 0.847855 (Simulation time: 3 hr 32 min 36 sec) 
Heartbeat CPU 0 instructions: 840000000 cycles: 768517800 heartbeat IPC: 0.999675 cumulative IPC: 1.00515 (Simulation time: 3 hr 32 min 54 sec) 
Heartbeat CPU 3 instructions: 1040000000 cycles: 771516882 heartbeat IPC: 1.10101 cumulative IPC: 1.18019 (Simulation time: 3 hr 33 min 44 sec) 
Heartbeat CPU 2 instructions: 860000000 cycles: 776243004 heartbeat IPC: 0.798134 cumulative IPC: 0.796038 (Simulation time: 3 hr 34 min 55 sec) 
Heartbeat CPU 0 instructions: 850000002 cycles: 778497565 heartbeat IPC: 1.00203 cumulative IPC: 1.0051 (Simulation time: 3 hr 35 min 28 sec) 
Heartbeat CPU 1 instructions: 760000000 cycles: 778931040 heartbeat IPC: 0.861324 cumulative IPC: 0.848097 (Simulation time: 3 hr 35 min 34 sec) 
Heartbeat CPU 3 instructions: 1050000003 cycles: 780477461 heartbeat IPC: 1.116 cumulative IPC: 1.17931 (Simulation time: 3 hr 35 min 58 sec) 
Heartbeat CPU 2 instructions: 870000000 cycles: 788381048 heartbeat IPC: 0.823856 cumulative IPC: 0.796552 (Simulation time: 3 hr 37 min 55 sec) 
Heartbeat CPU 0 instructions: 860000000 cycles: 788488922 heartbeat IPC: 1.00086 cumulative IPC: 1.00504 (Simulation time: 3 hr 37 min 56 sec) 
Heartbeat CPU 3 instructions: 1060000000 cycles: 789647783 heartbeat IPC: 1.09047 cumulative IPC: 1.17807 (Simulation time: 3 hr 38 min 13 sec) 
Heartbeat CPU 1 instructions: 770000000 cycles: 790626804 heartbeat IPC: 0.85501 cumulative IPC: 0.84822 (Simulation time: 3 hr 38 min 28 sec) 
Heartbeat CPU 0 instructions: 870000000 cycles: 798437350 heartbeat IPC: 1.00518 cumulative IPC: 1.00504 (Simulation time: 3 hr 40 min 25 sec) 
Heartbeat CPU 3 instructions: 1070000001 cycles: 798806205 heartbeat IPC: 1.09189 cumulative IPC: 1.17689 (Simulation time: 3 hr 40 min 31 sec) 
Heartbeat CPU 2 instructions: 880000000 cycles: 800107584 heartbeat IPC: 0.852767 cumulative IPC: 0.797539 (Simulation time: 3 hr 40 min 50 sec) 
Heartbeat CPU 1 instructions: 780000000 cycles: 802257850 heartbeat IPC: 0.859768 cumulative IPC: 0.84842 (Simulation time: 3 hr 41 min 22 sec) 
Heartbeat CPU 3 instructions: 1080000000 cycles: 807665637 heartbeat IPC: 1.12874 cumulative IPC: 1.17625 (Simulation time: 3 hr 42 min 41 sec) 
Heartbeat CPU 0 instructions: 880000000 cycles: 808446805 heartbeat IPC: 0.999055 cumulative IPC: 1.00495 (Simulation time: 3 hr 42 min 53 sec) 
Heartbeat CPU 2 instructions: 890000000 cycles: 811824056 heartbeat IPC: 0.853499 cumulative IPC: 0.798503 (Simulation time: 3 hr 43 min 43 sec) 
Heartbeat CPU 1 instructions: 790000001 cycles: 813987067 heartbeat IPC: 0.852572 cumulative IPC: 0.848491 (Simulation time: 3 hr 44 min 16 sec) 
Heartbeat CPU 3 instructions: 1090000001 cycles: 816869877 heartbeat IPC: 1.08646 cumulative IPC: 1.17505 (Simulation time: 3 hr 44 min 59 sec) 
Heartbeat CPU 0 instructions: 890000001 cycles: 818422338 heartbeat IPC: 1.00245 cumulative IPC: 1.00491 (Simulation time: 3 hr 45 min 22 sec) 
Heartbeat CPU 2 instructions: 900000000 cycles: 823680197 heartbeat IPC: 0.843445 cumulative IPC: 0.799273 (Simulation time: 3 hr 46 min 40 sec) 
Heartbeat CPU 1 instructions: 800000000 cycles: 825607686 heartbeat IPC: 0.860539 cumulative IPC: 0.848693 (Simulation time: 3 hr 47 min 9 sec) 
Heartbeat CPU 3 instructions: 1100000000 cycles: 826131159 heartbeat IPC: 1.07976 cumulative IPC: 1.17378 (Simulation time: 3 hr 47 min 16 sec) 
Heartbeat CPU 0 instructions: 900000000 cycles: 828414837 heartbeat IPC: 1.00075 cumulative IPC: 1.00485 (Simulation time: 3 hr 47 min 50 sec) 
Heartbeat CPU 3 instructions: 1110000003 cycles: 835017501 heartbeat IPC: 1.12532 cumulative IPC: 1.17316 (Simulation time: 3 hr 49 min 30 sec) 
Heartbeat CPU 2 instructions: 910000002 cycles: 835478434 heartbeat IPC: 0.847584 cumulative IPC: 0.800083 (Simulation time: 3 hr 49 min 36 sec) 
Heartbeat CPU 1 instructions: 810000001 cycles: 837197007 heartbeat IPC: 0.862863 cumulative IPC: 0.848926 (Simulation time: 3 hr 50 min 2 sec) 
Heartbeat CPU 0 instructions: 910000000 cycles: 838373281 heartbeat IPC: 1.00417 cumulative IPC: 1.00485 (Simulation time: 3 hr 50 min 19 sec) 
Heartbeat CPU 3 instructions: 1120000000 cycles: 844260790 heartbeat IPC: 1.08187 cumulative IPC: 1.17198 (Simulation time: 3 hr 51 min 47 sec) 
Heartbeat CPU 2 instructions: 920000000 cycles: 847252384 heartbeat IPC: 0.849332 cumulative IPC: 0.800894 (Simulation time: 3 hr 52 min 33 sec) 
Heartbeat CPU 0 instructions: 920000000 cycles: 848341571 heartbeat IPC: 1.00318 cumulative IPC: 1.00482 (Simulation time: 3 hr 52 min 49 sec) 
Heartbeat CPU 1 instructions: 820000000 cycles: 848716871 heartbeat IPC: 0.868066 cumulative IPC: 0.849233 (Simulation time: 3 hr 52 min 54 sec) 
Heartbeat CPU 3 instructions: 1130000003 cycles: 853430280 heartbeat IPC: 1.09057 cumulative IPC: 1.17095 (Simulation time: 3 hr 54 min 4 sec) 
Heartbeat CPU 0 instructions: 930000002 cycles: 858367417 heartbeat IPC: 0.997422 cumulative IPC: 1.00472 (Simulation time: 3 hr 55 min 18 sec) 
Heartbeat CPU 2 instructions: 930000000 cycles: 858890161 heartbeat IPC: 0.859271 cumulative IPC: 0.801828 (Simulation time: 3 hr 55 min 25 sec) 
Heartbeat CPU 1 instructions: 830000001 cycles: 860430667 heartbeat IPC: 0.853694 cumulative IPC: 0.849305 (Simulation time: 3 hr 55 min 48 sec) 
Heartbeat CPU 3 instructions: 1140000000 cycles: 862709032 heartbeat IPC: 1.07773 cumulative IPC: 1.16976 (Simulation time: 3 hr 56 min 22 sec) 
Heartbeat CPU 0 instructions: 940000000 cycles: 868416104 heartbeat IPC: 0.995155 cumulative IPC: 1.00459 (Simulation time: 3 hr 57 min 46 sec) 
Heartbeat CPU 2 instructions: 940000000 cycles: 870645816 heartbeat IPC: 0.850654 cumulative IPC: 0.802605 (Simulation time: 3 hr 58 min 19 sec) 
Heartbeat CPU 3 instructions: 1150000001 cycles: 871979025 heartbeat IPC: 1.07875 cumulative IPC: 1.16862 (Simulation time: 3 hr 58 min 40 sec) 
Heartbeat CPU 1 instructions: 840000000 cycles: 872066391 heartbeat IPC: 0.859422 cumulative IPC: 0.849464 (Simulation time: 3 hr 58 min 41 sec) 
Heartbeat CPU 0 instructions: 950000001 cycles: 878402196 heartbeat IPC: 1.00139 cumulative IPC: 1.00455 (Simulation time: 4 hr 0 min 15 sec) 
Heartbeat CPU 3 instructions: 1160000000 cycles: 881028271 heartbeat IPC: 1.10506 cumulative IPC: 1.16785 (Simulation time: 4 hr 0 min 54 sec) 
Heartbeat CPU 2 instructions: 950000001 cycles: 882404567 heartbeat IPC: 0.850431 cumulative IPC: 0.803354 (Simulation time: 4 hr 1 min 15 sec) 
Heartbeat CPU 1 instructions: 850000001 cycles: 883730983 heartbeat IPC: 0.857295 cumulative IPC: 0.849586 (Simulation time: 4 hr 1 min 34 sec) 
Heartbeat CPU 0 instructions: 960000000 cycles: 888426217 heartbeat IPC: 0.997604 cumulative IPC: 1.00445 (Simulation time: 4 hr 2 min 50 sec) 
Heartbeat CPU 3 instructions: 1170000003 cycles: 890327343 heartbeat IPC: 1.07538 cumulative IPC: 1.16672 (Simulation time: 4 hr 3 min 18 sec) 
Heartbeat CPU 2 instructions: 960000000 cycles: 894185703 heartbeat IPC: 0.848814 cumulative IPC: 0.804056 (Simulation time: 4 hr 4 min 16 sec) 
Heartbeat CPU 1 instructions: 860000000 cycles: 895381062 heartbeat IPC: 0.858363 cumulative IPC: 0.84972 (Simulation time: 4 hr 4 min 34 sec) 
Heartbeat CPU 0 instructions: 970000003 cycles: 898397905 heartbeat IPC: 1.00284 cumulative IPC: 1.00443 (Simulation time: 4 hr 5 min 19 sec) 
Heartbeat CPU 3 instructions: 1180000000 cycles: 899591148 heartbeat IPC: 1.07947 cumulative IPC: 1.16567 (Simulation time: 4 hr 5 min 37 sec) 
Heartbeat CPU 2 instructions: 970000001 cycles: 905910477 heartbeat IPC: 0.852895 cumulative IPC: 0.804796 (Simulation time: 4 hr 7 min 11 sec) 
Heartbeat CPU 1 instructions: 870000000 cycles: 907105691 heartbeat IPC: 0.852905 cumulative IPC: 0.849768 (Simulation time: 4 hr 7 min 29 sec) 
Heartbeat CPU 0 instructions: 980000000 cycles: 908351821 heartbeat IPC: 1.00463 cumulative IPC: 1.00444 (Simulation time: 4 hr 7 min 48 sec) 
Heartbeat CPU 3 instructions: 1190000001 cycles: 908762126 heartbeat IPC: 1.0904 cumulative IPC: 1.16478 (Simulation time: 4 hr 7 min 54 sec) 
Heartbeat CPU 2 instructions: 980000000 cycles: 917528994 heartbeat IPC: 0.860695 cumulative IPC: 0.805623 (Simulation time: 4 hr 10 min 20 sec) 
Heartbeat CPU 3 instructions: 1200000000 cycles: 917707895 heartbeat IPC: 1.11785 cumulative IPC: 1.16425 (Simulation time: 4 hr 10 min 22 sec) 
Heartbeat CPU 0 instructions: 990000003 cycles: 918338391 heartbeat IPC: 1.00135 cumulative IPC: 1.0044 (Simulation time: 4 hr 10 min 31 sec) 
Heartbeat CPU 1 instructions: 880000000 cycles: 918742751 heartbeat IPC: 0.859324 cumulative IPC: 0.849909 (Simulation time: 4 hr 10 min 37 sec) 
Heartbeat CPU 3 instructions: 1210000001 cycles: 926667398 heartbeat IPC: 1.11613 cumulative IPC: 1.1637 (Simulation time: 4 hr 12 min 33 sec) 
Heartbeat CPU 0 instructions: 1000000000 cycles: 928274011 heartbeat IPC: 1.00648 cumulative IPC: 1.00442 (Simulation time: 4 hr 12 min 57 sec) 
Heartbeat CPU 2 instructions: 990000003 cycles: 929350816 heartbeat IPC: 0.845894 cumulative IPC: 0.80622 (Simulation time: 4 hr 13 min 12 sec) 
Heartbeat CPU 1 instructions: 890000002 cycles: 930399608 heartbeat IPC: 0.857864 cumulative IPC: 0.850025 (Simulation time: 4 hr 13 min 28 sec) 
Heartbeat CPU 3 instructions: 1220000000 cycles: 935647430 heartbeat IPC: 1.11358 cumulative IPC: 1.16314 (Simulation time: 4 hr 14 min 45 sec) 
Heartbeat CPU 0 instructions: 1010000001 cycles: 938313237 heartbeat IPC: 0.996093 cumulative IPC: 1.00432 (Simulation time: 4 hr 15 min 24 sec) 
Heartbeat CPU 2 instructions: 1000000000 cycles: 940897516 heartbeat IPC: 0.866048 cumulative IPC: 0.807073 (Simulation time: 4 hr 16 min 2 sec) 
Heartbeat CPU 1 instructions: 900000000 cycles: 942057450 heartbeat IPC: 0.857792 cumulative IPC: 0.850137 (Simulation time: 4 hr 16 min 19 sec) 
Heartbeat CPU 3 instructions: 1230000003 cycles: 944637067 heartbeat IPC: 1.11239 cumulative IPC: 1.16258 (Simulation time: 4 hr 16 min 54 sec) 
Heartbeat CPU 0 instructions: 1020000000 cycles: 948291151 heartbeat IPC: 1.00221 cumulative IPC: 1.00429 (Simulation time: 4 hr 17 min 45 sec) 
Heartbeat CPU 2 instructions: 1010000000 cycles: 952611567 heartbeat IPC: 0.853676 cumulative IPC: 0.807739 (Simulation time: 4 hr 18 min 44 sec) 
Heartbeat CPU 1 instructions: 910000003 cycles: 953797454 heartbeat IPC: 0.851789 cumulative IPC: 0.85016 (Simulation time: 4 hr 19 min 1 sec) 
Heartbeat CPU 3 instructions: 1240000000 cycles: 953956608 heartbeat IPC: 1.07301 cumulative IPC: 1.16157 (Simulation time: 4 hr 19 min 3 sec) 
Heartbeat CPU 0 instructions: 1030000000 cycles: 958325842 heartbeat IPC: 0.996543 cumulative IPC: 1.0042 (Simulation time: 4 hr 20 min 3 sec) 
Heartbeat CPU 3 instructions: 1250000000 cycles: 962518254 heartbeat IPC: 1.168 cumulative IPC: 1.16163 (Simulation time: 4 hr 21 min 5 sec) 
Heartbeat CPU 2 instructions: 1020000000 cycles: 964263510 heartbeat IPC: 0.858226 cumulative IPC: 0.808445 (Simulation time: 4 hr 21 min 30 sec) 
Heartbeat CPU 1 instructions: 920000000 cycles: 965486385 heartbeat IPC: 0.85551 cumulative IPC: 0.850235 (Simulation time: 4 hr 21 min 48 sec) 
Heartbeat CPU 0 instructions: 1040000000 cycles: 968367502 heartbeat IPC: 0.995851 cumulative IPC: 1.0041 (Simulation time: 4 hr 22 min 29 sec) 
Heartbeat CPU 3 instructions: 1260000000 cycles: 971675549 heartbeat IPC: 1.09203 cumulative IPC: 1.16087 (Simulation time: 4 hr 23 min 18 sec) 
Heartbeat CPU 2 instructions: 1030000000 cycles: 975936882 heartbeat IPC: 0.856651 cumulative IPC: 0.809112 (Simulation time: 4 hr 24 min 19 sec) 
Heartbeat CPU 1 instructions: 930000002 cycles: 977146190 heartbeat IPC: 0.857647 cumulative IPC: 0.850338 (Simulation time: 4 hr 24 min 37 sec) 
Heartbeat CPU 0 instructions: 1050000000 cycles: 978359669 heartbeat IPC: 1.00078 cumulative IPC: 1.00406 (Simulation time: 4 hr 24 min 54 sec) 
Heartbeat CPU 3 instructions: 1270000001 cycles: 981366590 heartbeat IPC: 1.03188 cumulative IPC: 1.1594 (Simulation time: 4 hr 25 min 38 sec) 
Heartbeat CPU 2 instructions: 1040000000 cycles: 987588116 heartbeat IPC: 0.858278 cumulative IPC: 0.809781 (Simulation time: 4 hr 27 min 9 sec) 
Heartbeat CPU 0 instructions: 1060000000 cycles: 988319045 heartbeat IPC: 1.00408 cumulative IPC: 1.00406 (Simulation time: 4 hr 27 min 19 sec) 
Heartbeat CPU 1 instructions: 940000000 cycles: 988829643 heartbeat IPC: 0.855911 cumulative IPC: 0.850414 (Simulation time: 4 hr 27 min 27 sec) 
Heartbeat CPU 3 instructions: 1280000000 cycles: 990432257 heartbeat IPC: 1.10306 cumulative IPC: 1.15881 (Simulation time: 4 hr 27 min 50 sec) 
Finished CPU 3 instructions: 1000000000 cycles: 863054075 cumulative IPC: 1.15868 (Simulation time: 4 hr 28 min 55 sec) 
Heartbeat CPU 0 instructions: 1070000003 cycles: 998283171 heartbeat IPC: 1.0036 cumulative IPC: 1.00406 (Simulation time: 4 hr 29 min 45 sec) 
Heartbeat CPU 2 instructions: 1050000001 cycles: 999223200 heartbeat IPC: 0.85947 cumulative IPC: 0.810448 (Simulation time: 4 hr 29 min 59 sec) 
Heartbeat CPU 3 instructions: 1290000000 cycles: 999586586 heartbeat IPC: 1.09238 cumulative IPC: 1.15811 (Simulation time: 4 hr 30 min 4 sec) 
Heartbeat CPU 1 instructions: 950000002 cycles: 1000510205 heartbeat IPC: 0.856123 cumulative IPC: 0.85049 (Simulation time: 4 hr 30 min 17 sec) 
Heartbeat CPU 0 instructions: 1080000000 cycles: 1008239992 heartbeat IPC: 1.00434 cumulative IPC: 1.00406 (Simulation time: 4 hr 32 min 11 sec) 
Heartbeat CPU 3 instructions: 1300000000 cycles: 1008637578 heartbeat IPC: 1.10485 cumulative IPC: 1.15756 (Simulation time: 4 hr 32 min 16 sec) 
Heartbeat CPU 2 instructions: 1060000000 cycles: 1010999398 heartbeat IPC: 0.84917 cumulative IPC: 0.810966 (Simulation time: 4 hr 32 min 51 sec) 
Heartbeat CPU 1 instructions: 960000000 cycles: 1012202695 heartbeat IPC: 0.85525 cumulative IPC: 0.850554 (Simulation time: 4 hr 33 min 8 sec) 
Heartbeat CPU 3 instructions: 1310000001 cycles: 1017485614 heartbeat IPC: 1.13019 cumulative IPC: 1.15728 (Simulation time: 4 hr 34 min 26 sec) 
Heartbeat CPU 0 instructions: 1090000000 cycles: 1018239120 heartbeat IPC: 1.00009 cumulative IPC: 1.00401 (Simulation time: 4 hr 34 min 37 sec) 
Heartbeat CPU 2 instructions: 1070000002 cycles: 1022725379 heartbeat IPC: 0.852807 cumulative IPC: 0.811517 (Simulation time: 4 hr 35 min 42 sec) 
Heartbeat CPU 1 instructions: 970000000 cycles: 1023920898 heartbeat IPC: 0.853373 cumulative IPC: 0.850591 (Simulation time: 4 hr 36 min 0 sec) 
Heartbeat CPU 3 instructions: 1320000000 cycles: 1026349420 heartbeat IPC: 1.12818 cumulative IPC: 1.157 (Simulation time: 4 hr 36 min 35 sec) 
Heartbeat CPU 0 instructions: 1100000000 cycles: 1028271466 heartbeat IPC: 0.996776 cumulative IPC: 1.00393 (Simulation time: 4 hr 37 min 4 sec) 
Heartbeat CPU 2 instructions: 1080000000 cycles: 1034352338 heartbeat IPC: 0.86007 cumulative IPC: 0.812143 (Simulation time: 4 hr 38 min 34 sec) 
Heartbeat CPU 3 instructions: 1330000002 cycles: 1034964583 heartbeat IPC: 1.16074 cumulative IPC: 1.15703 (Simulation time: 4 hr 38 min 43 sec) 
Heartbeat CPU 1 instructions: 980000000 cycles: 1035603497 heartbeat IPC: 0.855974 cumulative IPC: 0.85066 (Simulation time: 4 hr 38 min 52 sec) 
Heartbeat CPU 0 instructions: 1110000000 cycles: 1038269179 heartbeat IPC: 1.00023 cumulative IPC: 1.00389 (Simulation time: 4 hr 39 min 31 sec) 
Heartbeat CPU 3 instructions: 1340000000 cycles: 1044187629 heartbeat IPC: 1.08424 cumulative IPC: 1.1563 (Simulation time: 4 hr 40 min 58 sec) 
Heartbeat CPU 2 instructions: 1090000003 cycles: 1046148508 heartbeat IPC: 0.847733 cumulative IPC: 0.812602 (Simulation time: 4 hr 41 min 27 sec) 
Heartbeat CPU 1 instructions: 990000002 cycles: 1047277487 heartbeat IPC: 0.856605 cumulative IPC: 0.850736 (Simulation time: 4 hr 41 min 44 sec) 
Heartbeat CPU 0 instructions: 1120000000 cycles: 1048315748 heartbeat IPC: 0.995365 cumulative IPC: 1.0038 (Simulation time: 4 hr 41 min 59 sec) 
Heartbeat CPU 3 instructions: 1350000000 cycles: 1053187114 heartbeat IPC: 1.11117 cumulative IPC: 1.15585 (Simulation time: 4 hr 43 min 11 sec) 
Heartbeat CPU 2 instructions: 1100000000 cycles: 1057910854 heartbeat IPC: 0.85017 cumulative IPC: 0.813079 (Simulation time: 4 hr 44 min 20 sec) 
Heartbeat CPU 0 instructions: 1130000001 cycles: 1058321893 heartbeat IPC: 0.999386 cumulative IPC: 1.00375 (Simulation time: 4 hr 44 min 26 sec) 
Heartbeat CPU 1 instructions: 1000000000 cycles: 1058962438 heartbeat IPC: 0.855801 cumulative IPC: 0.8508 (Simulation time: 4 hr 44 min 36 sec) 
Heartbeat CPU 3 instructions: 1360000000 cycles: 1062207365 heartbeat IPC: 1.10862 cumulative IPC: 1.1554 (Simulation time: 4 hr 45 min 23 sec) 
Heartbeat CPU 0 instructions: 1140000000 cycles: 1068339984 heartbeat IPC: 0.998194 cumulative IPC: 1.00369 (Simulation time: 4 hr 46 min 54 sec) 
Heartbeat CPU 2 instructions: 1110000000 cycles: 1069594696 heartbeat IPC: 0.855883 cumulative IPC: 0.813612 (Simulation time: 4 hr 47 min 12 sec) 
Heartbeat CPU 1 instructions: 1010000002 cycles: 1070671638 heartbeat IPC: 0.854029 cumulative IPC: 0.85084 (Simulation time: 4 hr 47 min 28 sec) 
Heartbeat CPU 3 instructions: 1370000002 cycles: 1071094483 heartbeat IPC: 1.12522 cumulative IPC: 1.15511 (Simulation time: 4 hr 47 min 34 sec) 
Heartbeat CPU 0 instructions: 1150000001 cycles: 1078332431 heartbeat IPC: 1.00076 cumulative IPC: 1.00366 (Simulation time: 4 hr 49 min 21 sec) 
Heartbeat CPU 3 instructions: 1380000000 cycles: 1079652183 heartbeat IPC: 1.16854 cumulative IPC: 1.15523 (Simulation time: 4 hr 49 min 41 sec) 
Heartbeat CPU 2 instructions: 1120000000 cycles: 1081282048 heartbeat IPC: 0.855626 cumulative IPC: 0.814129 (Simulation time: 4 hr 50 min 4 sec) 
Heartbeat CPU 1 instructions: 1020000000 cycles: 1082390970 heartbeat IPC: 0.853291 cumulative IPC: 0.85087 (Simulation time: 4 hr 50 min 21 sec) 
Heartbeat CPU 0 instructions: 1160000000 cycles: 1088393645 heartbeat IPC: 0.993916 cumulative IPC: 1.00356 (Simulation time: 4 hr 51 min 48 sec) 
Heartbeat CPU 3 instructions: 1390000001 cycles: 1089035095 heartbeat IPC: 1.06577 cumulative IPC: 1.15436 (Simulation time: 4 hr 51 min 58 sec) 
Heartbeat CPU 2 instructions: 1130000003 cycles: 1093090842 heartbeat IPC: 0.846827 cumulative IPC: 0.814531 (Simulation time: 4 hr 52 min 57 sec) 
Heartbeat CPU 1 instructions: 1030000003 cycles: 1094119160 heartbeat IPC: 0.852647 cumulative IPC: 0.850892 (Simulation time: 4 hr 53 min 12 sec) 
Heartbeat CPU 0 instructions: 1170000001 cycles: 1098591869 heartbeat IPC: 0.980563 cumulative IPC: 1.00331 (Simulation time: 4 hr 54 min 14 sec) 
Heartbeat CPU 3 instructions: 1400000000 cycles: 1098690506 heartbeat IPC: 1.03569 cumulative IPC: 1.15317 (Simulation time: 4 hr 54 min 16 sec) 
Heartbeat CPU 1 instructions: 1040000000 cycles: 1105986021 heartbeat IPC: 0.842683 cumulative IPC: 0.850792 (Simulation time: 4 hr 55 min 48 sec) 
Heartbeat CPU 3 instructions: 1410000001 cycles: 1107859305 heartbeat IPC: 1.09066 cumulative IPC: 1.15258 (Simulation time: 4 hr 56 min 11 sec) 
Heartbeat CPU 0 instructions: 1180000000 cycles: 1109793259 heartbeat IPC: 0.892746 cumulative IPC: 1.00205 (Simulation time: 4 hr 56 min 34 sec) 
Heartbeat CPU 2 instructions: 1140000000 cycles: 1112324906 heartbeat IPC: 0.519911 cumulative IPC: 0.808752 (Simulation time: 4 hr 57 min 13 sec) 
Heartbeat CPU 3 instructions: 1420000000 cycles: 1116985820 heartbeat IPC: 1.09571 cumulative IPC: 1.15206 (Simulation time: 4 hr 58 min 25 sec) 
Heartbeat CPU 1 instructions: 1050000000 cycles: 1118166605 heartbeat IPC: 0.820979 cumulative IPC: 0.850424 (Simulation time: 4 hr 58 min 42 sec) 
Heartbeat CPU 0 instructions: 1190000001 cycles: 1119708320 heartbeat IPC: 1.00857 cumulative IPC: 1.00211 (Simulation time: 4 hr 59 min 6 sec) 
Heartbeat CPU 2 instructions: 1150000003 cycles: 1125784508 heartbeat IPC: 0.742964 cumulative IPC: 0.807861 (Simulation time: 5 hr 0 min 39 sec) 
Heartbeat CPU 3 instructions: 1430000000 cycles: 1125895931 heartbeat IPC: 1.12232 cumulative IPC: 1.15179 (Simulation time: 5 hr 0 min 41 sec) 
Heartbeat CPU 0 instructions: 1200000000 cycles: 1129409714 heartbeat IPC: 1.03078 cumulative IPC: 1.00239 (Simulation time: 5 hr 1 min 32 sec) 
Finished CPU 0 instructions: 1000000000 cycles: 997612918 cumulative IPC: 1.00239 (Simulation time: 5 hr 1 min 32 sec) 
Heartbeat CPU 1 instructions: 1060000000 cycles: 1130600850 heartbeat IPC: 0.804231 cumulative IPC: 0.849849 (Simulation time: 5 hr 1 min 49 sec) 
Heartbeat CPU 3 instructions: 1440000000 cycles: 1134632351 heartbeat IPC: 1.14463 cumulative IPC: 1.15173 (Simulation time: 5 hr 2 min 48 sec) 
Heartbeat CPU 2 instructions: 1160000000 cycles: 1138301263 heartbeat IPC: 0.798929 cumulative IPC: 0.80775 (Simulation time: 5 hr 3 min 42 sec) 
Heartbeat CPU 0 instructions: 1210000001 cycles: 1139449069 heartbeat IPC: 0.99608 cumulative IPC: 1.00233 (Simulation time: 5 hr 3 min 59 sec) 
Heartbeat CPU 1 instructions: 1070000000 cycles: 1142370234 heartbeat IPC: 0.849662 cumulative IPC: 0.849847 (Simulation time: 5 hr 4 min 42 sec) 
Heartbeat CPU 3 instructions: 1450000003 cycles: 1143666564 heartbeat IPC: 1.1069 cumulative IPC: 1.15133 (Simulation time: 5 hr 5 min 2 sec) 
Heartbeat CPU 0 instructions: 1220000000 cycles: 1149371308 heartbeat IPC: 1.00784 cumulative IPC: 1.00238 (Simulation time: 5 hr 6 min 25 sec) 
Heartbeat CPU 2 instructions: 1170000001 cycles: 1150125861 heartbeat IPC: 0.845695 cumulative IPC: 0.80819 (Simulation time: 5 hr 6 min 36 sec) 
Heartbeat CPU 3 instructions: 1460000000 cycles: 1152803393 heartbeat IPC: 1.09447 cumulative IPC: 1.15082 (Simulation time: 5 hr 7 min 16 sec) 
Heartbeat CPU 1 instructions: 1080000000 cycles: 1154062821 heartbeat IPC: 0.855243 cumulative IPC: 0.849908 (Simulation time: 5 hr 7 min 34 sec) 
Heartbeat CPU 0 instructions: 1230000001 cycles: 1159328117 heartbeat IPC: 1.00434 cumulative IPC: 1.0024 (Simulation time: 5 hr 8 min 56 sec) 
Heartbeat CPU 3 instructions: 1470000000 cycles: 1161922185 heartbeat IPC: 1.09664 cumulative IPC: 1.15034 (Simulation time: 5 hr 9 min 39 sec) 
Heartbeat CPU 2 instructions: 1180000000 cycles: 1162242921 heartbeat IPC: 0.825283 cumulative IPC: 0.808391 (Simulation time: 5 hr 9 min 45 sec) 
Heartbeat CPU 1 instructions: 1090000000 cycles: 1165826933 heartbeat IPC: 0.850043 cumulative IPC: 0.84991 (Simulation time: 5 hr 10 min 42 sec) 
Heartbeat CPU 0 instructions: 1240000000 cycles: 1169314289 heartbeat IPC: 1.00138 cumulative IPC: 1.00239 (Simulation time: 5 hr 11 min 33 sec) 
Heartbeat CPU 3 instructions: 1480000000 cycles: 1170687624 heartbeat IPC: 1.14084 cumulative IPC: 1.15026 (Simulation time: 5 hr 11 min 53 sec) 
Heartbeat CPU 2 instructions: 1190000002 cycles: 1174582734 heartbeat IPC: 0.810385 cumulative IPC: 0.808415 (Simulation time: 5 hr 12 min 49 sec) 
Heartbeat CPU 1 instructions: 1100000000 cycles: 1177509318 heartbeat IPC: 0.85599 cumulative IPC: 0.849978 (Simulation time: 5 hr 13 min 32 sec) 
Heartbeat CPU 0 instructions: 1250000000 cycles: 1179314389 heartbeat IPC: 0.99999 cumulative IPC: 1.00237 (Simulation time: 5 hr 13 min 58 sec) 
Heartbeat CPU 3 instructions: 1490000002 cycles: 1179604941 heartbeat IPC: 1.12141 cumulative IPC: 1.15001 (Simulation time: 5 hr 14 min 2 sec) 
Heartbeat CPU 2 instructions: 1200000000 cycles: 1187112178 heartbeat IPC: 0.79812 cumulative IPC: 0.808293 (Simulation time: 5 hr 15 min 51 sec) 
Heartbeat CPU 3 instructions: 1500000000 cycles: 1188635792 heartbeat IPC: 1.10732 cumulative IPC: 1.14965 (Simulation time: 5 hr 16 min 13 sec) 
Heartbeat CPU 1 instructions: 1110000001 cycles: 1189236040 heartbeat IPC: 0.852753 cumulative IPC: 0.850009 (Simulation time: 5 hr 16 min 21 sec) 
Heartbeat CPU 0 instructions: 1260000000 cycles: 1189285964 heartbeat IPC: 1.00285 cumulative IPC: 1.00237 (Simulation time: 5 hr 16 min 22 sec) 
Heartbeat CPU 3 instructions: 1510000002 cycles: 1197278219 heartbeat IPC: 1.15708 cumulative IPC: 1.14971 (Simulation time: 5 hr 18 min 19 sec) 
Heartbeat CPU 0 instructions: 1270000003 cycles: 1199235330 heartbeat IPC: 1.00509 cumulative IPC: 1.0024 (Simulation time: 5 hr 18 min 47 sec) 
Heartbeat CPU 2 instructions: 1210000001 cycles: 1199861971 heartbeat IPC: 0.784327 cumulative IPC: 0.808007 (Simulation time: 5 hr 18 min 56 sec) 
Heartbeat CPU 1 instructions: 1120000000 cycles: 1200923193 heartbeat IPC: 0.85564 cumulative IPC: 0.85007 (Simulation time: 5 hr 19 min 11 sec) 
Heartbeat CPU 3 instructions: 1520000000 cycles: 1206496580 heartbeat IPC: 1.08479 cumulative IPC: 1.14915 (Simulation time: 5 hr 20 min 34 sec) 
Heartbeat CPU 0 instructions: 1280000000 cycles: 1209152850 heartbeat IPC: 1.00832 cumulative IPC: 1.00245 (Simulation time: 5 hr 21 min 12 sec) 
Heartbeat CPU 1 instructions: 1130000003 cycles: 1212645684 heartbeat IPC: 0.853061 cumulative IPC: 0.850103 (Simulation time: 5 hr 22 min 2 sec) 
Heartbeat CPU 2 instructions: 1220000000 cycles: 1212696800 heartbeat IPC: 0.77913 cumulative IPC: 0.807664 (Simulation time: 5 hr 22 min 2 sec) 
Heartbeat CPU 3 instructions: 1530000002 cycles: 1216136314 heartbeat IPC: 1.03737 cumulative IPC: 1.14816 (Simulation time: 5 hr 22 min 52 sec) 
Heartbeat CPU 0 instructions: 1290000000 cycles: 1219073387 heartbeat IPC: 1.00801 cumulative IPC: 1.0025 (Simulation time: 5 hr 23 min 35 sec) 
Heartbeat CPU 1 instructions: 1140000000 cycles: 1224356286 heartbeat IPC: 0.853927 cumulative IPC: 0.850144 (Simulation time: 5 hr 24 min 50 sec) 
Heartbeat CPU 3 instructions: 1540000000 cycles: 1225272176 heartbeat IPC: 1.09459 cumulative IPC: 1.14771 (Simulation time: 5 hr 25 min 4 sec) 
Heartbeat CPU 2 instructions: 1230000002 cycles: 1225449179 heartbeat IPC: 0.784168 cumulative IPC: 0.80739 (Simulation time: 5 hr 25 min 7 sec) 
Heartbeat CPU 0 instructions: 1300000000 cycles: 1228970062 heartbeat IPC: 1.01044 cumulative IPC: 1.00258 (Simulation time: 5 hr 26 min 1 sec) 
Heartbeat CPU 3 instructions: 1550000000 cycles: 1234596662 heartbeat IPC: 1.07245 cumulative IPC: 1.14707 (Simulation time: 5 hr 27 min 31 sec) 
Heartbeat CPU 1 instructions: 1150000002 cycles: 1236082382 heartbeat IPC: 0.852799 cumulative IPC: 0.850172 (Simulation time: 5 hr 27 min 52 sec) 
Heartbeat CPU 2 instructions: 1240000000 cycles: 1238502695 heartbeat IPC: 0.766077 cumulative IPC: 0.806902 (Simulation time: 5 hr 28 min 27 sec) 
Heartbeat CPU 0 instructions: 1310000000 cycles: 1238968176 heartbeat IPC: 1.00019 cumulative IPC: 1.00255 (Simulation time: 5 hr 28 min 34 sec) 
Heartbeat CPU 3 instructions: 1560000000 cycles: 1243614017 heartbeat IPC: 1.10897 cumulative IPC: 1.14677 (Simulation time: 5 hr 29 min 41 sec) 
Heartbeat CPU 1 instructions: 1160000000 cycles: 1247836159 heartbeat IPC: 0.85079 cumulative IPC: 0.850178 (Simulation time: 5 hr 30 min 41 sec) 
Heartbeat CPU 0 instructions: 1320000000 cycles: 1248863034 heartbeat IPC: 1.01063 cumulative IPC: 1.00263 (Simulation time: 5 hr 30 min 56 sec) 
Heartbeat CPU 2 instructions: 1250000000 cycles: 1251777793 heartbeat IPC: 0.75329 cumulative IPC: 0.806267 (Simulation time: 5 hr 31 min 38 sec) 
Heartbeat CPU 3 instructions: 1570000001 cycles: 1252712308 heartbeat IPC: 1.09911 cumulative IPC: 1.14638 (Simulation time: 5 hr 31 min 52 sec) 
Heartbeat CPU 0 instructions: 1330000002 cycles: 1258829598 heartbeat IPC: 1.00336 cumulative IPC: 1.00263 (Simulation time: 5 hr 33 min 20 sec) 
Heartbeat CPU 1 instructions: 1170000000 cycles: 1259608543 heartbeat IPC: 0.849446 cumulative IPC: 0.850171 (Simulation time: 5 hr 33 min 31 sec) 
Heartbeat CPU 3 instructions: 1580000000 cycles: 1261690488 heartbeat IPC: 1.11381 cumulative IPC: 1.14612 (Simulation time: 5 hr 34 min 2 sec) 
Heartbeat CPU 2 instructions: 1260000000 cycles: 1264740644 heartbeat IPC: 0.771435 cumulative IPC: 0.805869 (Simulation time: 5 hr 34 min 45 sec) 
Heartbeat CPU 0 instructions: 1340000000 cycles: 1268748499 heartbeat IPC: 1.00818 cumulative IPC: 1.00268 (Simulation time: 5 hr 35 min 43 sec) 
Heartbeat CPU 3 instructions: 1590000002 cycles: 1270714386 heartbeat IPC: 1.10817 cumulative IPC: 1.14582 (Simulation time: 5 hr 36 min 12 sec) 
Heartbeat CPU 1 instructions: 1180000000 cycles: 1271267701 heartbeat IPC: 0.857695 cumulative IPC: 0.850248 (Simulation time: 5 hr 36 min 20 sec) 
Heartbeat CPU 2 instructions: 1270000000 cycles: 1277507780 heartbeat IPC: 0.783261 cumulative IPC: 0.805617 (Simulation time: 5 hr 37 min 50 sec) 
Heartbeat CPU 0 instructions: 1350000002 cycles: 1278746141 heartbeat IPC: 1.00024 cumulative IPC: 1.00266 (Simulation time: 5 hr 38 min 8 sec) 
Heartbeat CPU 3 instructions: 1600000000 cycles: 1279820863 heartbeat IPC: 1.09812 cumulative IPC: 1.14544 (Simulation time: 5 hr 38 min 23 sec) 
Heartbeat CPU 1 instructions: 1190000001 cycles: 1282953767 heartbeat IPC: 0.85572 cumulative IPC: 0.850303 (Simulation time: 5 hr 39 min 9 sec) 
Heartbeat CPU 0 instructions: 1360000000 cycles: 1288734516 heartbeat IPC: 1.00116 cumulative IPC: 1.00265 (Simulation time: 5 hr 40 min 30 sec) 
Heartbeat CPU 3 instructions: 1610000000 cycles: 1288749771 heartbeat IPC: 1.11996 cumulative IPC: 1.14524 (Simulation time: 5 hr 40 min 31 sec) 
Heartbeat CPU 2 instructions: 1280000000 cycles: 1290004727 heartbeat IPC: 0.800195 cumulative IPC: 0.805558 (Simulation time: 5 hr 40 min 48 sec) 
Heartbeat CPU 1 instructions: 1200000000 cycles: 1294684386 heartbeat IPC: 0.85247 cumulative IPC: 0.850325 (Simulation time: 5 hr 41 min 51 sec) 
Heartbeat CPU 3 instructions: 1620000000 cycles: 1297903587 heartbeat IPC: 1.09244 cumulative IPC: 1.14483 (Simulation time: 5 hr 42 min 34 sec) 
Heartbeat CPU 0 instructions: 1370000003 cycles: 1298670818 heartbeat IPC: 1.00641 cumulative IPC: 1.00268 (Simulation time: 5 hr 42 min 45 sec) 
Heartbeat CPU 2 instructions: 1290000000 cycles: 1302400982 heartbeat IPC: 0.806695 cumulative IPC: 0.80557 (Simulation time: 5 hr 43 min 35 sec) 
Heartbeat CPU 1 instructions: 1210000003 cycles: 1306376497 heartbeat IPC: 0.855278 cumulative IPC: 0.850374 (Simulation time: 5 hr 44 min 28 sec) 
Heartbeat CPU 3 instructions: 1630000002 cycles: 1306683390 heartbeat IPC: 1.13898 cumulative IPC: 1.14479 (Simulation time: 5 hr 44 min 32 sec) 
Finished CPU 1 instructions: 1000000002 cycles: 1175956958 cumulative IPC: 0.850371 (Simulation time: 5 hr 44 min 47 sec) 
Heartbeat CPU 0 instructions: 1380000000 cycles: 1308618879 heartbeat IPC: 1.00522 cumulative IPC: 1.0027 (Simulation time: 5 hr 44 min 58 sec) 
Heartbeat CPU 2 instructions: 1300000000 cycles: 1314588476 heartbeat IPC: 0.820513 cumulative IPC: 0.805724 (Simulation time: 5 hr 46 min 18 sec) 
Heartbeat CPU 3 instructions: 1640000000 cycles: 1315913786 heartbeat IPC: 1.08338 cumulative IPC: 1.14431 (Simulation time: 5 hr 46 min 36 sec) 
Heartbeat CPU 1 instructions: 1220000000 cycles: 1318132870 heartbeat IPC: 0.850602 cumulative IPC: 0.850377 (Simulation time: 5 hr 47 min 6 sec) 
Heartbeat CPU 0 instructions: 1390000003 cycles: 1318589317 heartbeat IPC: 1.00297 cumulative IPC: 1.0027 (Simulation time: 5 hr 47 min 12 sec) 
Heartbeat CPU 3 instructions: 1650000000 cycles: 1325532770 heartbeat IPC: 1.03961 cumulative IPC: 1.14346 (Simulation time: 5 hr 48 min 49 sec) 
Heartbeat CPU 2 instructions: 1310000000 cycles: 1326471063 heartbeat IPC: 0.841568 cumulative IPC: 0.806081 (Simulation time: 5 hr 49 min 2 sec) 
Heartbeat CPU 0 instructions: 1400000000 cycles: 1328428022 heartbeat IPC: 1.01639 cumulative IPC: 1.00282 (Simulation time: 5 hr 49 min 29 sec) 
Heartbeat CPU 1 instructions: 1230000002 cycles: 1329841365 heartbeat IPC: 0.854081 cumulative IPC: 0.850413 (Simulation time: 5 hr 49 min 48 sec) 
Heartbeat CPU 3 instructions: 1660000000 cycles: 1335046244 heartbeat IPC: 1.05114 cumulative IPC: 1.14273 (Simulation time: 5 hr 51 min 0 sec) 
Heartbeat CPU 0 instructions: 1410000003 cycles: 1338322599 heartbeat IPC: 1.01065 cumulative IPC: 1.00288 (Simulation time: 5 hr 51 min 46 sec) 
Heartbeat CPU 2 instructions: 1320000000 cycles: 1338344816 heartbeat IPC: 0.842194 cumulative IPC: 0.806436 (Simulation time: 5 hr 51 min 46 sec) 
Heartbeat CPU 1 instructions: 1240000000 cycles: 1341434281 heartbeat IPC: 0.862596 cumulative IPC: 0.85053 (Simulation time: 5 hr 52 min 29 sec) 
Heartbeat CPU 3 instructions: 1670000003 cycles: 1344668832 heartbeat IPC: 1.03922 cumulative IPC: 1.14191 (Simulation time: 5 hr 53 min 13 sec) 
Heartbeat CPU 0 instructions: 1420000000 cycles: 1348260786 heartbeat IPC: 1.00622 cumulative IPC: 1.00291 (Simulation time: 5 hr 54 min 4 sec) 
Heartbeat CPU 2 instructions: 1330000002 cycles: 1350092227 heartbeat IPC: 0.851252 cumulative IPC: 0.806868 (Simulation time: 5 hr 54 min 29 sec) 
Heartbeat CPU 1 instructions: 1250000003 cycles: 1353161023 heartbeat IPC: 0.852752 cumulative IPC: 0.850551 (Simulation time: 5 hr 55 min 12 sec) 
Heartbeat CPU 3 instructions: 1680000000 cycles: 1354181591 heartbeat IPC: 1.05122 cumulative IPC: 1.14121 (Simulation time: 5 hr 55 min 26 sec) 
Heartbeat CPU 0 instructions: 1430000000 cycles: 1358181553 heartbeat IPC: 1.00799 cumulative IPC: 1.00295 (Simulation time: 5 hr 56 min 21 sec) 
Heartbeat CPU 2 instructions: 1340000000 cycles: 1362920228 heartbeat IPC: 0.779545 cumulative IPC: 0.806583 (Simulation time: 5 hr 57 min 19 sec) 
Heartbeat CPU 1 instructions: 1260000000 cycles: 1365533027 heartbeat IPC: 0.808276 cumulative IPC: 0.850127 (Simulation time: 5 hr 57 min 51 sec) 
Heartbeat CPU 3 instructions: 1690000003 cycles: 1367568483 heartbeat IPC: 0.747 cumulative IPC: 1.13694 (Simulation time: 5 hr 58 min 20 sec) 
Heartbeat CPU 0 instructions: 1440000000 cycles: 1368824529 heartbeat IPC: 0.939587 cumulative IPC: 1.0024 (Simulation time: 5 hr 58 min 38 sec) 
Finished CPU 2 instructions: 1000000002 cycles: 1240560894 cumulative IPC: 0.806087 (Simulation time: 5 hr 59 min 25 sec) 

CPU 0 Branch Prediction Accuracy: 98.26% MPKI: 0.694925

CPU 1 Branch Prediction Accuracy: 99.5927% MPKI: 0.176757

CPU 2 Branch Prediction Accuracy: 99.7076% MPKI: 0.0359452

CPU 3 Branch Prediction Accuracy: 96.0461% MPKI: 2.06562

ChampSim completed all CPUs

Total Simulation Statistics (not including warmup)

CPU 0 cumulative IPC: 1.0023 instructions: 1243414014 cycles: 1240560893
L1D TOTAL     ACCESS:  550501364  HIT:  525109270  MISS:   25392094
L1D LOAD      ACCESS:  463969272  HIT:  439184982  MISS:   24784290
L1D RFO       ACCESS:   86532092  HIT:   85924288  MISS:     607804
L1D PREFETCH  ACCESS:          0  HIT:          0  MISS:          0
L1D WRITEBACK ACCESS:          0  HIT:          0  MISS:          0
L1I TOTAL     ACCESS:  290177444  HIT:  290177356  MISS:         88
L1I LOAD      ACCESS:  290177444  HIT:  290177356  MISS:         88
L1I RFO       ACCESS:          0  HIT:          0  MISS:          0
L1I PREFETCH  ACCESS:          0  HIT:          0  MISS:          0
L1I WRITEBACK ACCESS:          0  HIT:          0  MISS:          0
L2C TOTAL     ACCESS:   38924969  HIT:   15712577  MISS:   23212392
L2C LOAD      ACCESS:   24778578  HIT:    8990724  MISS:   15787854
L2C RFO       ACCESS:     600474  HIT:      92161  MISS:     508313
L2C PREFETCH  ACCESS:   12005985  HIT:    5096896  MISS:    6909089
L2C WRITEBACK ACCESS:    1539932  HIT:    1532796  MISS:       7136
LLC TOTAL     ACCESS:   95072641  HIT:   71874283  MISS:   23198358
LLC LOAD      ACCESS:   14372648  HIT:   13230236  MISS:    1142412
LLC RFO       ACCESS:     508313  HIT:          1  MISS:     508312
LLC PREFETCH  ACCESS:   78830914  HIT:   57284185  MISS:   21546729
LLC WRITEBACK ACCESS:    1360766  HIT:    1359861  MISS:        905

CPU 1 cumulative IPC: 0.84998 instructions: 1054451814 cycles: 1240560894
L1D TOTAL     ACCESS:  406294262  HIT:  401225212  MISS:    5069050
L1D LOAD      ACCESS:  325077659  HIT:  322815560  MISS:    2262099
L1D RFO       ACCESS:   81216603  HIT:   78409652  MISS:    2806951
L1D PREFETCH  ACCESS:          0  HIT:          0  MISS:          0
L1D WRITEBACK ACCESS:          0  HIT:          0  MISS:          0
L1I TOTAL     ACCESS:  288850740  HIT:  288850730  MISS:         10
L1I LOAD      ACCESS:  288850740  HIT:  288850730  MISS:         10
L1I RFO       ACCESS:          0  HIT:          0  MISS:          0
L1I PREFETCH  ACCESS:          0  HIT:          0  MISS:          0
L1I WRITEBACK ACCESS:          0  HIT:          0  MISS:          0
L2C TOTAL     ACCESS:   17490680  HIT:   14476835  MISS:    3013845
L2C LOAD      ACCESS:    2259936  HIT:    2134682  MISS:     125254
L2C RFO       ACCESS:    2806951  HIT:       4479  MISS:    2802472
L2C PREFETCH  ACCESS:    9608899  HIT:    9523068  MISS:      85831
L2C WRITEBACK ACCESS:    2814894  HIT:    2814606  MISS:        288
LLC TOTAL     ACCESS:    6858398  HIT:    3795039  MISS:    3063359
LLC LOAD      ACCESS:     124752  HIT:      91087  MISS:      33665
LLC RFO       ACCESS:    2802451  HIT:       7306  MISS:    2795145
LLC PREFETCH  ACCESS:    1123088  HIT:     950298  MISS:     172790
LLC WRITEBACK ACCESS:    2808107  HIT:    2746348  MISS:      61759

CPU 2 cumulative IPC: 0.806087 instructions: 1000000002 cycles: 1240560894
L1D TOTAL     ACCESS:  170180768  HIT:  120837758  MISS:   49343010
L1D LOAD      ACCESS:   67228206  HIT:   59745978  MISS:    7482228
L1D RFO       ACCESS:  102952562  HIT:   61091780  MISS:   41860782
L1D PREFETCH  ACCESS:          0  HIT:          0  MISS:          0
L1D WRITEBACK ACCESS:          0  HIT:          0  MISS:          0
L1I TOTAL     ACCESS:  236270776  HIT:  236270776  MISS:          0
L1I LOAD      ACCESS:  236270776  HIT:  236270776  MISS:          0
L1I RFO       ACCESS:          0  HIT:          0  MISS:          0
L1I PREFETCH  ACCESS:          0  HIT:          0  MISS:          0
L1I WRITEBACK ACCESS:          0  HIT:          0  MISS:          0
L2C TOTAL     ACCESS:   93388798  HIT:   63407447  MISS:   29981351
L2C LOAD      ACCESS:    7482228  HIT:    2142148  MISS:    5340080
L2C RFO       ACCESS:   41860752  HIT:   19355985  MISS:   22504767
L2C PREFETCH  ACCESS:    2185032  HIT:      50067  MISS:    2134965
L2C WRITEBACK ACCESS:   41860786  HIT:   41859247  MISS:       1539
LLC TOTAL     ACCESS:   72885579  HIT:   43328246  MISS:   29557333
LLC LOAD      ACCESS:    4862192  HIT:    4529462  MISS:     332730
LLC RFO       ACCESS:   22504748  HIT:     423921  MISS:   22080827
LLC PREFETCH  ACCESS:   23012505  HIT:   15869598  MISS:    7142907
LLC WRITEBACK ACCESS:   22506134  HIT:   22505265  MISS:        869

CPU 3 cumulative IPC: 1.13624 instructions: 1409573235 cycles: 1240560894
L1D TOTAL     ACCESS:  307098089  HIT:  297436163  MISS:    9661926
L1D LOAD      ACCESS:  247718553  HIT:  238591574  MISS:    9126979
L1D RFO       ACCESS:   59379536  HIT:   58844589  MISS:     534947
L1D PREFETCH  ACCESS:          0  HIT:          0  MISS:          0
L1D WRITEBACK ACCESS:          0  HIT:          0  MISS:          0
L1I TOTAL     ACCESS:  364569298  HIT:  364569059  MISS:        239
L1I LOAD      ACCESS:  364569298  HIT:  364569059  MISS:        239
L1I RFO       ACCESS:          0  HIT:          0  MISS:          0
L1I PREFETCH  ACCESS:          0  HIT:          0  MISS:          0
L1I WRITEBACK ACCESS:          0  HIT:          0  MISS:          0
L2C TOTAL     ACCESS:   26830018  HIT:   26313072  MISS:     516946
L2C LOAD      ACCESS:    9126879  HIT:    8849227  MISS:     277652
L2C RFO       ACCESS:     534832  HIT:     406605  MISS:     128227
L2C PREFETCH  ACCESS:   15309021  HIT:   15197973  MISS:     111048
L2C WRITEBACK ACCESS:    1859286  HIT:    1859267  MISS:         19
LLC TOTAL     ACCESS:    2381267  HIT:    1756995  MISS:     624272
LLC LOAD      ACCESS:     229134  HIT:     148311  MISS:      80823
LLC RFO       ACCESS:     128228  HIT:      17017  MISS:     111211
LLC PREFETCH  ACCESS:    1854091  HIT:    1467642  MISS:     386449
LLC WRITEBACK ACCESS:     169814  HIT:     124025  MISS:      45789

Region of Interest Statistics

CPU 0 cumulative IPC: 1.00239 instructions: 1000000000 cycles: 997612918
L1D TOTAL     ACCESS:  432379055  HIT:  411991227  MISS:   20387828
L1D LOAD      ACCESS:  363800683  HIT:  343873306  MISS:   19927377
L1D RFO       ACCESS:   68578372  HIT:   68117921  MISS:     460451
L1D PREFETCH  ACCESS:          0  HIT:          0  MISS:          0
L1D WRITEBACK ACCESS:          0  HIT:          0  MISS:          0
L1D PREFETCH  REQUESTED:          0  ISSUED:          0  USEFUL:          0  USELESS:          0
L1I TOTAL     ACCESS:  232841435  HIT:  232841347  MISS:         88
L1I LOAD      ACCESS:  232841435  HIT:  232841347  MISS:         88
L1I RFO       ACCESS:          0  HIT:          0  MISS:          0
L1I PREFETCH  ACCESS:          0  HIT:          0  MISS:          0
L1I WRITEBACK ACCESS:          0  HIT:          0  MISS:          0
L1I PREFETCH  REQUESTED:          0  ISSUED:          0  USEFUL:          0  USELESS:          0
L2C TOTAL     ACCESS:   31431947  HIT:   12688513  MISS:   18743434
L2C LOAD      ACCESS:   19922792  HIT:    7371594  MISS:   12551198
L2C RFO       ACCESS:     455601  HIT:      61824  MISS:     393777
L2C PREFETCH  ACCESS:    9679969  HIT:    3886776  MISS:    5793193
L2C WRITEBACK ACCESS:    1373585  HIT:    1368319  MISS:       5266
L2C PREFETCH  REQUESTED:  177369188  ISSUED:  126822450  USEFUL:    8928049  USELESS:        155
LLC TOTAL     ACCESS:   78483213  HIT:   59750642  MISS:   18732571
LLC LOAD      ACCESS:   11359120  HIT:   10448194  MISS:     910926
LLC RFO       ACCESS:     393777  HIT:          1  MISS:     393776
LLC PREFETCH  ACCESS:   65485926  HIT:   48058774  MISS:   17427152
LLC WRITEBACK ACCESS:    1244390  HIT:    1243673  MISS:        717
LLC PREFETCH  REQUESTED:          0  ISSUED:          0  USEFUL:   20572060  USELESS:   14742712
Major fault: 0 Minor fault: 108279

CPU 1 cumulative IPC: 0.850371 instructions: 1000000002 cycles: 1175956958
L1D TOTAL     ACCESS:  385311851  HIT:  380505434  MISS:    4806417
L1D LOAD      ACCESS:  308288556  HIT:  306144119  MISS:    2144437
L1D RFO       ACCESS:   77023295  HIT:   74361315  MISS:    2661980
L1D PREFETCH  ACCESS:          0  HIT:          0  MISS:          0
L1D WRITEBACK ACCESS:          0  HIT:          0  MISS:          0
L1D PREFETCH  REQUESTED:          0  ISSUED:          0  USEFUL:          0  USELESS:          0
L1I TOTAL     ACCESS:  273928498  HIT:  273928488  MISS:         10
L1I LOAD      ACCESS:  273928498  HIT:  273928488  MISS:         10
L1I RFO       ACCESS:          0  HIT:          0  MISS:          0
L1I PREFETCH  ACCESS:          0  HIT:          0  MISS:          0
L1I WRITEBACK ACCESS:          0  HIT:          0  MISS:          0
L1I PREFETCH  REQUESTED:          0  ISSUED:          0  USEFUL:          0  USELESS:          0
L2C TOTAL     ACCESS:   16586768  HIT:   13729471  MISS:    2857297
L2C LOAD      ACCESS:    2142392  HIT:    2024404  MISS:     117988
L2C RFO       ACCESS:    2661980  HIT:       4268  MISS:    2657712
L2C PREFETCH  ACCESS:    9112898  HIT:    9031572  MISS:      81326
L2C WRITEBACK ACCESS:    2669498  HIT:    2669227  MISS:        271
L2C PREFETCH  REQUESTED:   12631841  ISSUED:   12631825  USEFUL:     100295  USELESS:       2410
LLC TOTAL     ACCESS:    6501835  HIT:    3601583  MISS:    2900252
LLC LOAD      ACCESS:     117513  HIT:      86091  MISS:      31422
LLC RFO       ACCESS:    2657692  HIT:       6565  MISS:    2651127
LLC PREFETCH  ACCESS:    1063723  HIT:     900889  MISS:     162834
LLC WRITEBACK ACCESS:    2662907  HIT:    2608038  MISS:      54869
LLC PREFETCH  REQUESTED:          0  ISSUED:          0  USEFUL:   20572060  USELESS:   14742712
Major fault: 0 Minor fault: 2502

CPU 2 cumulative IPC: 0.806087 instructions: 1000000002 cycles: 1240560894
L1D TOTAL     ACCESS:  170180768  HIT:  120837758  MISS:   49343010
L1D LOAD      ACCESS:   67228206  HIT:   59745978  MISS:    7482228
L1D RFO       ACCESS:  102952562  HIT:   61091780  MISS:   41860782
L1D PREFETCH  ACCESS:          0  HIT:          0  MISS:          0
L1D WRITEBACK ACCESS:          0  HIT:          0  MISS:          0
L1D PREFETCH  REQUESTED:          0  ISSUED:          0  USEFUL:          0  USELESS:          0
L1I TOTAL     ACCESS:  236270776  HIT:  236270776  MISS:          0
L1I LOAD      ACCESS:  236270776  HIT:  236270776  MISS:          0
L1I RFO       ACCESS:          0  HIT:          0  MISS:          0
L1I PREFETCH  ACCESS:          0  HIT:          0  MISS:          0
L1I WRITEBACK ACCESS:          0  HIT:          0  MISS:          0
L1I PREFETCH  REQUESTED:          0  ISSUED:          0  USEFUL:          0  USELESS:          0
L2C TOTAL     ACCESS:   93388798  HIT:   63407447  MISS:   29981351
L2C LOAD      ACCESS:    7482228  HIT:    2142148  MISS:    5340080
L2C RFO       ACCESS:   41860752  HIT:   19355985  MISS:   22504767
L2C PREFETCH  ACCESS:    2185032  HIT:      50067  MISS:    2134965
L2C WRITEBACK ACCESS:   41860786  HIT:   41859247  MISS:       1539
L2C PREFETCH  REQUESTED:   61860246  ISSUED:   61860246  USEFUL:    3438708  USELESS:        124
LLC TOTAL     ACCESS:   72885579  HIT:   43328246  MISS:   29557333
LLC LOAD      ACCESS:    4862192  HIT:    4529462  MISS:     332730
LLC RFO       ACCESS:   22504748  HIT:     423921  MISS:   22080827
LLC PREFETCH  ACCESS:   23012505  HIT:   15869598  MISS:    7142907
LLC WRITEBACK ACCESS:   22506134  HIT:   22505265  MISS:        869
LLC PREFETCH  REQUESTED:          0  ISSUED:          0  USEFUL:   20572060  USELESS:   14742712
Major fault: 0 Minor fault: 103151

CPU 3 cumulative IPC: 1.15868 instructions: 1000000000 cycles: 863054075
L1D TOTAL     ACCESS:  215334350  HIT:  209028197  MISS:    6306153
L1D LOAD      ACCESS:  175803948  HIT:  169769248  MISS:    6034700
L1D RFO       ACCESS:   39530402  HIT:   39258949  MISS:     271453
L1D PREFETCH  ACCESS:          0  HIT:          0  MISS:          0
L1D WRITEBACK ACCESS:          0  HIT:          0  MISS:          0
L1D PREFETCH  REQUESTED:          0  ISSUED:          0  USEFUL:          0  USELESS:          0
L1I TOTAL     ACCESS:  257474464  HIT:  257474464  MISS:          0
L1I LOAD      ACCESS:  257474464  HIT:  257474464  MISS:          0
L1I RFO       ACCESS:          0  HIT:          0  MISS:          0
L1I PREFETCH  ACCESS:          0  HIT:          0  MISS:          0
L1I WRITEBACK ACCESS:          0  HIT:          0  MISS:          0
L1I PREFETCH  REQUESTED:          0  ISSUED:          0  USEFUL:          0  USELESS:          0
L2C TOTAL     ACCESS:   17763420  HIT:   17606272  MISS:     157148
L2C LOAD      ACCESS:    6034463  HIT:    5899695  MISS:     134768
L2C RFO       ACCESS:     271395  HIT:     270623  MISS:        772
L2C PREFETCH  ACCESS:   10309052  HIT:   10287452  MISS:      21600
L2C WRITEBACK ACCESS:    1148510  HIT:    1148502  MISS:          8
L2C PREFETCH  REQUESTED:   25213812  ISSUED:   25213794  USEFUL:     119681  USELESS:       5733
LLC TOTAL     ACCESS:     902165  HIT:     655287  MISS:     246878
LLC LOAD      ACCESS:     121963  HIT:      64369  MISS:      57594
LLC RFO       ACCESS:        772  HIT:        598  MISS:        174
LLC PREFETCH  ACCESS:     745830  HIT:     589635  MISS:     156195
LLC WRITEBACK ACCESS:      33600  HIT:        685  MISS:      32915
LLC PREFETCH  REQUESTED:          0  ISSUED:          0  USEFUL:   20572060  USELESS:   14742712
Major fault: 0 Minor fault: 3737

DRAM Statistics
 CHANNEL 0
 RQ ROW_BUFFER_HIT:   10966313  ROW_BUFFER_MISS:   17199739
 DBUS_CONGESTED:   59129589
 WQ ROW_BUFFER_HIT:    1621358  ROW_BUFFER_MISS:   11577863  FULL:          0

 CHANNEL 1
 RQ ROW_BUFFER_HIT:   10942311  ROW_BUFFER_MISS:   17223746
 DBUS_CONGESTED:   59129589
 WQ ROW_BUFFER_HIT:    1619067  ROW_BUFFER_MISS:   11579548  FULL:          0

 AVG_CONGESTED_CYCLE: 13
