Initialize SIGNATURE TABLE
ST_SET: 1
ST_WAY: 256
ST_TAG_BIT: 16
ST_TAG_MASK: ffff

Initialize PATTERN TABLE
PT_SET: 512
PT_WAY: 4
SIG_DELTA_BIT: 7
C_SIG_BIT: 4
C_DELTA_BIT: 4

Initialize PREFETCH FILTER
FILTER_SET: 1024

*** ChampSim Multicore Out-of-Order Simulator ***

Warmup Instructions: 200000000
Simulation Instructions: 1000000000
Number of CPUs: 4
LLC sets: 8192
LLC ways: 16
Off-chip DRAM Size: 8192 MB Channels: 2 Width: 64-bit Data Rate: 1600 MT/s

CPU 0 runs /scratch/user/djimenez/champsim-traces/speccpu2006/xz//483.xalancbmk-127B.champsimtrace.xz
CPU 1 runs /scratch/user/djimenez/champsim-traces/speccpu2006/xz//416.gamess-875B.champsimtrace.xz
CPU 2 runs /scratch/user/djimenez/champsim-traces/speccpu2006/xz//453.povray-576B.champsimtrace.xz
CPU 3 runs /scratch/user/djimenez/champsim-traces/speccpu2006/xz//445.gobmk-2B.champsimtrace.xz
Heartbeat CPU 0 instructions: 10000002 cycles: 4532762 heartbeat IPC: 2.20616 cumulative IPC: 2.20616 (Simulation time: 0 hr 1 min 22 sec) 
Heartbeat CPU 1 instructions: 10000003 cycles: 5488981 heartbeat IPC: 1.82183 cumulative IPC: 1.82183 (Simulation time: 0 hr 1 min 40 sec) 
Heartbeat CPU 3 instructions: 10000002 cycles: 6282035 heartbeat IPC: 1.59184 cumulative IPC: 1.59184 (Simulation time: 0 hr 1 min 54 sec) 
Heartbeat CPU 2 instructions: 10000000 cycles: 6674636 heartbeat IPC: 1.49821 cumulative IPC: 1.49821 (Simulation time: 0 hr 2 min 1 sec) 
Heartbeat CPU 0 instructions: 20000000 cycles: 9058597 heartbeat IPC: 2.20954 cumulative IPC: 2.20785 (Simulation time: 0 hr 2 min 46 sec) 
Heartbeat CPU 1 instructions: 20000000 cycles: 10706001 heartbeat IPC: 1.9168 cumulative IPC: 1.86811 (Simulation time: 0 hr 3 min 19 sec) 
Heartbeat CPU 2 instructions: 20000000 cycles: 12199627 heartbeat IPC: 1.80996 cumulative IPC: 1.63939 (Simulation time: 0 hr 3 min 47 sec) 
Heartbeat CPU 3 instructions: 20000000 cycles: 12429631 heartbeat IPC: 1.62665 cumulative IPC: 1.60906 (Simulation time: 0 hr 3 min 51 sec) 
Heartbeat CPU 0 instructions: 30000002 cycles: 13626263 heartbeat IPC: 2.1893 cumulative IPC: 2.20163 (Simulation time: 0 hr 4 min 14 sec) 
Heartbeat CPU 1 instructions: 30000001 cycles: 16053437 heartbeat IPC: 1.87006 cumulative IPC: 1.86876 (Simulation time: 0 hr 4 min 59 sec) 
Heartbeat CPU 0 instructions: 40000000 cycles: 18173758 heartbeat IPC: 2.19901 cumulative IPC: 2.20098 (Simulation time: 0 hr 5 min 38 sec) 
Heartbeat CPU 3 instructions: 30000001 cycles: 18632197 heartbeat IPC: 1.61224 cumulative IPC: 1.61012 (Simulation time: 0 hr 5 min 47 sec) 
Heartbeat CPU 2 instructions: 30000001 cycles: 18773202 heartbeat IPC: 1.52124 cumulative IPC: 1.59802 (Simulation time: 0 hr 5 min 49 sec) 
Heartbeat CPU 1 instructions: 40000000 cycles: 21161866 heartbeat IPC: 1.95755 cumulative IPC: 1.89019 (Simulation time: 0 hr 6 min 35 sec) 
Heartbeat CPU 0 instructions: 50000000 cycles: 22715831 heartbeat IPC: 2.20164 cumulative IPC: 2.20111 (Simulation time: 0 hr 7 min 4 sec) 
Heartbeat CPU 3 instructions: 40000000 cycles: 24730335 heartbeat IPC: 1.63984 cumulative IPC: 1.61745 (Simulation time: 0 hr 7 min 40 sec) 
Heartbeat CPU 2 instructions: 40000000 cycles: 25473874 heartbeat IPC: 1.49239 cumulative IPC: 1.57024 (Simulation time: 0 hr 7 min 53 sec) 
Heartbeat CPU 1 instructions: 50000003 cycles: 26203253 heartbeat IPC: 1.98358 cumulative IPC: 1.90816 (Simulation time: 0 hr 8 min 6 sec) 
Heartbeat CPU 0 instructions: 60000000 cycles: 27240139 heartbeat IPC: 2.21028 cumulative IPC: 2.20263 (Simulation time: 0 hr 8 min 23 sec) 
Heartbeat CPU 3 instructions: 50000002 cycles: 30850716 heartbeat IPC: 1.63389 cumulative IPC: 1.62071 (Simulation time: 0 hr 9 min 27 sec) 
Heartbeat CPU 1 instructions: 60000000 cycles: 31564005 heartbeat IPC: 1.86541 cumulative IPC: 1.9009 (Simulation time: 0 hr 9 min 39 sec) 
Heartbeat CPU 0 instructions: 70000002 cycles: 31859414 heartbeat IPC: 2.16484 cumulative IPC: 2.19715 (Simulation time: 0 hr 9 min 44 sec) 
Heartbeat CPU 2 instructions: 50000001 cycles: 32179074 heartbeat IPC: 1.49138 cumulative IPC: 1.5538 (Simulation time: 0 hr 9 min 50 sec) 
Heartbeat CPU 0 instructions: 80000000 cycles: 36391943 heartbeat IPC: 2.20627 cumulative IPC: 2.19829 (Simulation time: 0 hr 11 min 2 sec) 
Heartbeat CPU 3 instructions: 60000000 cycles: 36945646 heartbeat IPC: 1.64071 cumulative IPC: 1.62401 (Simulation time: 0 hr 11 min 12 sec) 
Heartbeat CPU 1 instructions: 70000003 cycles: 37061030 heartbeat IPC: 1.81917 cumulative IPC: 1.88878 (Simulation time: 0 hr 11 min 14 sec) 
Heartbeat CPU 2 instructions: 60000000 cycles: 38907486 heartbeat IPC: 1.48623 cumulative IPC: 1.54212 (Simulation time: 0 hr 11 min 47 sec) 
Heartbeat CPU 0 instructions: 90000003 cycles: 41031301 heartbeat IPC: 2.15547 cumulative IPC: 2.19345 (Simulation time: 0 hr 12 min 24 sec) 
Heartbeat CPU 1 instructions: 80000000 cycles: 42612167 heartbeat IPC: 1.80143 cumulative IPC: 1.8774 (Simulation time: 0 hr 12 min 53 sec) 
Heartbeat CPU 3 instructions: 70000001 cycles: 43291606 heartbeat IPC: 1.57581 cumulative IPC: 1.61694 (Simulation time: 0 hr 13 min 4 sec) 
Heartbeat CPU 0 instructions: 100000000 cycles: 45670192 heartbeat IPC: 2.15569 cumulative IPC: 2.18961 (Simulation time: 0 hr 13 min 48 sec) 
Heartbeat CPU 2 instructions: 70000001 cycles: 45737924 heartbeat IPC: 1.46404 cumulative IPC: 1.53046 (Simulation time: 0 hr 13 min 49 sec) 
Heartbeat CPU 1 instructions: 90000000 cycles: 47849631 heartbeat IPC: 1.90932 cumulative IPC: 1.88089 (Simulation time: 0 hr 14 min 28 sec) 
Heartbeat CPU 3 instructions: 80000000 cycles: 49743046 heartbeat IPC: 1.55004 cumulative IPC: 1.60827 (Simulation time: 0 hr 15 min 0 sec) 
Heartbeat CPU 0 instructions: 110000003 cycles: 50280936 heartbeat IPC: 2.16885 cumulative IPC: 2.18771 (Simulation time: 0 hr 15 min 9 sec) 
Heartbeat CPU 2 instructions: 80000000 cycles: 52638193 heartbeat IPC: 1.44922 cumulative IPC: 1.51981 (Simulation time: 0 hr 15 min 49 sec) 
Heartbeat CPU 1 instructions: 100000000 cycles: 52884931 heartbeat IPC: 1.98598 cumulative IPC: 1.8909 (Simulation time: 0 hr 15 min 54 sec) 
Heartbeat CPU 0 instructions: 120000000 cycles: 54878976 heartbeat IPC: 2.17484 cumulative IPC: 2.18663 (Simulation time: 0 hr 16 min 28 sec) 
Heartbeat CPU 3 instructions: 90000001 cycles: 56084258 heartbeat IPC: 1.57699 cumulative IPC: 1.60473 (Simulation time: 0 hr 16 min 49 sec) 
Heartbeat CPU 1 instructions: 110000000 cycles: 58133671 heartbeat IPC: 1.90522 cumulative IPC: 1.89219 (Simulation time: 0 hr 17 min 25 sec) 
Heartbeat CPU 2 instructions: 90000000 cycles: 59394936 heartbeat IPC: 1.48 cumulative IPC: 1.51528 (Simulation time: 0 hr 17 min 47 sec) 
Heartbeat CPU 0 instructions: 130000000 cycles: 59435182 heartbeat IPC: 2.19481 cumulative IPC: 2.18726 (Simulation time: 0 hr 17 min 48 sec) 
Heartbeat CPU 3 instructions: 100000000 cycles: 62298205 heartbeat IPC: 1.60928 cumulative IPC: 1.60518 (Simulation time: 0 hr 18 min 36 sec) 
Heartbeat CPU 1 instructions: 120000000 cycles: 63383326 heartbeat IPC: 1.90489 cumulative IPC: 1.89324 (Simulation time: 0 hr 18 min 55 sec) 
Heartbeat CPU 0 instructions: 140000000 cycles: 63939634 heartbeat IPC: 2.22003 cumulative IPC: 2.18957 (Simulation time: 0 hr 19 min 4 sec) 
Heartbeat CPU 2 instructions: 100000000 cycles: 66207789 heartbeat IPC: 1.46781 cumulative IPC: 1.5104 (Simulation time: 0 hr 19 min 42 sec) 
Heartbeat CPU 3 instructions: 110000000 cycles: 68397735 heartbeat IPC: 1.63947 cumulative IPC: 1.60824 (Simulation time: 0 hr 20 min 19 sec) 
Heartbeat CPU 0 instructions: 150000000 cycles: 68502370 heartbeat IPC: 2.19167 cumulative IPC: 2.18971 (Simulation time: 0 hr 20 min 21 sec) 
Heartbeat CPU 1 instructions: 130000002 cycles: 68640656 heartbeat IPC: 1.90211 cumulative IPC: 1.89392 (Simulation time: 0 hr 20 min 23 sec) 
Heartbeat CPU 0 instructions: 160000000 cycles: 73038907 heartbeat IPC: 2.20432 cumulative IPC: 2.19061 (Simulation time: 0 hr 21 min 38 sec) 
Heartbeat CPU 2 instructions: 110000002 cycles: 73074923 heartbeat IPC: 1.45621 cumulative IPC: 1.5053 (Simulation time: 0 hr 21 min 38 sec) 
Heartbeat CPU 1 instructions: 140000000 cycles: 73753005 heartbeat IPC: 1.95605 cumulative IPC: 1.89823 (Simulation time: 0 hr 21 min 50 sec) 
Heartbeat CPU 3 instructions: 120000000 cycles: 74777407 heartbeat IPC: 1.56748 cumulative IPC: 1.60476 (Simulation time: 0 hr 22 min 7 sec) 
Heartbeat CPU 0 instructions: 170000002 cycles: 77589414 heartbeat IPC: 2.19756 cumulative IPC: 2.19102 (Simulation time: 0 hr 22 min 55 sec) 
Heartbeat CPU 1 instructions: 150000002 cycles: 78763494 heartbeat IPC: 1.99581 cumulative IPC: 1.90444 (Simulation time: 0 hr 23 min 16 sec) 
Heartbeat CPU 2 instructions: 120000000 cycles: 79884905 heartbeat IPC: 1.46843 cumulative IPC: 1.50216 (Simulation time: 0 hr 23 min 35 sec) 
Heartbeat CPU 3 instructions: 130000002 cycles: 81144878 heartbeat IPC: 1.57048 cumulative IPC: 1.60207 (Simulation time: 0 hr 23 min 56 sec) 
Heartbeat CPU 0 instructions: 180000000 cycles: 82113142 heartbeat IPC: 2.21057 cumulative IPC: 2.1921 (Simulation time: 0 hr 24 min 12 sec) 
Heartbeat CPU 1 instructions: 160000000 cycles: 83872839 heartbeat IPC: 1.9572 cumulative IPC: 1.90765 (Simulation time: 0 hr 24 min 43 sec) 
Heartbeat CPU 2 instructions: 130000000 cycles: 86666625 heartbeat IPC: 1.47455 cumulative IPC: 1.5 (Simulation time: 0 hr 25 min 32 sec) 
Heartbeat CPU 0 instructions: 190000000 cycles: 86855101 heartbeat IPC: 2.10883 cumulative IPC: 2.18755 (Simulation time: 0 hr 25 min 35 sec) 
Heartbeat CPU 3 instructions: 140000000 cycles: 87717238 heartbeat IPC: 1.52152 cumulative IPC: 1.59604 (Simulation time: 0 hr 25 min 50 sec) 
Heartbeat CPU 1 instructions: 170000003 cycles: 89018581 heartbeat IPC: 1.94335 cumulative IPC: 1.90971 (Simulation time: 0 hr 26 min 12 sec) 
Heartbeat CPU 0 instructions: 200000000 cycles: 91462877 heartbeat IPC: 2.17024 cumulative IPC: 2.18668 (Simulation time: 0 hr 26 min 54 sec) 
Heartbeat CPU 2 instructions: 140000000 cycles: 93324151 heartbeat IPC: 1.50206 cumulative IPC: 1.50015 (Simulation time: 0 hr 27 min 27 sec) 
Heartbeat CPU 3 instructions: 150000001 cycles: 94076363 heartbeat IPC: 1.57254 cumulative IPC: 1.59445 (Simulation time: 0 hr 27 min 40 sec) 
Heartbeat CPU 1 instructions: 180000000 cycles: 94450087 heartbeat IPC: 1.84111 cumulative IPC: 1.90577 (Simulation time: 0 hr 27 min 46 sec) 
Heartbeat CPU 0 instructions: 210000002 cycles: 96044286 heartbeat IPC: 2.18273 cumulative IPC: 0.104119 (Simulation time: 0 hr 28 min 14 sec) 
Heartbeat CPU 2 instructions: 150000003 cycles: 99835746 heartbeat IPC: 1.53572 cumulative IPC: 1.50247 (Simulation time: 0 hr 29 min 18 sec) 
Heartbeat CPU 1 instructions: 190000000 cycles: 99958626 heartbeat IPC: 1.81536 cumulative IPC: 1.90079 (Simulation time: 0 hr 29 min 20 sec) 
Heartbeat CPU 3 instructions: 160000000 cycles: 100155492 heartbeat IPC: 1.64497 cumulative IPC: 1.59752 (Simulation time: 0 hr 29 min 24 sec) 
Heartbeat CPU 0 instructions: 220000000 cycles: 100595235 heartbeat IPC: 2.19734 cumulative IPC: 0.198817 (Simulation time: 0 hr 29 min 31 sec) 
Heartbeat CPU 0 instructions: 230000000 cycles: 105230841 heartbeat IPC: 2.15722 cumulative IPC: 0.285088 (Simulation time: 0 hr 30 min 50 sec) 
Heartbeat CPU 1 instructions: 200000000 cycles: 105498464 heartbeat IPC: 1.80511 cumulative IPC: 1.89576 (Simulation time: 0 hr 30 min 55 sec) 
Heartbeat CPU 2 instructions: 160000000 cycles: 106350993 heartbeat IPC: 1.53486 cumulative IPC: 1.50445 (Simulation time: 0 hr 31 min 10 sec) 
Heartbeat CPU 3 instructions: 170000000 cycles: 106369289 heartbeat IPC: 1.60932 cumulative IPC: 1.59821 (Simulation time: 0 hr 31 min 10 sec) 
Heartbeat CPU 0 instructions: 240000000 cycles: 109826857 heartbeat IPC: 2.1758 cumulative IPC: 0.36421 (Simulation time: 0 hr 32 min 11 sec) 
Heartbeat CPU 1 instructions: 210000002 cycles: 110771671 heartbeat IPC: 1.89638 cumulative IPC: 0.0902758 (Simulation time: 0 hr 32 min 28 sec) 
Heartbeat CPU 3 instructions: 180000000 cycles: 112771389 heartbeat IPC: 1.56199 cumulative IPC: 1.59615 (Simulation time: 0 hr 33 min 5 sec) 
Heartbeat CPU 2 instructions: 170000002 cycles: 112882342 heartbeat IPC: 1.53108 cumulative IPC: 1.50599 (Simulation time: 0 hr 33 min 7 sec) 
Heartbeat CPU 0 instructions: 250000002 cycles: 114354330 heartbeat IPC: 2.20874 cumulative IPC: 0.437238 (Simulation time: 0 hr 33 min 34 sec) 
Heartbeat CPU 1 instructions: 220000000 cycles: 115836165 heartbeat IPC: 1.97453 cumulative IPC: 0.172658 (Simulation time: 0 hr 34 min 1 sec) 
Heartbeat CPU 0 instructions: 260000000 cycles: 118831997 heartbeat IPC: 2.23331 cumulative IPC: 0.504915 (Simulation time: 0 hr 35 min 1 sec) 
Heartbeat CPU 3 instructions: 190000003 cycles: 119046841 heartbeat IPC: 1.59351 cumulative IPC: 1.59601 (Simulation time: 0 hr 35 min 5 sec) 
Heartbeat CPU 2 instructions: 180000000 cycles: 119506696 heartbeat IPC: 1.50958 cumulative IPC: 1.50619 (Simulation time: 0 hr 35 min 13 sec) 
Heartbeat CPU 1 instructions: 230000000 cycles: 120890400 heartbeat IPC: 1.97854 cumulative IPC: 0.248159 (Simulation time: 0 hr 35 min 39 sec) 
Heartbeat CPU 0 instructions: 270000001 cycles: 123313742 heartbeat IPC: 2.23127 cumulative IPC: 0.567658 (Simulation time: 0 hr 36 min 24 sec) 
Heartbeat CPU 3 instructions: 200000000 cycles: 125152383 heartbeat IPC: 1.63786 cumulative IPC: 1.59805 (Simulation time: 0 hr 36 min 56 sec) 
Heartbeat CPU 1 instructions: 240000000 cycles: 126045377 heartbeat IPC: 1.93987 cumulative IPC: 0.317346 (Simulation time: 0 hr 37 min 13 sec) 
Heartbeat CPU 2 instructions: 190000000 cycles: 126248239 heartbeat IPC: 1.48334 cumulative IPC: 1.50497 (Simulation time: 0 hr 37 min 16 sec) 
Heartbeat CPU 0 instructions: 280000000 cycles: 127941599 heartbeat IPC: 2.16083 cumulative IPC: 0.625285 (Simulation time: 0 hr 37 min 47 sec) 
Heartbeat CPU 3 instructions: 210000003 cycles: 131295044 heartbeat IPC: 1.62796 cumulative IPC: 0.0761644 (Simulation time: 0 hr 38 min 47 sec) 
Heartbeat CPU 1 instructions: 250000000 cycles: 131313664 heartbeat IPC: 1.89815 cumulative IPC: 0.380768 (Simulation time: 0 hr 38 min 47 sec) 
Heartbeat CPU 0 instructions: 290000000 cycles: 132452272 heartbeat IPC: 2.21696 cumulative IPC: 0.67949 (Simulation time: 0 hr 39 min 8 sec) 
Heartbeat CPU 2 instructions: 200000000 cycles: 133032622 heartbeat IPC: 1.47397 cumulative IPC: 1.50339 (Simulation time: 0 hr 39 min 18 sec) 

Warmup complete CPU 0 instructions: 291308883 cycles: 133032623 (Simulation time: 0 hr 39 min 18 sec) 
Warmup complete CPU 1 instructions: 253315482 cycles: 133032623 (Simulation time: 0 hr 39 min 18 sec) 
Warmup complete CPU 2 instructions: 200000001 cycles: 133032623 (Simulation time: 0 hr 39 min 18 sec) 
Warmup complete CPU 3 instructions: 212656199 cycles: 133032622 (Simulation time: 0 hr 39 min 18 sec) 

Heartbeat CPU 1 instructions: 260000000 cycles: 141193355 heartbeat IPC: 1.01218 cumulative IPC: 0.819108 (Simulation time: 0 hr 40 min 18 sec) 
Heartbeat CPU 3 instructions: 220000000 cycles: 149127828 heartbeat IPC: 0.560765 cumulative IPC: 0.456273 (Simulation time: 0 hr 41 min 17 sec) 
Heartbeat CPU 1 instructions: 270000002 cycles: 153954864 heartbeat IPC: 0.783607 cumulative IPC: 0.797454 (Simulation time: 0 hr 41 min 52 sec) 
Heartbeat CPU 2 instructions: 210000001 cycles: 157900640 heartbeat IPC: 0.402123 cumulative IPC: 0.402123 (Simulation time: 0 hr 42 min 22 sec) 
Heartbeat CPU 0 instructions: 300000000 cycles: 159487819 heartbeat IPC: 0.369883 cumulative IPC: 0.328522 (Simulation time: 0 hr 42 min 34 sec) 
Heartbeat CPU 1 instructions: 280000000 cycles: 166985067 heartbeat IPC: 0.767448 cumulative IPC: 0.785938 (Simulation time: 0 hr 43 min 32 sec) 
Heartbeat CPU 3 instructions: 230000002 cycles: 170262343 heartbeat IPC: 0.47316 cumulative IPC: 0.465859 (Simulation time: 0 hr 43 min 56 sec) 
Heartbeat CPU 1 instructions: 290000000 cycles: 179751004 heartbeat IPC: 0.783335 cumulative IPC: 0.785227 (Simulation time: 0 hr 45 min 6 sec) 
Heartbeat CPU 2 instructions: 220000000 cycles: 181986112 heartbeat IPC: 0.415188 cumulative IPC: 0.408551 (Simulation time: 0 hr 45 min 22 sec) 
Heartbeat CPU 3 instructions: 240000000 cycles: 191314519 heartbeat IPC: 0.47501 cumulative IPC: 0.469165 (Simulation time: 0 hr 46 min 31 sec) 
Heartbeat CPU 0 instructions: 310000000 cycles: 191760762 heartbeat IPC: 0.309857 cumulative IPC: 0.318265 (Simulation time: 0 hr 46 min 34 sec) 
Heartbeat CPU 1 instructions: 300000000 cycles: 191816791 heartbeat IPC: 0.82879 cumulative IPC: 0.794168 (Simulation time: 0 hr 46 min 35 sec) 
Heartbeat CPU 1 instructions: 310000000 cycles: 203131349 heartbeat IPC: 0.883817 cumulative IPC: 0.808638 (Simulation time: 0 hr 47 min 59 sec) 
Heartbeat CPU 2 instructions: 230000000 cycles: 206675858 heartbeat IPC: 0.405026 cumulative IPC: 0.407369 (Simulation time: 0 hr 48 min 26 sec) 
Heartbeat CPU 3 instructions: 250000000 cycles: 212868337 heartbeat IPC: 0.463955 cumulative IPC: 0.467758 (Simulation time: 0 hr 49 min 12 sec) 
Heartbeat CPU 1 instructions: 320000000 cycles: 214924742 heartbeat IPC: 0.847932 cumulative IPC: 0.814297 (Simulation time: 0 hr 49 min 27 sec) 
Heartbeat CPU 1 instructions: 330000000 cycles: 225926049 heartbeat IPC: 0.908983 cumulative IPC: 0.825511 (Simulation time: 0 hr 50 min 51 sec) 
Heartbeat CPU 0 instructions: 320000000 cycles: 227876557 heartbeat IPC: 0.276887 cumulative IPC: 0.302509 (Simulation time: 0 hr 51 min 6 sec) 
Heartbeat CPU 2 instructions: 240000000 cycles: 230415242 heartbeat IPC: 0.421241 cumulative IPC: 0.410751 (Simulation time: 0 hr 51 min 25 sec) 
Heartbeat CPU 3 instructions: 260000000 cycles: 232312366 heartbeat IPC: 0.514297 cumulative IPC: 0.476873 (Simulation time: 0 hr 51 min 40 sec) 
Heartbeat CPU 1 instructions: 340000000 cycles: 237687223 heartbeat IPC: 0.850255 cumulative IPC: 0.828292 (Simulation time: 0 hr 52 min 21 sec) 
Heartbeat CPU 1 instructions: 350000002 cycles: 248836653 heartbeat IPC: 0.896907 cumulative IPC: 0.834898 (Simulation time: 0 hr 53 min 48 sec) 
Heartbeat CPU 3 instructions: 270000001 cycles: 253151006 heartbeat IPC: 0.479878 cumulative IPC: 0.477394 (Simulation time: 0 hr 54 min 21 sec) 
Heartbeat CPU 2 instructions: 250000000 cycles: 254503507 heartbeat IPC: 0.41514 cumulative IPC: 0.411621 (Simulation time: 0 hr 54 min 31 sec) 
Heartbeat CPU 0 instructions: 330000000 cycles: 258205041 heartbeat IPC: 0.329723 cumulative IPC: 0.309103 (Simulation time: 0 hr 55 min 0 sec) 
Heartbeat CPU 1 instructions: 360000000 cycles: 262349150 heartbeat IPC: 0.740056 cumulative IPC: 0.824987 (Simulation time: 0 hr 55 min 32 sec) 
Heartbeat CPU 3 instructions: 280000000 cycles: 273645515 heartbeat IPC: 0.487936 cumulative IPC: 0.47893 (Simulation time: 0 hr 56 min 51 sec) 
Heartbeat CPU 1 instructions: 370000001 cycles: 276043894 heartbeat IPC: 0.730207 cumulative IPC: 0.815911 (Simulation time: 0 hr 57 min 7 sec) 
Heartbeat CPU 2 instructions: 260000000 cycles: 278974140 heartbeat IPC: 0.408653 cumulative IPC: 0.411124 (Simulation time: 0 hr 57 min 26 sec) 
Heartbeat CPU 1 instructions: 380000000 cycles: 289779434 heartbeat IPC: 0.728038 cumulative IPC: 0.808211 (Simulation time: 0 hr 58 min 39 sec) 
Heartbeat CPU 0 instructions: 340000000 cycles: 292866322 heartbeat IPC: 0.288506 cumulative IPC: 0.304636 (Simulation time: 0 hr 59 min 0 sec) 
Heartbeat CPU 3 instructions: 290000000 cycles: 295436816 heartbeat IPC: 0.458899 cumulative IPC: 0.476243 (Simulation time: 0 hr 59 min 19 sec) 
Heartbeat CPU 2 instructions: 270000001 cycles: 303161330 heartbeat IPC: 0.413442 cumulative IPC: 0.411453 (Simulation time: 1 hr 0 min 15 sec) 
Heartbeat CPU 1 instructions: 390000000 cycles: 303983153 heartbeat IPC: 0.704041 cumulative IPC: 0.799556 (Simulation time: 1 hr 0 min 21 sec) 
Heartbeat CPU 0 instructions: 350000000 cycles: 316409581 heartbeat IPC: 0.42475 cumulative IPC: 0.320057 (Simulation time: 1 hr 1 min 53 sec) 
Heartbeat CPU 1 instructions: 400000000 cycles: 316594320 heartbeat IPC: 0.792948 cumulative IPC: 0.799102 (Simulation time: 1 hr 1 min 54 sec) 
Heartbeat CPU 3 instructions: 300000000 cycles: 318608253 heartbeat IPC: 0.431566 cumulative IPC: 0.470664 (Simulation time: 1 hr 2 min 9 sec) 
Heartbeat CPU 2 instructions: 280000000 cycles: 328053160 heartbeat IPC: 0.401738 cumulative IPC: 0.410213 (Simulation time: 1 hr 3 min 17 sec) 
Heartbeat CPU 1 instructions: 410000001 cycles: 328191911 heartbeat IPC: 0.862248 cumulative IPC: 0.802855 (Simulation time: 1 hr 3 min 18 sec) 
Heartbeat CPU 1 instructions: 420000000 cycles: 339461021 heartbeat IPC: 0.887381 cumulative IPC: 0.807469 (Simulation time: 1 hr 4 min 43 sec) 
Heartbeat CPU 3 instructions: 310000001 cycles: 341592494 heartbeat IPC: 0.435081 cumulative IPC: 0.466743 (Simulation time: 1 hr 4 min 59 sec) 
Heartbeat CPU 0 instructions: 360000000 cycles: 347662757 heartbeat IPC: 0.319967 cumulative IPC: 0.320044 (Simulation time: 1 hr 5 min 44 sec) 
Heartbeat CPU 1 instructions: 430000001 cycles: 351733133 heartbeat IPC: 0.814856 cumulative IPC: 0.807883 (Simulation time: 1 hr 6 min 15 sec) 
Heartbeat CPU 2 instructions: 290000002 cycles: 353655637 heartbeat IPC: 0.390587 cumulative IPC: 0.407936 (Simulation time: 1 hr 6 min 28 sec) 
Heartbeat CPU 1 instructions: 440000000 cycles: 363969900 heartbeat IPC: 0.817209 cumulative IPC: 0.808378 (Simulation time: 1 hr 7 min 43 sec) 
Heartbeat CPU 3 instructions: 320000000 cycles: 364364058 heartbeat IPC: 0.439144 cumulative IPC: 0.464026 (Simulation time: 1 hr 7 min 46 sec) 
Heartbeat CPU 1 instructions: 450000001 cycles: 376298504 heartbeat IPC: 0.811122 cumulative IPC: 0.808517 (Simulation time: 1 hr 9 min 14 sec) 
Heartbeat CPU 0 instructions: 370000001 cycles: 378912221 heartbeat IPC: 0.320006 cumulative IPC: 0.320039 (Simulation time: 1 hr 9 min 33 sec) 
Heartbeat CPU 2 instructions: 300000000 cycles: 379269562 heartbeat IPC: 0.390413 cumulative IPC: 0.406113 (Simulation time: 1 hr 9 min 36 sec) 
Heartbeat CPU 3 instructions: 330000003 cycles: 386150083 heartbeat IPC: 0.45901 cumulative IPC: 0.463594 (Simulation time: 1 hr 10 min 26 sec) 
Heartbeat CPU 1 instructions: 460000000 cycles: 388467501 heartbeat IPC: 0.82176 cumulative IPC: 0.809148 (Simulation time: 1 hr 10 min 44 sec) 
Heartbeat CPU 1 instructions: 470000000 cycles: 400623134 heartbeat IPC: 0.822664 cumulative IPC: 0.809762 (Simulation time: 1 hr 12 min 14 sec) 
Heartbeat CPU 2 instructions: 310000001 cycles: 404908864 heartbeat IPC: 0.390026 cumulative IPC: 0.404596 (Simulation time: 1 hr 12 min 45 sec) 
Heartbeat CPU 0 instructions: 380000000 cycles: 407812280 heartbeat IPC: 0.34602 cumulative IPC: 0.322772 (Simulation time: 1 hr 13 min 6 sec) 
Heartbeat CPU 3 instructions: 340000000 cycles: 409100543 heartbeat IPC: 0.435721 cumulative IPC: 0.461277 (Simulation time: 1 hr 13 min 15 sec) 
Heartbeat CPU 1 instructions: 480000000 cycles: 412685037 heartbeat IPC: 0.829057 cumulative IPC: 0.810594 (Simulation time: 1 hr 13 min 42 sec) 
Heartbeat CPU 1 instructions: 490000002 cycles: 423893941 heartbeat IPC: 0.892148 cumulative IPC: 0.813737 (Simulation time: 1 hr 15 min 9 sec) 
Heartbeat CPU 2 instructions: 320000000 cycles: 430620092 heartbeat IPC: 0.388935 cumulative IPC: 0.403243 (Simulation time: 1 hr 15 min 59 sec) 
Heartbeat CPU 3 instructions: 350000003 cycles: 432048718 heartbeat IPC: 0.435765 cumulative IPC: 0.459319 (Simulation time: 1 hr 16 min 10 sec) 
Heartbeat CPU 1 instructions: 500000000 cycles: 435164485 heartbeat IPC: 0.887268 cumulative IPC: 0.81648 (Simulation time: 1 hr 16 min 34 sec) 
Heartbeat CPU 0 instructions: 390000001 cycles: 437073700 heartbeat IPC: 0.341747 cumulative IPC: 0.324598 (Simulation time: 1 hr 16 min 48 sec) 
Heartbeat CPU 1 instructions: 510000001 cycles: 446348189 heartbeat IPC: 0.894158 cumulative IPC: 0.819252 (Simulation time: 1 hr 17 min 58 sec) 
Heartbeat CPU 3 instructions: 360000000 cycles: 455239986 heartbeat IPC: 0.431197 cumulative IPC: 0.457295 (Simulation time: 1 hr 19 min 3 sec) 
Heartbeat CPU 2 instructions: 330000000 cycles: 456423960 heartbeat IPC: 0.387539 cumulative IPC: 0.40199 (Simulation time: 1 hr 19 min 11 sec) 
Heartbeat CPU 1 instructions: 520000000 cycles: 459087054 heartbeat IPC: 0.784999 cumulative IPC: 0.817914 (Simulation time: 1 hr 19 min 31 sec) 
Heartbeat CPU 0 instructions: 400000000 cycles: 468447653 heartbeat IPC: 0.318736 cumulative IPC: 0.32405 (Simulation time: 1 hr 20 min 38 sec) 
Heartbeat CPU 1 instructions: 530000002 cycles: 472759054 heartbeat IPC: 0.731422 cumulative IPC: 0.814433 (Simulation time: 1 hr 21 min 9 sec) 
Heartbeat CPU 3 instructions: 370000003 cycles: 477484149 heartbeat IPC: 0.449556 cumulative IPC: 0.456795 (Simulation time: 1 hr 21 min 42 sec) 
Heartbeat CPU 2 instructions: 340000000 cycles: 482281553 heartbeat IPC: 0.386734 cumulative IPC: 0.40086 (Simulation time: 1 hr 22 min 16 sec) 
Heartbeat CPU 1 instructions: 540000000 cycles: 486571769 heartbeat IPC: 0.72397 cumulative IPC: 0.810899 (Simulation time: 1 hr 22 min 45 sec) 
Heartbeat CPU 0 instructions: 410000002 cycles: 498560910 heartbeat IPC: 0.33208 cumulative IPC: 0.324711 (Simulation time: 1 hr 24 min 9 sec) 
Heartbeat CPU 3 instructions: 380000000 cycles: 499972667 heartbeat IPC: 0.444671 cumulative IPC: 0.456052 (Simulation time: 1 hr 24 min 19 sec) 
Heartbeat CPU 1 instructions: 550000001 cycles: 500674409 heartbeat IPC: 0.709087 cumulative IPC: 0.806993 (Simulation time: 1 hr 24 min 24 sec) 
Heartbeat CPU 2 instructions: 350000000 cycles: 508199876 heartbeat IPC: 0.385827 cumulative IPC: 0.399822 (Simulation time: 1 hr 25 min 26 sec) 
Heartbeat CPU 1 instructions: 560000000 cycles: 514699071 heartbeat IPC: 0.71303 cumulative IPC: 0.803541 (Simulation time: 1 hr 26 min 22 sec) 
Heartbeat CPU 3 instructions: 390000002 cycles: 522674691 heartbeat IPC: 0.440489 cumulative IPC: 0.455145 (Simulation time: 1 hr 27 min 35 sec) 
Heartbeat CPU 1 instructions: 570000001 cycles: 526584655 heartbeat IPC: 0.841355 cumulative IPC: 0.804683 (Simulation time: 1 hr 28 min 9 sec) 
Heartbeat CPU 0 instructions: 420000000 cycles: 528076067 heartbeat IPC: 0.338809 cumulative IPC: 0.325764 (Simulation time: 1 hr 28 min 20 sec) 
Heartbeat CPU 2 instructions: 360000000 cycles: 534181988 heartbeat IPC: 0.38488 cumulative IPC: 0.398854 (Simulation time: 1 hr 29 min 12 sec) 
Heartbeat CPU 1 instructions: 580000000 cycles: 537994201 heartbeat IPC: 0.876459 cumulative IPC: 0.806705 (Simulation time: 1 hr 29 min 44 sec) 
Heartbeat CPU 3 instructions: 400000000 cycles: 545414396 heartbeat IPC: 0.439759 cumulative IPC: 0.454297 (Simulation time: 1 hr 30 min 48 sec) 
Heartbeat CPU 1 instructions: 590000003 cycles: 550401240 heartbeat IPC: 0.805994 cumulative IPC: 0.806684 (Simulation time: 1 hr 31 min 25 sec) 
Heartbeat CPU 2 instructions: 370000001 cycles: 560116068 heartbeat IPC: 0.385593 cumulative IPC: 0.398049 (Simulation time: 1 hr 32 min 42 sec) 
Heartbeat CPU 0 instructions: 430000000 cycles: 561032847 heartbeat IPC: 0.303428 cumulative IPC: 0.324044 (Simulation time: 1 hr 32 min 49 sec) 
Heartbeat CPU 1 instructions: 600000000 cycles: 562658303 heartbeat IPC: 0.815856 cumulative IPC: 0.806946 (Simulation time: 1 hr 33 min 4 sec) 
Heartbeat CPU 3 instructions: 410000001 cycles: 567799681 heartbeat IPC: 0.446722 cumulative IPC: 0.453907 (Simulation time: 1 hr 33 min 48 sec) 
Heartbeat CPU 1 instructions: 610000001 cycles: 574717897 heartbeat IPC: 0.829215 cumulative IPC: 0.807554 (Simulation time: 1 hr 34 min 45 sec) 
Heartbeat CPU 2 instructions: 380000000 cycles: 585777091 heartbeat IPC: 0.389696 cumulative IPC: 0.397575 (Simulation time: 1 hr 36 min 12 sec) 
Heartbeat CPU 1 instructions: 620000000 cycles: 587124491 heartbeat IPC: 0.806023 cumulative IPC: 0.807512 (Simulation time: 1 hr 36 min 22 sec) 
Heartbeat CPU 0 instructions: 440000000 cycles: 589081357 heartbeat IPC: 0.356525 cumulative IPC: 0.326042 (Simulation time: 1 hr 36 min 39 sec) 
Heartbeat CPU 3 instructions: 420000000 cycles: 590737338 heartbeat IPC: 0.435964 cumulative IPC: 0.453008 (Simulation time: 1 hr 36 min 52 sec) 
Heartbeat CPU 1 instructions: 630000002 cycles: 599230065 heartbeat IPC: 0.826066 cumulative IPC: 0.807994 (Simulation time: 1 hr 38 min 5 sec) 
Heartbeat CPU 2 instructions: 390000000 cycles: 611180098 heartbeat IPC: 0.393654 cumulative IPC: 0.397367 (Simulation time: 1 hr 39 min 45 sec) 
Heartbeat CPU 1 instructions: 640000000 cycles: 611380066 heartbeat IPC: 0.823045 cumulative IPC: 0.808376 (Simulation time: 1 hr 39 min 46 sec) 
Heartbeat CPU 3 instructions: 430000003 cycles: 614167960 heartbeat IPC: 0.426792 cumulative IPC: 0.451731 (Simulation time: 1 hr 40 min 9 sec) 
Heartbeat CPU 0 instructions: 450000002 cycles: 620188128 heartbeat IPC: 0.321473 cumulative IPC: 0.32575 (Simulation time: 1 hr 40 min 54 sec) 
Heartbeat CPU 1 instructions: 650000000 cycles: 623649412 heartbeat IPC: 0.815039 cumulative IPC: 0.808542 (Simulation time: 1 hr 41 min 21 sec) 
Heartbeat CPU 1 instructions: 660000000 cycles: 635405913 heartbeat IPC: 0.850593 cumulative IPC: 0.809527 (Simulation time: 1 hr 42 min 55 sec) 
Heartbeat CPU 2 instructions: 400000000 cycles: 636303608 heartbeat IPC: 0.398034 cumulative IPC: 0.3974 (Simulation time: 1 hr 43 min 2 sec) 
Heartbeat CPU 3 instructions: 440000000 cycles: 637404348 heartbeat IPC: 0.430359 cumulative IPC: 0.450747 (Simulation time: 1 hr 43 min 10 sec) 
Heartbeat CPU 1 instructions: 670000000 cycles: 647091381 heartbeat IPC: 0.855764 cumulative IPC: 0.810578 (Simulation time: 1 hr 44 min 40 sec) 
Heartbeat CPU 0 instructions: 460000000 cycles: 650104527 heartbeat IPC: 0.334265 cumulative IPC: 0.326243 (Simulation time: 1 hr 45 min 4 sec) 
Heartbeat CPU 1 instructions: 680000000 cycles: 658244650 heartbeat IPC: 0.896598 cumulative IPC: 0.812404 (Simulation time: 1 hr 46 min 13 sec) 
Heartbeat CPU 3 instructions: 450000001 cycles: 660226961 heartbeat IPC: 0.438162 cumulative IPC: 0.450202 (Simulation time: 1 hr 46 min 32 sec) 
Heartbeat CPU 2 instructions: 410000002 cycles: 661016634 heartbeat IPC: 0.404645 cumulative IPC: 0.397739 (Simulation time: 1 hr 46 min 40 sec) 
Heartbeat CPU 1 instructions: 690000001 cycles: 669706116 heartbeat IPC: 0.872489 cumulative IPC: 0.813688 (Simulation time: 1 hr 47 min 47 sec) 
Heartbeat CPU 1 instructions: 700000000 cycles: 681263746 heartbeat IPC: 0.865229 cumulative IPC: 0.814774 (Simulation time: 1 hr 49 min 26 sec) 
Heartbeat CPU 3 instructions: 460000000 cycles: 682880849 heartbeat IPC: 0.441425 cumulative IPC: 0.44984 (Simulation time: 1 hr 49 min 39 sec) 
Heartbeat CPU 2 instructions: 420000000 cycles: 684699551 heartbeat IPC: 0.422245 cumulative IPC: 0.398791 (Simulation time: 1 hr 49 min 52 sec) 
Heartbeat CPU 0 instructions: 470000003 cycles: 685435407 heartbeat IPC: 0.283039 cumulative IPC: 0.32348 (Simulation time: 1 hr 49 min 58 sec) 
Heartbeat CPU 1 instructions: 710000001 cycles: 694858169 heartbeat IPC: 0.735596 cumulative IPC: 0.812858 (Simulation time: 1 hr 51 min 9 sec) 
Heartbeat CPU 3 instructions: 470000000 cycles: 705220580 heartbeat IPC: 0.447633 cumulative IPC: 0.449754 (Simulation time: 1 hr 52 min 23 sec) 
Heartbeat CPU 1 instructions: 720000000 cycles: 708410363 heartbeat IPC: 0.737888 cumulative IPC: 0.811092 (Simulation time: 1 hr 52 min 45 sec) 
Heartbeat CPU 2 instructions: 430000000 cycles: 708660299 heartbeat IPC: 0.417349 cumulative IPC: 0.399564 (Simulation time: 1 hr 52 min 46 sec) 
Heartbeat CPU 0 instructions: 480000000 cycles: 717651530 heartbeat IPC: 0.310403 cumulative IPC: 0.322759 (Simulation time: 1 hr 53 min 49 sec) 
Heartbeat CPU 1 instructions: 730000001 cycles: 722097003 heartbeat IPC: 0.73064 cumulative IPC: 0.809223 (Simulation time: 1 hr 54 min 20 sec) 
Heartbeat CPU 3 instructions: 480000000 cycles: 728341674 heartbeat IPC: 0.432505 cumulative IPC: 0.449084 (Simulation time: 1 hr 55 min 2 sec) 
Heartbeat CPU 2 instructions: 440000000 cycles: 733517133 heartbeat IPC: 0.402304 cumulative IPC: 0.399677 (Simulation time: 1 hr 55 min 40 sec) 
Heartbeat CPU 1 instructions: 740000000 cycles: 735283608 heartbeat IPC: 0.758345 cumulative IPC: 0.808109 (Simulation time: 1 hr 55 min 53 sec) 
Heartbeat CPU 1 instructions: 750000003 cycles: 746798142 heartbeat IPC: 0.868468 cumulative IPC: 0.809241 (Simulation time: 1 hr 57 min 19 sec) 
Heartbeat CPU 3 instructions: 490000003 cycles: 749775675 heartbeat IPC: 0.466549 cumulative IPC: 0.449691 (Simulation time: 1 hr 57 min 43 sec) 
Heartbeat CPU 0 instructions: 490000002 cycles: 752641115 heartbeat IPC: 0.285799 cumulative IPC: 0.320672 (Simulation time: 1 hr 58 min 5 sec) 
Heartbeat CPU 2 instructions: 450000001 cycles: 757353953 heartbeat IPC: 0.419519 cumulative IPC: 0.400435 (Simulation time: 1 hr 58 min 41 sec) 
Heartbeat CPU 1 instructions: 760000000 cycles: 758278894 heartbeat IPC: 0.871023 cumulative IPC: 0.810376 (Simulation time: 1 hr 58 min 49 sec) 
Heartbeat CPU 3 instructions: 500000000 cycles: 770470131 heartbeat IPC: 0.483221 cumulative IPC: 0.45078 (Simulation time: 2 hr 0 min 31 sec) 
Heartbeat CPU 1 instructions: 770000001 cycles: 770475455 heartbeat IPC: 0.819903 cumulative IPC: 0.810558 (Simulation time: 2 hr 0 min 31 sec) 
Heartbeat CPU 2 instructions: 460000000 cycles: 781941479 heartbeat IPC: 0.40671 cumulative IPC: 0.400673 (Simulation time: 2 hr 2 min 7 sec) 
Heartbeat CPU 1 instructions: 780000000 cycles: 782641122 heartbeat IPC: 0.821985 cumulative IPC: 0.810772 (Simulation time: 2 hr 2 min 12 sec) 
Heartbeat CPU 0 instructions: 500000000 cycles: 786934405 heartbeat IPC: 0.291602 cumulative IPC: 0.319147 (Simulation time: 2 hr 2 min 44 sec) 
Heartbeat CPU 3 instructions: 510000003 cycles: 792762263 heartbeat IPC: 0.448589 cumulative IPC: 0.450706 (Simulation time: 2 hr 3 min 40 sec) 
Heartbeat CPU 1 instructions: 790000000 cycles: 794891770 heartbeat IPC: 0.816283 cumulative IPC: 0.810874 (Simulation time: 2 hr 3 min 59 sec) 
Heartbeat CPU 1 instructions: 800000000 cycles: 807035079 heartbeat IPC: 0.823499 cumulative IPC: 0.811102 (Simulation time: 2 hr 5 min 41 sec) 
Heartbeat CPU 2 instructions: 470000002 cycles: 807176729 heartbeat IPC: 0.396271 cumulative IPC: 0.400508 (Simulation time: 2 hr 5 min 43 sec) 
Heartbeat CPU 3 instructions: 520000000 cycles: 813242497 heartbeat IPC: 0.488276 cumulative IPC: 0.451837 (Simulation time: 2 hr 6 min 34 sec) 
Heartbeat CPU 0 instructions: 510000000 cycles: 814559396 heartbeat IPC: 0.361991 cumulative IPC: 0.320884 (Simulation time: 2 hr 6 min 45 sec) 
Heartbeat CPU 1 instructions: 810000002 cycles: 819071681 heartbeat IPC: 0.830799 cumulative IPC: 0.811447 (Simulation time: 2 hr 7 min 21 sec) 
Heartbeat CPU 1 instructions: 820000000 cycles: 830463242 heartbeat IPC: 0.877843 cumulative IPC: 0.812532 (Simulation time: 2 hr 8 min 54 sec) 
Heartbeat CPU 2 instructions: 480000000 cycles: 832475304 heartbeat IPC: 0.395279 cumulative IPC: 0.400319 (Simulation time: 2 hr 9 min 14 sec) 
Heartbeat CPU 3 instructions: 530000000 cycles: 835749994 heartbeat IPC: 0.444296 cumulative IPC: 0.451595 (Simulation time: 2 hr 9 min 44 sec) 
Heartbeat CPU 0 instructions: 520000000 cycles: 841336363 heartbeat IPC: 0.373455 cumulative IPC: 0.322872 (Simulation time: 2 hr 10 min 39 sec) 
Heartbeat CPU 1 instructions: 830000000 cycles: 841598367 heartbeat IPC: 0.898059 cumulative IPC: 0.813876 (Simulation time: 2 hr 10 min 41 sec) 
Heartbeat CPU 1 instructions: 840000000 cycles: 852908979 heartbeat IPC: 0.884125 cumulative IPC: 0.81498 (Simulation time: 2 hr 12 min 17 sec) 
Heartbeat CPU 3 instructions: 540000000 cycles: 857748373 heartbeat IPC: 0.454579 cumulative IPC: 0.451686 (Simulation time: 2 hr 12 min 57 sec) 
Heartbeat CPU 2 instructions: 490000000 cycles: 857778534 heartbeat IPC: 0.395206 cumulative IPC: 0.40014 (Simulation time: 2 hr 12 min 58 sec) 
Heartbeat CPU 1 instructions: 850000000 cycles: 865952399 heartbeat IPC: 0.76667 cumulative IPC: 0.81412 (Simulation time: 2 hr 14 min 2 sec) 
Heartbeat CPU 0 instructions: 530000002 cycles: 876572360 heartbeat IPC: 0.283801 cumulative IPC: 0.32102 (Simulation time: 2 hr 15 min 38 sec) 
Heartbeat CPU 1 instructions: 860000000 cycles: 879608219 heartbeat IPC: 0.732288 cumulative IPC: 0.812623 (Simulation time: 2 hr 16 min 0 sec) 
Heartbeat CPU 3 instructions: 550000000 cycles: 880191284 heartbeat IPC: 0.445575 cumulative IPC: 0.451502 (Simulation time: 2 hr 16 min 4 sec) 
Heartbeat CPU 2 instructions: 500000000 cycles: 882961189 heartbeat IPC: 0.397099 cumulative IPC: 0.400038 (Simulation time: 2 hr 16 min 25 sec) 
Heartbeat CPU 1 instructions: 870000000 cycles: 893696999 heartbeat IPC: 0.709785 cumulative IPC: 0.810718 (Simulation time: 2 hr 17 min 39 sec) 
Heartbeat CPU 3 instructions: 560000000 cycles: 903066534 heartbeat IPC: 0.437154 cumulative IPC: 0.451076 (Simulation time: 2 hr 18 min 42 sec) 
Heartbeat CPU 1 instructions: 880000000 cycles: 907684530 heartbeat IPC: 0.714922 cumulative IPC: 0.808989 (Simulation time: 2 hr 19 min 14 sec) 
Heartbeat CPU 2 instructions: 510000002 cycles: 907923494 heartbeat IPC: 0.400604 cumulative IPC: 0.400056 (Simulation time: 2 hr 19 min 16 sec) 
Heartbeat CPU 0 instructions: 540000000 cycles: 910792779 heartbeat IPC: 0.292223 cumulative IPC: 0.319753 (Simulation time: 2 hr 19 min 37 sec) 
Heartbeat CPU 1 instructions: 890000001 cycles: 921348017 heartbeat IPC: 0.731878 cumulative IPC: 0.807652 (Simulation time: 2 hr 20 min 50 sec) 
Heartbeat CPU 3 instructions: 570000000 cycles: 925504029 heartbeat IPC: 0.445683 cumulative IPC: 0.450923 (Simulation time: 2 hr 21 min 20 sec) 
Heartbeat CPU 2 instructions: 520000000 cycles: 932723971 heartbeat IPC: 0.403218 cumulative IPC: 0.400154 (Simulation time: 2 hr 22 min 13 sec) 
Heartbeat CPU 1 instructions: 900000000 cycles: 933293101 heartbeat IPC: 0.837164 cumulative IPC: 0.808093 (Simulation time: 2 hr 22 min 17 sec) 
Heartbeat CPU 0 instructions: 550000003 cycles: 944000119 heartbeat IPC: 0.301138 cumulative IPC: 0.318991 (Simulation time: 2 hr 23 min 34 sec) 
Heartbeat CPU 3 instructions: 580000000 cycles: 946813489 heartbeat IPC: 0.469275 cumulative IPC: 0.451404 (Simulation time: 2 hr 23 min 54 sec) 
Heartbeat CPU 1 instructions: 910000000 cycles: 946935678 heartbeat IPC: 0.732999 cumulative IPC: 0.806834 (Simulation time: 2 hr 23 min 55 sec) 
Heartbeat CPU 2 instructions: 530000000 cycles: 957688619 heartbeat IPC: 0.400566 cumulative IPC: 0.400167 (Simulation time: 2 hr 25 min 16 sec) 
Heartbeat CPU 1 instructions: 920000000 cycles: 960966001 heartbeat IPC: 0.712742 cumulative IPC: 0.805239 (Simulation time: 2 hr 25 min 41 sec) 
Heartbeat CPU 3 instructions: 590000002 cycles: 968756370 heartbeat IPC: 0.455729 cumulative IPC: 0.451517 (Simulation time: 2 hr 26 min 43 sec) 
Heartbeat CPU 1 instructions: 930000001 cycles: 974953640 heartbeat IPC: 0.714917 cumulative IPC: 0.803739 (Simulation time: 2 hr 27 min 27 sec) 
Heartbeat CPU 0 instructions: 560000000 cycles: 980511917 heartbeat IPC: 0.273884 cumulative IPC: 0.317047 (Simulation time: 2 hr 28 min 15 sec) 
Heartbeat CPU 2 instructions: 540000000 cycles: 982856908 heartbeat IPC: 0.397325 cumulative IPC: 0.400083 (Simulation time: 2 hr 28 min 32 sec) 
Heartbeat CPU 3 instructions: 600000000 cycles: 989134840 heartbeat IPC: 0.490714 cumulative IPC: 0.45245 (Simulation time: 2 hr 29 min 16 sec) 
Heartbeat CPU 1 instructions: 940000000 cycles: 989151313 heartbeat IPC: 0.704341 cumulative IPC: 0.80209 (Simulation time: 2 hr 29 min 17 sec) 
Heartbeat CPU 1 instructions: 950000002 cycles: 1003288363 heartbeat IPC: 0.707361 cumulative IPC: 0.800551 (Simulation time: 2 hr 31 min 4 sec) 
Heartbeat CPU 2 instructions: 550000003 cycles: 1008113447 heartbeat IPC: 0.395937 cumulative IPC: 0.399963 (Simulation time: 2 hr 31 min 39 sec) 
Heartbeat CPU 0 instructions: 570000003 cycles: 1009437787 heartbeat IPC: 0.345711 cumulative IPC: 0.317993 (Simulation time: 2 hr 31 min 48 sec) 
Heartbeat CPU 3 instructions: 610000001 cycles: 1012512813 heartbeat IPC: 0.427753 cumulative IPC: 0.451794 (Simulation time: 2 hr 32 min 10 sec) 
Heartbeat CPU 1 instructions: 960000000 cycles: 1017250766 heartbeat IPC: 0.716209 cumulative IPC: 0.79922 (Simulation time: 2 hr 32 min 43 sec) 
Heartbeat CPU 1 instructions: 970000003 cycles: 1030432195 heartbeat IPC: 0.758643 cumulative IPC: 0.798624 (Simulation time: 2 hr 34 min 18 sec) 
Heartbeat CPU 2 instructions: 560000000 cycles: 1033438824 heartbeat IPC: 0.394861 cumulative IPC: 0.39982 (Simulation time: 2 hr 34 min 40 sec) 
Heartbeat CPU 3 instructions: 620000000 cycles: 1035583486 heartbeat IPC: 0.433451 cumulative IPC: 0.451325 (Simulation time: 2 hr 34 min 56 sec) 
Heartbeat CPU 0 instructions: 580000000 cycles: 1038611293 heartbeat IPC: 0.342777 cumulative IPC: 0.318792 (Simulation time: 2 hr 35 min 18 sec) 
Heartbeat CPU 1 instructions: 980000000 cycles: 1042307947 heartbeat IPC: 0.842052 cumulative IPC: 0.799191 (Simulation time: 2 hr 35 min 45 sec) 
Heartbeat CPU 1 instructions: 990000003 cycles: 1055310394 heartbeat IPC: 0.769086 cumulative IPC: 0.798766 (Simulation time: 2 hr 37 min 18 sec) 
Heartbeat CPU 3 instructions: 630000003 cycles: 1058732582 heartbeat IPC: 0.431982 cumulative IPC: 0.450841 (Simulation time: 2 hr 37 min 44 sec) 
Heartbeat CPU 2 instructions: 570000000 cycles: 1058793886 heartbeat IPC: 0.394399 cumulative IPC: 0.399671 (Simulation time: 2 hr 37 min 44 sec) 
Heartbeat CPU 0 instructions: 590000002 cycles: 1064308820 heartbeat IPC: 0.389143 cumulative IPC: 0.320733 (Simulation time: 2 hr 38 min 26 sec) 
Heartbeat CPU 1 instructions: 1000000000 cycles: 1069257509 heartbeat IPC: 0.716994 cumulative IPC: 0.797548 (Simulation time: 2 hr 39 min 3 sec) 
Heartbeat CPU 3 instructions: 640000000 cycles: 1080167019 heartbeat IPC: 0.466539 cumulative IPC: 0.451197 (Simulation time: 2 hr 40 min 22 sec) 
Heartbeat CPU 1 instructions: 1010000000 cycles: 1082980295 heartbeat IPC: 0.728715 cumulative IPC: 0.796554 (Simulation time: 2 hr 40 min 43 sec) 
Heartbeat CPU 2 instructions: 580000000 cycles: 1084011196 heartbeat IPC: 0.396553 cumulative IPC: 0.399588 (Simulation time: 2 hr 40 min 50 sec) 
Heartbeat CPU 0 instructions: 600000000 cycles: 1091998499 heartbeat IPC: 0.361145 cumulative IPC: 0.3219 (Simulation time: 2 hr 41 min 48 sec) 
Heartbeat CPU 1 instructions: 1020000000 cycles: 1096930880 heartbeat IPC: 0.716816 cumulative IPC: 0.7954 (Simulation time: 2 hr 42 min 23 sec) 
Heartbeat CPU 3 instructions: 650000003 cycles: 1100562230 heartbeat IPC: 0.490311 cumulative IPC: 0.452021 (Simulation time: 2 hr 42 min 51 sec) 
Heartbeat CPU 2 instructions: 590000002 cycles: 1108461368 heartbeat IPC: 0.408995 cumulative IPC: 0.399824 (Simulation time: 2 hr 43 min 50 sec) 
Heartbeat CPU 1 instructions: 1030000002 cycles: 1109667321 heartbeat IPC: 0.785149 cumulative IPC: 0.795266 (Simulation time: 2 hr 43 min 59 sec) 
Heartbeat CPU 3 instructions: 660000000 cycles: 1120876126 heartbeat IPC: 0.492274 cumulative IPC: 0.452849 (Simulation time: 2 hr 45 min 19 sec) 
Heartbeat CPU 1 instructions: 1040000000 cycles: 1123175381 heartbeat IPC: 0.740299 cumulative IPC: 0.794516 (Simulation time: 2 hr 45 min 35 sec) 
Heartbeat CPU 0 instructions: 610000001 cycles: 1123599799 heartbeat IPC: 0.316443 cumulative IPC: 0.321726 (Simulation time: 2 hr 45 min 38 sec) 
Heartbeat CPU 2 instructions: 600000000 cycles: 1131329355 heartbeat IPC: 0.437292 cumulative IPC: 0.400682 (Simulation time: 2 hr 46 min 36 sec) 
Heartbeat CPU 1 instructions: 1050000002 cycles: 1136473763 heartbeat IPC: 0.751971 cumulative IPC: 0.793952 (Simulation time: 2 hr 47 min 16 sec) 
Heartbeat CPU 3 instructions: 670000002 cycles: 1140808639 heartbeat IPC: 0.501693 cumulative IPC: 0.453815 (Simulation time: 2 hr 47 min 48 sec) 
Heartbeat CPU 1 instructions: 1060000000 cycles: 1149393067 heartbeat IPC: 0.774035 cumulative IPC: 0.793699 (Simulation time: 2 hr 48 min 51 sec) 
Heartbeat CPU 2 instructions: 610000000 cycles: 1153325942 heartbeat IPC: 0.454616 cumulative IPC: 0.401845 (Simulation time: 2 hr 49 min 20 sec) 
Heartbeat CPU 0 instructions: 620000000 cycles: 1154291377 heartbeat IPC: 0.325822 cumulative IPC: 0.321849 (Simulation time: 2 hr 49 min 26 sec) 
Heartbeat CPU 3 instructions: 680000000 cycles: 1161502954 heartbeat IPC: 0.483224 cumulative IPC: 0.454407 (Simulation time: 2 hr 50 min 19 sec) 
Heartbeat CPU 1 instructions: 1070000001 cycles: 1161865296 heartbeat IPC: 0.801781 cumulative IPC: 0.793797 (Simulation time: 2 hr 50 min 22 sec) 
Heartbeat CPU 1 instructions: 1080000000 cycles: 1173924020 heartbeat IPC: 0.829275 cumulative IPC: 0.794208 (Simulation time: 2 hr 51 min 49 sec) 
Heartbeat CPU 2 instructions: 620000000 cycles: 1175241561 heartbeat IPC: 0.456296 cumulative IPC: 0.40299 (Simulation time: 2 hr 51 min 58 sec) 
Heartbeat CPU 3 instructions: 690000002 cycles: 1181160086 heartbeat IPC: 0.508721 cumulative IPC: 0.455425 (Simulation time: 2 hr 52 min 40 sec) 
Heartbeat CPU 1 instructions: 1090000001 cycles: 1188196779 heartbeat IPC: 0.700635 cumulative IPC: 0.792943 (Simulation time: 2 hr 53 min 29 sec) 
Heartbeat CPU 0 instructions: 630000000 cycles: 1188633235 heartbeat IPC: 0.29119 cumulative IPC: 0.320852 (Simulation time: 2 hr 53 min 32 sec) 
Heartbeat CPU 2 instructions: 630000001 cycles: 1197118975 heartbeat IPC: 0.457092 cumulative IPC: 0.404103 (Simulation time: 2 hr 54 min 29 sec) 
Heartbeat CPU 3 instructions: 700000000 cycles: 1201893810 heartbeat IPC: 0.482306 cumulative IPC: 0.455947 (Simulation time: 2 hr 55 min 2 sec) 
Heartbeat CPU 1 instructions: 1100000000 cycles: 1202707950 heartbeat IPC: 0.689124 cumulative IPC: 0.791534 (Simulation time: 2 hr 55 min 8 sec) 
Heartbeat CPU 1 instructions: 1110000001 cycles: 1215476162 heartbeat IPC: 0.783195 cumulative IPC: 0.791436 (Simulation time: 2 hr 56 min 41 sec) 
Heartbeat CPU 0 instructions: 640000000 cycles: 1218567590 heartbeat IPC: 0.334064 cumulative IPC: 0.321216 (Simulation time: 2 hr 57 min 6 sec) 
Heartbeat CPU 2 instructions: 640000000 cycles: 1219012807 heartbeat IPC: 0.45675 cumulative IPC: 0.405164 (Simulation time: 2 hr 57 min 10 sec) 
Heartbeat CPU 3 instructions: 710000001 cycles: 1224748747 heartbeat IPC: 0.437542 cumulative IPC: 0.455561 (Simulation time: 2 hr 57 min 53 sec) 
Heartbeat CPU 1 instructions: 1120000000 cycles: 1228049361 heartbeat IPC: 0.795342 cumulative IPC: 0.791481 (Simulation time: 2 hr 58 min 16 sec) 
Heartbeat CPU 1 instructions: 1130000000 cycles: 1240724482 heartbeat IPC: 0.788947 cumulative IPC: 0.791452 (Simulation time: 2 hr 59 min 50 sec) 
Heartbeat CPU 2 instructions: 650000003 cycles: 1241152225 heartbeat IPC: 0.451683 cumulative IPC: 0.406093 (Simulation time: 2 hr 59 min 53 sec) 
Heartbeat CPU 3 instructions: 720000000 cycles: 1245324310 heartbeat IPC: 0.486013 cumulative IPC: 0.456125 (Simulation time: 3 hr 0 min 28 sec) 
Heartbeat CPU 0 instructions: 650000002 cycles: 1251066630 heartbeat IPC: 0.307701 cumulative IPC: 0.320823 (Simulation time: 3 hr 1 min 19 sec) 
Heartbeat CPU 1 instructions: 1140000000 cycles: 1253292026 heartbeat IPC: 0.7957 cumulative IPC: 0.791499 (Simulation time: 3 hr 1 min 39 sec) 
Heartbeat CPU 2 instructions: 660000000 cycles: 1263603896 heartbeat IPC: 0.445401 cumulative IPC: 0.406874 (Simulation time: 3 hr 2 min 57 sec) 
Heartbeat CPU 1 instructions: 1150000003 cycles: 1265065124 heartbeat IPC: 0.849394 cumulative IPC: 0.792101 (Simulation time: 3 hr 3 min 8 sec) 
Heartbeat CPU 3 instructions: 730000003 cycles: 1267520029 heartbeat IPC: 0.450537 cumulative IPC: 0.456015 (Simulation time: 3 hr 3 min 27 sec) 
Heartbeat CPU 1 instructions: 1160000000 cycles: 1276917063 heartbeat IPC: 0.843744 cumulative IPC: 0.792636 (Simulation time: 3 hr 4 min 39 sec) 
Heartbeat CPU 0 instructions: 660000000 cycles: 1283384347 heartbeat IPC: 0.309428 cumulative IPC: 0.320503 (Simulation time: 3 hr 5 min 26 sec) 
Heartbeat CPU 2 instructions: 670000000 cycles: 1286205406 heartbeat IPC: 0.442448 cumulative IPC: 0.407571 (Simulation time: 3 hr 5 min 47 sec) 
Heartbeat CPU 3 instructions: 740000000 cycles: 1290358506 heartbeat IPC: 0.437857 cumulative IPC: 0.455657 (Simulation time: 3 hr 6 min 17 sec) 
Heartbeat CPU 1 instructions: 1170000000 cycles: 1290364623 heartbeat IPC: 0.743629 cumulative IPC: 0.792067 (Simulation time: 3 hr 6 min 17 sec) 
Heartbeat CPU 1 instructions: 1180000000 cycles: 1304660423 heartbeat IPC: 0.699506 cumulative IPC: 0.790938 (Simulation time: 3 hr 8 min 0 sec) 
Heartbeat CPU 2 instructions: 680000000 cycles: 1308790610 heartbeat IPC: 0.442768 cumulative IPC: 0.408247 (Simulation time: 3 hr 8 min 29 sec) 
Heartbeat CPU 3 instructions: 750000001 cycles: 1311506364 heartbeat IPC: 0.472861 cumulative IPC: 0.455966 (Simulation time: 3 hr 8 min 48 sec) 
Heartbeat CPU 0 instructions: 670000002 cycles: 1315270036 heartbeat IPC: 0.31362 cumulative IPC: 0.320317 (Simulation time: 3 hr 9 min 15 sec) 
Heartbeat CPU 1 instructions: 1190000003 cycles: 1318992849 heartbeat IPC: 0.697719 cumulative IPC: 0.789811 (Simulation time: 3 hr 9 min 41 sec) 
Heartbeat CPU 2 instructions: 690000000 cycles: 1331899559 heartbeat IPC: 0.432733 cumulative IPC: 0.408719 (Simulation time: 3 hr 11 min 10 sec) 
Heartbeat CPU 3 instructions: 760000000 cycles: 1333308925 heartbeat IPC: 0.458662 cumulative IPC: 0.456015 (Simulation time: 3 hr 11 min 19 sec) 
Heartbeat CPU 1 instructions: 1200000000 cycles: 1333413637 heartbeat IPC: 0.693443 cumulative IPC: 0.788653 (Simulation time: 3 hr 11 min 19 sec) 
Heartbeat CPU 1 instructions: 1210000000 cycles: 1345756394 heartbeat IPC: 0.810192 cumulative IPC: 0.788873 (Simulation time: 3 hr 12 min 44 sec) 
Heartbeat CPU 0 instructions: 680000000 cycles: 1349655486 heartbeat IPC: 0.290821 cumulative IPC: 0.319484 (Simulation time: 3 hr 13 min 10 sec) 
Heartbeat CPU 3 instructions: 770000001 cycles: 1355686132 heartbeat IPC: 0.446883 cumulative IPC: 0.455848 (Simulation time: 3 hr 13 min 51 sec) 
Heartbeat CPU 2 instructions: 700000000 cycles: 1356770623 heartbeat IPC: 0.402074 cumulative IPC: 0.408584 (Simulation time: 3 hr 13 min 58 sec) 
Heartbeat CPU 1 instructions: 1220000000 cycles: 1357797939 heartbeat IPC: 0.830458 cumulative IPC: 0.789281 (Simulation time: 3 hr 14 min 6 sec) 
Heartbeat CPU 1 instructions: 1230000000 cycles: 1370513049 heartbeat IPC: 0.786466 cumulative IPC: 0.789253 (Simulation time: 3 hr 15 min 28 sec) 
Heartbeat CPU 3 instructions: 780000000 cycles: 1377854006 heartbeat IPC: 0.451103 cumulative IPC: 0.455763 (Simulation time: 3 hr 16 min 16 sec) 
Heartbeat CPU 2 instructions: 710000003 cycles: 1382445377 heartbeat IPC: 0.389488 cumulative IPC: 0.408192 (Simulation time: 3 hr 16 min 46 sec) 
Heartbeat CPU 1 instructions: 1240000000 cycles: 1383013224 heartbeat IPC: 0.799989 cumulative IPC: 0.78936 (Simulation time: 3 hr 16 min 50 sec) 
Heartbeat CPU 0 instructions: 690000001 cycles: 1385069026 heartbeat IPC: 0.282378 cumulative IPC: 0.318434 (Simulation time: 3 hr 17 min 3 sec) 
Heartbeat CPU 1 instructions: 1250000001 cycles: 1395993408 heartbeat IPC: 0.770405 cumulative IPC: 0.789165 (Simulation time: 3 hr 18 min 16 sec) 
Heartbeat CPU 3 instructions: 790000000 cycles: 1400062274 heartbeat IPC: 0.450283 cumulative IPC: 0.455667 (Simulation time: 3 hr 18 min 45 sec) 
Finished CPU 1 instructions: 1000000003 cycles: 1267104547 cumulative IPC: 0.789201 (Simulation time: 3 hr 18 min 45 sec) 
Heartbeat CPU 2 instructions: 720000000 cycles: 1407905983 heartbeat IPC: 0.392764 cumulative IPC: 0.407884 (Simulation time: 3 hr 19 min 39 sec) 
Heartbeat CPU 1 instructions: 1260000000 cycles: 1408869560 heartbeat IPC: 0.776629 cumulative IPC: 0.789039 (Simulation time: 3 hr 19 min 46 sec) 
Heartbeat CPU 0 instructions: 700000000 cycles: 1412518608 heartbeat IPC: 0.364304 cumulative IPC: 0.319418 (Simulation time: 3 hr 20 min 12 sec) 
Heartbeat CPU 3 instructions: 800000000 cycles: 1420467124 heartbeat IPC: 0.49008 cumulative IPC: 0.456213 (Simulation time: 3 hr 21 min 10 sec) 
Heartbeat CPU 1 instructions: 1270000000 cycles: 1421704184 heartbeat IPC: 0.779142 cumulative IPC: 0.78894 (Simulation time: 3 hr 21 min 19 sec) 
Heartbeat CPU 2 instructions: 730000003 cycles: 1432971992 heartbeat IPC: 0.398947 cumulative IPC: 0.407711 (Simulation time: 3 hr 22 min 41 sec) 
Heartbeat CPU 1 instructions: 1280000000 cycles: 1433321759 heartbeat IPC: 0.860765 cumulative IPC: 0.789582 (Simulation time: 3 hr 22 min 43 sec) 
Heartbeat CPU 0 instructions: 710000002 cycles: 1439668583 heartbeat IPC: 0.368325 cumulative IPC: 0.320434 (Simulation time: 3 hr 23 min 27 sec) 
Heartbeat CPU 3 instructions: 810000003 cycles: 1442206949 heartbeat IPC: 0.459985 cumulative IPC: 0.456275 (Simulation time: 3 hr 23 min 44 sec) 
Heartbeat CPU 1 instructions: 1290000001 cycles: 1445220968 heartbeat IPC: 0.840392 cumulative IPC: 0.790042 (Simulation time: 3 hr 24 min 6 sec) 
Heartbeat CPU 1 instructions: 1300000000 cycles: 1457105304 heartbeat IPC: 0.841444 cumulative IPC: 0.790504 (Simulation time: 3 hr 25 min 26 sec) 
Heartbeat CPU 2 instructions: 740000000 cycles: 1457617764 heartbeat IPC: 0.405749 cumulative IPC: 0.407675 (Simulation time: 3 hr 25 min 30 sec) 
Heartbeat CPU 3 instructions: 820000000 cycles: 1464126394 heartbeat IPC: 0.456216 cumulative IPC: 0.456274 (Simulation time: 3 hr 26 min 17 sec) 
Heartbeat CPU 1 instructions: 1310000000 cycles: 1469638868 heartbeat IPC: 0.797858 cumulative IPC: 0.790573 (Simulation time: 3 hr 26 min 55 sec) 
Heartbeat CPU 0 instructions: 720000000 cycles: 1474780141 heartbeat IPC: 0.284806 cumulative IPC: 0.319502 (Simulation time: 3 hr 27 min 30 sec) 
Heartbeat CPU 2 instructions: 750000000 cycles: 1481268489 heartbeat IPC: 0.42282 cumulative IPC: 0.40794 (Simulation time: 3 hr 28 min 14 sec) 
Heartbeat CPU 1 instructions: 1320000000 cycles: 1483613307 heartbeat IPC: 0.715592 cumulative IPC: 0.789797 (Simulation time: 3 hr 28 min 30 sec) 
Heartbeat CPU 3 instructions: 830000001 cycles: 1484375603 heartbeat IPC: 0.493847 cumulative IPC: 0.456837 (Simulation time: 3 hr 28 min 36 sec) 
Heartbeat CPU 1 instructions: 1330000003 cycles: 1497803841 heartbeat IPC: 0.704695 cumulative IPC: 0.788912 (Simulation time: 3 hr 30 min 8 sec) 
Heartbeat CPU 2 instructions: 760000000 cycles: 1503694738 heartbeat IPC: 0.445906 cumulative IPC: 0.408562 (Simulation time: 3 hr 30 min 49 sec) 
Heartbeat CPU 3 instructions: 840000000 cycles: 1504509428 heartbeat IPC: 0.496677 cumulative IPC: 0.457422 (Simulation time: 3 hr 30 min 55 sec) 
Heartbeat CPU 0 instructions: 730000003 cycles: 1507709309 heartbeat IPC: 0.303682 cumulative IPC: 0.319123 (Simulation time: 3 hr 31 min 18 sec) 
Heartbeat CPU 1 instructions: 1340000000 cycles: 1512141705 heartbeat IPC: 0.697454 cumulative IPC: 0.787961 (Simulation time: 3 hr 31 min 50 sec) 
Heartbeat CPU 3 instructions: 850000002 cycles: 1524142788 heartbeat IPC: 0.509337 cumulative IPC: 0.458155 (Simulation time: 3 hr 33 min 13 sec) 
Heartbeat CPU 2 instructions: 770000000 cycles: 1525600305 heartbeat IPC: 0.456505 cumulative IPC: 0.409316 (Simulation time: 3 hr 33 min 24 sec) 
Heartbeat CPU 1 instructions: 1350000000 cycles: 1525889547 heartbeat IPC: 0.727387 cumulative IPC: 0.787363 (Simulation time: 3 hr 33 min 26 sec) 
Heartbeat CPU 1 instructions: 1360000000 cycles: 1537946266 heartbeat IPC: 0.829413 cumulative IPC: 0.787724 (Simulation time: 3 hr 34 min 55 sec) 
Heartbeat CPU 0 instructions: 740000000 cycles: 1539430887 heartbeat IPC: 0.315243 cumulative IPC: 0.319036 (Simulation time: 3 hr 35 min 6 sec) 
Heartbeat CPU 3 instructions: 860000000 cycles: 1543774512 heartbeat IPC: 0.50938 cumulative IPC: 0.458868 (Simulation time: 3 hr 35 min 38 sec) 
Heartbeat CPU 2 instructions: 780000000 cycles: 1547266513 heartbeat IPC: 0.461548 cumulative IPC: 0.410116 (Simulation time: 3 hr 36 min 3 sec) 
Heartbeat CPU 1 instructions: 1370000003 cycles: 1549962523 heartbeat IPC: 0.832206 cumulative IPC: 0.788101 (Simulation time: 3 hr 36 min 22 sec) 
Heartbeat CPU 1 instructions: 1380000000 cycles: 1562236962 heartbeat IPC: 0.814701 cumulative IPC: 0.78833 (Simulation time: 3 hr 37 min 51 sec) 
Heartbeat CPU 3 instructions: 870000001 cycles: 1563975836 heartbeat IPC: 0.495017 cumulative IPC: 0.459378 (Simulation time: 3 hr 38 min 3 sec) 
Heartbeat CPU 2 instructions: 790000000 cycles: 1568920249 heartbeat IPC: 0.461814 cumulative IPC: 0.410896 (Simulation time: 3 hr 38 min 37 sec) 
Heartbeat CPU 1 instructions: 1390000000 cycles: 1574794140 heartbeat IPC: 0.796357 cumulative IPC: 0.7884 (Simulation time: 3 hr 39 min 18 sec) 
Heartbeat CPU 0 instructions: 750000002 cycles: 1575810150 heartbeat IPC: 0.274882 cumulative IPC: 0.317922 (Simulation time: 3 hr 39 min 26 sec) 
Heartbeat CPU 3 instructions: 880000000 cycles: 1585568413 heartbeat IPC: 0.463122 cumulative IPC: 0.459434 (Simulation time: 3 hr 40 min 39 sec) 
Heartbeat CPU 1 instructions: 1400000000 cycles: 1587449777 heartbeat IPC: 0.790162 cumulative IPC: 0.788415 (Simulation time: 3 hr 40 min 53 sec) 
Heartbeat CPU 2 instructions: 800000000 cycles: 1590539466 heartbeat IPC: 0.462551 cumulative IPC: 0.411662 (Simulation time: 3 hr 41 min 15 sec) 
Heartbeat CPU 1 instructions: 1410000000 cycles: 1599957048 heartbeat IPC: 0.799535 cumulative IPC: 0.78851 (Simulation time: 3 hr 42 min 23 sec) 
Heartbeat CPU 3 instructions: 890000000 cycles: 1607321280 heartbeat IPC: 0.45971 cumulative IPC: 0.459438 (Simulation time: 3 hr 43 min 18 sec) 
Heartbeat CPU 0 instructions: 760000000 cycles: 1609999235 heartbeat IPC: 0.292491 cumulative IPC: 0.317334 (Simulation time: 3 hr 43 min 38 sec) 
Heartbeat CPU 2 instructions: 810000000 cycles: 1612191700 heartbeat IPC: 0.461846 cumulative IPC: 0.412396 (Simulation time: 3 hr 43 min 55 sec) 
Heartbeat CPU 1 instructions: 1420000000 cycles: 1612583588 heartbeat IPC: 0.791983 cumulative IPC: 0.78854 (Simulation time: 3 hr 43 min 57 sec) 
Heartbeat CPU 1 instructions: 1430000000 cycles: 1624983532 heartbeat IPC: 0.806455 cumulative IPC: 0.788688 (Simulation time: 3 hr 45 min 32 sec) 
Heartbeat CPU 3 instructions: 900000000 cycles: 1628879825 heartbeat IPC: 0.463853 cumulative IPC: 0.459501 (Simulation time: 3 hr 46 min 2 sec) 
Heartbeat CPU 2 instructions: 820000000 cycles: 1633893099 heartbeat IPC: 0.4608 cumulative IPC: 0.413096 (Simulation time: 3 hr 46 min 40 sec) 
Heartbeat CPU 1 instructions: 1440000000 cycles: 1636711522 heartbeat IPC: 0.852661 cumulative IPC: 0.789187 (Simulation time: 3 hr 47 min 1 sec) 
Heartbeat CPU 0 instructions: 770000001 cycles: 1638249412 heartbeat IPC: 0.35398 cumulative IPC: 0.318021 (Simulation time: 3 hr 47 min 13 sec) 
Heartbeat CPU 1 instructions: 1450000002 cycles: 1648573112 heartbeat IPC: 0.843057 cumulative IPC: 0.789609 (Simulation time: 3 hr 48 min 30 sec) 
Heartbeat CPU 3 instructions: 910000001 cycles: 1651547185 heartbeat IPC: 0.441163 cumulative IPC: 0.459228 (Simulation time: 3 hr 48 min 52 sec) 
Heartbeat CPU 2 instructions: 830000001 cycles: 1655642521 heartbeat IPC: 0.459782 cumulative IPC: 0.413763 (Simulation time: 3 hr 49 min 22 sec) 
Heartbeat CPU 1 instructions: 1460000000 cycles: 1659981328 heartbeat IPC: 0.876561 cumulative IPC: 0.790259 (Simulation time: 3 hr 49 min 55 sec) 
Heartbeat CPU 0 instructions: 780000000 cycles: 1670604515 heartbeat IPC: 0.30907 cumulative IPC: 0.317833 (Simulation time: 3 hr 51 min 26 sec) 
Heartbeat CPU 1 instructions: 1470000000 cycles: 1671690270 heartbeat IPC: 0.854048 cumulative IPC: 0.790744 (Simulation time: 3 hr 51 min 35 sec) 
Heartbeat CPU 3 instructions: 920000000 cycles: 1673015051 heartbeat IPC: 0.465812 cumulative IPC: 0.459319 (Simulation time: 3 hr 51 min 45 sec) 
Heartbeat CPU 2 instructions: 840000000 cycles: 1677353317 heartbeat IPC: 0.4606 cumulative IPC: 0.414422 (Simulation time: 3 hr 52 min 18 sec) 
Heartbeat CPU 1 instructions: 1480000000 cycles: 1685330238 heartbeat IPC: 0.73314 cumulative IPC: 0.790238 (Simulation time: 3 hr 53 min 37 sec) 
Heartbeat CPU 3 instructions: 930000003 cycles: 1693520685 heartbeat IPC: 0.487671 cumulative IPC: 0.459692 (Simulation time: 3 hr 54 min 38 sec) 
Heartbeat CPU 0 instructions: 790000001 cycles: 1698902168 heartbeat IPC: 0.353386 cumulative IPC: 0.318476 (Simulation time: 3 hr 55 min 18 sec) 
Heartbeat CPU 2 instructions: 850000001 cycles: 1699040187 heartbeat IPC: 0.461109 cumulative IPC: 0.415068 (Simulation time: 3 hr 55 min 19 sec) 
Heartbeat CPU 1 instructions: 1490000000 cycles: 1699303655 heartbeat IPC: 0.715645 cumulative IPC: 0.789572 (Simulation time: 3 hr 55 min 21 sec) 
Heartbeat CPU 1 instructions: 1500000000 cycles: 1713478380 heartbeat IPC: 0.705481 cumulative IPC: 0.788818 (Simulation time: 3 hr 57 min 3 sec) 
Heartbeat CPU 3 instructions: 940000000 cycles: 1713923979 heartbeat IPC: 0.490117 cumulative IPC: 0.460085 (Simulation time: 3 hr 57 min 6 sec) 
Heartbeat CPU 2 instructions: 860000000 cycles: 1720834782 heartbeat IPC: 0.458829 cumulative IPC: 0.415669 (Simulation time: 3 hr 57 min 55 sec) 
Heartbeat CPU 1 instructions: 1510000000 cycles: 1727833010 heartbeat IPC: 0.696639 cumulative IPC: 0.787989 (Simulation time: 3 hr 58 min 47 sec) 
Heartbeat CPU 3 instructions: 950000003 cycles: 1734029004 heartbeat IPC: 0.497388 cumulative IPC: 0.460553 (Simulation time: 3 hr 59 min 30 sec) 
Heartbeat CPU 0 instructions: 800000000 cycles: 1734227135 heartbeat IPC: 0.283086 cumulative IPC: 0.317695 (Simulation time: 3 hr 59 min 31 sec) 
Heartbeat CPU 1 instructions: 1520000000 cycles: 1742077627 heartbeat IPC: 0.70202 cumulative IPC: 0.787228 (Simulation time: 4 hr 0 min 27 sec) 
Heartbeat CPU 2 instructions: 870000002 cycles: 1744747336 heartbeat IPC: 0.41819 cumulative IPC: 0.415706 (Simulation time: 4 hr 0 min 46 sec) 
Heartbeat CPU 3 instructions: 960000000 cycles: 1753852028 heartbeat IPC: 0.504464 cumulative IPC: 0.46109 (Simulation time: 4 hr 1 min 50 sec) 
Heartbeat CPU 1 instructions: 1530000001 cycles: 1756308528 heartbeat IPC: 0.702696 cumulative IPC: 0.786486 (Simulation time: 4 hr 2 min 7 sec) 
Heartbeat CPU 0 instructions: 810000001 cycles: 1766734671 heartbeat IPC: 0.307621 cumulative IPC: 0.317494 (Simulation time: 4 hr 3 min 24 sec) 
Heartbeat CPU 1 instructions: 1540000000 cycles: 1768519386 heartbeat IPC: 0.818943 cumulative IPC: 0.786729 (Simulation time: 4 hr 3 min 38 sec) 
Heartbeat CPU 2 instructions: 880000000 cycles: 1769953699 heartbeat IPC: 0.396725 cumulative IPC: 0.415414 (Simulation time: 4 hr 3 min 49 sec) 
Heartbeat CPU 3 instructions: 970000000 cycles: 1773492687 heartbeat IPC: 0.509148 cumulative IPC: 0.461665 (Simulation time: 4 hr 4 min 14 sec) 
Heartbeat CPU 1 instructions: 1550000003 cycles: 1780707658 heartbeat IPC: 0.820461 cumulative IPC: 0.786978 (Simulation time: 4 hr 5 min 7 sec) 
Heartbeat CPU 1 instructions: 1560000000 cycles: 1792611068 heartbeat IPC: 0.840095 cumulative IPC: 0.787359 (Simulation time: 4 hr 6 min 42 sec) 
Heartbeat CPU 2 instructions: 890000001 cycles: 1794456972 heartbeat IPC: 0.408109 cumulative IPC: 0.415306 (Simulation time: 4 hr 6 min 56 sec) 
Heartbeat CPU 3 instructions: 980000000 cycles: 1794970629 heartbeat IPC: 0.465594 cumulative IPC: 0.461716 (Simulation time: 4 hr 6 min 59 sec) 
Heartbeat CPU 0 instructions: 820000000 cycles: 1799226383 heartbeat IPC: 0.307771 cumulative IPC: 0.317305 (Simulation time: 4 hr 7 min 30 sec) 
Heartbeat CPU 1 instructions: 1570000003 cycles: 1805252956 heartbeat IPC: 0.791021 cumulative IPC: 0.787387 (Simulation time: 4 hr 8 min 12 sec) 
Heartbeat CPU 3 instructions: 990000000 cycles: 1816912363 heartbeat IPC: 0.455752 cumulative IPC: 0.461639 (Simulation time: 4 hr 9 min 38 sec) 
Heartbeat CPU 1 instructions: 1580000000 cycles: 1817916057 heartbeat IPC: 0.789696 cumulative IPC: 0.787404 (Simulation time: 4 hr 9 min 45 sec) 
Heartbeat CPU 2 instructions: 900000000 cycles: 1819088791 heartbeat IPC: 0.405979 cumulative IPC: 0.41517 (Simulation time: 4 hr 9 min 54 sec) 
Heartbeat CPU 0 instructions: 830000001 cycles: 1828534192 heartbeat IPC: 0.341206 cumulative IPC: 0.317718 (Simulation time: 4 hr 11 min 4 sec) 
Heartbeat CPU 1 instructions: 1590000002 cycles: 1830230393 heartbeat IPC: 0.812062 cumulative IPC: 0.787583 (Simulation time: 4 hr 11 min 16 sec) 
Heartbeat CPU 3 instructions: 1000000000 cycles: 1837672810 heartbeat IPC: 0.481685 cumulative IPC: 0.461883 (Simulation time: 4 hr 12 min 13 sec) 
Heartbeat CPU 1 instructions: 1600000000 cycles: 1842941497 heartbeat IPC: 0.786714 cumulative IPC: 0.787577 (Simulation time: 4 hr 12 min 52 sec) 
Heartbeat CPU 2 instructions: 910000001 cycles: 1843681881 heartbeat IPC: 0.406618 cumulative IPC: 0.415047 (Simulation time: 4 hr 12 min 58 sec) 
Heartbeat CPU 1 instructions: 1610000002 cycles: 1855628712 heartbeat IPC: 0.788195 cumulative IPC: 0.787581 (Simulation time: 4 hr 14 min 26 sec) 
Heartbeat CPU 0 instructions: 840000000 cycles: 1856097160 heartbeat IPC: 0.362806 cumulative IPC: 0.318439 (Simulation time: 4 hr 14 min 29 sec) 
Heartbeat CPU 3 instructions: 1010000001 cycles: 1858218578 heartbeat IPC: 0.486718 cumulative IPC: 0.462178 (Simulation time: 4 hr 14 min 46 sec) 
Heartbeat CPU 1 instructions: 1620000000 cycles: 1868000281 heartbeat IPC: 0.808305 cumulative IPC: 0.787729 (Simulation time: 4 hr 16 min 0 sec) 
Heartbeat CPU 2 instructions: 920000000 cycles: 1868023437 heartbeat IPC: 0.41082 cumulative IPC: 0.414988 (Simulation time: 4 hr 16 min 1 sec) 
Heartbeat CPU 3 instructions: 1020000000 cycles: 1878154212 heartbeat IPC: 0.501614 cumulative IPC: 0.462629 (Simulation time: 4 hr 17 min 14 sec) 
Heartbeat CPU 1 instructions: 1630000000 cycles: 1880435336 heartbeat IPC: 0.804178 cumulative IPC: 0.787846 (Simulation time: 4 hr 17 min 30 sec) 
Heartbeat CPU 0 instructions: 850000000 cycles: 1887872863 heartbeat IPC: 0.314706 cumulative IPC: 0.318372 (Simulation time: 4 hr 18 min 25 sec) 
Heartbeat CPU 1 instructions: 1640000000 cycles: 1892182380 heartbeat IPC: 0.851278 cumulative IPC: 0.78827 (Simulation time: 4 hr 18 min 57 sec) 
Heartbeat CPU 2 instructions: 930000000 cycles: 1892717914 heartbeat IPC: 0.404949 cumulative IPC: 0.414847 (Simulation time: 4 hr 19 min 1 sec) 
Heartbeat CPU 3 instructions: 1030000001 cycles: 1899732039 heartbeat IPC: 0.463439 cumulative IPC: 0.462639 (Simulation time: 4 hr 19 min 55 sec) 
Heartbeat CPU 1 instructions: 1650000003 cycles: 1903995921 heartbeat IPC: 0.846487 cumulative IPC: 0.788658 (Simulation time: 4 hr 20 min 35 sec) 
Heartbeat CPU 1 instructions: 1660000000 cycles: 1915554600 heartbeat IPC: 0.865151 cumulative IPC: 0.789154 (Simulation time: 4 hr 22 min 2 sec) 
Heartbeat CPU 2 instructions: 940000000 cycles: 1917791715 heartbeat IPC: 0.398823 cumulative IPC: 0.414622 (Simulation time: 4 hr 22 min 19 sec) 
Heartbeat CPU 3 instructions: 1040000000 cycles: 1920098561 heartbeat IPC: 0.491002 cumulative IPC: 0.462962 (Simulation time: 4 hr 22 min 36 sec) 
Heartbeat CPU 0 instructions: 860000000 cycles: 1922550416 heartbeat IPC: 0.288371 cumulative IPC: 0.31779 (Simulation time: 4 hr 22 min 55 sec) 
Heartbeat CPU 1 instructions: 1670000002 cycles: 1927424739 heartbeat IPC: 0.84245 cumulative IPC: 0.789507 (Simulation time: 4 hr 23 min 30 sec) 
Heartbeat CPU 1 instructions: 1680000000 cycles: 1938920448 heartbeat IPC: 0.86989 cumulative IPC: 0.790018 (Simulation time: 4 hr 24 min 54 sec) 
Heartbeat CPU 3 instructions: 1050000001 cycles: 1940362817 heartbeat IPC: 0.49348 cumulative IPC: 0.463304 (Simulation time: 4 hr 25 min 5 sec) 
Heartbeat CPU 2 instructions: 950000000 cycles: 1943033397 heartbeat IPC: 0.39617 cumulative IPC: 0.414364 (Simulation time: 4 hr 25 min 24 sec) 
Heartbeat CPU 1 instructions: 1690000002 cycles: 1952700811 heartbeat IPC: 0.72567 cumulative IPC: 0.789531 (Simulation time: 4 hr 26 min 35 sec) 
Heartbeat CPU 0 instructions: 870000000 cycles: 1955029780 heartbeat IPC: 0.307888 cumulative IPC: 0.317614 (Simulation time: 4 hr 26 min 51 sec) 
Heartbeat CPU 3 instructions: 1060000000 cycles: 1960480431 heartbeat IPC: 0.497077 cumulative IPC: 0.463676 (Simulation time: 4 hr 27 min 32 sec) 
Heartbeat CPU 1 instructions: 1700000000 cycles: 1966399536 heartbeat IPC: 0.729995 cumulative IPC: 0.789086 (Simulation time: 4 hr 28 min 16 sec) 
Heartbeat CPU 2 instructions: 960000000 cycles: 1968226509 heartbeat IPC: 0.396934 cumulative IPC: 0.414125 (Simulation time: 4 hr 28 min 30 sec) 
Heartbeat CPU 0 instructions: 880000000 cycles: 1977556583 heartbeat IPC: 0.443916 cumulative IPC: 0.319156 (Simulation time: 4 hr 29 min 41 sec) 
Heartbeat CPU 1 instructions: 1710000003 cycles: 1980328741 heartbeat IPC: 0.717916 cumulative IPC: 0.78855 (Simulation time: 4 hr 30 min 1 sec) 
Heartbeat CPU 3 instructions: 1070000002 cycles: 1980659690 heartbeat IPC: 0.495558 cumulative IPC: 0.464024 (Simulation time: 4 hr 30 min 3 sec) 
Heartbeat CPU 2 instructions: 970000001 cycles: 1993030802 heartbeat IPC: 0.403156 cumulative IPC: 0.413979 (Simulation time: 4 hr 31 min 29 sec) 
Heartbeat CPU 1 instructions: 1720000000 cycles: 1994237118 heartbeat IPC: 0.718991 cumulative IPC: 0.78803 (Simulation time: 4 hr 31 min 38 sec) 
Heartbeat CPU 3 instructions: 1080000000 cycles: 2000320317 heartbeat IPC: 0.508631 cumulative IPC: 0.464494 (Simulation time: 4 hr 32 min 25 sec) 
Heartbeat CPU 0 instructions: 890000002 cycles: 2003385468 heartbeat IPC: 0.387164 cumulative IPC: 0.320095 (Simulation time: 4 hr 32 min 47 sec) 
Heartbeat CPU 1 instructions: 1730000001 cycles: 2006329641 heartbeat IPC: 0.826957 cumulative IPC: 0.788281 (Simulation time: 4 hr 33 min 7 sec) 
Heartbeat CPU 2 instructions: 980000000 cycles: 2017826554 heartbeat IPC: 0.403295 cumulative IPC: 0.413838 (Simulation time: 4 hr 34 min 29 sec) 
Heartbeat CPU 1 instructions: 1740000000 cycles: 2018195936 heartbeat IPC: 0.842723 cumulative IPC: 0.788624 (Simulation time: 4 hr 34 min 31 sec) 
Heartbeat CPU 3 instructions: 1090000000 cycles: 2020195465 heartbeat IPC: 0.503141 cumulative IPC: 0.464901 (Simulation time: 4 hr 34 min 45 sec) 
Heartbeat CPU 1 instructions: 1750000000 cycles: 2030961240 heartbeat IPC: 0.783373 cumulative IPC: 0.788588 (Simulation time: 4 hr 36 min 5 sec) 
Heartbeat CPU 0 instructions: 900000000 cycles: 2033080175 heartbeat IPC: 0.33676 cumulative IPC: 0.320356 (Simulation time: 4 hr 36 min 21 sec) 
Heartbeat CPU 3 instructions: 1100000000 cycles: 2039776223 heartbeat IPC: 0.510705 cumulative IPC: 0.465371 (Simulation time: 4 hr 37 min 12 sec) 
Heartbeat CPU 2 instructions: 990000001 cycles: 2042418963 heartbeat IPC: 0.40663 cumulative IPC: 0.413745 (Simulation time: 4 hr 37 min 31 sec) 
Heartbeat CPU 1 instructions: 1760000000 cycles: 2043326670 heartbeat IPC: 0.808706 cumulative IPC: 0.788719 (Simulation time: 4 hr 37 min 38 sec) 
Heartbeat CPU 1 instructions: 1770000003 cycles: 2056014791 heartbeat IPC: 0.788139 cumulative IPC: 0.788715 (Simulation time: 4 hr 39 min 11 sec) 
Heartbeat CPU 3 instructions: 1110000001 cycles: 2059371294 heartbeat IPC: 0.510332 cumulative IPC: 0.465829 (Simulation time: 4 hr 39 min 35 sec) 
Heartbeat CPU 0 instructions: 910000002 cycles: 2063278292 heartbeat IPC: 0.331147 cumulative IPC: 0.320525 (Simulation time: 4 hr 40 min 3 sec) 
Heartbeat CPU 2 instructions: 1000000000 cycles: 2066512269 heartbeat IPC: 0.415053 cumulative IPC: 0.413762 (Simulation time: 4 hr 40 min 27 sec) 
Heartbeat CPU 1 instructions: 1780000000 cycles: 2068461060 heartbeat IPC: 0.803453 cumulative IPC: 0.78881 (Simulation time: 4 hr 40 min 41 sec) 
Heartbeat CPU 1 instructions: 1790000003 cycles: 2080889415 heartbeat IPC: 0.804612 cumulative IPC: 0.78891 (Simulation time: 4 hr 42 min 13 sec) 
Heartbeat CPU 3 instructions: 1120000000 cycles: 2082184371 heartbeat IPC: 0.438345 cumulative IPC: 0.465507 (Simulation time: 4 hr 42 min 22 sec) 
Heartbeat CPU 2 instructions: 1010000000 cycles: 2089569200 heartbeat IPC: 0.433709 cumulative IPC: 0.413997 (Simulation time: 4 hr 43 min 17 sec) 
Heartbeat CPU 1 instructions: 1800000000 cycles: 2092997309 heartbeat IPC: 0.825907 cumulative IPC: 0.789139 (Simulation time: 4 hr 43 min 43 sec) 
Heartbeat CPU 0 instructions: 920000000 cycles: 2093556461 heartbeat IPC: 0.330271 cumulative IPC: 0.320675 (Simulation time: 4 hr 43 min 47 sec) 
Heartbeat CPU 3 instructions: 1130000000 cycles: 2104601876 heartbeat IPC: 0.44608 cumulative IPC: 0.465286 (Simulation time: 4 hr 45 min 11 sec) 
Heartbeat CPU 1 instructions: 1810000001 cycles: 2104662267 heartbeat IPC: 0.857269 cumulative IPC: 0.789542 (Simulation time: 4 hr 45 min 12 sec) 
Heartbeat CPU 2 instructions: 1020000000 cycles: 2111810124 heartbeat IPC: 0.449622 cumulative IPC: 0.414397 (Simulation time: 4 hr 46 min 7 sec) 
Heartbeat CPU 1 instructions: 1820000000 cycles: 2116226182 heartbeat IPC: 0.864759 cumulative IPC: 0.789981 (Simulation time: 4 hr 46 min 40 sec) 
Heartbeat CPU 0 instructions: 930000000 cycles: 2124756559 heartbeat IPC: 0.320512 cumulative IPC: 0.320673 (Simulation time: 4 hr 47 min 45 sec) 
Heartbeat CPU 3 instructions: 1140000000 cycles: 2127213279 heartbeat IPC: 0.442255 cumulative IPC: 0.465025 (Simulation time: 4 hr 48 min 4 sec) 
Heartbeat CPU 1 instructions: 1830000000 cycles: 2128712701 heartbeat IPC: 0.800864 cumulative IPC: 0.790049 (Simulation time: 4 hr 48 min 15 sec) 
Heartbeat CPU 2 instructions: 1030000001 cycles: 2133761457 heartbeat IPC: 0.455553 cumulative IPC: 0.414849 (Simulation time: 4 hr 48 min 51 sec) 
Heartbeat CPU 1 instructions: 1840000000 cycles: 2142701351 heartbeat IPC: 0.714865 cumulative IPC: 0.789525 (Simulation time: 4 hr 49 min 54 sec) 
Heartbeat CPU 3 instructions: 1150000000 cycles: 2149777270 heartbeat IPC: 0.443184 cumulative IPC: 0.464781 (Simulation time: 4 hr 50 min 45 sec) 
Heartbeat CPU 2 instructions: 1040000000 cycles: 2155784540 heartbeat IPC: 0.454069 cumulative IPC: 0.415276 (Simulation time: 4 hr 51 min 28 sec) 
Heartbeat CPU 0 instructions: 940000000 cycles: 2156740924 heartbeat IPC: 0.312653 cumulative IPC: 0.320546 (Simulation time: 4 hr 51 min 35 sec) 
Heartbeat CPU 1 instructions: 1850000000 cycles: 2156798601 heartbeat IPC: 0.709358 cumulative IPC: 0.788967 (Simulation time: 4 hr 51 min 35 sec) 
Heartbeat CPU 1 instructions: 1860000000 cycles: 2171160040 heartbeat IPC: 0.696309 cumulative IPC: 0.788314 (Simulation time: 4 hr 53 min 13 sec) 
Heartbeat CPU 3 instructions: 1160000000 cycles: 2171462411 heartbeat IPC: 0.461145 cumulative IPC: 0.464742 (Simulation time: 4 hr 53 min 15 sec) 
Heartbeat CPU 2 instructions: 1050000001 cycles: 2179822869 heartbeat IPC: 0.416002 cumulative IPC: 0.415284 (Simulation time: 4 hr 54 min 11 sec) 
Heartbeat CPU 1 instructions: 1870000000 cycles: 2185354586 heartbeat IPC: 0.704496 cumulative IPC: 0.787734 (Simulation time: 4 hr 54 min 47 sec) 
Heartbeat CPU 0 instructions: 950000001 cycles: 2190437702 heartbeat IPC: 0.296764 cumulative IPC: 0.320156 (Simulation time: 4 hr 55 min 22 sec) 
Heartbeat CPU 3 instructions: 1170000001 cycles: 2193400607 heartbeat IPC: 0.455826 cumulative IPC: 0.464647 (Simulation time: 4 hr 55 min 42 sec) 
Heartbeat CPU 1 instructions: 1880000000 cycles: 2198143761 heartbeat IPC: 0.781911 cumulative IPC: 0.787698 (Simulation time: 4 hr 56 min 14 sec) 
Heartbeat CPU 2 instructions: 1060000000 cycles: 2204162740 heartbeat IPC: 0.410848 cumulative IPC: 0.415232 (Simulation time: 4 hr 56 min 55 sec) 
Heartbeat CPU 1 instructions: 1890000001 cycles: 2211350566 heartbeat IPC: 0.757185 cumulative IPC: 0.787504 (Simulation time: 4 hr 57 min 44 sec) 
Heartbeat CPU 3 instructions: 1180000000 cycles: 2215447451 heartbeat IPC: 0.45358 cumulative IPC: 0.46453 (Simulation time: 4 hr 58 min 12 sec) 
Heartbeat CPU 1 instructions: 1900000000 cycles: 2225432896 heartbeat IPC: 0.71011 cumulative IPC: 0.786983 (Simulation time: 4 hr 59 min 18 sec) 
Heartbeat CPU 0 instructions: 960000000 cycles: 2225570900 heartbeat IPC: 0.284631 cumulative IPC: 0.31956 (Simulation time: 4 hr 59 min 19 sec) 
Heartbeat CPU 2 instructions: 1070000000 cycles: 2229025133 heartbeat IPC: 0.402214 cumulative IPC: 0.415078 (Simulation time: 4 hr 59 min 41 sec) 
Heartbeat CPU 3 instructions: 1190000003 cycles: 2235516461 heartbeat IPC: 0.498281 cumulative IPC: 0.464852 (Simulation time: 5 hr 0 min 25 sec) 
Heartbeat CPU 1 instructions: 1910000001 cycles: 2239671205 heartbeat IPC: 0.702331 cumulative IPC: 0.786411 (Simulation time: 5 hr 0 min 53 sec) 
Heartbeat CPU 2 instructions: 1080000000 cycles: 2253256334 heartbeat IPC: 0.412691 cumulative IPC: 0.415051 (Simulation time: 5 hr 2 min 26 sec) 
Heartbeat CPU 1 instructions: 1920000000 cycles: 2253898399 heartbeat IPC: 0.702879 cumulative IPC: 0.785851 (Simulation time: 5 hr 2 min 31 sec) 
Heartbeat CPU 3 instructions: 1200000000 cycles: 2255844588 heartbeat IPC: 0.491929 cumulative IPC: 0.465111 (Simulation time: 5 hr 2 min 45 sec) 
Heartbeat CPU 0 instructions: 970000000 cycles: 2257224640 heartbeat IPC: 0.315918 cumulative IPC: 0.319506 (Simulation time: 5 hr 2 min 55 sec) 
Heartbeat CPU 1 instructions: 1930000000 cycles: 2268411068 heartbeat IPC: 0.689053 cumulative IPC: 0.785193 (Simulation time: 5 hr 4 min 15 sec) 
Heartbeat CPU 2 instructions: 1090000001 cycles: 2275893491 heartbeat IPC: 0.441752 cumulative IPC: 0.415333 (Simulation time: 5 hr 5 min 6 sec) 
Heartbeat CPU 3 instructions: 1210000000 cycles: 2276253304 heartbeat IPC: 0.489987 cumulative IPC: 0.465348 (Simulation time: 5 hr 5 min 8 sec) 
Finished CPU 3 instructions: 1000000003 cycles: 2148539156 cumulative IPC: 0.465433 (Simulation time: 5 hr 5 min 44 sec) 
Heartbeat CPU 1 instructions: 1940000000 cycles: 2282734654 heartbeat IPC: 0.698149 cumulative IPC: 0.784613 (Simulation time: 5 hr 5 min 52 sec) 
Heartbeat CPU 0 instructions: 980000000 cycles: 2286033957 heartbeat IPC: 0.34711 cumulative IPC: 0.319875 (Simulation time: 5 hr 6 min 14 sec) 
Heartbeat CPU 3 instructions: 1220000000 cycles: 2296374752 heartbeat IPC: 0.496982 cumulative IPC: 0.465642 (Simulation time: 5 hr 7 min 25 sec) 
Heartbeat CPU 1 instructions: 1950000001 cycles: 2296859025 heartbeat IPC: 0.707996 cumulative IPC: 0.784113 (Simulation time: 5 hr 7 min 28 sec) 
Heartbeat CPU 2 instructions: 1100000000 cycles: 2300387264 heartbeat IPC: 0.408267 cumulative IPC: 0.415253 (Simulation time: 5 hr 7 min 52 sec) 
Heartbeat CPU 1 instructions: 1960000000 cycles: 2310102705 heartbeat IPC: 0.755077 cumulative IPC: 0.783936 (Simulation time: 5 hr 9 min 0 sec) 
Heartbeat CPU 3 instructions: 1230000000 cycles: 2316107499 heartbeat IPC: 0.506772 cumulative IPC: 0.466014 (Simulation time: 5 hr 9 min 41 sec) 
Heartbeat CPU 0 instructions: 990000000 cycles: 2320082721 heartbeat IPC: 0.293696 cumulative IPC: 0.319467 (Simulation time: 5 hr 10 min 7 sec) 
Heartbeat CPU 1 instructions: 1970000003 cycles: 2322494945 heartbeat IPC: 0.806957 cumulative IPC: 0.784067 (Simulation time: 5 hr 10 min 23 sec) 
Heartbeat CPU 2 instructions: 1110000002 cycles: 2324987599 heartbeat IPC: 0.406499 cumulative IPC: 0.415155 (Simulation time: 5 hr 10 min 40 sec) 
Heartbeat CPU 1 instructions: 1980000000 cycles: 2335139814 heartbeat IPC: 0.790834 cumulative IPC: 0.784106 (Simulation time: 5 hr 11 min 50 sec) 
Heartbeat CPU 3 instructions: 1240000000 cycles: 2338756819 heartbeat IPC: 0.441514 cumulative IPC: 0.465763 (Simulation time: 5 hr 12 min 14 sec) 
Heartbeat CPU 2 instructions: 1120000000 cycles: 2348933622 heartbeat IPC: 0.417606 cumulative IPC: 0.415181 (Simulation time: 5 hr 13 min 24 sec) 
Heartbeat CPU 1 instructions: 1990000001 cycles: 2349388676 heartbeat IPC: 0.70181 cumulative IPC: 0.783576 (Simulation time: 5 hr 13 min 27 sec) 
Heartbeat CPU 0 instructions: 1000000000 cycles: 2350333857 heartbeat IPC: 0.330566 cumulative IPC: 0.319619 (Simulation time: 5 hr 13 min 34 sec) 
Heartbeat CPU 3 instructions: 1250000003 cycles: 2359384953 heartbeat IPC: 0.484775 cumulative IPC: 0.465939 (Simulation time: 5 hr 14 min 42 sec) 
*** Reached end of trace for Core: 1 Repeating trace: /scratch/user/djimenez/champsim-traces/speccpu2006/xz//416.gamess-875B.champsimtrace.xz
Heartbeat CPU 1 instructions: 2000000000 cycles: 2363569174 heartbeat IPC: 0.705194 cumulative IPC: 0.783078 (Simulation time: 5 hr 15 min 12 sec) 
[...]
Heartbeat CPU 3 instructions: 1590000001 cycles: 3050232632 heartbeat IPC: 0.473458 cumulative IPC: 0.472146 (Simulation time: 6 hr 34 min 43 sec) 
Heartbeat CPU 1 instructions: 2550000001 cycles: 3050395108 heartbeat IPC: 0.70959 cumulative IPC: 0.787247 (Simulation time: 6 hr 34 min 44 sec) 
Heartbeat CPU 2 instructions: 1410000001 cycles: 3053834724 heartbeat IPC: 0.389958 cumulative IPC: 0.41427 (Simulation time: 6 hr 35 min 8 sec) 
Heartbeat CPU 1 instructions: 2560000000 cycles: 3064419338 heartbeat IPC: 0.713052 cumulative IPC: 0.786892 (Simulation time: 6 hr 36 min 18 sec) 
Heartbeat CPU 3 instructions: 1600000000 cycles: 3069325069 heartbeat IPC: 0.523768 cumulative IPC: 0.472481 (Simulation time: 6 hr 36 min 51 sec) 
Heartbeat CPU 1 instructions: 2570000001 cycles: 3076303824 heartbeat IPC: 0.841433 cumulative IPC: 0.787112 (Simulation time: 6 hr 37 min 40 sec) 
Heartbeat CPU 2 instructions: 1420000000 cycles: 3079479396 heartbeat IPC: 0.389944 cumulative IPC: 0.414058 (Simulation time: 6 hr 38 min 3 sec) 
Heartbeat CPU 0 instructions: 1240000000 cycles: 3080476799 heartbeat IPC: 0.321665 cumulative IPC: 0.321869 (Simulation time: 6 hr 38 min 10 sec) 
Heartbeat CPU 1 instructions: 2580000000 cycles: 3087707686 heartbeat IPC: 0.876896 cumulative IPC: 0.787459 (Simulation time: 6 hr 39 min 1 sec) 
Heartbeat CPU 3 instructions: 1610000001 cycles: 3088204684 heartbeat IPC: 0.529672 cumulative IPC: 0.472847 (Simulation time: 6 hr 39 min 4 sec) 
Heartbeat CPU 1 instructions: 2590000003 cycles: 3100111667 heartbeat IPC: 0.806193 cumulative IPC: 0.787537 (Simulation time: 6 hr 40 min 26 sec) 
Heartbeat CPU 2 instructions: 1430000003 cycles: 3105260123 heartbeat IPC: 0.387887 cumulative IPC: 0.413831 (Simulation time: 6 hr 41 min 3 sec) 
Heartbeat CPU 3 instructions: 1620000000 cycles: 3107062172 heartbeat IPC: 0.530293 cumulative IPC: 0.473211 (Simulation time: 6 hr 41 min 16 sec) 
Heartbeat CPU 0 instructions: 1250000003 cycles: 3110084712 heartbeat IPC: 0.337748 cumulative IPC: 0.322027 (Simulation time: 6 hr 41 min 38 sec) 
Heartbeat CPU 1 instructions: 2600000000 cycles: 3112373926 heartbeat IPC: 0.81551 cumulative IPC: 0.787652 (Simulation time: 6 hr 41 min 54 sec) 
Heartbeat CPU 1 instructions: 2610000001 cycles: 3124427767 heartbeat IPC: 0.829611 cumulative IPC: 0.787821 (Simulation time: 6 hr 43 min 21 sec) 
Heartbeat CPU 3 instructions: 1630000001 cycles: 3126463444 heartbeat IPC: 0.51543 cumulative IPC: 0.473485 (Simulation time: 6 hr 43 min 35 sec) 
Heartbeat CPU 2 instructions: 1440000000 cycles: 3131098294 heartbeat IPC: 0.387024 cumulative IPC: 0.4136 (Simulation time: 6 hr 44 min 6 sec) 
Heartbeat CPU 1 instructions: 2620000000 cycles: 3136831765 heartbeat IPC: 0.806192 cumulative IPC: 0.787897 (Simulation time: 6 hr 44 min 44 sec) 
Heartbeat CPU 0 instructions: 1260000000 cycles: 3138832260 heartbeat IPC: 0.347856 cumulative IPC: 0.322274 (Simulation time: 6 hr 44 min 58 sec) 
Heartbeat CPU 3 instructions: 1640000000 cycles: 3145533733 heartbeat IPC: 0.524376 cumulative IPC: 0.473807 (Simulation time: 6 hr 45 min 43 sec) 
Heartbeat CPU 1 instructions: 2630000002 cycles: 3148926123 heartbeat IPC: 0.826832 cumulative IPC: 0.788053 (Simulation time: 6 hr 46 min 7 sec) 
Heartbeat CPU 2 instructions: 1450000000 cycles: 3156996067 heartbeat IPC: 0.386134 cumulative IPC: 0.413365 (Simulation time: 6 hr 47 min 2 sec) 
Heartbeat CPU 1 instructions: 2640000000 cycles: 3161070024 heartbeat IPC: 0.823458 cumulative IPC: 0.788195 (Simulation time: 6 hr 47 min 32 sec) 
Heartbeat CPU 3 instructions: 1650000000 cycles: 3164467430 heartbeat IPC: 0.528159 cumulative IPC: 0.474146 (Simulation time: 6 hr 47 min 54 sec) 
Heartbeat CPU 0 instructions: 1270000002 cycles: 3167879047 heartbeat IPC: 0.344272 cumulative IPC: 0.322485 (Simulation time: 6 hr 48 min 18 sec) 
Heartbeat CPU 1 instructions: 2650000000 cycles: 3173342341 heartbeat IPC: 0.814842 cumulative IPC: 0.788303 (Simulation time: 6 hr 48 min 54 sec) 
Heartbeat CPU 2 instructions: 1460000000 cycles: 3182926716 heartbeat IPC: 0.385644 cumulative IPC: 0.413129 (Simulation time: 6 hr 49 min 57 sec) 
Heartbeat CPU 3 instructions: 1660000000 cycles: 3183808422 heartbeat IPC: 0.517037 cumulative IPC: 0.474418 (Simulation time: 6 hr 50 min 4 sec) 
Heartbeat CPU 1 instructions: 2660000000 cycles: 3185095169 heartbeat IPC: 0.850859 cumulative IPC: 0.788544 (Simulation time: 6 hr 50 min 13 sec) 
Heartbeat CPU 1 instructions: 2670000000 cycles: 3196775602 heartbeat IPC: 0.856133 cumulative IPC: 0.788801 (Simulation time: 6 hr 51 min 36 sec) 
Heartbeat CPU 0 instructions: 1280000000 cycles: 3200199966 heartbeat IPC: 0.309397 cumulative IPC: 0.322347 (Simulation time: 6 hr 52 min 0 sec) 
Heartbeat CPU 3 instructions: 1670000000 cycles: 3202811156 heartbeat IPC: 0.52624 cumulative IPC: 0.474739 (Simulation time: 6 hr 52 min 18 sec) 
Heartbeat CPU 1 instructions: 2680000000 cycles: 3207930919 heartbeat IPC: 0.896434 cumulative IPC: 0.789192 (Simulation time: 6 hr 52 min 52 sec) 
Heartbeat CPU 2 instructions: 1470000000 cycles: 3208977188 heartbeat IPC: 0.38387 cumulative IPC: 0.412881 (Simulation time: 6 hr 53 min 0 sec) 
Heartbeat CPU 1 instructions: 2690000001 cycles: 3219392374 heartbeat IPC: 0.87249 cumulative IPC: 0.789501 (Simulation time: 6 hr 54 min 12 sec) 
Heartbeat CPU 3 instructions: 1680000000 cycles: 3222343209 heartbeat IPC: 0.511979 cumulative IPC: 0.474975 (Simulation time: 6 hr 54 min 32 sec) 
Heartbeat CPU 1 instructions: 2700000000 cycles: 3230951345 heartbeat IPC: 0.865129 cumulative IPC: 0.789783 (Simulation time: 6 hr 55 min 29 sec) 
Heartbeat CPU 2 instructions: 1480000000 cycles: 3234899880 heartbeat IPC: 0.385762 cumulative IPC: 0.412655 (Simulation time: 6 hr 55 min 56 sec) 
Heartbeat CPU 0 instructions: 1290000000 cycles: 3236372073 heartbeat IPC: 0.276456 cumulative IPC: 0.321812 (Simulation time: 6 hr 56 min 6 sec) 
Finished CPU 0 instructions: 1000000001 cycles: 3107071439 cumulative IPC: 0.321846 (Simulation time: 6 hr 56 min 31 sec) 

CPU 0 Branch Prediction Accuracy: 99.1486% MPKI: 2.01571

CPU 1 Branch Prediction Accuracy: 97.0177% MPKI: 2.70509

CPU 2 Branch Prediction Accuracy: 95.872% MPKI: 4.21171

CPU 3 Branch Prediction Accuracy: 86.0344% MPKI: 22.4592

ChampSim completed all CPUs

Total Simulation Statistics (not including warmup)

CPU 0 cumulative IPC: 0.321846 instructions: 1000000001 cycles: 3107071439
L1D TOTAL     ACCESS:  204742844  HIT:  176677527  MISS:   28065317
L1D LOAD      ACCESS:  170786738  HIT:  142914075  MISS:   27872663
L1D RFO       ACCESS:   33956106  HIT:   33763452  MISS:     192654
L1D PREFETCH  ACCESS:          0  HIT:          0  MISS:          0
L1D WRITEBACK ACCESS:          0  HIT:          0  MISS:          0
L1I TOTAL     ACCESS:  330204486  HIT:  328863122  MISS:    1341364
L1I LOAD      ACCESS:  330204486  HIT:  328863122  MISS:    1341364
L1I RFO       ACCESS:          0  HIT:          0  MISS:          0
L1I PREFETCH  ACCESS:          0  HIT:          0  MISS:          0
L1I WRITEBACK ACCESS:          0  HIT:          0  MISS:          0
L2C TOTAL     ACCESS:   32150059  HIT:    4162875  MISS:   27987184
L2C LOAD      ACCESS:   29214001  HIT:    1364222  MISS:   27849779
L2C RFO       ACCESS:     192644  HIT:      84808  MISS:     107836
L2C PREFETCH  ACCESS:    2281289  HIT:    2256989  MISS:      24300
L2C WRITEBACK ACCESS:     462125  HIT:     456856  MISS:       5269
LLC TOTAL     ACCESS:   39789992  HIT:   17113940  MISS:   22676052
LLC LOAD      ACCESS:   27842101  HIT:   11992609  MISS:   15849492
LLC RFO       ACCESS:     107836  HIT:      42447  MISS:      65389
LLC PREFETCH  ACCESS:   11631658  HIT:    4871331  MISS:    6760327
LLC WRITEBACK ACCESS:     208397  HIT:     207553  MISS:        844

CPU 1 cumulative IPC: 0.789633 instructions: 2453447571 cycles: 3107071439
L1D TOTAL     ACCESS:  839145338  HIT:  831621400  MISS:    7523938
L1D LOAD      ACCESS:  536292268  HIT:  530903105  MISS:    5389163
L1D RFO       ACCESS:  302853070  HIT:  300718295  MISS:    2134775
L1D PREFETCH  ACCESS:          0  HIT:          0  MISS:          0
L1D WRITEBACK ACCESS:          0  HIT:          0  MISS:          0
L1I TOTAL     ACCESS:  625922704  HIT:  624724101  MISS:    1198603
L1I LOAD      ACCESS:  625922704  HIT:  624724101  MISS:    1198603
L1I RFO       ACCESS:          0  HIT:          0  MISS:          0
L1I PREFETCH  ACCESS:          0  HIT:          0  MISS:          0
L1I WRITEBACK ACCESS:          0  HIT:          0  MISS:          0
L2C TOTAL     ACCESS:   14393426  HIT:   14207668  MISS:     185758
L2C LOAD      ACCESS:    6587359  HIT:    6406662  MISS:     180697
L2C RFO       ACCESS:    2119513  HIT:    2116013  MISS:       3500
L2C PREFETCH  ACCESS:    3148815  HIT:    3148204  MISS:        611
L2C WRITEBACK ACCESS:    2537739  HIT:    2536789  MISS:        950
LLC TOTAL     ACCESS:     912374  HIT:     690881  MISS:     221493
LLC LOAD      ACCESS:     180672  HIT:     110007  MISS:      70665
LLC RFO       ACCESS:       3500  HIT:       1858  MISS:       1642
LLC PREFETCH  ACCESS:     658038  HIT:     548506  MISS:     109532
LLC WRITEBACK ACCESS:      70164  HIT:      30510  MISS:      39654

CPU 2 cumulative IPC: 0.412618 instructions: 1282033940 cycles: 3107071439
L1D TOTAL     ACCESS:  481962337  HIT:  462780750  MISS:   19181587
L1D LOAD      ACCESS:  298592642  HIT:  281845434  MISS:   16747208
L1D RFO       ACCESS:  183369695  HIT:  180935316  MISS:    2434379
L1D PREFETCH  ACCESS:          0  HIT:          0  MISS:          0
L1D WRITEBACK ACCESS:          0  HIT:          0  MISS:          0
L1I TOTAL     ACCESS:  384606529  HIT:  381140853  MISS:    3465676
L1I LOAD      ACCESS:  384606529  HIT:  381140853  MISS:    3465676
L1I RFO       ACCESS:          0  HIT:          0  MISS:          0
L1I PREFETCH  ACCESS:          0  HIT:          0  MISS:          0
L1I WRITEBACK ACCESS:          0  HIT:          0  MISS:          0
L2C TOTAL     ACCESS:   36126539  HIT:   36086338  MISS:      40201
L2C LOAD      ACCESS:   20212788  HIT:   20176108  MISS:      36680
L2C RFO       ACCESS:    2434243  HIT:    2431029  MISS:       3214
L2C PREFETCH  ACCESS:   10273504  HIT:   10273223  MISS:        281
L2C WRITEBACK ACCESS:    3206004  HIT:    3205978  MISS:         26
LLC TOTAL     ACCESS:    2347671  HIT:    2233399  MISS:     114272
LLC LOAD      ACCESS:      36572  HIT:      13300  MISS:      23272
LLC RFO       ACCESS:       3214  HIT:       1460  MISS:       1754
LLC PREFETCH  ACCESS:    2302812  HIT:    2217068  MISS:      85744
LLC WRITEBACK ACCESS:       5073  HIT:       1571  MISS:       3502

CPU 3 cumulative IPC: 0.475239 instructions: 1476602719 cycles: 3107071440
L1D TOTAL     ACCESS:  478382727  HIT:  472984437  MISS:    5398290
L1D LOAD      ACCESS:  270150973  HIT:  267115983  MISS:    3034990
L1D RFO       ACCESS:  208231754  HIT:  205868454  MISS:    2363300
L1D PREFETCH  ACCESS:          0  HIT:          0  MISS:          0
L1D WRITEBACK ACCESS:          0  HIT:          0  MISS:          0
L1I TOTAL     ACCESS:  339148751  HIT:  334592883  MISS:    4555868
L1I LOAD      ACCESS:  339148751  HIT:  334592883  MISS:    4555868
L1I RFO       ACCESS:          0  HIT:          0  MISS:          0
L1I PREFETCH  ACCESS:          0  HIT:          0  MISS:          0
L1I WRITEBACK ACCESS:          0  HIT:          0  MISS:          0
L2C TOTAL     ACCESS:   17511451  HIT:   15518745  MISS:    1992706
L2C LOAD      ACCESS:    7590821  HIT:    6199284  MISS:    1391537
L2C RFO       ACCESS:    2363238  HIT:    1886009  MISS:     477229
L2C PREFETCH  ACCESS:    4399365  HIT:    4281788  MISS:     117577
L2C WRITEBACK ACCESS:    3158027  HIT:    3151664  MISS:       6363
LLC TOTAL     ACCESS:    5270134  HIT:    4279750  MISS:     990384
LLC LOAD      ACCESS:    1356355  HIT:     977161  MISS:     379194
LLC RFO       ACCESS:     477227  HIT:     339177  MISS:     138050
LLC PREFETCH  ACCESS:    2572100  HIT:    2174164  MISS:     397936
LLC WRITEBACK ACCESS:     864452  HIT:     789248  MISS:      75204

Region of Interest Statistics

CPU 0 cumulative IPC: 0.321846 instructions: 1000000001 cycles: 3107071439
L1D TOTAL     ACCESS:  204742844  HIT:  176677527  MISS:   28065317
L1D LOAD      ACCESS:  170786738  HIT:  142914075  MISS:   27872663
L1D RFO       ACCESS:   33956106  HIT:   33763452  MISS:     192654
L1D PREFETCH  ACCESS:          0  HIT:          0  MISS:          0
L1D WRITEBACK ACCESS:          0  HIT:          0  MISS:          0
L1D PREFETCH  REQUESTED:          0  ISSUED:          0  USEFUL:          0  USELESS:          0
L1I TOTAL     ACCESS:  330204486  HIT:  328863122  MISS:    1341364
L1I LOAD      ACCESS:  330204486  HIT:  328863122  MISS:    1341364
L1I RFO       ACCESS:          0  HIT:          0  MISS:          0
L1I PREFETCH  ACCESS:          0  HIT:          0  MISS:          0
L1I WRITEBACK ACCESS:          0  HIT:          0  MISS:          0
L1I PREFETCH  REQUESTED:          0  ISSUED:          0  USEFUL:          0  USELESS:          0
L2C TOTAL     ACCESS:   32150059  HIT:    4162875  MISS:   27987184
L2C LOAD      ACCESS:   29214001  HIT:    1364222  MISS:   27849779
L2C RFO       ACCESS:     192644  HIT:      84808  MISS:     107836
L2C PREFETCH  ACCESS:    2281289  HIT:    2256989  MISS:      24300
L2C WRITEBACK ACCESS:     462125  HIT:     456856  MISS:       5269
L2C PREFETCH  REQUESTED:   21603824  ISSUED:   21601172  USEFUL:      31171  USELESS:       7931
LLC TOTAL     ACCESS:   39789992  HIT:   17113940  MISS:   22676052
LLC LOAD      ACCESS:   27842101  HIT:   11992609  MISS:   15849492
LLC RFO       ACCESS:     107836  HIT:      42447  MISS:      65389
LLC PREFETCH  ACCESS:   11631658  HIT:    4871331  MISS:    6760327
LLC WRITEBACK ACCESS:     208397  HIT:     207553  MISS:        844
LLC PREFETCH  REQUESTED:          0  ISSUED:          0  USEFUL:    4749638  USELESS:    4913296
Major fault: 0 Minor fault: 28166

CPU 1 cumulative IPC: 0.789201 instructions: 1000000003 cycles: 1267104547
L1D TOTAL     ACCESS:  340698013  HIT:  337731332  MISS:    2966681
L1D LOAD      ACCESS:  218217691  HIT:  216075184  MISS:    2142507
L1D RFO       ACCESS:  122480322  HIT:  121656148  MISS:     824174
L1D PREFETCH  ACCESS:          0  HIT:          0  MISS:          0
L1D WRITEBACK ACCESS:          0  HIT:          0  MISS:          0
L1D PREFETCH  REQUESTED:          0  ISSUED:          0  USEFUL:          0  USELESS:          0
L1I TOTAL     ACCESS:  255440672  HIT:  254973064  MISS:     467608
L1I LOAD      ACCESS:  255440672  HIT:  254973064  MISS:     467608
L1I RFO       ACCESS:          0  HIT:          0  MISS:          0
L1I PREFETCH  ACCESS:          0  HIT:          0  MISS:          0
L1I WRITEBACK ACCESS:          0  HIT:          0  MISS:          0
L1I PREFETCH  REQUESTED:          0  ISSUED:          0  USEFUL:          0  USELESS:          0
L2C TOTAL     ACCESS:    5684166  HIT:    5611726  MISS:      72440
L2C LOAD      ACCESS:    2609982  HIT:    2539609  MISS:      70373
L2C RFO       ACCESS:     818581  HIT:     817137  MISS:       1444
L2C PREFETCH  ACCESS:    1274854  HIT:    1274559  MISS:        295
L2C WRITEBACK ACCESS:     980749  HIT:     980421  MISS:        328
L2C PREFETCH  REQUESTED:    4332079  ISSUED:    4332069  USEFUL:        520  USELESS:        138
LLC TOTAL     ACCESS:     369520  HIT:     278506  MISS:      91014
LLC LOAD      ACCESS:      70363  HIT:      41377  MISS:      28986
LLC RFO       ACCESS:       1444  HIT:        802  MISS:        642
LLC PREFETCH  ACCESS:     270800  HIT:     225710  MISS:      45090
LLC WRITEBACK ACCESS:      26913  HIT:      10617  MISS:      16296
LLC PREFETCH  REQUESTED:          0  ISSUED:          0  USEFUL:    4749638  USELESS:    4913296
Major fault: 0 Minor fault: 232

CPU 2 cumulative IPC: 0.415509 instructions: 1000000000 cycles: 2406688575
L1D TOTAL     ACCESS:  374623486  HIT:  359711962  MISS:   14911524
L1D LOAD      ACCESS:  232138579  HIT:  219149121  MISS:   12989458
L1D RFO       ACCESS:  142484907  HIT:  140562841  MISS:    1922066
L1D PREFETCH  ACCESS:          0  HIT:          0  MISS:          0
L1D WRITEBACK ACCESS:          0  HIT:          0  MISS:          0
L1D PREFETCH  REQUESTED:          0  ISSUED:          0  USEFUL:          0  USELESS:          0
L1I TOTAL     ACCESS:  300925572  HIT:  298021707  MISS:    2903865
L1I LOAD      ACCESS:  300925572  HIT:  298021707  MISS:    2903865
L1I RFO       ACCESS:          0  HIT:          0  MISS:          0
L1I PREFETCH  ACCESS:          0  HIT:          0  MISS:          0
L1I WRITEBACK ACCESS:          0  HIT:          0  MISS:          0
L1I PREFETCH  REQUESTED:          0  ISSUED:          0  USEFUL:          0  USELESS:          0
L2C TOTAL     ACCESS:   28515509  HIT:   28480079  MISS:      35430
L2C LOAD      ACCESS:   15893228  HIT:   15860942  MISS:      32286
L2C RFO       ACCESS:    1921955  HIT:    1919076  MISS:       2879
L2C PREFETCH  ACCESS:    8163477  HIT:    8163234  MISS:        243
L2C WRITEBACK ACCESS:    2536849  HIT:    2536827  MISS:         22
L2C PREFETCH  REQUESTED:   15072481  ISSUED:   15072193  USEFUL:        497  USELESS:        235
LLC TOTAL     ACCESS:    1823782  HIT:    1728496  MISS:      95286
LLC LOAD      ACCESS:      32178  HIT:      11997  MISS:      20181
LLC RFO       ACCESS:       2879  HIT:       1327  MISS:       1552
LLC PREFETCH  ACCESS:    1784222  HIT:    1713708  MISS:      70514
LLC WRITEBACK ACCESS:       4503  HIT:       1464  MISS:       3039
LLC PREFETCH  REQUESTED:          0  ISSUED:          0  USEFUL:    4749638  USELESS:    4913296
Major fault: 0 Minor fault: 375

CPU 3 cumulative IPC: 0.465433 instructions: 1000000003 cycles: 2148539156
L1D TOTAL     ACCESS:  315412464  HIT:  311086368  MISS:    4326096
L1D LOAD      ACCESS:  183431695  HIT:  180854628  MISS:    2577067
L1D RFO       ACCESS:  131980769  HIT:  130231740  MISS:    1749029
L1D PREFETCH  ACCESS:          0  HIT:          0  MISS:          0
L1D WRITEBACK ACCESS:          0  HIT:          0  MISS:          0
L1D PREFETCH  REQUESTED:          0  ISSUED:          0  USEFUL:          0  USELESS:          0
L1I TOTAL     ACCESS:  229232928  HIT:  225750105  MISS:    3482823
L1I LOAD      ACCESS:  229232928  HIT:  225750105  MISS:    3482823
L1I RFO       ACCESS:          0  HIT:          0  MISS:          0
L1I PREFETCH  ACCESS:          0  HIT:          0  MISS:          0
L1I WRITEBACK ACCESS:          0  HIT:          0  MISS:          0
L1I PREFETCH  REQUESTED:          0  ISSUED:          0  USEFUL:          0  USELESS:          0
L2C TOTAL     ACCESS:   13890283  HIT:   12021639  MISS:    1868644
L2C LOAD      ACCESS:    6059858  HIT:    4762459  MISS:    1297399
L2C RFO       ACCESS:    1748991  HIT:    1298021  MISS:     450970
L2C PREFETCH  ACCESS:    3690556  HIT:    3575573  MISS:     114983
L2C WRITEBACK ACCESS:    2390878  HIT:    2385586  MISS:       5292
L2C PREFETCH  REQUESTED:   11859166  ISSUED:   11857626  USEFUL:     194725  USELESS:       1384
LLC TOTAL     ACCESS:    4887234  HIT:    4024716  MISS:     862518
LLC LOAD      ACCESS:    1263186  HIT:     936764  MISS:     326422
LLC RFO       ACCESS:     450969  HIT:     321768  MISS:     129201
LLC PREFETCH  ACCESS:    2369710  HIT:    2016730  MISS:     352980
LLC WRITEBACK ACCESS:     803369  HIT:     749454  MISS:      53915
LLC PREFETCH  REQUESTED:          0  ISSUED:          0  USEFUL:    4749638  USELESS:    4913296
Major fault: 0 Minor fault: 4336

DRAM Statistics
 CHANNEL 0
 RQ ROW_BUFFER_HIT:    7121553  ROW_BUFFER_MISS:    4771106
 DBUS_CONGESTED:    5693448
 WQ ROW_BUFFER_HIT:      12032  ROW_BUFFER_MISS:     295256  FULL:          0

 CHANNEL 1
 RQ ROW_BUFFER_HIT:    7191658  ROW_BUFFER_MISS:    4793349
 DBUS_CONGESTED:    5693448
 WQ ROW_BUFFER_HIT:      12027  ROW_BUFFER_MISS:     296141  FULL:          0

 AVG_CONGESTED_CYCLE: 11
