Initialize SIGNATURE TABLE
ST_SET: 1
ST_WAY: 256
ST_TAG_BIT: 16
ST_TAG_MASK: ffff

Initialize PATTERN TABLE
PT_SET: 512
PT_WAY: 4
SIG_DELTA_BIT: 7
C_SIG_BIT: 4
C_DELTA_BIT: 4

Initialize PREFETCH FILTER
FILTER_SET: 1024

*** ChampSim Multicore Out-of-Order Simulator ***

Warmup Instructions: 200000000
Simulation Instructions: 1000000000
Number of CPUs: 4
LLC sets: 8192
LLC ways: 16
Off-chip DRAM Size: 8192 MB Channels: 2 Width: 64-bit Data Rate: 1600 MT/s

CPU 0 runs /scratch/user/djimenez/champsim-traces/speccpu2006/xz//429.mcf-22B.champsimtrace.xz
CPU 1 runs /scratch/user/djimenez/champsim-traces/speccpu2006/xz//482.sphinx3-1100B.champsimtrace.xz
CPU 2 runs /scratch/user/djimenez/champsim-traces/speccpu2006/xz//482.sphinx3-1522B.champsimtrace.xz
CPU 3 runs /scratch/user/djimenez/champsim-traces/speccpu2006/xz//445.gobmk-2B.champsimtrace.xz
Heartbeat CPU 2 instructions: 10000001 cycles: 3801153 heartbeat IPC: 2.63078 cumulative IPC: 2.63078 (Simulation time: 0 hr 1 min 22 sec) 
Heartbeat CPU 1 instructions: 10000000 cycles: 3855728 heartbeat IPC: 2.59354 cumulative IPC: 2.59354 (Simulation time: 0 hr 1 min 23 sec) 
Heartbeat CPU 0 instructions: 10000001 cycles: 5783140 heartbeat IPC: 1.72916 cumulative IPC: 1.72916 (Simulation time: 0 hr 2 min 2 sec) 
Heartbeat CPU 3 instructions: 10000002 cycles: 6284731 heartbeat IPC: 1.59116 cumulative IPC: 1.59116 (Simulation time: 0 hr 2 min 12 sec) 
Heartbeat CPU 1 instructions: 20000000 cycles: 7622522 heartbeat IPC: 2.65478 cumulative IPC: 2.6238 (Simulation time: 0 hr 2 min 38 sec) 
Heartbeat CPU 2 instructions: 20000000 cycles: 7714436 heartbeat IPC: 2.5554 cumulative IPC: 2.59254 (Simulation time: 0 hr 2 min 40 sec) 
Heartbeat CPU 1 instructions: 30000003 cycles: 11391047 heartbeat IPC: 2.65356 cumulative IPC: 2.63365 (Simulation time: 0 hr 3 min 56 sec) 
Heartbeat CPU 2 instructions: 30000001 cycles: 11517804 heartbeat IPC: 2.62925 cumulative IPC: 2.60466 (Simulation time: 0 hr 3 min 58 sec) 
Heartbeat CPU 0 instructions: 20000000 cycles: 11843116 heartbeat IPC: 1.65017 cumulative IPC: 1.68874 (Simulation time: 0 hr 4 min 5 sec) 
Heartbeat CPU 3 instructions: 20000000 cycles: 12439686 heartbeat IPC: 1.62471 cumulative IPC: 1.60776 (Simulation time: 0 hr 4 min 17 sec) 
Heartbeat CPU 1 instructions: 40000000 cycles: 15107932 heartbeat IPC: 2.69042 cumulative IPC: 2.64762 (Simulation time: 0 hr 5 min 13 sec) 
Heartbeat CPU 2 instructions: 40000000 cycles: 15261797 heartbeat IPC: 2.67094 cumulative IPC: 2.62092 (Simulation time: 0 hr 5 min 17 sec) 
Heartbeat CPU 0 instructions: 30000002 cycles: 17587043 heartbeat IPC: 1.74097 cumulative IPC: 1.7058 (Simulation time: 0 hr 6 min 5 sec) 
Heartbeat CPU 3 instructions: 30000001 cycles: 18645468 heartbeat IPC: 1.6114 cumulative IPC: 1.60897 (Simulation time: 0 hr 6 min 28 sec) 
Heartbeat CPU 1 instructions: 50000000 cycles: 18859093 heartbeat IPC: 2.66584 cumulative IPC: 2.65124 (Simulation time: 0 hr 6 min 32 sec) 
Heartbeat CPU 2 instructions: 50000002 cycles: 18963333 heartbeat IPC: 2.70158 cumulative IPC: 2.63667 (Simulation time: 0 hr 6 min 34 sec) 
Heartbeat CPU 1 instructions: 60000000 cycles: 22587464 heartbeat IPC: 2.68214 cumulative IPC: 2.65634 (Simulation time: 0 hr 8 min 29 sec) 
Heartbeat CPU 2 instructions: 60000000 cycles: 22625831 heartbeat IPC: 2.73038 cumulative IPC: 2.65184 (Simulation time: 0 hr 8 min 31 sec) 
Heartbeat CPU 0 instructions: 40000000 cycles: 23333405 heartbeat IPC: 1.74023 cumulative IPC: 1.71428 (Simulation time: 0 hr 9 min 1 sec) 
Heartbeat CPU 3 instructions: 40000000 cycles: 24745494 heartbeat IPC: 1.63934 cumulative IPC: 1.61646 (Simulation time: 0 hr 10 min 5 sec) 
Heartbeat CPU 1 instructions: 70000001 cycles: 26337368 heartbeat IPC: 2.66674 cumulative IPC: 2.65782 (Simulation time: 0 hr 11 min 6 sec) 
Heartbeat CPU 2 instructions: 70000000 cycles: 26467850 heartbeat IPC: 2.6028 cumulative IPC: 2.64472 (Simulation time: 0 hr 11 min 10 sec) 
Heartbeat CPU 0 instructions: 50000002 cycles: 29090278 heartbeat IPC: 1.73705 cumulative IPC: 1.71879 (Simulation time: 0 hr 12 min 4 sec) 
Heartbeat CPU 1 instructions: 80000000 cycles: 30016745 heartbeat IPC: 2.71785 cumulative IPC: 2.66518 (Simulation time: 0 hr 12 min 22 sec) 
Heartbeat CPU 2 instructions: 80000000 cycles: 30145673 heartbeat IPC: 2.719 cumulative IPC: 2.65378 (Simulation time: 0 hr 12 min 25 sec) 
Heartbeat CPU 3 instructions: 50000002 cycles: 30871708 heartbeat IPC: 1.63233 cumulative IPC: 1.61961 (Simulation time: 0 hr 12 min 38 sec) 
Heartbeat CPU 1 instructions: 90000002 cycles: 33732533 heartbeat IPC: 2.69122 cumulative IPC: 2.66805 (Simulation time: 0 hr 13 min 34 sec) 
Heartbeat CPU 2 instructions: 90000002 cycles: 33837289 heartbeat IPC: 2.70884 cumulative IPC: 2.65979 (Simulation time: 0 hr 13 min 36 sec) 
Heartbeat CPU 0 instructions: 60000000 cycles: 35014047 heartbeat IPC: 1.68811 cumulative IPC: 1.7136 (Simulation time: 0 hr 13 min 58 sec) 
Heartbeat CPU 3 instructions: 60000000 cycles: 36971410 heartbeat IPC: 1.63942 cumulative IPC: 1.62288 (Simulation time: 0 hr 14 min 38 sec) 
Heartbeat CPU 2 instructions: 100000000 cycles: 37527394 heartbeat IPC: 2.70995 cumulative IPC: 2.66472 (Simulation time: 0 hr 14 min 48 sec) 
Heartbeat CPU 1 instructions: 100000000 cycles: 37676684 heartbeat IPC: 2.5354 cumulative IPC: 2.65416 (Simulation time: 0 hr 14 min 52 sec) 
Heartbeat CPU 0 instructions: 70000000 cycles: 40812416 heartbeat IPC: 1.72462 cumulative IPC: 1.71516 (Simulation time: 0 hr 16 min 8 sec) 
Heartbeat CPU 2 instructions: 110000003 cycles: 41225143 heartbeat IPC: 2.70435 cumulative IPC: 2.66827 (Simulation time: 0 hr 16 min 16 sec) 
Heartbeat CPU 1 instructions: 110000001 cycles: 41395030 heartbeat IPC: 2.68937 cumulative IPC: 2.65732 (Simulation time: 0 hr 16 min 19 sec) 
Heartbeat CPU 3 instructions: 70000001 cycles: 43320671 heartbeat IPC: 1.57499 cumulative IPC: 1.61586 (Simulation time: 0 hr 17 min 1 sec) 
Heartbeat CPU 2 instructions: 120000000 cycles: 44924955 heartbeat IPC: 2.70284 cumulative IPC: 2.67112 (Simulation time: 0 hr 17 min 38 sec) 
Heartbeat CPU 1 instructions: 120000000 cycles: 45059432 heartbeat IPC: 2.72896 cumulative IPC: 2.66315 (Simulation time: 0 hr 17 min 41 sec) 
Heartbeat CPU 0 instructions: 80000000 cycles: 46801036 heartbeat IPC: 1.66983 cumulative IPC: 1.70936 (Simulation time: 0 hr 18 min 20 sec) 
Heartbeat CPU 2 instructions: 130000003 cycles: 48652417 heartbeat IPC: 2.68279 cumulative IPC: 2.67202 (Simulation time: 0 hr 19 min 0 sec) 
Heartbeat CPU 1 instructions: 130000000 cycles: 48738278 heartbeat IPC: 2.71824 cumulative IPC: 2.66731 (Simulation time: 0 hr 19 min 2 sec) 
Heartbeat CPU 3 instructions: 80000000 cycles: 49774803 heartbeat IPC: 1.54939 cumulative IPC: 1.60724 (Simulation time: 0 hr 19 min 26 sec) 
Heartbeat CPU 1 instructions: 140000000 cycles: 52422550 heartbeat IPC: 2.71424 cumulative IPC: 2.67061 (Simulation time: 0 hr 20 min 25 sec) 
Heartbeat CPU 2 instructions: 140000000 cycles: 52488105 heartbeat IPC: 2.60709 cumulative IPC: 2.66727 (Simulation time: 0 hr 20 min 26 sec) 
Heartbeat CPU 0 instructions: 90000003 cycles: 52741402 heartbeat IPC: 1.6834 cumulative IPC: 1.70644 (Simulation time: 0 hr 20 min 33 sec) 
Heartbeat CPU 1 instructions: 150000003 cycles: 56098558 heartbeat IPC: 2.72034 cumulative IPC: 2.67387 (Simulation time: 0 hr 21 min 52 sec) 
Heartbeat CPU 3 instructions: 90000001 cycles: 56119451 heartbeat IPC: 1.57613 cumulative IPC: 1.60372 (Simulation time: 0 hr 21 min 52 sec) 
Heartbeat CPU 2 instructions: 150000001 cycles: 56188129 heartbeat IPC: 2.70269 cumulative IPC: 2.6696 (Simulation time: 0 hr 21 min 54 sec) 
Heartbeat CPU 0 instructions: 100000000 cycles: 58636330 heartbeat IPC: 1.69637 cumulative IPC: 1.70543 (Simulation time: 0 hr 22 min 48 sec) 
Heartbeat CPU 2 instructions: 160000000 cycles: 59917303 heartbeat IPC: 2.68156 cumulative IPC: 2.67035 (Simulation time: 0 hr 23 min 15 sec) 
Heartbeat CPU 1 instructions: 160000000 cycles: 59945804 heartbeat IPC: 2.59926 cumulative IPC: 2.66908 (Simulation time: 0 hr 23 min 15 sec) 
Heartbeat CPU 3 instructions: 100000000 cycles: 62337371 heartbeat IPC: 1.60825 cumulative IPC: 1.60417 (Simulation time: 0 hr 24 min 7 sec) 
Heartbeat CPU 2 instructions: 170000001 cycles: 63604670 heartbeat IPC: 2.71196 cumulative IPC: 2.67276 (Simulation time: 0 hr 24 min 34 sec) 
Heartbeat CPU 1 instructions: 170000000 cycles: 63624167 heartbeat IPC: 2.7186 cumulative IPC: 2.67194 (Simulation time: 0 hr 24 min 34 sec) 
Heartbeat CPU 0 instructions: 110000002 cycles: 64677741 heartbeat IPC: 1.65524 cumulative IPC: 1.70074 (Simulation time: 0 hr 25 min 0 sec) 
Heartbeat CPU 2 instructions: 180000000 cycles: 67291491 heartbeat IPC: 2.71236 cumulative IPC: 2.67493 (Simulation time: 0 hr 25 min 55 sec) 
Heartbeat CPU 1 instructions: 180000000 cycles: 67316174 heartbeat IPC: 2.70855 cumulative IPC: 2.67395 (Simulation time: 0 hr 25 min 56 sec) 
Heartbeat CPU 3 instructions: 110000000 cycles: 68443530 heartbeat IPC: 1.63769 cumulative IPC: 1.60716 (Simulation time: 0 hr 26 min 19 sec) 
Heartbeat CPU 0 instructions: 120000000 cycles: 70600775 heartbeat IPC: 1.68832 cumulative IPC: 1.6997 (Simulation time: 0 hr 27 min 4 sec) 
Heartbeat CPU 1 instructions: 190000003 cycles: 70966744 heartbeat IPC: 2.7393 cumulative IPC: 2.67731 (Simulation time: 0 hr 27 min 13 sec) 
Heartbeat CPU 2 instructions: 190000000 cycles: 70977808 heartbeat IPC: 2.71273 cumulative IPC: 2.67689 (Simulation time: 0 hr 27 min 14 sec) 
Heartbeat CPU 1 instructions: 200000000 cycles: 74628456 heartbeat IPC: 2.73096 cumulative IPC: 2.67994 (Simulation time: 0 hr 28 min 33 sec) 
Heartbeat CPU 2 instructions: 200000000 cycles: 74818630 heartbeat IPC: 2.60361 cumulative IPC: 2.67313 (Simulation time: 0 hr 28 min 37 sec) 
Heartbeat CPU 3 instructions: 120000000 cycles: 74826432 heartbeat IPC: 1.56669 cumulative IPC: 1.60371 (Simulation time: 0 hr 28 min 37 sec) 
Heartbeat CPU 0 instructions: 130000001 cycles: 76690507 heartbeat IPC: 1.64211 cumulative IPC: 1.69513 (Simulation time: 0 hr 29 min 19 sec) 
Heartbeat CPU 1 instructions: 210000000 cycles: 78301978 heartbeat IPC: 2.72218 cumulative IPC: 0.127711 (Simulation time: 0 hr 29 min 56 sec) 
Heartbeat CPU 2 instructions: 210000001 cycles: 78484006 heartbeat IPC: 2.72823 cumulative IPC: 0.127415 (Simulation time: 0 hr 30 min 0 sec) 
Heartbeat CPU 3 instructions: 130000002 cycles: 81196498 heartbeat IPC: 1.56984 cumulative IPC: 1.60105 (Simulation time: 0 hr 30 min 56 sec) 
Heartbeat CPU 1 instructions: 220000000 cycles: 82112385 heartbeat IPC: 2.62439 cumulative IPC: 0.243569 (Simulation time: 0 hr 31 min 16 sec) 
Heartbeat CPU 2 instructions: 220000000 cycles: 82160817 heartbeat IPC: 2.71975 cumulative IPC: 0.243425 (Simulation time: 0 hr 31 min 17 sec) 
Heartbeat CPU 0 instructions: 140000000 cycles: 82447478 heartbeat IPC: 1.73702 cumulative IPC: 1.69805 (Simulation time: 0 hr 31 min 23 sec) 
Heartbeat CPU 1 instructions: 230000001 cycles: 85821055 heartbeat IPC: 2.69638 cumulative IPC: 0.349565 (Simulation time: 0 hr 32 min 32 sec) 
Heartbeat CPU 2 instructions: 230000000 cycles: 85849064 heartbeat IPC: 2.71132 cumulative IPC: 0.349451 (Simulation time: 0 hr 32 min 33 sec) 
Heartbeat CPU 3 instructions: 140000000 cycles: 87769413 heartbeat IPC: 1.52139 cumulative IPC: 1.59509 (Simulation time: 0 hr 33 min 13 sec) 
Heartbeat CPU 0 instructions: 150000000 cycles: 88405563 heartbeat IPC: 1.67839 cumulative IPC: 1.69673 (Simulation time: 0 hr 33 min 27 sec) 
Heartbeat CPU 1 instructions: 240000000 cycles: 89470446 heartbeat IPC: 2.74018 cumulative IPC: 0.447075 (Simulation time: 0 hr 33 min 49 sec) 
Heartbeat CPU 2 instructions: 240000000 cycles: 89539855 heartbeat IPC: 2.70945 cumulative IPC: 0.446728 (Simulation time: 0 hr 33 min 51 sec) 
Heartbeat CPU 1 instructions: 250000003 cycles: 93114065 heartbeat IPC: 2.74452 cumulative IPC: 0.536976 (Simulation time: 0 hr 35 min 6 sec) 
Heartbeat CPU 2 instructions: 250000002 cycles: 93239677 heartbeat IPC: 2.70283 cumulative IPC: 0.536252 (Simulation time: 0 hr 35 min 9 sec) 
Heartbeat CPU 3 instructions: 150000001 cycles: 94132291 heartbeat IPC: 1.57162 cumulative IPC: 1.5935 (Simulation time: 0 hr 35 min 27 sec) 
Heartbeat CPU 0 instructions: 160000000 cycles: 94409387 heartbeat IPC: 1.66561 cumulative IPC: 1.69475 (Simulation time: 0 hr 35 min 33 sec) 
Heartbeat CPU 1 instructions: 260000000 cycles: 96790160 heartbeat IPC: 2.72028 cumulative IPC: 0.619898 (Simulation time: 0 hr 36 min 22 sec) 
Heartbeat CPU 2 instructions: 260000000 cycles: 97056400 heartbeat IPC: 2.62005 cumulative IPC: 0.618197 (Simulation time: 0 hr 36 min 28 sec) 
Heartbeat CPU 0 instructions: 170000003 cycles: 100156479 heartbeat IPC: 1.74001 cumulative IPC: 1.69734 (Simulation time: 0 hr 37 min 33 sec) 
Heartbeat CPU 3 instructions: 160000000 cycles: 100214921 heartbeat IPC: 1.64403 cumulative IPC: 1.59657 (Simulation time: 0 hr 37 min 34 sec) 
Heartbeat CPU 1 instructions: 270000003 cycles: 100629818 heartbeat IPC: 2.6044 cumulative IPC: 0.695619 (Simulation time: 0 hr 37 min 43 sec) 
Heartbeat CPU 2 instructions: 270000003 cycles: 100710529 heartbeat IPC: 2.73663 cumulative IPC: 0.695061 (Simulation time: 0 hr 37 min 45 sec) 
Heartbeat CPU 1 instructions: 280000000 cycles: 104332371 heartbeat IPC: 2.70084 cumulative IPC: 0.76678 (Simulation time: 0 hr 39 min 2 sec) 
Heartbeat CPU 2 instructions: 280000000 cycles: 104394946 heartbeat IPC: 2.71413 cumulative IPC: 0.766321 (Simulation time: 0 hr 39 min 3 sec) 
Heartbeat CPU 0 instructions: 180000000 cycles: 105925873 heartbeat IPC: 1.73328 cumulative IPC: 1.6993 (Simulation time: 0 hr 39 min 35 sec) 
Heartbeat CPU 3 instructions: 170000000 cycles: 106431038 heartbeat IPC: 1.60872 cumulative IPC: 1.59728 (Simulation time: 0 hr 39 min 45 sec) 
Heartbeat CPU 1 instructions: 290000002 cycles: 108065554 heartbeat IPC: 2.67868 cumulative IPC: 0.832828 (Simulation time: 0 hr 40 min 19 sec) 
Heartbeat CPU 2 instructions: 290000000 cycles: 108083364 heartbeat IPC: 2.71119 cumulative IPC: 0.832691 (Simulation time: 0 hr 40 min 20 sec) 
Heartbeat CPU 2 instructions: 300000000 cycles: 111769738 heartbeat IPC: 2.71269 cumulative IPC: 0.894697 (Simulation time: 0 hr 41 min 36 sec) 
Heartbeat CPU 1 instructions: 300000000 cycles: 111810757 heartbeat IPC: 2.67008 cumulative IPC: 0.894368 (Simulation time: 0 hr 41 min 37 sec) 
Heartbeat CPU 0 instructions: 190000000 cycles: 111841882 heartbeat IPC: 1.69033 cumulative IPC: 1.69883 (Simulation time: 0 hr 41 min 38 sec) 
Heartbeat CPU 3 instructions: 180000000 cycles: 112834278 heartbeat IPC: 1.56171 cumulative IPC: 1.59526 (Simulation time: 0 hr 41 min 58 sec) 
Heartbeat CPU 1 instructions: 310000002 cycles: 115536917 heartbeat IPC: 2.68373 cumulative IPC: 0.952077 (Simulation time: 0 hr 42 min 53 sec) 
Heartbeat CPU 2 instructions: 310000002 cycles: 115596809 heartbeat IPC: 2.61296 cumulative IPC: 0.951583 (Simulation time: 0 hr 42 min 54 sec) 
Heartbeat CPU 0 instructions: 200000000 cycles: 117588025 heartbeat IPC: 1.7403 cumulative IPC: 1.70085 (Simulation time: 0 hr 43 min 36 sec) 
Heartbeat CPU 3 instructions: 190000003 cycles: 119110164 heartbeat IPC: 1.5934 cumulative IPC: 1.59516 (Simulation time: 0 hr 44 min 7 sec) 
Heartbeat CPU 2 instructions: 320000000 cycles: 119263862 heartbeat IPC: 2.72698 cumulative IPC: 1.00617 (Simulation time: 0 hr 44 min 10 sec) 
Heartbeat CPU 1 instructions: 320000000 cycles: 119267175 heartbeat IPC: 2.68078 cumulative IPC: 1.00614 (Simulation time: 0 hr 44 min 10 sec) 
Heartbeat CPU 2 instructions: 330000000 cycles: 122948273 heartbeat IPC: 2.71414 cumulative IPC: 1.05736 (Simulation time: 0 hr 45 min 25 sec) 
Heartbeat CPU 1 instructions: 330000000 cycles: 123013655 heartbeat IPC: 2.66917 cumulative IPC: 1.05679 (Simulation time: 0 hr 45 min 26 sec) 
Heartbeat CPU 0 instructions: 210000001 cycles: 123420267 heartbeat IPC: 1.71461 cumulative IPC: 0.081024 (Simulation time: 0 hr 45 min 34 sec) 
Heartbeat CPU 3 instructions: 200000000 cycles: 125218369 heartbeat IPC: 1.63714 cumulative IPC: 1.59721 (Simulation time: 0 hr 46 min 11 sec) 

Warmup complete CPU 0 instructions: 213083641 cycles: 125218370 (Simulation time: 0 hr 46 min 11 sec) 
Warmup complete CPU 1 instructions: 335811488 cycles: 125218370 (Simulation time: 0 hr 46 min 11 sec) 
Warmup complete CPU 2 instructions: 336135206 cycles: 125218370 (Simulation time: 0 hr 46 min 11 sec) 
Warmup complete CPU 3 instructions: 200000001 cycles: 125218370 (Simulation time: 0 hr 46 min 11 sec) 

Heartbeat CPU 1 instructions: 340000000 cycles: 129517934 heartbeat IPC: 1.53745 cumulative IPC: 0.974171 (Simulation time: 0 hr 46 min 47 sec) 
Heartbeat CPU 2 instructions: 340000000 cycles: 129774884 heartbeat IPC: 1.46486 cumulative IPC: 0.848191 (Simulation time: 0 hr 46 min 49 sec) 
Heartbeat CPU 1 instructions: 350000000 cycles: 140841857 heartbeat IPC: 0.883086 cumulative IPC: 0.908153 (Simulation time: 0 hr 48 min 25 sec) 
Heartbeat CPU 2 instructions: 350000003 cycles: 141154718 heartbeat IPC: 0.878748 cumulative IPC: 0.870011 (Simulation time: 0 hr 48 min 27 sec) 
Heartbeat CPU 0 instructions: 220000000 cycles: 146167967 heartbeat IPC: 0.439605 cumulative IPC: 0.330143 (Simulation time: 0 hr 49 min 10 sec) 
Heartbeat CPU 3 instructions: 210000003 cycles: 147849326 heartbeat IPC: 0.441873 cumulative IPC: 0.441873 (Simulation time: 0 hr 49 min 23 sec) 
Heartbeat CPU 2 instructions: 360000000 cycles: 152098216 heartbeat IPC: 0.913784 cumulative IPC: 0.887832 (Simulation time: 0 hr 50 min 0 sec) 
Heartbeat CPU 1 instructions: 360000000 cycles: 152170101 heartbeat IPC: 0.882749 cumulative IPC: 0.897475 (Simulation time: 0 hr 50 min 0 sec) 
Heartbeat CPU 1 instructions: 370000002 cycles: 163086240 heartbeat IPC: 0.916075 cumulative IPC: 0.902837 (Simulation time: 0 hr 51 min 29 sec) 
Heartbeat CPU 2 instructions: 370000001 cycles: 163325364 heartbeat IPC: 0.890698 cumulative IPC: 0.888677 (Simulation time: 0 hr 51 min 32 sec) 
Heartbeat CPU 3 instructions: 220000000 cycles: 171833086 heartbeat IPC: 0.416949 cumulative IPC: 0.429049 (Simulation time: 0 hr 52 min 43 sec) 
Heartbeat CPU 0 instructions: 230000002 cycles: 173838917 heartbeat IPC: 0.36139 cumulative IPC: 0.347926 (Simulation time: 0 hr 53 min 1 sec) 
Heartbeat CPU 2 instructions: 380000000 cycles: 173888430 heartbeat IPC: 0.946695 cumulative IPC: 0.901269 (Simulation time: 0 hr 53 min 2 sec) 
Heartbeat CPU 1 instructions: 380000000 cycles: 174720479 heartbeat IPC: 0.859532 cumulative IPC: 0.892659 (Simulation time: 0 hr 53 min 9 sec) 
Heartbeat CPU 2 instructions: 390000001 cycles: 184102605 heartbeat IPC: 0.979032 cumulative IPC: 0.914757 (Simulation time: 0 hr 54 min 21 sec) 
Heartbeat CPU 1 instructions: 390000003 cycles: 186740648 heartbeat IPC: 0.831935 cumulative IPC: 0.880795 (Simulation time: 0 hr 54 min 43 sec) 
Heartbeat CPU 2 instructions: 400000000 cycles: 193180669 heartbeat IPC: 1.10156 cumulative IPC: 0.939709 (Simulation time: 0 hr 55 min 40 sec) 
Heartbeat CPU 3 instructions: 230000002 cycles: 194624734 heartbeat IPC: 0.438757 cumulative IPC: 0.432237 (Simulation time: 0 hr 55 min 52 sec) 
Heartbeat CPU 1 instructions: 400000000 cycles: 198359837 heartbeat IPC: 0.860645 cumulative IPC: 0.877594 (Simulation time: 0 hr 56 min 36 sec) 
Heartbeat CPU 2 instructions: 410000002 cycles: 201869574 heartbeat IPC: 1.15089 cumulative IPC: 0.963648 (Simulation time: 0 hr 57 min 7 sec) 
Heartbeat CPU 0 instructions: 240000000 cycles: 202550121 heartbeat IPC: 0.348296 cumulative IPC: 0.348063 (Simulation time: 0 hr 57 min 14 sec) 
Heartbeat CPU 1 instructions: 410000003 cycles: 210237160 heartbeat IPC: 0.841941 cumulative IPC: 0.872613 (Simulation time: 0 hr 58 min 24 sec) 
Heartbeat CPU 2 instructions: 420000000 cycles: 212081056 heartbeat IPC: 0.97929 cumulative IPC: 0.965487 (Simulation time: 0 hr 58 min 37 sec) 
Heartbeat CPU 3 instructions: 240000000 cycles: 217569540 heartbeat IPC: 0.435828 cumulative IPC: 0.433129 (Simulation time: 0 hr 59 min 30 sec) 
Heartbeat CPU 2 instructions: 430000002 cycles: 222196209 heartbeat IPC: 0.988616 cumulative IPC: 0.967899 (Simulation time: 1 hr 0 min 13 sec) 
Heartbeat CPU 1 instructions: 420000000 cycles: 222298945 heartbeat IPC: 0.829064 cumulative IPC: 0.867202 (Simulation time: 1 hr 0 min 14 sec) 
Heartbeat CPU 0 instructions: 250000001 cycles: 227083275 heartbeat IPC: 0.407612 cumulative IPC: 0.362405 (Simulation time: 1 hr 1 min 1 sec) 
Heartbeat CPU 2 instructions: 440000000 cycles: 232466514 heartbeat IPC: 0.973681 cumulative IPC: 0.968453 (Simulation time: 1 hr 1 min 51 sec) 
Heartbeat CPU 1 instructions: 430000001 cycles: 233454516 heartbeat IPC: 0.896413 cumulative IPC: 0.870213 (Simulation time: 1 hr 1 min 59 sec) 
Heartbeat CPU 3 instructions: 250000000 cycles: 240980803 heartbeat IPC: 0.427145 cumulative IPC: 0.431919 (Simulation time: 1 hr 3 min 9 sec) 
Heartbeat CPU 2 instructions: 450000001 cycles: 242792746 heartbeat IPC: 0.968408 cumulative IPC: 0.968449 (Simulation time: 1 hr 3 min 24 sec) 
Heartbeat CPU 1 instructions: 440000000 cycles: 243994602 heartbeat IPC: 0.948759 cumulative IPC: 0.877183 (Simulation time: 1 hr 3 min 36 sec) 
Heartbeat CPU 0 instructions: 260000000 cycles: 249442140 heartbeat IPC: 0.44725 cumulative IPC: 0.377676 (Simulation time: 1 hr 4 min 38 sec) 
Heartbeat CPU 2 instructions: 460000000 cycles: 253115612 heartbeat IPC: 0.968723 cumulative IPC: 0.968471 (Simulation time: 1 hr 5 min 15 sec) 
Heartbeat CPU 1 instructions: 450000002 cycles: 255303356 heartbeat IPC: 0.884271 cumulative IPC: 0.877799 (Simulation time: 1 hr 5 min 36 sec) 
Heartbeat CPU 3 instructions: 260000000 cycles: 261963721 heartbeat IPC: 0.476578 cumulative IPC: 0.438772 (Simulation time: 1 hr 6 min 39 sec) 
Heartbeat CPU 2 instructions: 470000001 cycles: 263380153 heartbeat IPC: 0.974228 cumulative IPC: 0.968899 (Simulation time: 1 hr 6 min 52 sec) 
Heartbeat CPU 1 instructions: 460000000 cycles: 265717124 heartbeat IPC: 0.960267 cumulative IPC: 0.883912 (Simulation time: 1 hr 7 min 15 sec) 
Heartbeat CPU 0 instructions: 270000001 cycles: 270491067 heartbeat IPC: 0.475084 cumulative IPC: 0.39179 (Simulation time: 1 hr 7 min 58 sec) 
Heartbeat CPU 2 instructions: 480000000 cycles: 273625011 heartbeat IPC: 0.976099 cumulative IPC: 0.969396 (Simulation time: 1 hr 8 min 26 sec) 
Heartbeat CPU 1 instructions: 470000002 cycles: 276754467 heartbeat IPC: 0.906015 cumulative IPC: 0.885522 (Simulation time: 1 hr 8 min 54 sec) 
Heartbeat CPU 2 instructions: 490000001 cycles: 283692958 heartbeat IPC: 0.993251 cumulative IPC: 0.970911 (Simulation time: 1 hr 10 min 2 sec) 
Heartbeat CPU 3 instructions: 270000001 cycles: 284685132 heartbeat IPC: 0.440114 cumulative IPC: 0.438963 (Simulation time: 1 hr 10 min 11 sec) 
Heartbeat CPU 1 instructions: 480000000 cycles: 287397911 heartbeat IPC: 0.939545 cumulative IPC: 0.889067 (Simulation time: 1 hr 10 min 37 sec) 
Heartbeat CPU 0 instructions: 280000000 cycles: 291565492 heartbeat IPC: 0.474509 cumulative IPC: 0.402269 (Simulation time: 1 hr 11 min 15 sec) 
Heartbeat CPU 2 instructions: 500000000 cycles: 293742340 heartbeat IPC: 0.995086 cumulative IPC: 0.972353 (Simulation time: 1 hr 11 min 36 sec) 
Heartbeat CPU 1 instructions: 490000000 cycles: 297929964 heartbeat IPC: 0.949483 cumulative IPC: 0.892751 (Simulation time: 1 hr 12 min 14 sec) 
Heartbeat CPU 2 instructions: 510000002 cycles: 304434279 heartbeat IPC: 0.935284 cumulative IPC: 0.970142 (Simulation time: 1 hr 13 min 12 sec) 
Heartbeat CPU 3 instructions: 280000000 cycles: 307528587 heartbeat IPC: 0.437762 cumulative IPC: 0.438812 (Simulation time: 1 hr 13 min 39 sec) 
Heartbeat CPU 1 instructions: 500000000 cycles: 309259374 heartbeat IPC: 0.882658 cumulative IPC: 0.89213 (Simulation time: 1 hr 13 min 56 sec) 
Heartbeat CPU 2 instructions: 520000000 cycles: 314948264 heartbeat IPC: 0.951114 cumulative IPC: 0.969087 (Simulation time: 1 hr 14 min 45 sec) 
Heartbeat CPU 0 instructions: 290000002 cycles: 316124673 heartbeat IPC: 0.40718 cumulative IPC: 0.402901 (Simulation time: 1 hr 14 min 55 sec) 
Heartbeat CPU 1 instructions: 510000002 cycles: 320284586 heartbeat IPC: 0.907012 cumulative IPC: 0.892971 (Simulation time: 1 hr 15 min 34 sec) 
Heartbeat CPU 2 instructions: 530000002 cycles: 325702373 heartbeat IPC: 0.929877 cumulative IPC: 0.966984 (Simulation time: 1 hr 16 min 24 sec) 
Heartbeat CPU 3 instructions: 290000000 cycles: 331167267 heartbeat IPC: 0.423035 cumulative IPC: 0.437002 (Simulation time: 1 hr 17 min 8 sec) 
Heartbeat CPU 1 instructions: 520000000 cycles: 332087653 heartbeat IPC: 0.847237 cumulative IPC: 0.890362 (Simulation time: 1 hr 17 min 17 sec) 
Heartbeat CPU 2 instructions: 540000000 cycles: 337029712 heartbeat IPC: 0.88282 cumulative IPC: 0.962483 (Simulation time: 1 hr 17 min 58 sec) 
Heartbeat CPU 1 instructions: 530000000 cycles: 343190190 heartbeat IPC: 0.900695 cumulative IPC: 0.890888 (Simulation time: 1 hr 18 min 48 sec) 
Heartbeat CPU 0 instructions: 300000000 cycles: 346324536 heartbeat IPC: 0.331127 cumulative IPC: 0.393098 (Simulation time: 1 hr 19 min 12 sec) 
Heartbeat CPU 2 instructions: 550000001 cycles: 347743417 heartbeat IPC: 0.933384 cumulative IPC: 0.961082 (Simulation time: 1 hr 19 min 25 sec) 
Heartbeat CPU 1 instructions: 540000000 cycles: 355047398 heartbeat IPC: 0.843369 cumulative IPC: 0.888437 (Simulation time: 1 hr 20 min 25 sec) 
Heartbeat CPU 3 instructions: 300000000 cycles: 355454469 heartbeat IPC: 0.411739 cumulative IPC: 0.434337 (Simulation time: 1 hr 20 min 29 sec) 
Heartbeat CPU 2 instructions: 560000000 cycles: 358934830 heartbeat IPC: 0.893542 cumulative IPC: 0.957848 (Simulation time: 1 hr 20 min 58 sec) 
Heartbeat CPU 1 instructions: 550000003 cycles: 366369466 heartbeat IPC: 0.883231 cumulative IPC: 0.888192 (Simulation time: 1 hr 22 min 0 sec) 
Heartbeat CPU 2 instructions: 570000001 cycles: 369498469 heartbeat IPC: 0.946644 cumulative IPC: 0.957363 (Simulation time: 1 hr 22 min 26 sec) 
Heartbeat CPU 0 instructions: 310000000 cycles: 376832268 heartbeat IPC: 0.327786 cumulative IPC: 0.385179 (Simulation time: 1 hr 23 min 33 sec) 
Heartbeat CPU 1 instructions: 560000000 cycles: 378609782 heartbeat IPC: 0.816972 cumulative IPC: 0.884752 (Simulation time: 1 hr 23 min 49 sec) 
Heartbeat CPU 3 instructions: 310000001 cycles: 378792404 heartbeat IPC: 0.428487 cumulative IPC: 0.433798 (Simulation time: 1 hr 23 min 52 sec) 
Heartbeat CPU 2 instructions: 580000000 cycles: 379845693 heartbeat IPC: 0.966443 cumulative IPC: 0.957732 (Simulation time: 1 hr 24 min 4 sec) 
Heartbeat CPU 1 instructions: 570000002 cycles: 390247240 heartbeat IPC: 0.859294 cumulative IPC: 0.883634 (Simulation time: 1 hr 26 min 2 sec) 
Heartbeat CPU 2 instructions: 590000002 cycles: 390616054 heartbeat IPC: 0.928474 cumulative IPC: 0.956545 (Simulation time: 1 hr 26 min 4 sec) 
Heartbeat CPU 2 instructions: 600000000 cycles: 401295116 heartbeat IPC: 0.936412 cumulative IPC: 0.955766 (Simulation time: 1 hr 27 min 36 sec) 
Heartbeat CPU 1 instructions: 580000000 cycles: 401354593 heartbeat IPC: 0.900304 cumulative IPC: 0.884305 (Simulation time: 1 hr 27 min 37 sec) 
Heartbeat CPU 3 instructions: 320000000 cycles: 402147915 heartbeat IPC: 0.428164 cumulative IPC: 0.433323 (Simulation time: 1 hr 27 min 46 sec) 
Heartbeat CPU 0 instructions: 320000000 cycles: 402983925 heartbeat IPC: 0.382385 cumulative IPC: 0.384916 (Simulation time: 1 hr 27 min 55 sec) 
Heartbeat CPU 2 instructions: 610000000 cycles: 411294607 heartbeat IPC: 1.00005 cumulative IPC: 0.957314 (Simulation time: 1 hr 29 min 14 sec) 
Heartbeat CPU 1 instructions: 590000001 cycles: 413404457 heartbeat IPC: 0.829885 cumulative IPC: 0.882029 (Simulation time: 1 hr 29 min 32 sec) 
Heartbeat CPU 2 instructions: 620000000 cycles: 422387497 heartbeat IPC: 0.901478 cumulative IPC: 0.95523 (Simulation time: 1 hr 30 min 50 sec) 
Heartbeat CPU 0 instructions: 330000003 cycles: 422606219 heartbeat IPC: 0.509625 cumulative IPC: 0.393144 (Simulation time: 1 hr 30 min 52 sec) 
Heartbeat CPU 1 instructions: 600000000 cycles: 424460771 heartbeat IPC: 0.90446 cumulative IPC: 0.882858 (Simulation time: 1 hr 31 min 14 sec) 
Heartbeat CPU 3 instructions: 330000003 cycles: 424768202 heartbeat IPC: 0.442081 cumulative IPC: 0.433985 (Simulation time: 1 hr 31 min 16 sec) 
Heartbeat CPU 2 instructions: 630000002 cycles: 432725374 heartbeat IPC: 0.967317 cumulative IPC: 0.955636 (Simulation time: 1 hr 32 min 27 sec) 
Heartbeat CPU 1 instructions: 610000000 cycles: 434974290 heartbeat IPC: 0.951156 cumulative IPC: 0.885176 (Simulation time: 1 hr 32 min 47 sec) 
Heartbeat CPU 2 instructions: 640000000 cycles: 443065527 heartbeat IPC: 0.967103 cumulative IPC: 0.956009 (Simulation time: 1 hr 33 min 59 sec) 
Heartbeat CPU 1 instructions: 620000000 cycles: 445047628 heartbeat IPC: 0.99272 cumulative IPC: 0.888563 (Simulation time: 1 hr 34 min 20 sec) 
Heartbeat CPU 0 instructions: 340000000 cycles: 445525859 heartbeat IPC: 0.436307 cumulative IPC: 0.396233 (Simulation time: 1 hr 34 min 24 sec) 
Heartbeat CPU 3 instructions: 340000000 cycles: 448356407 heartbeat IPC: 0.423941 cumulative IPC: 0.433251 (Simulation time: 1 hr 34 min 50 sec) 
Heartbeat CPU 2 instructions: 650000003 cycles: 453279478 heartbeat IPC: 0.979053 cumulative IPC: 0.956727 (Simulation time: 1 hr 35 min 33 sec) 
Heartbeat CPU 1 instructions: 630000002 cycles: 455362359 heartbeat IPC: 0.969487 cumulative IPC: 0.891092 (Simulation time: 1 hr 35 min 55 sec) 
Heartbeat CPU 2 instructions: 660000000 cycles: 463664367 heartbeat IPC: 0.962937 cumulative IPC: 0.956917 (Simulation time: 1 hr 37 min 19 sec) 
Heartbeat CPU 1 instructions: 640000000 cycles: 465522099 heartbeat IPC: 0.984277 cumulative IPC: 0.893874 (Simulation time: 1 hr 37 min 38 sec) 
Heartbeat CPU 3 instructions: 350000003 cycles: 471781271 heartbeat IPC: 0.426897 cumulative IPC: 0.432822 (Simulation time: 1 hr 38 min 37 sec) 
Heartbeat CPU 0 instructions: 350000003 cycles: 471822539 heartbeat IPC: 0.380276 cumulative IPC: 0.395022 (Simulation time: 1 hr 38 min 37 sec) 
Heartbeat CPU 2 instructions: 670000001 cycles: 474000117 heartbeat IPC: 0.967516 cumulative IPC: 0.957231 (Simulation time: 1 hr 38 min 59 sec) 
Heartbeat CPU 1 instructions: 650000003 cycles: 475821774 heartbeat IPC: 0.970905 cumulative IPC: 0.896137 (Simulation time: 1 hr 39 min 19 sec) 
Heartbeat CPU 2 instructions: 680000000 cycles: 484348911 heartbeat IPC: 0.966296 cumulative IPC: 0.957492 (Simulation time: 1 hr 40 min 41 sec) 
Heartbeat CPU 1 instructions: 660000000 cycles: 486203146 heartbeat IPC: 0.963264 cumulative IPC: 0.898067 (Simulation time: 1 hr 40 min 59 sec) 
Heartbeat CPU 0 instructions: 360000000 cycles: 494550972 heartbeat IPC: 0.439977 cumulative IPC: 0.397789 (Simulation time: 1 hr 42 min 21 sec) 
Heartbeat CPU 2 instructions: 690000002 cycles: 494863291 heartbeat IPC: 0.951079 cumulative IPC: 0.95731 (Simulation time: 1 hr 42 min 27 sec) 
Heartbeat CPU 3 instructions: 360000000 cycles: 495258616 heartbeat IPC: 0.425942 cumulative IPC: 0.432385 (Simulation time: 1 hr 42 min 32 sec) 
Heartbeat CPU 1 instructions: 670000002 cycles: 496560269 heartbeat IPC: 0.965519 cumulative IPC: 0.899948 (Simulation time: 1 hr 42 min 47 sec) 
Heartbeat CPU 2 instructions: 700000000 cycles: 505188328 heartbeat IPC: 0.968519 cumulative IPC: 0.957615 (Simulation time: 1 hr 44 min 11 sec) 
Heartbeat CPU 1 instructions: 680000000 cycles: 507917960 heartbeat IPC: 0.880461 cumulative IPC: 0.89937 (Simulation time: 1 hr 44 min 39 sec) 
Heartbeat CPU 2 instructions: 710000001 cycles: 515491994 heartbeat IPC: 0.970528 cumulative IPC: 0.957956 (Simulation time: 1 hr 45 min 49 sec) 
Heartbeat CPU 3 instructions: 370000003 cycles: 518536010 heartbeat IPC: 0.429601 cumulative IPC: 0.432221 (Simulation time: 1 hr 46 min 14 sec) 
Heartbeat CPU 1 instructions: 690000000 cycles: 518750649 heartbeat IPC: 0.923132 cumulative IPC: 0.900024 (Simulation time: 1 hr 46 min 15 sec) 
Heartbeat CPU 0 instructions: 370000000 cycles: 523898955 heartbeat IPC: 0.340739 cumulative IPC: 0.393589 (Simulation time: 1 hr 47 min 1 sec) 
Heartbeat CPU 2 instructions: 720000000 cycles: 525496229 heartbeat IPC: 0.999577 cumulative IPC: 0.958996 (Simulation time: 1 hr 47 min 15 sec) 
Heartbeat CPU 1 instructions: 700000000 cycles: 529851747 heartbeat IPC: 0.900812 cumulative IPC: 0.900046 (Simulation time: 1 hr 47 min 56 sec) 
Heartbeat CPU 2 instructions: 730000003 cycles: 535677079 heartbeat IPC: 0.982237 cumulative IPC: 0.959572 (Simulation time: 1 hr 48 min 55 sec) 
Heartbeat CPU 1 instructions: 710000002 cycles: 541068993 heartbeat IPC: 0.891485 cumulative IPC: 0.899815 (Simulation time: 1 hr 49 min 50 sec) 
Heartbeat CPU 3 instructions: 380000000 cycles: 541650781 heartbeat IPC: 0.432624 cumulative IPC: 0.432243 (Simulation time: 1 hr 49 min 56 sec) 
Heartbeat CPU 2 instructions: 740000000 cycles: 546108640 heartbeat IPC: 0.958629 cumulative IPC: 0.959549 (Simulation time: 1 hr 50 min 38 sec) 
Heartbeat CPU 0 instructions: 380000000 cycles: 546153880 heartbeat IPC: 0.449339 cumulative IPC: 0.396537 (Simulation time: 1 hr 50 min 38 sec) 
Heartbeat CPU 1 instructions: 720000000 cycles: 552805201 heartbeat IPC: 0.852064 cumulative IPC: 0.898504 (Simulation time: 1 hr 51 min 35 sec) 
Heartbeat CPU 2 instructions: 750000002 cycles: 556784455 heartbeat IPC: 0.936697 cumulative IPC: 0.958984 (Simulation time: 1 hr 52 min 8 sec) 
Heartbeat CPU 1 instructions: 730000003 cycles: 564259593 heartbeat IPC: 0.873028 cumulative IPC: 0.897839 (Simulation time: 1 hr 53 min 10 sec) 
Heartbeat CPU 3 instructions: 390000002 cycles: 565129631 heartbeat IPC: 0.425915 cumulative IPC: 0.431905 (Simulation time: 1 hr 53 min 17 sec) 
Heartbeat CPU 2 instructions: 760000000 cycles: 567004024 heartbeat IPC: 0.978515 cumulative IPC: 0.959435 (Simulation time: 1 hr 53 min 31 sec) 
Heartbeat CPU 1 instructions: 740000000 cycles: 576055515 heartbeat IPC: 0.84775 cumulative IPC: 0.896529 (Simulation time: 1 hr 54 min 47 sec) 
Heartbeat CPU 2 instructions: 770000001 cycles: 577314218 heartbeat IPC: 0.969914 cumulative IPC: 0.959674 (Simulation time: 1 hr 55 min 0 sec) 
Heartbeat CPU 0 instructions: 390000000 cycles: 581263600 heartbeat IPC: 0.284821 cumulative IPC: 0.387936 (Simulation time: 1 hr 55 min 30 sec) 
Heartbeat CPU 1 instructions: 750000000 cycles: 587233025 heartbeat IPC: 0.894654 cumulative IPC: 0.896483 (Simulation time: 1 hr 56 min 19 sec) 
Heartbeat CPU 2 instructions: 780000000 cycles: 587434571 heartbeat IPC: 0.988108 cumulative IPC: 0.960297 (Simulation time: 1 hr 56 min 21 sec) 
Heartbeat CPU 3 instructions: 400000000 cycles: 588616116 heartbeat IPC: 0.425777 cumulative IPC: 0.431595 (Simulation time: 1 hr 56 min 31 sec) 
Heartbeat CPU 2 instructions: 790000000 cycles: 597655499 heartbeat IPC: 0.978385 cumulative IPC: 0.960688 (Simulation time: 1 hr 57 min 54 sec) 
Heartbeat CPU 1 instructions: 760000000 cycles: 599450499 heartbeat IPC: 0.8185 cumulative IPC: 0.894474 (Simulation time: 1 hr 58 min 12 sec) 
Heartbeat CPU 2 instructions: 800000000 cycles: 608080050 heartbeat IPC: 0.959274 cumulative IPC: 0.960658 (Simulation time: 1 hr 59 min 40 sec) 
Heartbeat CPU 0 instructions: 400000000 cycles: 609941966 heartbeat IPC: 0.348695 cumulative IPC: 0.385614 (Simulation time: 1 hr 59 min 56 sec) 
Heartbeat CPU 1 instructions: 770000000 cycles: 610630011 heartbeat IPC: 0.894493 cumulative IPC: 0.894475 (Simulation time: 2 hr 0 min 3 sec) 
Heartbeat CPU 3 instructions: 410000001 cycles: 611983898 heartbeat IPC: 0.42794 cumulative IPC: 0.431419 (Simulation time: 2 hr 0 min 18 sec) 
Heartbeat CPU 2 instructions: 810000000 cycles: 618029253 heartbeat IPC: 1.00511 cumulative IPC: 0.961555 (Simulation time: 2 hr 1 min 12 sec) 
Heartbeat CPU 1 instructions: 780000000 cycles: 622805722 heartbeat IPC: 0.821307 cumulative IPC: 0.892685 (Simulation time: 2 hr 1 min 53 sec) 
Heartbeat CPU 2 instructions: 820000000 cycles: 628466215 heartbeat IPC: 0.958133 cumulative IPC: 0.961484 (Simulation time: 2 hr 2 min 48 sec) 
Heartbeat CPU 0 instructions: 410000001 cycles: 631549541 heartbeat IPC: 0.462801 cumulative IPC: 0.388908 (Simulation time: 2 hr 3 min 19 sec) 
Heartbeat CPU 1 instructions: 790000003 cycles: 633727538 heartbeat IPC: 0.915599 cumulative IPC: 0.893177 (Simulation time: 2 hr 3 min 42 sec) 
Heartbeat CPU 3 instructions: 420000000 cycles: 635398971 heartbeat IPC: 0.427075 cumulative IPC: 0.43122 (Simulation time: 2 hr 3 min 55 sec) 
Heartbeat CPU 2 instructions: 830000003 cycles: 639111211 heartbeat IPC: 0.939409 cumulative IPC: 0.961027 (Simulation time: 2 hr 4 min 31 sec) 
Heartbeat CPU 1 instructions: 800000000 cycles: 645372298 heartbeat IPC: 0.858755 cumulative IPC: 0.892406 (Simulation time: 2 hr 5 min 32 sec) 
Heartbeat CPU 2 instructions: 840000000 cycles: 649610572 heartbeat IPC: 0.952439 cumulative IPC: 0.960855 (Simulation time: 2 hr 6 min 12 sec) 
Heartbeat CPU 0 instructions: 420000000 cycles: 654847696 heartbeat IPC: 0.429219 cumulative IPC: 0.390681 (Simulation time: 2 hr 7 min 2 sec) 
Heartbeat CPU 1 instructions: 810000001 cycles: 657164722 heartbeat IPC: 0.848002 cumulative IPC: 0.891422 (Simulation time: 2 hr 7 min 29 sec) 
Heartbeat CPU 3 instructions: 430000003 cycles: 659210134 heartbeat IPC: 0.419971 cumulative IPC: 0.430718 (Simulation time: 2 hr 7 min 47 sec) 
Heartbeat CPU 2 instructions: 850000000 cycles: 660066641 heartbeat IPC: 0.956382 cumulative IPC: 0.960767 (Simulation time: 2 hr 7 min 55 sec) 
Heartbeat CPU 1 instructions: 820000000 cycles: 669346073 heartbeat IPC: 0.820927 cumulative IPC: 0.889844 (Simulation time: 2 hr 9 min 19 sec) 
Heartbeat CPU 2 instructions: 860000000 cycles: 670478407 heartbeat IPC: 0.960452 cumulative IPC: 0.960761 (Simulation time: 2 hr 9 min 30 sec) 
Heartbeat CPU 0 instructions: 430000002 cycles: 677726828 heartbeat IPC: 0.43708 cumulative IPC: 0.392603 (Simulation time: 2 hr 10 min 37 sec) 
Heartbeat CPU 1 instructions: 830000001 cycles: 680529130 heartbeat IPC: 0.89421 cumulative IPC: 0.889931 (Simulation time: 2 hr 11 min 3 sec) 
Heartbeat CPU 2 instructions: 870000002 cycles: 680809248 heartbeat IPC: 0.967976 cumulative IPC: 0.960896 (Simulation time: 2 hr 11 min 6 sec) 
Heartbeat CPU 3 instructions: 440000000 cycles: 683183004 heartbeat IPC: 0.417138 cumulative IPC: 0.430135 (Simulation time: 2 hr 11 min 30 sec) 
Heartbeat CPU 2 instructions: 880000000 cycles: 690975023 heartbeat IPC: 0.983693 cumulative IPC: 0.961305 (Simulation time: 2 hr 12 min 47 sec) 
Heartbeat CPU 1 instructions: 840000000 cycles: 692014509 heartbeat IPC: 0.870672 cumulative IPC: 0.889541 (Simulation time: 2 hr 12 min 55 sec) 
Heartbeat CPU 0 instructions: 440000000 cycles: 697224147 heartbeat IPC: 0.512891 cumulative IPC: 0.396703 (Simulation time: 2 hr 13 min 47 sec) 
Heartbeat CPU 2 instructions: 890000000 cycles: 701329482 heartbeat IPC: 0.965768 cumulative IPC: 0.961385 (Simulation time: 2 hr 14 min 31 sec) 
Heartbeat CPU 1 instructions: 850000003 cycles: 703382451 heartbeat IPC: 0.879667 cumulative IPC: 0.889347 (Simulation time: 2 hr 14 min 50 sec) 
Heartbeat CPU 3 instructions: 450000001 cycles: 706427547 heartbeat IPC: 0.430209 cumulative IPC: 0.430138 (Simulation time: 2 hr 15 min 21 sec) 
Heartbeat CPU 2 instructions: 900000000 cycles: 711605895 heartbeat IPC: 0.973102 cumulative IPC: 0.961591 (Simulation time: 2 hr 16 min 8 sec) 
Heartbeat CPU 1 instructions: 860000000 cycles: 715077284 heartbeat IPC: 0.855078 cumulative IPC: 0.888668 (Simulation time: 2 hr 16 min 35 sec) 
Heartbeat CPU 0 instructions: 450000002 cycles: 718221854 heartbeat IPC: 0.476243 cumulative IPC: 0.399519 (Simulation time: 2 hr 17 min 7 sec) 
Heartbeat CPU 2 instructions: 910000003 cycles: 721842180 heartbeat IPC: 0.976917 cumulative IPC: 0.961854 (Simulation time: 2 hr 17 min 35 sec) 
Heartbeat CPU 1 instructions: 870000001 cycles: 726564483 heartbeat IPC: 0.870534 cumulative IPC: 0.888321 (Simulation time: 2 hr 18 min 19 sec) 
Heartbeat CPU 3 instructions: 460000000 cycles: 729477913 heartbeat IPC: 0.433833 cumulative IPC: 0.430279 (Simulation time: 2 hr 18 min 43 sec) 
Heartbeat CPU 2 instructions: 920000000 cycles: 732030124 heartbeat IPC: 0.981552 cumulative IPC: 0.962184 (Simulation time: 2 hr 19 min 8 sec) 
Heartbeat CPU 1 instructions: 880000000 cycles: 737832454 heartbeat IPC: 0.887471 cumulative IPC: 0.888306 (Simulation time: 2 hr 19 min 58 sec) 
Heartbeat CPU 0 instructions: 460000000 cycles: 741780056 heartbeat IPC: 0.424481 cumulative IPC: 0.400473 (Simulation time: 2 hr 20 min 33 sec) 
Heartbeat CPU 2 instructions: 930000000 cycles: 742023606 heartbeat IPC: 1.00065 cumulative IPC: 0.962808 (Simulation time: 2 hr 20 min 36 sec) 
Heartbeat CPU 1 instructions: 890000001 cycles: 748927518 heartbeat IPC: 0.901302 cumulative IPC: 0.888537 (Simulation time: 2 hr 21 min 38 sec) 
Heartbeat CPU 3 instructions: 470000000 cycles: 752397043 heartbeat IPC: 0.436317 cumulative IPC: 0.430499 (Simulation time: 2 hr 22 min 9 sec) 
Heartbeat CPU 2 instructions: 940000000 cycles: 752691987 heartbeat IPC: 0.937349 cumulative IPC: 0.962375 (Simulation time: 2 hr 22 min 11 sec) 
Heartbeat CPU 1 instructions: 900000000 cycles: 760361169 heartbeat IPC: 0.874611 cumulative IPC: 0.888286 (Simulation time: 2 hr 23 min 24 sec) 
Heartbeat CPU 2 instructions: 950000002 cycles: 763599513 heartbeat IPC: 0.916798 cumulative IPC: 0.961596 (Simulation time: 2 hr 23 min 59 sec) 
Heartbeat CPU 0 instructions: 470000001 cycles: 765533336 heartbeat IPC: 0.420995 cumulative IPC: 0.401234 (Simulation time: 2 hr 24 min 17 sec) 
Heartbeat CPU 1 instructions: 910000001 cycles: 771915602 heartbeat IPC: 0.865469 cumulative IPC: 0.887878 (Simulation time: 2 hr 25 min 12 sec) 
Heartbeat CPU 2 instructions: 960000000 cycles: 773949389 heartbeat IPC: 0.966195 cumulative IPC: 0.961669 (Simulation time: 2 hr 25 min 30 sec) 
Heartbeat CPU 3 instructions: 480000000 cycles: 775953386 heartbeat IPC: 0.424514 cumulative IPC: 0.430283 (Simulation time: 2 hr 25 min 48 sec) 
Heartbeat CPU 1 instructions: 920000000 cycles: 784031840 heartbeat IPC: 0.825339 cumulative IPC: 0.886728 (Simulation time: 2 hr 26 min 56 sec) 
Heartbeat CPU 2 instructions: 970000002 cycles: 785623358 heartbeat IPC: 0.856607 cumulative IPC: 0.959812 (Simulation time: 2 hr 27 min 11 sec) 
Heartbeat CPU 1 instructions: 930000001 cycles: 795581757 heartbeat IPC: 0.865807 cumulative IPC: 0.886368 (Simulation time: 2 hr 28 min 33 sec) 
Heartbeat CPU 2 instructions: 980000000 cycles: 797181106 heartbeat IPC: 0.86522 cumulative IPC: 0.958185 (Simulation time: 2 hr 28 min 49 sec) 
Heartbeat CPU 3 instructions: 490000003 cycles: 798461277 heartbeat IPC: 0.444289 cumulative IPC: 0.430751 (Simulation time: 2 hr 28 min 59 sec) 
Heartbeat CPU 0 instructions: 480000000 cycles: 799648286 heartbeat IPC: 0.293127 cumulative IPC: 0.395766 (Simulation time: 2 hr 29 min 13 sec) 
Heartbeat CPU 1 instructions: 940000000 cycles: 806382765 heartbeat IPC: 0.925839 cumulative IPC: 0.886994 (Simulation time: 2 hr 30 min 17 sec) 
Heartbeat CPU 2 instructions: 990000003 cycles: 808958552 heartbeat IPC: 0.849081 cumulative IPC: 0.956306 (Simulation time: 2 hr 30 min 36 sec) 
Heartbeat CPU 1 instructions: 950000001 cycles: 817137020 heartbeat IPC: 0.929865 cumulative IPC: 0.88766 (Simulation time: 2 hr 31 min 55 sec) 
Heartbeat CPU 2 instructions: 1000000000 cycles: 819270421 heartbeat IPC: 0.969756 cumulative IPC: 0.956506 (Simulation time: 2 hr 32 min 13 sec) 
Heartbeat CPU 3 instructions: 500000000 cycles: 820453324 heartbeat IPC: 0.45471 cumulative IPC: 0.431509 (Simulation time: 2 hr 32 min 24 sec) 
Heartbeat CPU 0 instructions: 490000002 cycles: 821394005 heartbeat IPC: 0.459861 cumulative IPC: 0.397768 (Simulation time: 2 hr 32 min 35 sec) 
Heartbeat CPU 1 instructions: 960000000 cycles: 827312663 heartbeat IPC: 0.982739 cumulative IPC: 0.889038 (Simulation time: 2 hr 33 min 33 sec) 
Heartbeat CPU 2 instructions: 1010000000 cycles: 829869010 heartbeat IPC: 0.943522 cumulative IPC: 0.956311 (Simulation time: 2 hr 33 min 52 sec) 
Heartbeat CPU 1 instructions: 970000003 cycles: 838666675 heartbeat IPC: 0.880746 cumulative IPC: 0.888906 (Simulation time: 2 hr 35 min 5 sec) 
Heartbeat CPU 2 instructions: 1020000000 cycles: 840301200 heartbeat IPC: 0.958571 cumulative IPC: 0.956343 (Simulation time: 2 hr 35 min 18 sec) 
Heartbeat CPU 3 instructions: 510000003 cycles: 843329373 heartbeat IPC: 0.437139 cumulative IPC: 0.431688 (Simulation time: 2 hr 35 min 47 sec) 
Heartbeat CPU 1 instructions: 980000000 cycles: 847811443 heartbeat IPC: 1.09352 cumulative IPC: 0.891496 (Simulation time: 2 hr 36 min 33 sec) 
Heartbeat CPU 0 instructions: 500000000 cycles: 848541286 heartbeat IPC: 0.368361 cumulative IPC: 0.396664 (Simulation time: 2 hr 36 min 40 sec) 
Heartbeat CPU 2 instructions: 1030000000 cycles: 850724022 heartbeat IPC: 0.959433 cumulative IPC: 0.956388 (Simulation time: 2 hr 37 min 0 sec) 
Heartbeat CPU 1 instructions: 990000003 cycles: 856156218 heartbeat IPC: 1.19835 cumulative IPC: 0.894999 (Simulation time: 2 hr 37 min 54 sec) 
Heartbeat CPU 2 instructions: 1040000000 cycles: 861132594 heartbeat IPC: 0.960747 cumulative IPC: 0.95645 (Simulation time: 2 hr 38 min 39 sec) 
Heartbeat CPU 3 instructions: 520000000 cycles: 865339907 heartbeat IPC: 0.454328 cumulative IPC: 0.432361 (Simulation time: 2 hr 39 min 18 sec) 
Heartbeat CPU 1 instructions: 1000000000 cycles: 865651573 heartbeat IPC: 1.05315 cumulative IPC: 0.897027 (Simulation time: 2 hr 39 min 21 sec) 
Heartbeat CPU 2 instructions: 1050000000 cycles: 871669406 heartbeat IPC: 0.949054 cumulative IPC: 0.956345 (Simulation time: 2 hr 40 min 13 sec) 
Heartbeat CPU 0 instructions: 510000003 cycles: 875607997 heartbeat IPC: 0.369458 cumulative IPC: 0.395683 (Simulation time: 2 hr 40 min 49 sec) 
Heartbeat CPU 1 instructions: 1010000001 cycles: 875973644 heartbeat IPC: 0.968798 cumulative IPC: 0.898014 (Simulation time: 2 hr 40 min 53 sec) 
Heartbeat CPU 2 instructions: 1060000000 cycles: 881736635 heartbeat IPC: 0.993322 cumulative IPC: 0.956837 (Simulation time: 2 hr 41 min 44 sec) 
Heartbeat CPU 1 instructions: 1020000000 cycles: 887003179 heartbeat IPC: 0.906656 cumulative IPC: 0.898139 (Simulation time: 2 hr 42 min 31 sec) 
Heartbeat CPU 3 instructions: 530000000 cycles: 888445560 heartbeat IPC: 0.432795 cumulative IPC: 0.432375 (Simulation time: 2 hr 42 min 45 sec) 
Heartbeat CPU 2 instructions: 1070000001 cycles: 892282396 heartbeat IPC: 0.948248 cumulative IPC: 0.956719 (Simulation time: 2 hr 43 min 18 sec) 
Heartbeat CPU 1 instructions: 1030000002 cycles: 897674877 heartbeat IPC: 0.937058 cumulative IPC: 0.898677 (Simulation time: 2 hr 44 min 4 sec) 
Heartbeat CPU 0 instructions: 520000000 cycles: 899828355 heartbeat IPC: 0.412876 cumulative IPC: 0.396221 (Simulation time: 2 hr 44 min 26 sec) 
Heartbeat CPU 2 instructions: 1080000000 cycles: 902480689 heartbeat IPC: 0.980556 cumulative IPC: 0.957032 (Simulation time: 2 hr 44 min 51 sec) 
Heartbeat CPU 1 instructions: 1040000000 cycles: 907869957 heartbeat IPC: 0.980865 cumulative IPC: 0.899747 (Simulation time: 2 hr 45 min 36 sec) 
Heartbeat CPU 3 instructions: 540000000 cycles: 911226805 heartbeat IPC: 0.438958 cumulative IPC: 0.432565 (Simulation time: 2 hr 46 min 7 sec) 
Heartbeat CPU 2 instructions: 1090000002 cycles: 912693739 heartbeat IPC: 0.97914 cumulative IPC: 0.957319 (Simulation time: 2 hr 46 min 19 sec) 
Heartbeat CPU 1 instructions: 1050000001 cycles: 917951296 heartbeat IPC: 0.991932 cumulative IPC: 0.900919 (Simulation time: 2 hr 47 min 8 sec) 
Heartbeat CPU 2 instructions: 1100000000 cycles: 923343049 heartbeat IPC: 0.939028 cumulative IPC: 0.957075 (Simulation time: 2 hr 47 min 56 sec) 
Heartbeat CPU 0 instructions: 530000001 cycles: 926520849 heartbeat IPC: 0.374637 cumulative IPC: 0.395502 (Simulation time: 2 hr 48 min 25 sec) 
Heartbeat CPU 1 instructions: 1060000000 cycles: 928588853 heartbeat IPC: 0.940065 cumulative IPC: 0.901438 (Simulation time: 2 hr 48 min 42 sec) 
Heartbeat CPU 2 instructions: 1110000000 cycles: 933706875 heartbeat IPC: 0.964895 cumulative IPC: 0.957175 (Simulation time: 2 hr 49 min 25 sec) 
Heartbeat CPU 3 instructions: 550000000 cycles: 933970856 heartbeat IPC: 0.439675 cumulative IPC: 0.432765 (Simulation time: 2 hr 49 min 28 sec) 
Heartbeat CPU 1 instructions: 1070000003 cycles: 940144309 heartbeat IPC: 0.865392 cumulative IPC: 0.900927 (Simulation time: 2 hr 50 min 19 sec) 
Heartbeat CPU 2 instructions: 1120000000 cycles: 944304331 heartbeat IPC: 0.943623 cumulative IPC: 0.956999 (Simulation time: 2 hr 50 min 55 sec) 
Heartbeat CPU 1 instructions: 1080000000 cycles: 951436302 heartbeat IPC: 0.885583 cumulative IPC: 0.900717 (Simulation time: 2 hr 51 min 52 sec) 
Heartbeat CPU 0 instructions: 540000000 cycles: 951864389 heartbeat IPC: 0.394578 cumulative IPC: 0.395473 (Simulation time: 2 hr 51 min 55 sec) 
Heartbeat CPU 2 instructions: 1130000001 cycles: 954899069 heartbeat IPC: 0.943865 cumulative IPC: 0.956832 (Simulation time: 2 hr 52 min 15 sec) 
Heartbeat CPU 3 instructions: 560000000 cycles: 957340769 heartbeat IPC: 0.427901 cumulative IPC: 0.432629 (Simulation time: 2 hr 52 min 37 sec) 
Heartbeat CPU 1 instructions: 1090000003 cycles: 963215394 heartbeat IPC: 0.848962 cumulative IPC: 0.899989 (Simulation time: 2 hr 53 min 23 sec) 
Heartbeat CPU 2 instructions: 1140000000 cycles: 965464339 heartbeat IPC: 0.946497 cumulative IPC: 0.956702 (Simulation time: 2 hr 53 min 44 sec) 
Heartbeat CPU 1 instructions: 1100000000 cycles: 974610128 heartbeat IPC: 0.877598 cumulative IPC: 0.899689 (Simulation time: 2 hr 54 min 53 sec) 
Heartbeat CPU 2 instructions: 1150000001 cycles: 976525142 heartbeat IPC: 0.904094 cumulative IPC: 0.956018 (Simulation time: 2 hr 55 min 9 sec) 
Heartbeat CPU 3 instructions: 570000000 cycles: 980714780 heartbeat IPC: 0.427826 cumulative IPC: 0.432497 (Simulation time: 2 hr 55 min 38 sec) 
Heartbeat CPU 0 instructions: 550000000 cycles: 985631991 heartbeat IPC: 0.296142 cumulative IPC: 0.391575 (Simulation time: 2 hr 56 min 16 sec) 
Heartbeat CPU 1 instructions: 1110000001 cycles: 986841401 heartbeat IPC: 0.817576 cumulative IPC: 0.898523 (Simulation time: 2 hr 56 min 25 sec) 
Heartbeat CPU 2 instructions: 1160000000 cycles: 988315105 heartbeat IPC: 0.848179 cumulative IPC: 0.954545 (Simulation time: 2 hr 56 min 35 sec) 
Heartbeat CPU 1 instructions: 1120000000 cycles: 998105870 heartbeat IPC: 0.887747 cumulative IPC: 0.898384 (Simulation time: 2 hr 57 min 57 sec) 
Heartbeat CPU 2 instructions: 1170000002 cycles: 999042464 heartbeat IPC: 0.932196 cumulative IPC: 0.954271 (Simulation time: 2 hr 58 min 5 sec) 
Heartbeat CPU 3 instructions: 580000000 cycles: 1003752978 heartbeat IPC: 0.434062 cumulative IPC: 0.432538 (Simulation time: 2 hr 58 min 43 sec) 
Heartbeat CPU 2 instructions: 1180000000 cycles: 1009800970 heartbeat IPC: 0.929497 cumulative IPC: 0.953969 (Simulation time: 2 hr 59 min 33 sec) 
Heartbeat CPU 1 instructions: 1130000000 cycles: 1010122294 heartbeat IPC: 0.832194 cumulative IPC: 0.897486 (Simulation time: 2 hr 59 min 36 sec) 
Heartbeat CPU 0 instructions: 560000000 cycles: 1017634501 heartbeat IPC: 0.312476 cumulative IPC: 0.388738 (Simulation time: 3 hr 0 min 51 sec) 
Heartbeat CPU 2 instructions: 1190000003 cycles: 1020162393 heartbeat IPC: 0.965119 cumulative IPC: 0.954099 (Simulation time: 3 hr 1 min 22 sec) 
Heartbeat CPU 1 instructions: 1140000000 cycles: 1022285961 heartbeat IPC: 0.82212 cumulative IPC: 0.896464 (Simulation time: 3 hr 1 min 43 sec) 
Heartbeat CPU 3 instructions: 590000002 cycles: 1026659181 heartbeat IPC: 0.436563 cumulative IPC: 0.432641 (Simulation time: 3 hr 2 min 37 sec) 
Heartbeat CPU 2 instructions: 1200000000 cycles: 1030409537 heartbeat IPC: 0.975881 cumulative IPC: 0.954345 (Simulation time: 3 hr 3 min 44 sec) 
Heartbeat CPU 1 instructions: 1150000000 cycles: 1032655136 heartbeat IPC: 0.964397 cumulative IPC: 0.89724 (Simulation time: 3 hr 4 min 27 sec) 
Heartbeat CPU 2 instructions: 1210000003 cycles: 1041378201 heartbeat IPC: 0.911688 cumulative IPC: 0.953834 (Simulation time: 3 hr 6 min 1 sec) 
Heartbeat CPU 0 instructions: 570000002 cycles: 1043245010 heartbeat IPC: 0.390465 cumulative IPC: 0.388786 (Simulation time: 3 hr 6 min 14 sec) 
Heartbeat CPU 1 instructions: 1160000000 cycles: 1044388296 heartbeat IPC: 0.852285 cumulative IPC: 0.896666 (Simulation time: 3 hr 6 min 23 sec) 
Heartbeat CPU 3 instructions: 600000000 cycles: 1048133878 heartbeat IPC: 0.465664 cumulative IPC: 0.433409 (Simulation time: 3 hr 6 min 52 sec) 
Heartbeat CPU 2 instructions: 1220000000 cycles: 1052431685 heartbeat IPC: 0.904692 cumulative IPC: 0.953249 (Simulation time: 3 hr 7 min 32 sec) 
Heartbeat CPU 1 instructions: 1170000001 cycles: 1055452987 heartbeat IPC: 0.903776 cumulative IPC: 0.896751 (Simulation time: 3 hr 8 min 4 sec) 
Heartbeat CPU 2 instructions: 1230000001 cycles: 1063586996 heartbeat IPC: 0.896434 cumulative IPC: 0.952573 (Simulation time: 3 hr 9 min 16 sec) 
Heartbeat CPU 0 instructions: 580000000 cycles: 1065128902 heartbeat IPC: 0.456957 cumulative IPC: 0.390374 (Simulation time: 3 hr 9 min 31 sec) 
Heartbeat CPU 1 instructions: 1180000000 cycles: 1067561371 heartbeat IPC: 0.825874 cumulative IPC: 0.89584 (Simulation time: 3 hr 9 min 50 sec) 
Heartbeat CPU 3 instructions: 610000001 cycles: 1071755252 heartbeat IPC: 0.423345 cumulative IPC: 0.433158 (Simulation time: 3 hr 10 min 27 sec) 
Heartbeat CPU 2 instructions: 1240000000 cycles: 1074339305 heartbeat IPC: 0.930033 cumulative IPC: 0.952318 (Simulation time: 3 hr 10 min 49 sec) 
Heartbeat CPU 1 instructions: 1190000000 cycles: 1078226336 heartbeat IPC: 0.93765 cumulative IPC: 0.896308 (Simulation time: 3 hr 11 min 24 sec) 
Heartbeat CPU 2 instructions: 1250000000 cycles: 1085512017 heartbeat IPC: 0.895038 cumulative IPC: 0.951651 (Simulation time: 3 hr 12 min 18 sec) 
Heartbeat CPU 1 instructions: 1200000000 cycles: 1089464528 heartbeat IPC: 0.889823 cumulative IPC: 0.896232 (Simulation time: 3 hr 12 min 53 sec) 
Heartbeat CPU 0 instructions: 590000001 cycles: 1091247065 heartbeat IPC: 0.382875 cumulative IPC: 0.390171 (Simulation time: 3 hr 13 min 7 sec) 
Heartbeat CPU 3 instructions: 620000000 cycles: 1094991822 heartbeat IPC: 0.430356 cumulative IPC: 0.433091 (Simulation time: 3 hr 13 min 37 sec) 
Heartbeat CPU 2 instructions: 1260000000 cycles: 1096336316 heartbeat IPC: 0.923847 cumulative IPC: 0.951342 (Simulation time: 3 hr 13 min 48 sec) 
Heartbeat CPU 1 instructions: 1210000001 cycles: 1101125793 heartbeat IPC: 0.85754 cumulative IPC: 0.89577 (Simulation time: 3 hr 14 min 33 sec) 
Heartbeat CPU 2 instructions: 1270000000 cycles: 1106968326 heartbeat IPC: 0.940556 cumulative IPC: 0.951225 (Simulation time: 3 hr 15 min 24 sec) 
Heartbeat CPU 1 instructions: 1220000000 cycles: 1110929125 heartbeat IPC: 1.02006 cumulative IPC: 0.897006 (Simulation time: 3 hr 15 min 58 sec) 
Heartbeat CPU 0 instructions: 600000000 cycles: 1111788986 heartbeat IPC: 0.486809 cumulative IPC: 0.392183 (Simulation time: 3 hr 16 min 5 sec) 
Heartbeat CPU 2 instructions: 1280000000 cycles: 1116627859 heartbeat IPC: 1.03525 cumulative IPC: 0.952043 (Simulation time: 3 hr 16 min 45 sec) 
Heartbeat CPU 3 instructions: 630000003 cycles: 1118935115 heartbeat IPC: 0.417654 cumulative IPC: 0.432719 (Simulation time: 3 hr 17 min 7 sec) 
Heartbeat CPU 1 instructions: 1230000001 cycles: 1121961988 heartbeat IPC: 0.906383 cumulative IPC: 0.89711 (Simulation time: 3 hr 17 min 33 sec) 
Heartbeat CPU 2 instructions: 1290000000 cycles: 1124768909 heartbeat IPC: 1.22834 cumulative IPC: 0.954294 (Simulation time: 3 hr 18 min 0 sec) 
Heartbeat CPU 1 instructions: 1240000000 cycles: 1132585006 heartbeat IPC: 0.941352 cumulative IPC: 0.897576 (Simulation time: 3 hr 19 min 16 sec) 
Heartbeat CPU 2 instructions: 1300000000 cycles: 1132794584 heartbeat IPC: 1.246 cumulative IPC: 0.956617 (Simulation time: 3 hr 19 min 18 sec) 
Heartbeat CPU 0 instructions: 610000003 cycles: 1133504130 heartbeat IPC: 0.460508 cumulative IPC: 0.393655 (Simulation time: 3 hr 19 min 24 sec) 
Heartbeat CPU 3 instructions: 640000000 cycles: 1141640953 heartbeat IPC: 0.440415 cumulative IPC: 0.432891 (Simulation time: 3 hr 20 min 36 sec) 
Heartbeat CPU 2 instructions: 1310000003 cycles: 1142265345 heartbeat IPC: 1.05588 cumulative IPC: 0.957542 (Simulation time: 3 hr 20 min 42 sec) 
Heartbeat CPU 1 instructions: 1250000001 cycles: 1143878564 heartbeat IPC: 0.885461 cumulative IPC: 0.897442 (Simulation time: 3 hr 20 min 56 sec) 
Heartbeat CPU 2 instructions: 1320000000 cycles: 1152314871 heartbeat IPC: 0.995072 cumulative IPC: 0.957909 (Simulation time: 3 hr 22 min 8 sec) 
Heartbeat CPU 1 instructions: 1260000000 cycles: 1154407484 heartbeat IPC: 0.949765 cumulative IPC: 0.897977 (Simulation time: 3 hr 22 min 28 sec) 
Heartbeat CPU 0 instructions: 620000000 cycles: 1155842424 heartbeat IPC: 0.447662 cumulative IPC: 0.394825 (Simulation time: 3 hr 22 min 39 sec) 
Heartbeat CPU 2 instructions: 1330000001 cycles: 1162676731 heartbeat IPC: 0.965078 cumulative IPC: 0.95798 (Simulation time: 3 hr 23 min 36 sec) 
Heartbeat CPU 3 instructions: 650000003 cycles: 1163472079 heartbeat IPC: 0.458062 cumulative IPC: 0.43342 (Simulation time: 3 hr 23 min 42 sec) 
Heartbeat CPU 1 instructions: 1270000003 cycles: 1165837964 heartbeat IPC: 0.874854 cumulative IPC: 0.897723 (Simulation time: 3 hr 23 min 57 sec) 
Finished CPU 2 instructions: 1000000001 cycles: 1044101689 cumulative IPC: 0.957761 (Simulation time: 3 hr 24 min 28 sec) 
Heartbeat CPU 2 instructions: 1340000000 cycles: 1173062495 heartbeat IPC: 0.962856 cumulative IPC: 0.958029 (Simulation time: 3 hr 25 min 0 sec) 
Heartbeat CPU 1 instructions: 1280000000 cycles: 1176417518 heartbeat IPC: 0.945219 cumulative IPC: 0.898201 (Simulation time: 3 hr 25 min 26 sec) 
Heartbeat CPU 2 instructions: 1350000000 cycles: 1184115563 heartbeat IPC: 0.904726 cumulative IPC: 0.957472 (Simulation time: 3 hr 26 min 29 sec) 
Heartbeat CPU 3 instructions: 660000000 cycles: 1185578452 heartbeat IPC: 0.452358 cumulative IPC: 0.433815 (Simulation time: 3 hr 26 min 41 sec) 
Heartbeat CPU 1 instructions: 1290000002 cycles: 1187173554 heartbeat IPC: 0.929711 cumulative IPC: 0.898521 (Simulation time: 3 hr 26 min 53 sec) 
Heartbeat CPU 0 instructions: 630000000 cycles: 1192554316 heartbeat IPC: 0.272391 cumulative IPC: 0.390614 (Simulation time: 3 hr 27 min 38 sec) 
Heartbeat CPU 2 instructions: 1360000000 cycles: 1195307869 heartbeat IPC: 0.893471 cumulative IPC: 0.956803 (Simulation time: 3 hr 28 min 1 sec) 
Heartbeat CPU 1 instructions: 1300000000 cycles: 1198221713 heartbeat IPC: 0.905128 cumulative IPC: 0.898589 (Simulation time: 3 hr 28 min 25 sec) 
Heartbeat CPU 2 instructions: 1370000000 cycles: 1205584333 heartbeat IPC: 0.973097 cumulative IPC: 0.956958 (Simulation time: 3 hr 29 min 26 sec) 
Heartbeat CPU 3 instructions: 670000002 cycles: 1207062955 heartbeat IPC: 0.465452 cumulative IPC: 0.434443 (Simulation time: 3 hr 29 min 39 sec) 
Heartbeat CPU 1 instructions: 1310000003 cycles: 1209932708 heartbeat IPC: 0.853899 cumulative IPC: 0.898106 (Simulation time: 3 hr 30 min 2 sec) 
Heartbeat CPU 2 instructions: 1380000000 cycles: 1214465923 heartbeat IPC: 1.12592 cumulative IPC: 0.958336 (Simulation time: 3 hr 30 min 43 sec) 
Heartbeat CPU 0 instructions: 640000000 cycles: 1219402913 heartbeat IPC: 0.372459 cumulative IPC: 0.390169 (Simulation time: 3 hr 31 min 32 sec) 
Heartbeat CPU 1 instructions: 1320000000 cycles: 1221162335 heartbeat IPC: 0.890501 cumulative IPC: 0.898028 (Simulation time: 3 hr 31 min 47 sec) 
Heartbeat CPU 2 instructions: 1390000003 cycles: 1222166681 heartbeat IPC: 1.29857 cumulative IPC: 0.960724 (Simulation time: 3 hr 31 min 57 sec) 
Heartbeat CPU 3 instructions: 680000000 cycles: 1229768161 heartbeat IPC: 0.440428 cumulative IPC: 0.434566 (Simulation time: 3 hr 32 min 56 sec) 
Heartbeat CPU 2 instructions: 1400000000 cycles: 1232217425 heartbeat IPC: 0.994951 cumulative IPC: 0.961035 (Simulation time: 3 hr 33 min 16 sec) 
Heartbeat CPU 1 instructions: 1330000001 cycles: 1232619598 heartbeat IPC: 0.872809 cumulative IPC: 0.897767 (Simulation time: 3 hr 33 min 19 sec) 
Finished CPU 1 instructions: 1000000000 cycles: 1114027367 cumulative IPC: 0.897644 (Simulation time: 3 hr 34 min 16 sec) 
Heartbeat CPU 2 instructions: 1410000002 cycles: 1242430702 heartbeat IPC: 0.979118 cumulative IPC: 0.9612 (Simulation time: 3 hr 34 min 46 sec) 
Heartbeat CPU 1 instructions: 1340000000 cycles: 1243415902 heartbeat IPC: 0.926243 cumulative IPC: 0.898042 (Simulation time: 3 hr 34 min 54 sec) 
Heartbeat CPU 0 instructions: 650000000 cycles: 1248373631 heartbeat IPC: 0.345176 cumulative IPC: 0.389008 (Simulation time: 3 hr 35 min 36 sec) 
Heartbeat CPU 3 instructions: 690000002 cycles: 1251032158 heartbeat IPC: 0.470279 cumulative IPC: 0.435241 (Simulation time: 3 hr 35 min 58 sec) 
Heartbeat CPU 2 instructions: 1420000000 cycles: 1252936107 heartbeat IPC: 0.951891 cumulative IPC: 0.961114 (Simulation time: 3 hr 36 min 14 sec) 
Heartbeat CPU 1 instructions: 1350000003 cycles: 1254231154 heartbeat IPC: 0.92462 cumulative IPC: 0.898297 (Simulation time: 3 hr 36 min 27 sec) 
Heartbeat CPU 2 instructions: 1430000000 cycles: 1263879798 heartbeat IPC: 0.913768 cumulative IPC: 0.960658 (Simulation time: 3 hr 37 min 49 sec) 
Heartbeat CPU 1 instructions: 1360000000 cycles: 1265843902 heartbeat IPC: 0.861122 cumulative IPC: 0.897918 (Simulation time: 3 hr 38 min 6 sec) 
Heartbeat CPU 0 instructions: 660000000 cycles: 1271512674 heartbeat IPC: 0.43217 cumulative IPC: 0.389879 (Simulation time: 3 hr 38 min 52 sec) 
Heartbeat CPU 3 instructions: 700000000 cycles: 1272787920 heartbeat IPC: 0.459648 cumulative IPC: 0.435703 (Simulation time: 3 hr 39 min 2 sec) 
Heartbeat CPU 2 instructions: 1440000000 cycles: 1274521302 heartbeat IPC: 0.939717 cumulative IPC: 0.960465 (Simulation time: 3 hr 39 min 16 sec) 
Heartbeat CPU 1 instructions: 1370000000 cycles: 1276610288 heartbeat IPC: 0.928817 cumulative IPC: 0.898207 (Simulation time: 3 hr 39 min 39 sec) 
Heartbeat CPU 2 instructions: 1450000003 cycles: 1284971323 heartbeat IPC: 0.956936 cumulative IPC: 0.960433 (Simulation time: 3 hr 40 min 50 sec) 
Heartbeat CPU 1 instructions: 1380000000 cycles: 1288157492 heartbeat IPC: 0.86601 cumulative IPC: 0.897888 (Simulation time: 3 hr 41 min 19 sec) 
Heartbeat CPU 0 instructions: 670000000 cycles: 1293493606 heartbeat IPC: 0.45494 cumulative IPC: 0.391103 (Simulation time: 3 hr 42 min 9 sec) 
Heartbeat CPU 2 instructions: 1460000000 cycles: 1295702541 heartbeat IPC: 0.93186 cumulative IPC: 0.960171 (Simulation time: 3 hr 42 min 28 sec) 
Heartbeat CPU 3 instructions: 710000001 cycles: 1296197355 heartbeat IPC: 0.427178 cumulative IPC: 0.435533 (Simulation time: 3 hr 42 min 31 sec) 
Heartbeat CPU 1 instructions: 1390000000 cycles: 1299283505 heartbeat IPC: 0.898795 cumulative IPC: 0.897896 (Simulation time: 3 hr 43 min 1 sec) 
Heartbeat CPU 2 instructions: 1470000001 cycles: 1306496937 heartbeat IPC: 0.926407 cumulative IPC: 0.959862 (Simulation time: 3 hr 44 min 1 sec) 
Heartbeat CPU 1 instructions: 1400000000 cycles: 1311101673 heartbeat IPC: 0.846155 cumulative IPC: 0.89738 (Simulation time: 3 hr 44 min 42 sec) 
Heartbeat CPU 2 instructions: 1480000000 cycles: 1317289797 heartbeat IPC: 0.926538 cumulative IPC: 0.959561 (Simulation time: 3 hr 45 min 37 sec) 
Heartbeat CPU 3 instructions: 720000000 cycles: 1318095092 heartbeat IPC: 0.456668 cumulative IPC: 0.435921 (Simulation time: 3 hr 45 min 45 sec) 
Heartbeat CPU 0 instructions: 680000000 cycles: 1319497172 heartbeat IPC: 0.384563 cumulative IPC: 0.390961 (Simulation time: 3 hr 45 min 56 sec) 
Heartbeat CPU 1 instructions: 1410000000 cycles: 1323030156 heartbeat IPC: 0.83833 cumulative IPC: 0.896792 (Simulation time: 3 hr 46 min 24 sec) 
Heartbeat CPU 2 instructions: 1490000003 cycles: 1328070796 heartbeat IPC: 0.927558 cumulative IPC: 0.959274 (Simulation time: 3 hr 47 min 9 sec) 
Heartbeat CPU 1 instructions: 1420000000 cycles: 1333481105 heartbeat IPC: 0.956851 cumulative IPC: 0.897312 (Simulation time: 3 hr 47 min 59 sec) 
Heartbeat CPU 2 instructions: 1500000000 cycles: 1338852139 heartbeat IPC: 0.927528 cumulative IPC: 0.958992 (Simulation time: 3 hr 48 min 46 sec) 
Heartbeat CPU 3 instructions: 730000003 cycles: 1340928177 heartbeat IPC: 0.437961 cumulative IPC: 0.435959 (Simulation time: 3 hr 49 min 3 sec) 
Heartbeat CPU 1 instructions: 1430000002 cycles: 1344668299 heartbeat IPC: 0.893879 cumulative IPC: 0.89728 (Simulation time: 3 hr 49 min 38 sec) 
Heartbeat CPU 0 instructions: 690000000 cycles: 1344973093 heartbeat IPC: 0.392528 cumulative IPC: 0.390994 (Simulation time: 3 hr 49 min 41 sec) 
Heartbeat CPU 2 instructions: 1510000000 cycles: 1349892041 heartbeat IPC: 0.905805 cumulative IPC: 0.958512 (Simulation time: 3 hr 50 min 21 sec) 
Heartbeat CPU 1 instructions: 1440000000 cycles: 1357212556 heartbeat IPC: 0.797177 cumulative IPC: 0.896261 (Simulation time: 3 hr 51 min 29 sec) 
Heartbeat CPU 2 instructions: 1520000000 cycles: 1360370389 heartbeat IPC: 0.954349 cumulative IPC: 0.958477 (Simulation time: 3 hr 51 min 57 sec) 
Heartbeat CPU 3 instructions: 740000000 cycles: 1364760621 heartbeat IPC: 0.419596 cumulative IPC: 0.435645 (Simulation time: 3 hr 52 min 36 sec) 
Heartbeat CPU 1 instructions: 1450000003 cycles: 1368317799 heartbeat IPC: 0.900476 cumulative IPC: 0.896299 (Simulation time: 3 hr 53 min 5 sec) 
Heartbeat CPU 0 instructions: 700000000 cycles: 1369075950 heartbeat IPC: 0.414889 cumulative IPC: 0.391457 (Simulation time: 3 hr 53 min 12 sec) 
Heartbeat CPU 2 instructions: 1530000001 cycles: 1370722325 heartbeat IPC: 0.966003 cumulative IPC: 0.95854 (Simulation time: 3 hr 53 min 25 sec) 
Heartbeat CPU 1 instructions: 1460000000 cycles: 1380539321 heartbeat IPC: 0.818228 cumulative IPC: 0.895539 (Simulation time: 3 hr 54 min 50 sec) 
Heartbeat CPU 2 instructions: 1540000000 cycles: 1381176861 heartbeat IPC: 0.956523 cumulative IPC: 0.958523 (Simulation time: 3 hr 54 min 56 sec) 
Heartbeat CPU 3 instructions: 750000001 cycles: 1387049164 heartbeat IPC: 0.448661 cumulative IPC: 0.435875 (Simulation time: 3 hr 55 min 47 sec) 
Heartbeat CPU 2 instructions: 1550000002 cycles: 1391147487 heartbeat IPC: 1.00295 cumulative IPC: 0.958873 (Simulation time: 3 hr 56 min 27 sec) 
Heartbeat CPU 1 instructions: 1470000002 cycles: 1391821372 heartbeat IPC: 0.886364 cumulative IPC: 0.895457 (Simulation time: 3 hr 56 min 33 sec) 
Heartbeat CPU 0 instructions: 710000000 cycles: 1395459702 heartbeat IPC: 0.379021 cumulative IPC: 0.391198 (Simulation time: 3 hr 57 min 1 sec) 
Heartbeat CPU 2 instructions: 1560000000 cycles: 1401378843 heartbeat IPC: 0.977387 cumulative IPC: 0.959021 (Simulation time: 3 hr 57 min 52 sec) 
Heartbeat CPU 1 instructions: 1480000000 cycles: 1403772893 heartbeat IPC: 0.836713 cumulative IPC: 0.894908 (Simulation time: 3 hr 58 min 10 sec) 
Heartbeat CPU 3 instructions: 760000000 cycles: 1409800794 heartbeat IPC: 0.439529 cumulative IPC: 0.435939 (Simulation time: 3 hr 59 min 1 sec) 
Heartbeat CPU 2 instructions: 1570000001 cycles: 1411800025 heartbeat IPC: 0.959584 cumulative IPC: 0.959026 (Simulation time: 3 hr 59 min 19 sec) 
Heartbeat CPU 1 instructions: 1490000003 cycles: 1415744998 heartbeat IPC: 0.835275 cumulative IPC: 0.894355 (Simulation time: 3 hr 59 min 52 sec) 
Heartbeat CPU 2 instructions: 1580000000 cycles: 1422265071 heartbeat IPC: 0.955562 cumulative IPC: 0.958998 (Simulation time: 4 hr 0 min 47 sec) 
Heartbeat CPU 1 instructions: 1500000000 cycles: 1426504941 heartbeat IPC: 0.929373 cumulative IPC: 0.894644 (Simulation time: 4 hr 1 min 26 sec) 
Heartbeat CPU 0 instructions: 720000000 cycles: 1429106142 heartbeat IPC: 0.297208 cumulative IPC: 0.388773 (Simulation time: 4 hr 1 min 49 sec) 
Heartbeat CPU 2 instructions: 1590000002 cycles: 1432675596 heartbeat IPC: 0.960567 cumulative IPC: 0.95901 (Simulation time: 4 hr 2 min 21 sec) 
Heartbeat CPU 3 instructions: 770000001 cycles: 1432880880 heartbeat IPC: 0.433274 cumulative IPC: 0.435892 (Simulation time: 4 hr 2 min 23 sec) 
Heartbeat CPU 1 instructions: 1510000000 cycles: 1438016822 heartbeat IPC: 0.868668 cumulative IPC: 0.894416 (Simulation time: 4 hr 3 min 9 sec) 
Heartbeat CPU 2 instructions: 1600000000 cycles: 1442958049 heartbeat IPC: 0.97253 cumulative IPC: 0.959116 (Simulation time: 4 hr 3 min 56 sec) 
Heartbeat CPU 1 instructions: 1520000000 cycles: 1448961505 heartbeat IPC: 0.913686 cumulative IPC: 0.894576 (Simulation time: 4 hr 4 min 56 sec) 
Heartbeat CPU 2 instructions: 1610000002 cycles: 1452747260 heartbeat IPC: 1.02153 cumulative IPC: 0.959576 (Simulation time: 4 hr 5 min 31 sec) 
Heartbeat CPU 0 instructions: 730000001 cycles: 1453289625 heartbeat IPC: 0.413505 cumulative IPC: 0.389223 (Simulation time: 4 hr 5 min 38 sec) 
Heartbeat CPU 3 instructions: 780000000 cycles: 1456064233 heartbeat IPC: 0.431344 cumulative IPC: 0.435813 (Simulation time: 4 hr 6 min 2 sec) 
Heartbeat CPU 1 instructions: 1530000002 cycles: 1460987505 heartbeat IPC: 0.831532 cumulative IPC: 0.894008 (Simulation time: 4 hr 6 min 45 sec) 
Heartbeat CPU 2 instructions: 1620000000 cycles: 1462774011 heartbeat IPC: 0.997332 cumulative IPC: 0.959859 (Simulation time: 4 hr 7 min 1 sec) 
Heartbeat CPU 1 instructions: 1540000000 cycles: 1472658100 heartbeat IPC: 0.856854 cumulative IPC: 0.893686 (Simulation time: 4 hr 8 min 31 sec) 
Heartbeat CPU 2 instructions: 1630000003 cycles: 1473019532 heartbeat IPC: 0.976037 cumulative IPC: 0.959982 (Simulation time: 4 hr 8 min 34 sec) 
Heartbeat CPU 0 instructions: 740000000 cycles: 1476110262 heartbeat IPC: 0.4382 cumulative IPC: 0.390051 (Simulation time: 4 hr 9 min 1 sec) 
Heartbeat CPU 3 instructions: 790000000 cycles: 1478941740 heartbeat IPC: 0.437111 cumulative IPC: 0.435835 (Simulation time: 4 hr 9 min 28 sec) 
Heartbeat CPU 2 instructions: 1640000000 cycles: 1483553081 heartbeat IPC: 0.949347 cumulative IPC: 0.959899 (Simulation time: 4 hr 10 min 7 sec) 
Heartbeat CPU 1 instructions: 1550000002 cycles: 1484662951 heartbeat IPC: 0.832997 cumulative IPC: 0.89315 (Simulation time: 4 hr 10 min 18 sec) 
Heartbeat CPU 2 instructions: 1650000002 cycles: 1493801141 heartbeat IPC: 0.975795 cumulative IPC: 0.960019 (Simulation time: 4 hr 11 min 44 sec) 
Heartbeat CPU 1 instructions: 1560000000 cycles: 1495548092 heartbeat IPC: 0.918683 cumulative IPC: 0.893353 (Simulation time: 4 hr 12 min 4 sec) 
Heartbeat CPU 0 instructions: 750000001 cycles: 1496095992 heartbeat IPC: 0.500357 cumulative IPC: 0.391659 (Simulation time: 4 hr 12 min 9 sec) 
Heartbeat CPU 3 instructions: 800000000 cycles: 1500373510 heartbeat IPC: 0.466597 cumulative IPC: 0.436314 (Simulation time: 4 hr 12 min 51 sec) 
Heartbeat CPU 2 instructions: 1660000000 cycles: 1503630458 heartbeat IPC: 1.01736 cumulative IPC: 0.960427 (Simulation time: 4 hr 13 min 20 sec) 
Heartbeat CPU 1 instructions: 1570000003 cycles: 1506118348 heartbeat IPC: 0.946051 cumulative IPC: 0.893757 (Simulation time: 4 hr 13 min 44 sec) 
Heartbeat CPU 2 instructions: 1670000002 cycles: 1513360255 heartbeat IPC: 1.02777 cumulative IPC: 0.960899 (Simulation time: 4 hr 14 min 51 sec) 
Heartbeat CPU 1 instructions: 1580000000 cycles: 1517109146 heartbeat IPC: 0.909852 cumulative IPC: 0.893884 (Simulation time: 4 hr 15 min 22 sec) 
Heartbeat CPU 0 instructions: 760000000 cycles: 1519659746 heartbeat IPC: 0.424381 cumulative IPC: 0.392212 (Simulation time: 4 hr 15 min 46 sec) 
Heartbeat CPU 3 instructions: 810000003 cycles: 1522857402 heartbeat IPC: 0.444763 cumulative IPC: 0.43645 (Simulation time: 4 hr 16 min 16 sec) 
Heartbeat CPU 2 instructions: 1680000000 cycles: 1523438484 heartbeat IPC: 0.992238 cumulative IPC: 0.961125 (Simulation time: 4 hr 16 min 21 sec) 
Heartbeat CPU 1 instructions: 1590000003 cycles: 1527718694 heartbeat IPC: 0.942548 cumulative IPC: 0.894252 (Simulation time: 4 hr 17 min 3 sec) 
Heartbeat CPU 2 instructions: 1690000000 cycles: 1534186121 heartbeat IPC: 0.930437 cumulative IPC: 0.960891 (Simulation time: 4 hr 17 min 59 sec) 
Heartbeat CPU 1 instructions: 1600000000 cycles: 1539178638 heartbeat IPC: 0.872604 cumulative IPC: 0.894076 (Simulation time: 4 hr 18 min 40 sec) 
Heartbeat CPU 2 instructions: 1700000000 cycles: 1543790870 heartbeat IPC: 1.04115 cumulative IPC: 0.961435 (Simulation time: 4 hr 19 min 19 sec) 
Heartbeat CPU 3 instructions: 820000000 cycles: 1544991371 heartbeat IPC: 0.451794 cumulative IPC: 0.43669 (Simulation time: 4 hr 19 min 28 sec) 
Heartbeat CPU 0 instructions: 770000000 cycles: 1547875182 heartbeat IPC: 0.354416 cumulative IPC: 0.391462 (Simulation time: 4 hr 20 min 0 sec) 
Heartbeat CPU 1 instructions: 1610000000 cycles: 1549985817 heartbeat IPC: 0.925311 cumulative IPC: 0.894313 (Simulation time: 4 hr 20 min 16 sec) 
Heartbeat CPU 2 instructions: 1710000001 cycles: 1554705908 heartbeat IPC: 0.916167 cumulative IPC: 0.961089 (Simulation time: 4 hr 21 min 0 sec) 
Heartbeat CPU 1 instructions: 1620000000 cycles: 1561700968 heartbeat IPC: 0.853595 cumulative IPC: 0.893981 (Simulation time: 4 hr 22 min 3 sec) 
Heartbeat CPU 2 instructions: 1720000000 cycles: 1564968800 heartbeat IPC: 0.974384 cumulative IPC: 0.961184 (Simulation time: 4 hr 22 min 34 sec) 
Heartbeat CPU 3 instructions: 830000001 cycles: 1565267238 heartbeat IPC: 0.493197 cumulative IPC: 0.437485 (Simulation time: 4 hr 22 min 36 sec) 
Heartbeat CPU 1 instructions: 1630000001 cycles: 1572344668 heartbeat IPC: 0.939523 cumulative IPC: 0.894316 (Simulation time: 4 hr 23 min 41 sec) 
Heartbeat CPU 0 instructions: 780000000 cycles: 1573268721 heartbeat IPC: 0.393801 cumulative IPC: 0.391503 (Simulation time: 4 hr 23 min 48 sec) 
Heartbeat CPU 2 instructions: 1730000003 cycles: 1575883398 heartbeat IPC: 0.916204 cumulative IPC: 0.960845 (Simulation time: 4 hr 24 min 9 sec) 
Heartbeat CPU 1 instructions: 1640000000 cycles: 1584202644 heartbeat IPC: 0.843314 cumulative IPC: 0.893902 (Simulation time: 4 hr 25 min 25 sec) 
Heartbeat CPU 3 instructions: 840000000 cycles: 1585427476 heartbeat IPC: 0.496026 cumulative IPC: 0.438293 (Simulation time: 4 hr 25 min 36 sec) 
Heartbeat CPU 2 instructions: 1740000000 cycles: 1586048134 heartbeat IPC: 0.983793 cumulative IPC: 0.961005 (Simulation time: 4 hr 25 min 42 sec) 
Heartbeat CPU 2 instructions: 1750000003 cycles: 1595422157 heartbeat IPC: 1.06678 cumulative IPC: 0.961679 (Simulation time: 4 hr 27 min 4 sec) 
Heartbeat CPU 1 instructions: 1650000002 cycles: 1595512951 heartbeat IPC: 0.884149 cumulative IPC: 0.893827 (Simulation time: 4 hr 27 min 5 sec) 
Heartbeat CPU 0 instructions: 790000000 cycles: 1603206384 heartbeat IPC: 0.334027 cumulative IPC: 0.390339 (Simulation time: 4 hr 28 min 11 sec) 
Heartbeat CPU 3 instructions: 850000002 cycles: 1605069183 heartbeat IPC: 0.509121 cumulative IPC: 0.439233 (Simulation time: 4 hr 28 min 29 sec) 
Heartbeat CPU 2 instructions: 1760000000 cycles: 1606758596 heartbeat IPC: 0.882111 cumulative IPC: 0.961071 (Simulation time: 4 hr 28 min 44 sec) 
Heartbeat CPU 1 instructions: 1660000000 cycles: 1607236497 heartbeat IPC: 0.852984 cumulative IPC: 0.893504 (Simulation time: 4 hr 28 min 47 sec) 
Heartbeat CPU 2 instructions: 1770000000 cycles: 1618192084 heartbeat IPC: 0.874624 cumulative IPC: 0.960409 (Simulation time: 4 hr 30 min 18 sec) 
Heartbeat CPU 1 instructions: 1670000000 cycles: 1619818125 heartbeat IPC: 0.79481 cumulative IPC: 0.892673 (Simulation time: 4 hr 30 min 29 sec) 
Heartbeat CPU 3 instructions: 860000000 cycles: 1624703029 heartbeat IPC: 0.509324 cumulative IPC: 0.440151 (Simulation time: 4 hr 31 min 8 sec) 
Heartbeat CPU 2 instructions: 1780000000 cycles: 1630130463 heartbeat IPC: 0.837635 cumulative IPC: 0.959435 (Simulation time: 4 hr 31 min 56 sec) 
Heartbeat CPU 0 instructions: 800000000 cycles: 1631520963 heartbeat IPC: 0.353175 cumulative IPC: 0.38964 (Simulation time: 4 hr 32 min 6 sec) 
Heartbeat CPU 1 instructions: 1680000000 cycles: 1631741035 heartbeat IPC: 0.838721 cumulative IPC: 0.892246 (Simulation time: 4 hr 32 min 7 sec) 
Heartbeat CPU 2 instructions: 1790000003 cycles: 1642661620 heartbeat IPC: 0.798011 cumulative IPC: 0.958102 (Simulation time: 4 hr 33 min 29 sec) 
Heartbeat CPU 1 instructions: 1690000003 cycles: 1643799093 heartbeat IPC: 0.829321 cumulative IPC: 0.891746 (Simulation time: 4 hr 33 min 38 sec) 
Heartbeat CPU 3 instructions: 870000001 cycles: 1644985373 heartbeat IPC: 0.49304 cumulative IPC: 0.440857 (Simulation time: 4 hr 33 min 51 sec) 
Heartbeat CPU 2 instructions: 1800000000 cycles: 1653876708 heartbeat IPC: 0.891656 cumulative IPC: 0.957614 (Simulation time: 4 hr 35 min 1 sec) 
Heartbeat CPU 1 instructions: 1700000000 cycles: 1654582065 heartbeat IPC: 0.927388 cumulative IPC: 0.891997 (Simulation time: 4 hr 35 min 7 sec) 
Heartbeat CPU 0 instructions: 810000003 cycles: 1657799827 heartbeat IPC: 0.380534 cumulative IPC: 0.389484 (Simulation time: 4 hr 35 min 35 sec) 
Heartbeat CPU 2 instructions: 1810000001 cycles: 1665158419 heartbeat IPC: 0.88639 cumulative IPC: 0.957092 (Simulation time: 4 hr 36 min 34 sec) 
Heartbeat CPU 1 instructions: 1710000000 cycles: 1666018633 heartbeat IPC: 0.874388 cumulative IPC: 0.891867 (Simulation time: 4 hr 36 min 41 sec) 
Heartbeat CPU 3 instructions: 880000000 cycles: 1666924984 heartbeat IPC: 0.455797 cumulative IPC: 0.44107 (Simulation time: 4 hr 36 min 50 sec) 
Heartbeat CPU 2 instructions: 1820000000 cycles: 1676275718 heartbeat IPC: 0.899499 cumulative IPC: 0.95668 (Simulation time: 4 hr 38 min 14 sec) 
Heartbeat CPU 1 instructions: 1720000000 cycles: 1676760759 heartbeat IPC: 0.930914 cumulative IPC: 0.892137 (Simulation time: 4 hr 38 min 18 sec) 
Heartbeat CPU 0 instructions: 820000000 cycles: 1678219379 heartbeat IPC: 0.489727 cumulative IPC: 0.390802 (Simulation time: 4 hr 38 min 32 sec) 
Heartbeat CPU 1 instructions: 1730000002 cycles: 1686246138 heartbeat IPC: 1.05425 cumulative IPC: 0.893122 (Simulation time: 4 hr 39 min 57 sec) 
Heartbeat CPU 2 instructions: 1830000003 cycles: 1686514359 heartbeat IPC: 0.976692 cumulative IPC: 0.956811 (Simulation time: 4 hr 39 min 59 sec) 
Heartbeat CPU 3 instructions: 890000000 cycles: 1689207304 heartbeat IPC: 0.448786 cumulative IPC: 0.44118 (Simulation time: 4 hr 40 min 24 sec) 
Heartbeat CPU 1 instructions: 1740000000 cycles: 1694465865 heartbeat IPC: 1.21659 cumulative IPC: 0.894816 (Simulation time: 4 hr 41 min 17 sec) 
Heartbeat CPU 2 instructions: 1840000000 cycles: 1697515960 heartbeat IPC: 0.908958 cumulative IPC: 0.956476 (Simulation time: 4 hr 41 min 47 sec) 
Heartbeat CPU 0 instructions: 830000002 cycles: 1697951419 heartbeat IPC: 0.50679 cumulative IPC: 0.392258 (Simulation time: 4 hr 41 min 52 sec) 
Heartbeat CPU 1 instructions: 1750000003 cycles: 1702486759 heartbeat IPC: 1.24674 cumulative IPC: 0.896606 (Simulation time: 4 hr 42 min 36 sec) 
Heartbeat CPU 2 instructions: 1850000002 cycles: 1708311749 heartbeat IPC: 0.926287 cumulative IPC: 0.95627 (Simulation time: 4 hr 43 min 31 sec) 
Heartbeat CPU 3 instructions: 900000000 cycles: 1711444338 heartbeat IPC: 0.4497 cumulative IPC: 0.441299 (Simulation time: 4 hr 43 min 56 sec) 
Heartbeat CPU 1 instructions: 1760000000 cycles: 1712608626 heartbeat IPC: 0.98796 cumulative IPC: 0.897189 (Simulation time: 4 hr 44 min 6 sec) 
Heartbeat CPU 2 instructions: 1860000000 cycles: 1718409476 heartbeat IPC: 0.990322 cumulative IPC: 0.956486 (Simulation time: 4 hr 45 min 1 sec) 
Heartbeat CPU 0 instructions: 840000000 cycles: 1722027471 heartbeat IPC: 0.41535 cumulative IPC: 0.392606 (Simulation time: 4 hr 45 min 36 sec) 
Heartbeat CPU 1 instructions: 1770000001 cycles: 1722706783 heartbeat IPC: 0.99028 cumulative IPC: 0.897777 (Simulation time: 4 hr 45 min 44 sec) 
Heartbeat CPU 2 instructions: 1870000000 cycles: 1728559655 heartbeat IPC: 0.985204 cumulative IPC: 0.956668 (Simulation time: 4 hr 46 min 41 sec) 
Heartbeat CPU 1 instructions: 1780000000 cycles: 1733237996 heartbeat IPC: 0.949558 cumulative IPC: 0.898116 (Simulation time: 4 hr 47 min 22 sec) 
[...]
Heartbeat CPU 1 instructions: 2480000000 cycles: 2502612762 heartbeat IPC: 0.929863 cumulative IPC: 0.901907 (Simulation time: 6 hr 34 min 50 sec) 
Heartbeat CPU 2 instructions: 2620000000 cycles: 2505219983 heartbeat IPC: 0.914219 cumulative IPC: 0.959606 (Simulation time: 6 hr 35 min 14 sec) 
Heartbeat CPU 3 instructions: 1280000000 cycles: 2510956710 heartbeat IPC: 0.491965 cumulative IPC: 0.45269 (Simulation time: 6 hr 36 min 2 sec) 
Heartbeat CPU 1 instructions: 2490000000 cycles: 2513114704 heartbeat IPC: 0.952205 cumulative IPC: 0.902128 (Simulation time: 6 hr 36 min 21 sec) 
Heartbeat CPU 2 instructions: 2630000002 cycles: 2515820755 heartbeat IPC: 0.943328 cumulative IPC: 0.959534 (Simulation time: 6 hr 36 min 41 sec) 
Heartbeat CPU 0 instructions: 1160000000 cycles: 2522317701 heartbeat IPC: 0.411084 cumulative IPC: 0.395026 (Simulation time: 6 hr 37 min 31 sec) 
Heartbeat CPU 1 instructions: 2500000000 cycles: 2524176595 heartbeat IPC: 0.904005 cumulative IPC: 0.902137 (Simulation time: 6 hr 37 min 48 sec) 
Heartbeat CPU 2 instructions: 2640000000 cycles: 2526207146 heartbeat IPC: 0.962798 cumulative IPC: 0.959548 (Simulation time: 6 hr 38 min 5 sec) 
Heartbeat CPU 3 instructions: 1290000000 cycles: 2531356392 heartbeat IPC: 0.490204 cumulative IPC: 0.453008 (Simulation time: 6 hr 38 min 51 sec) 
Heartbeat CPU 1 instructions: 2510000002 cycles: 2534990226 heartbeat IPC: 0.924759 cumulative IPC: 0.902238 (Simulation time: 6 hr 39 min 23 sec) 
Heartbeat CPU 2 instructions: 2650000003 cycles: 2536345532 heartbeat IPC: 0.986351 cumulative IPC: 0.959661 (Simulation time: 6 hr 39 min 36 sec) 
Heartbeat CPU 0 instructions: 1170000003 cycles: 2538289350 heartbeat IPC: 0.62611 cumulative IPC: 0.396555 (Simulation time: 6 hr 39 min 50 sec) 
Heartbeat CPU 1 instructions: 2520000000 cycles: 2546392392 heartbeat IPC: 0.877026 cumulative IPC: 0.90212 (Simulation time: 6 hr 41 min 0 sec) 
Heartbeat CPU 2 instructions: 2660000000 cycles: 2546677210 heartbeat IPC: 0.967897 cumulative IPC: 0.959696 (Simulation time: 6 hr 41 min 3 sec) 
Heartbeat CPU 3 instructions: 1300000000 cycles: 2551581347 heartbeat IPC: 0.494439 cumulative IPC: 0.453353 (Simulation time: 6 hr 41 min 43 sec) 
Heartbeat CPU 2 instructions: 2670000001 cycles: 2557181675 heartbeat IPC: 0.951976 cumulative IPC: 0.959663 (Simulation time: 6 hr 42 min 29 sec) 
Heartbeat CPU 1 instructions: 2530000000 cycles: 2557200299 heartbeat IPC: 0.925249 cumulative IPC: 0.902222 (Simulation time: 6 hr 42 min 29 sec) 
Heartbeat CPU 0 instructions: 1180000000 cycles: 2563320112 heartbeat IPC: 0.399508 cumulative IPC: 0.396586 (Simulation time: 6 hr 43 min 17 sec) 
Heartbeat CPU 2 instructions: 2680000000 cycles: 2567341966 heartbeat IPC: 0.984224 cumulative IPC: 0.959765 (Simulation time: 6 hr 43 min 48 sec) 
Heartbeat CPU 1 instructions: 2540000000 cycles: 2568619675 heartbeat IPC: 0.875705 cumulative IPC: 0.902098 (Simulation time: 6 hr 43 min 58 sec) 
Heartbeat CPU 3 instructions: 1310000000 cycles: 2571254595 heartbeat IPC: 0.508304 cumulative IPC: 0.453795 (Simulation time: 6 hr 44 min 20 sec) 
Heartbeat CPU 2 instructions: 2690000000 cycles: 2577913142 heartbeat IPC: 0.945969 cumulative IPC: 0.959706 (Simulation time: 6 hr 45 min 16 sec) 
Heartbeat CPU 1 instructions: 2550000003 cycles: 2579667440 heartbeat IPC: 0.905161 cumulative IPC: 0.902112 (Simulation time: 6 hr 45 min 30 sec) 
Heartbeat CPU 0 instructions: 1190000000 cycles: 2584965601 heartbeat IPC: 0.46199 cumulative IPC: 0.397161 (Simulation time: 6 hr 46 min 15 sec) 
Heartbeat CPU 2 instructions: 2700000000 cycles: 2588185210 heartbeat IPC: 0.973514 cumulative IPC: 0.959763 (Simulation time: 6 hr 46 min 42 sec) 
Heartbeat CPU 3 instructions: 1320000000 cycles: 2591027233 heartbeat IPC: 0.505749 cumulative IPC: 0.454212 (Simulation time: 6 hr 47 min 4 sec) 
Heartbeat CPU 1 instructions: 2560000000 cycles: 2591816030 heartbeat IPC: 0.823141 cumulative IPC: 0.901723 (Simulation time: 6 hr 47 min 10 sec) 
Heartbeat CPU 2 instructions: 2710000001 cycles: 2598286434 heartbeat IPC: 0.989979 cumulative IPC: 0.959887 (Simulation time: 6 hr 48 min 2 sec) 
Heartbeat CPU 1 instructions: 2570000002 cycles: 2603003596 heartbeat IPC: 0.89385 cumulative IPC: 0.901688 (Simulation time: 6 hr 48 min 40 sec) 
Heartbeat CPU 0 instructions: 1200000000 cycles: 2608225861 heartbeat IPC: 0.429918 cumulative IPC: 0.397468 (Simulation time: 6 hr 49 min 23 sec) 
Heartbeat CPU 2 instructions: 2720000000 cycles: 2608666807 heartbeat IPC: 0.963356 cumulative IPC: 0.959901 (Simulation time: 6 hr 49 min 27 sec) 
Heartbeat CPU 3 instructions: 1330000000 cycles: 2610664555 heartbeat IPC: 0.509234 cumulative IPC: 0.454647 (Simulation time: 6 hr 49 min 45 sec) 
Heartbeat CPU 1 instructions: 2580000000 cycles: 2614440692 heartbeat IPC: 0.874348 cumulative IPC: 0.901562 (Simulation time: 6 hr 50 min 16 sec) 
Heartbeat CPU 2 instructions: 2730000003 cycles: 2618872508 heartbeat IPC: 0.979845 cumulative IPC: 0.959983 (Simulation time: 6 hr 50 min 51 sec) 
Heartbeat CPU 1 instructions: 2590000001 cycles: 2626814756 heartbeat IPC: 0.808142 cumulative IPC: 0.9011 (Simulation time: 6 hr 51 min 55 sec) 
Heartbeat CPU 2 instructions: 2740000000 cycles: 2629288936 heartbeat IPC: 0.960022 cumulative IPC: 0.959983 (Simulation time: 6 hr 52 min 14 sec) 
Heartbeat CPU 3 instructions: 1340000000 cycles: 2630986468 heartbeat IPC: 0.49208 cumulative IPC: 0.45495 (Simulation time: 6 hr 52 min 27 sec) 
Heartbeat CPU 0 instructions: 1210000001 cycles: 2634185821 heartbeat IPC: 0.385209 cumulative IPC: 0.397341 (Simulation time: 6 hr 52 min 49 sec) 
Heartbeat CPU 1 instructions: 2600000000 cycles: 2637794345 heartbeat IPC: 0.910781 cumulative IPC: 0.901142 (Simulation time: 6 hr 53 min 18 sec) 
Heartbeat CPU 2 instructions: 2750000002 cycles: 2639763440 heartbeat IPC: 0.954699 cumulative IPC: 0.959961 (Simulation time: 6 hr 53 min 32 sec) 
Finished CPU 0 instructions: 1000000000 cycles: 2519832017 cumulative IPC: 0.396852 (Simulation time: 6 hr 54 min 13 sec) 

CPU 0 Branch Prediction Accuracy: 97.344% MPKI: 2.32406

CPU 1 Branch Prediction Accuracy: 97.2787% MPKI: 2.27119

CPU 2 Branch Prediction Accuracy: 97.6761% MPKI: 1.91469

CPU 3 Branch Prediction Accuracy: 85.8748% MPKI: 23.3564

ChampSim completed all CPUs

Total Simulation Statistics (not including warmup)

CPU 0 cumulative IPC: 0.396852 instructions: 1000000000 cycles: 2519832017
L1D TOTAL     ACCESS:  373071988  HIT:  342536175  MISS:   30535813
L1D LOAD      ACCESS:  132560778  HIT:  102031293  MISS:   30529485
L1D RFO       ACCESS:  240511210  HIT:  240504882  MISS:       6328
L1D PREFETCH  ACCESS:          0  HIT:          0  MISS:          0
L1D WRITEBACK ACCESS:          0  HIT:          0  MISS:          0
L1I TOTAL     ACCESS:  252309491  HIT:  252309491  MISS:          0
L1I LOAD      ACCESS:  252309491  HIT:  252309491  MISS:          0
L1I RFO       ACCESS:          0  HIT:          0  MISS:          0
L1I PREFETCH  ACCESS:          0  HIT:          0  MISS:          0
L1I WRITEBACK ACCESS:          0  HIT:          0  MISS:          0
L2C TOTAL     ACCESS:   50298229  HIT:   20309500  MISS:   29988729
L2C LOAD      ACCESS:   30526287  HIT:    3959190  MISS:   26567097
L2C RFO       ACCESS:       6328  HIT:       5430  MISS:        898
L2C PREFETCH  ACCESS:    6485806  HIT:    3093255  MISS:    3392551
L2C WRITEBACK ACCESS:   13279808  HIT:   13251625  MISS:      28183
LLC TOTAL     ACCESS:   82339973  HIT:   48960742  MISS:   33379231
LLC LOAD      ACCESS:   25883495  HIT:   10407237  MISS:   15476258
LLC RFO       ACCESS:        898  HIT:        664  MISS:        234
LLC PREFETCH  ACCESS:   43792071  HIT:   25893186  MISS:   17898885
LLC WRITEBACK ACCESS:   12663509  HIT:   12659655  MISS:       3854

CPU 1 cumulative IPC: 0.901097 instructions: 2270613787 cycles: 2519832017
L1D TOTAL     ACCESS:  384037791  HIT:  350052895  MISS:   33984896
L1D LOAD      ACCESS:  347733718  HIT:  315569789  MISS:   32163929
L1D RFO       ACCESS:   36304073  HIT:   34483106  MISS:    1820967
L1D PREFETCH  ACCESS:          0  HIT:          0  MISS:          0
L1D WRITEBACK ACCESS:          0  HIT:          0  MISS:          0
L1I TOTAL     ACCESS:  601319293  HIT:  601315817  MISS:       3476
L1I LOAD      ACCESS:  601319293  HIT:  601315817  MISS:       3476
L1I RFO       ACCESS:          0  HIT:          0  MISS:          0
L1I PREFETCH  ACCESS:          0  HIT:          0  MISS:          0
L1I WRITEBACK ACCESS:          0  HIT:          0  MISS:          0
L2C TOTAL     ACCESS:   53662000  HIT:   24515120  MISS:   29146880
L2C LOAD      ACCESS:   32167360  HIT:   15754082  MISS:   16413278
L2C RFO       ACCESS:    1820873  HIT:     244512  MISS:    1576361
L2C PREFETCH  ACCESS:   17030418  HIT:    5878745  MISS:   11151673
L2C WRITEBACK ACCESS:    2643349  HIT:    2637781  MISS:       5568
LLC TOTAL     ACCESS:  113967357  HIT:   84766613  MISS:   29200744
LLC LOAD      ACCESS:   15868136  HIT:   11599624  MISS:    4268512
LLC RFO       ACCESS:    1576357  HIT:     397963  MISS:    1178394
LLC PREFETCH  ACCESS:   94266837  HIT:   70517704  MISS:   23749133
LLC WRITEBACK ACCESS:    2256027  HIT:    2251322  MISS:       4705

CPU 2 cumulative IPC: 0.959961 instructions: 2418941157 cycles: 2519832017
L1D TOTAL     ACCESS:  404836522  HIT:  370155850  MISS:   34680672
L1D LOAD      ACCESS:  370333532  HIT:  337831374  MISS:   32502158
L1D RFO       ACCESS:   34502990  HIT:   32324476  MISS:    2178514
L1D PREFETCH  ACCESS:          0  HIT:          0  MISS:          0
L1D WRITEBACK ACCESS:          0  HIT:          0  MISS:          0
L1I TOTAL     ACCESS:  649017373  HIT:  649014156  MISS:       3217
L1I LOAD      ACCESS:  649017373  HIT:  649014156  MISS:       3217
L1I RFO       ACCESS:          0  HIT:          0  MISS:          0
L1I PREFETCH  ACCESS:          0  HIT:          0  MISS:          0
L1I WRITEBACK ACCESS:          0  HIT:          0  MISS:          0
L2C TOTAL     ACCESS:   56283347  HIT:   25819759  MISS:   30463588
L2C LOAD      ACCESS:   32505347  HIT:   15985022  MISS:   16520325
L2C RFO       ACCESS:    2178472  HIT:     210342  MISS:    1968130
L2C PREFETCH  ACCESS:   18885604  HIT:    6918575  MISS:   11967029
L2C WRITEBACK ACCESS:    2713924  HIT:    2705820  MISS:       8104
LLC TOTAL     ACCESS:  121601168  HIT:   92729886  MISS:   28871282
LLC LOAD      ACCESS:   15890974  HIT:   12123299  MISS:    3767675
LLC RFO       ACCESS:    1968118  HIT:     579895  MISS:    1388223
LLC PREFETCH  ACCESS:  101319326  HIT:   77607760  MISS:   23711566
LLC WRITEBACK ACCESS:    2422750  HIT:    2418932  MISS:       3818

CPU 3 cumulative IPC: 0.455168 instructions: 1146947567 cycles: 2519832017
L1D TOTAL     ACCESS:  364688327  HIT:  359956696  MISS:    4731631
L1D LOAD      ACCESS:  210300240  HIT:  207527216  MISS:    2773024
L1D RFO       ACCESS:  154388087  HIT:  152429480  MISS:    1958607
L1D PREFETCH  ACCESS:          0  HIT:          0  MISS:          0
L1D WRITEBACK ACCESS:          0  HIT:          0  MISS:          0
L1I TOTAL     ACCESS:  262901808  HIT:  259064002  MISS:    3837806
L1I LOAD      ACCESS:  262901808  HIT:  259064002  MISS:    3837806
L1I RFO       ACCESS:          0  HIT:          0  MISS:          0
L1I PREFETCH  ACCESS:          0  HIT:          0  MISS:          0
L1I WRITEBACK ACCESS:          0  HIT:          0  MISS:          0
L2C TOTAL     ACCESS:   15735483  HIT:   13747932  MISS:    1987551
L2C LOAD      ACCESS:    6610798  HIT:    5247605  MISS:    1363193
L2C RFO       ACCESS:    1958564  HIT:    1514628  MISS:     443936
L2C PREFETCH  ACCESS:    4509736  HIT:    4333736  MISS:     176000
L2C WRITEBACK ACCESS:    2656385  HIT:    2651963  MISS:       4422
LLC TOTAL     ACCESS:    4983680  HIT:    2957068  MISS:    2026612
LLC LOAD      ACCESS:    1308783  HIT:     635728  MISS:     673055
LLC RFO       ACCESS:     443932  HIT:     204548  MISS:     239384
LLC PREFETCH  ACCESS:    2415273  HIT:    1641169  MISS:     774104
LLC WRITEBACK ACCESS:     815692  HIT:     475623  MISS:     340069

Region of Interest Statistics

CPU 0 cumulative IPC: 0.396852 instructions: 1000000000 cycles: 2519832017
L1D TOTAL     ACCESS:  373071988  HIT:  342536175  MISS:   30535813
L1D LOAD      ACCESS:  132560778  HIT:  102031293  MISS:   30529485
L1D RFO       ACCESS:  240511210  HIT:  240504882  MISS:       6328
L1D PREFETCH  ACCESS:          0  HIT:          0  MISS:          0
L1D WRITEBACK ACCESS:          0  HIT:          0  MISS:          0
L1D PREFETCH  REQUESTED:          0  ISSUED:          0  USEFUL:          0  USELESS:          0
L1I TOTAL     ACCESS:  252309491  HIT:  252309491  MISS:          0
L1I LOAD      ACCESS:  252309491  HIT:  252309491  MISS:          0
L1I RFO       ACCESS:          0  HIT:          0  MISS:          0
L1I PREFETCH  ACCESS:          0  HIT:          0  MISS:          0
L1I WRITEBACK ACCESS:          0  HIT:          0  MISS:          0
L1I PREFETCH  REQUESTED:          0  ISSUED:          0  USEFUL:          0  USELESS:          0
L2C TOTAL     ACCESS:   50298229  HIT:   20309500  MISS:   29988729
L2C LOAD      ACCESS:   30526287  HIT:    3959190  MISS:   26567097
L2C RFO       ACCESS:       6328  HIT:       5430  MISS:        898
L2C PREFETCH  ACCESS:    6485806  HIT:    3093255  MISS:    3392551
L2C WRITEBACK ACCESS:   13279808  HIT:   13251625  MISS:      28183
L2C PREFETCH  REQUESTED:   95286044  ISSUED:   95285978  USEFUL:    3642899  USELESS:     295744
LLC TOTAL     ACCESS:   82339973  HIT:   48960742  MISS:   33379231
LLC LOAD      ACCESS:   25883495  HIT:   10407237  MISS:   15476258
LLC RFO       ACCESS:        898  HIT:        664  MISS:        234
LLC PREFETCH  ACCESS:   43792071  HIT:   25893186  MISS:   17898885
LLC WRITEBACK ACCESS:   12663509  HIT:   12659655  MISS:       3854
LLC PREFETCH  REQUESTED:          0  ISSUED:          0  USEFUL:   32935465  USELESS:   44553560
Major fault: 0 Minor fault: 392918

CPU 1 cumulative IPC: 0.897644 instructions: 1000000000 cycles: 1114027367
L1D TOTAL     ACCESS:  169669443  HIT:  154723446  MISS:   14945997
L1D LOAD      ACCESS:  153331599  HIT:  139176573  MISS:   14155026
L1D RFO       ACCESS:   16337844  HIT:   15546873  MISS:     790971
L1D PREFETCH  ACCESS:          0  HIT:          0  MISS:          0
L1D WRITEBACK ACCESS:          0  HIT:          0  MISS:          0
L1D PREFETCH  REQUESTED:          0  ISSUED:          0  USEFUL:          0  USELESS:          0
L1I TOTAL     ACCESS:  264554202  HIT:  264552586  MISS:       1616
L1I LOAD      ACCESS:  264554202  HIT:  264552586  MISS:       1616
L1I RFO       ACCESS:          0  HIT:          0  MISS:          0
L1I PREFETCH  ACCESS:          0  HIT:          0  MISS:          0
L1I WRITEBACK ACCESS:          0  HIT:          0  MISS:          0
L1I PREFETCH  REQUESTED:          0  ISSUED:          0  USEFUL:          0  USELESS:          0
L2C TOTAL     ACCESS:   23565833  HIT:   10759457  MISS:   12806376
L2C LOAD      ACCESS:   14156620  HIT:    6947516  MISS:    7209104
L2C RFO       ACCESS:     790928  HIT:     109645  MISS:     681283
L2C PREFETCH  ACCESS:    7456735  HIT:    2543154  MISS:    4913581
L2C WRITEBACK ACCESS:    1161550  HIT:    1159142  MISS:       2408
L2C PREFETCH  REQUESTED:  132815906  ISSUED:  132809067  USEFUL:   12450964  USELESS:     411372
LLC TOTAL     ACCESS:   49986360  HIT:   37116301  MISS:   12870059
LLC LOAD      ACCESS:    6968145  HIT:    5105024  MISS:    1863121
LLC RFO       ACCESS:     681282  HIT:     165945  MISS:     515337
LLC PREFETCH  ACCESS:   41348841  HIT:   30859444  MISS:   10489397
LLC WRITEBACK ACCESS:     988092  HIT:     985888  MISS:       2204
LLC PREFETCH  REQUESTED:          0  ISSUED:          0  USEFUL:   32935465  USELESS:   44553560
Major fault: 0 Minor fault: 4352

CPU 2 cumulative IPC: 0.957761 instructions: 1000000001 cycles: 1044101689
L1D TOTAL     ACCESS:  167325940  HIT:  152985579  MISS:   14340361
L1D LOAD      ACCESS:  153079049  HIT:  139622494  MISS:   13456555
L1D RFO       ACCESS:   14246891  HIT:   13363085  MISS:     883806
L1D PREFETCH  ACCESS:          0  HIT:          0  MISS:          0
L1D WRITEBACK ACCESS:          0  HIT:          0  MISS:          0
L1D PREFETCH  REQUESTED:          0  ISSUED:          0  USEFUL:          0  USELESS:          0
L1I TOTAL     ACCESS:  267991702  HIT:  267990707  MISS:        995
L1I LOAD      ACCESS:  267991702  HIT:  267990707  MISS:        995
L1I RFO       ACCESS:          0  HIT:          0  MISS:          0
L1I PREFETCH  ACCESS:          0  HIT:          0  MISS:          0
L1I WRITEBACK ACCESS:          0  HIT:          0  MISS:          0
L1I PREFETCH  REQUESTED:          0  ISSUED:          0  USEFUL:          0  USELESS:          0
L2C TOTAL     ACCESS:   23236063  HIT:   10638933  MISS:   12597130
L2C LOAD      ACCESS:   13457536  HIT:    6622246  MISS:    6835290
L2C RFO       ACCESS:     883787  HIT:      86108  MISS:     797679
L2C PREFETCH  ACCESS:    7785836  HIT:    2825000  MISS:    4960836
L2C WRITEBACK ACCESS:    1108904  HIT:    1105579  MISS:       3325
L2C PREFETCH  REQUESTED:  142337253  ISSUED:  142331083  USEFUL:   13346133  USELESS:     342592
LLC TOTAL     ACCESS:   50411687  HIT:   38396064  MISS:   12015623
LLC LOAD      ACCESS:    6575824  HIT:    5017507  MISS:    1558317
LLC RFO       ACCESS:     797674  HIT:     231865  MISS:     565809
LLC PREFETCH  ACCESS:   42050141  HIT:   32160183  MISS:    9889958
LLC WRITEBACK ACCESS:     988048  HIT:     986509  MISS:       1539
LLC PREFETCH  REQUESTED:          0  ISSUED:          0  USEFUL:   32935465  USELESS:   44553560
Major fault: 0 Minor fault: 4141

CPU 3 cumulative IPC: 0.450454 instructions: 1000000000 cycles: 2219983744
L1D TOTAL     ACCESS:  314386394  HIT:  310011515  MISS:    4374879
L1D LOAD      ACCESS:  183347577  HIT:  180730093  MISS:    2617484
L1D RFO       ACCESS:  131038817  HIT:  129281422  MISS:    1757395
L1D PREFETCH  ACCESS:          0  HIT:          0  MISS:          0
L1D WRITEBACK ACCESS:          0  HIT:          0  MISS:          0
L1D PREFETCH  REQUESTED:          0  ISSUED:          0  USEFUL:          0  USELESS:          0
L1I TOTAL     ACCESS:  229215001  HIT:  225714530  MISS:    3500471
L1I LOAD      ACCESS:  229215001  HIT:  225714530  MISS:    3500471
L1I RFO       ACCESS:          0  HIT:          0  MISS:          0
L1I PREFETCH  ACCESS:          0  HIT:          0  MISS:          0
L1I WRITEBACK ACCESS:          0  HIT:          0  MISS:          0
L1I PREFETCH  REQUESTED:          0  ISSUED:          0  USEFUL:          0  USELESS:          0
L2C TOTAL     ACCESS:   14467761  HIT:   12517788  MISS:    1949973
L2C LOAD      ACCESS:    6117924  HIT:    4779870  MISS:    1338054
L2C RFO       ACCESS:    1757358  HIT:    1322627  MISS:     434731
L2C PREFETCH  ACCESS:    4186293  HIT:    4013308  MISS:     172985
L2C WRITEBACK ACCESS:    2406186  HIT:    2401983  MISS:       4203
L2C PREFETCH  REQUESTED:   11730627  ISSUED:   11730493  USEFUL:     232229  USELESS:      34861
LLC TOTAL     ACCESS:    4856156  HIT:    2890525  MISS:    1965631
LLC LOAD      ACCESS:    1284454  HIT:     626850  MISS:     657604
LLC RFO       ACCESS:     434727  HIT:     200194  MISS:     234533
LLC PREFETCH  ACCESS:    2340393  HIT:    1594426  MISS:     745967
LLC WRITEBACK ACCESS:     796582  HIT:     469055  MISS:     327527
LLC PREFETCH  REQUESTED:          0  ISSUED:          0  USEFUL:   32935465  USELESS:   44553560
Major fault: 0 Minor fault: 3967

DRAM Statistics
 CHANNEL 0
 RQ ROW_BUFFER_HIT:   19826533  ROW_BUFFER_MISS:   28096941
 DBUS_CONGESTED:   56260826
 WQ ROW_BUFFER_HIT:     536110  ROW_BUFFER_MISS:    7800152  FULL:          0

 CHANNEL 1
 RQ ROW_BUFFER_HIT:   18979968  ROW_BUFFER_MISS:   26216347
 DBUS_CONGESTED:   56260826
 WQ ROW_BUFFER_HIT:     560468  ROW_BUFFER_MISS:    7682084  FULL:          0

 AVG_CONGESTED_CYCLE: 12
