Initialize SIGNATURE TABLE
ST_SET: 1
ST_WAY: 256
ST_TAG_BIT: 16
ST_TAG_MASK: ffff

Initialize PATTERN TABLE
PT_SET: 512
PT_WAY: 4
SIG_DELTA_BIT: 7
C_SIG_BIT: 4
C_DELTA_BIT: 4

Initialize PREFETCH FILTER
FILTER_SET: 1024

*** ChampSim Multicore Out-of-Order Simulator ***

Warmup Instructions: 200000000
Simulation Instructions: 1000000000
Number of CPUs: 4
LLC sets: 8192
LLC ways: 16
Off-chip DRAM Size: 8192 MB Channels: 2 Width: 64-bit Data Rate: 1600 MT/s

CPU 0 runs /scratch/user/djimenez/champsim-traces/speccpu2006/xz//454.calculix-460B.champsimtrace.xz
CPU 1 runs /scratch/user/djimenez/champsim-traces/speccpu2006/xz//453.povray-800B.champsimtrace.xz
CPU 2 runs /scratch/user/djimenez/champsim-traces/speccpu2006/xz//450.soplex-247B.champsimtrace.xz
CPU 3 runs /scratch/user/djimenez/champsim-traces/speccpu2006/xz//482.sphinx3-1297B.champsimtrace.xz
Heartbeat CPU 0 instructions: 10000000 cycles: 3330018 heartbeat IPC: 3.00299 cumulative IPC: 3.00299 (Simulation time: 0 hr 1 min 13 sec) 
Heartbeat CPU 3 instructions: 10000003 cycles: 4035126 heartbeat IPC: 2.47824 cumulative IPC: 2.47824 (Simulation time: 0 hr 1 min 28 sec) 
Heartbeat CPU 2 instructions: 10000000 cycles: 5996425 heartbeat IPC: 1.66766 cumulative IPC: 1.66766 (Simulation time: 0 hr 2 min 13 sec) 
Heartbeat CPU 0 instructions: 20000000 cycles: 6550137 heartbeat IPC: 3.10548 cumulative IPC: 3.05337 (Simulation time: 0 hr 2 min 25 sec) 
Heartbeat CPU 1 instructions: 10000000 cycles: 6645847 heartbeat IPC: 1.5047 cumulative IPC: 1.5047 (Simulation time: 0 hr 2 min 27 sec) 
Heartbeat CPU 3 instructions: 20000000 cycles: 7911539 heartbeat IPC: 2.5797 cumulative IPC: 2.52795 (Simulation time: 0 hr 2 min 54 sec) 
Heartbeat CPU 0 instructions: 30000001 cycles: 9847244 heartbeat IPC: 3.03296 cumulative IPC: 3.04654 (Simulation time: 0 hr 3 min 37 sec) 
Heartbeat CPU 2 instructions: 20000000 cycles: 11086646 heartbeat IPC: 1.96455 cumulative IPC: 1.80397 (Simulation time: 0 hr 4 min 4 sec) 
Heartbeat CPU 3 instructions: 30000001 cycles: 11774078 heartbeat IPC: 2.58897 cumulative IPC: 2.54797 (Simulation time: 0 hr 4 min 20 sec) 
Heartbeat CPU 0 instructions: 40000000 cycles: 13073345 heartbeat IPC: 3.09972 cumulative IPC: 3.05966 (Simulation time: 0 hr 4 min 48 sec) 
Heartbeat CPU 1 instructions: 20000000 cycles: 13408897 heartbeat IPC: 1.47862 cumulative IPC: 1.49155 (Simulation time: 0 hr 4 min 55 sec) 
Heartbeat CPU 3 instructions: 40000000 cycles: 15708308 heartbeat IPC: 2.54179 cumulative IPC: 2.54642 (Simulation time: 0 hr 5 min 47 sec) 
Heartbeat CPU 2 instructions: 30000001 cycles: 16144088 heartbeat IPC: 1.97728 cumulative IPC: 1.85827 (Simulation time: 0 hr 5 min 58 sec) 
Heartbeat CPU 0 instructions: 50000000 cycles: 16326007 heartbeat IPC: 3.0744 cumulative IPC: 3.0626 (Simulation time: 0 hr 6 min 2 sec) 
Heartbeat CPU 3 instructions: 50000001 cycles: 19503519 heartbeat IPC: 2.6349 cumulative IPC: 2.56364 (Simulation time: 0 hr 7 min 12 sec) 
Heartbeat CPU 0 instructions: 60000000 cycles: 19578772 heartbeat IPC: 3.07431 cumulative IPC: 3.06454 (Simulation time: 0 hr 7 min 13 sec) 
Heartbeat CPU 1 instructions: 30000001 cycles: 20213672 heartbeat IPC: 1.46956 cumulative IPC: 1.48414 (Simulation time: 0 hr 7 min 26 sec) 
Heartbeat CPU 2 instructions: 40000000 cycles: 21201173 heartbeat IPC: 1.97742 cumulative IPC: 1.88669 (Simulation time: 0 hr 7 min 49 sec) 
Heartbeat CPU 3 instructions: 60000000 cycles: 23543634 heartbeat IPC: 2.47518 cumulative IPC: 2.54846 (Simulation time: 0 hr 8 min 37 sec) 
Heartbeat CPU 0 instructions: 70000003 cycles: 24019695 heartbeat IPC: 2.25178 cumulative IPC: 2.91428 (Simulation time: 0 hr 8 min 47 sec) 
Heartbeat CPU 2 instructions: 50000001 cycles: 26288823 heartbeat IPC: 1.96554 cumulative IPC: 1.90195 (Simulation time: 0 hr 9 min 37 sec) 
Heartbeat CPU 1 instructions: 40000000 cycles: 26953571 heartbeat IPC: 1.4837 cumulative IPC: 1.48403 (Simulation time: 0 hr 9 min 50 sec) 
Heartbeat CPU 3 instructions: 70000001 cycles: 27436513 heartbeat IPC: 2.56879 cumulative IPC: 2.55134 (Simulation time: 0 hr 10 min 0 sec) 
Heartbeat CPU 0 instructions: 80000000 cycles: 28814112 heartbeat IPC: 2.08576 cumulative IPC: 2.77642 (Simulation time: 0 hr 10 min 30 sec) 
Heartbeat CPU 3 instructions: 80000000 cycles: 31274057 heartbeat IPC: 2.60583 cumulative IPC: 2.55803 (Simulation time: 0 hr 11 min 23 sec) 
Heartbeat CPU 2 instructions: 60000000 cycles: 31324263 heartbeat IPC: 1.98592 cumulative IPC: 1.91545 (Simulation time: 0 hr 11 min 24 sec) 
Heartbeat CPU 0 instructions: 90000000 cycles: 32389742 heartbeat IPC: 2.79671 cumulative IPC: 2.77866 (Simulation time: 0 hr 11 min 47 sec) 
Heartbeat CPU 1 instructions: 50000000 cycles: 33683445 heartbeat IPC: 1.48591 cumulative IPC: 1.48441 (Simulation time: 0 hr 12 min 15 sec) 
Heartbeat CPU 3 instructions: 90000000 cycles: 35231255 heartbeat IPC: 2.52704 cumulative IPC: 2.55455 (Simulation time: 0 hr 12 min 50 sec) 
Heartbeat CPU 0 instructions: 100000000 cycles: 35569208 heartbeat IPC: 3.14518 cumulative IPC: 2.81142 (Simulation time: 0 hr 12 min 57 sec) 
Heartbeat CPU 2 instructions: 70000000 cycles: 36388193 heartbeat IPC: 1.97475 cumulative IPC: 1.9237 (Simulation time: 0 hr 13 min 15 sec) 
Heartbeat CPU 0 instructions: 110000000 cycles: 38746934 heartbeat IPC: 3.1469 cumulative IPC: 2.83893 (Simulation time: 0 hr 14 min 9 sec) 
Heartbeat CPU 3 instructions: 100000000 cycles: 38998913 heartbeat IPC: 2.65417 cumulative IPC: 2.56417 (Simulation time: 0 hr 14 min 15 sec) 
Heartbeat CPU 1 instructions: 60000000 cycles: 40347485 heartbeat IPC: 1.50059 cumulative IPC: 1.48708 (Simulation time: 0 hr 14 min 45 sec) 
Heartbeat CPU 2 instructions: 80000000 cycles: 41494277 heartbeat IPC: 1.95845 cumulative IPC: 1.92798 (Simulation time: 0 hr 15 min 10 sec) 
Heartbeat CPU 0 instructions: 120000000 cycles: 41916075 heartbeat IPC: 3.15543 cumulative IPC: 2.86286 (Simulation time: 0 hr 15 min 19 sec) 
Heartbeat CPU 3 instructions: 110000002 cycles: 43008239 heartbeat IPC: 2.49419 cumulative IPC: 2.55765 (Simulation time: 0 hr 15 min 45 sec) 
Heartbeat CPU 0 instructions: 130000001 cycles: 45083040 heartbeat IPC: 3.1576 cumulative IPC: 2.88357 (Simulation time: 0 hr 16 min 32 sec) 
Heartbeat CPU 2 instructions: 90000002 cycles: 46655534 heartbeat IPC: 1.93751 cumulative IPC: 1.92903 (Simulation time: 0 hr 17 min 8 sec) 
Heartbeat CPU 3 instructions: 120000000 cycles: 46773185 heartbeat IPC: 2.65608 cumulative IPC: 2.56557 (Simulation time: 0 hr 17 min 10 sec) 
Heartbeat CPU 1 instructions: 70000000 cycles: 46800338 heartbeat IPC: 1.5497 cumulative IPC: 1.49572 (Simulation time: 0 hr 17 min 11 sec) 
Heartbeat CPU 0 instructions: 140000000 cycles: 48248701 heartbeat IPC: 3.1589 cumulative IPC: 2.90163 (Simulation time: 0 hr 17 min 45 sec) 
Heartbeat CPU 3 instructions: 130000001 cycles: 50491026 heartbeat IPC: 2.68973 cumulative IPC: 2.57471 (Simulation time: 0 hr 18 min 36 sec) 
Heartbeat CPU 0 instructions: 150000000 cycles: 51410457 heartbeat IPC: 3.1628 cumulative IPC: 2.91769 (Simulation time: 0 hr 18 min 58 sec) 
Heartbeat CPU 2 instructions: 100000000 cycles: 51824245 heartbeat IPC: 1.93472 cumulative IPC: 1.9296 (Simulation time: 0 hr 19 min 7 sec) 
Heartbeat CPU 1 instructions: 80000000 cycles: 53182731 heartbeat IPC: 1.56681 cumulative IPC: 1.50425 (Simulation time: 0 hr 19 min 37 sec) 
Heartbeat CPU 3 instructions: 140000000 cycles: 54209922 heartbeat IPC: 2.68897 cumulative IPC: 2.58255 (Simulation time: 0 hr 20 min 1 sec) 
Heartbeat CPU 0 instructions: 160000000 cycles: 54577040 heartbeat IPC: 3.15798 cumulative IPC: 2.93164 (Simulation time: 0 hr 20 min 9 sec) 
Heartbeat CPU 0 instructions: 170000000 cycles: 57757706 heartbeat IPC: 3.144 cumulative IPC: 2.94333 (Simulation time: 0 hr 21 min 15 sec) 
Heartbeat CPU 3 instructions: 150000001 cycles: 57956214 heartbeat IPC: 2.66931 cumulative IPC: 2.58816 (Simulation time: 0 hr 21 min 20 sec) 
Heartbeat CPU 2 instructions: 110000000 cycles: 58021386 heartbeat IPC: 1.61365 cumulative IPC: 1.89585 (Simulation time: 0 hr 21 min 21 sec) 
Heartbeat CPU 1 instructions: 90000001 cycles: 59555600 heartbeat IPC: 1.56915 cumulative IPC: 1.51119 (Simulation time: 0 hr 21 min 53 sec) 
Heartbeat CPU 0 instructions: 180000000 cycles: 60931484 heartbeat IPC: 3.15082 cumulative IPC: 2.95414 (Simulation time: 0 hr 22 min 23 sec) 
Heartbeat CPU 3 instructions: 160000000 cycles: 61891302 heartbeat IPC: 2.54124 cumulative IPC: 2.58518 (Simulation time: 0 hr 22 min 43 sec) 
Heartbeat CPU 2 instructions: 120000000 cycles: 63994430 heartbeat IPC: 1.67419 cumulative IPC: 1.87516 (Simulation time: 0 hr 23 min 30 sec) 
Heartbeat CPU 0 instructions: 190000002 cycles: 64108497 heartbeat IPC: 3.14761 cumulative IPC: 2.96373 (Simulation time: 0 hr 23 min 32 sec) 
Heartbeat CPU 3 instructions: 170000000 cycles: 65661745 heartbeat IPC: 2.65221 cumulative IPC: 2.58903 (Simulation time: 0 hr 24 min 4 sec) 
Heartbeat CPU 1 instructions: 100000000 cycles: 65923482 heartbeat IPC: 1.57038 cumulative IPC: 1.51691 (Simulation time: 0 hr 24 min 9 sec) 
Heartbeat CPU 0 instructions: 200000000 cycles: 67352403 heartbeat IPC: 3.0827 cumulative IPC: 2.96946 (Simulation time: 0 hr 24 min 38 sec) 
Heartbeat CPU 2 instructions: 130000001 cycles: 68956707 heartbeat IPC: 2.0152 cumulative IPC: 1.88524 (Simulation time: 0 hr 25 min 11 sec) 
Heartbeat CPU 3 instructions: 180000000 cycles: 69486963 heartbeat IPC: 2.61423 cumulative IPC: 2.59041 (Simulation time: 0 hr 25 min 21 sec) 
Heartbeat CPU 0 instructions: 210000003 cycles: 70710631 heartbeat IPC: 2.97776 cumulative IPC: 0.141421 (Simulation time: 0 hr 25 min 44 sec) 
Heartbeat CPU 1 instructions: 110000001 cycles: 72288714 heartbeat IPC: 1.57103 cumulative IPC: 1.52168 (Simulation time: 0 hr 26 min 16 sec) 
Heartbeat CPU 3 instructions: 190000002 cycles: 73370664 heartbeat IPC: 2.57486 cumulative IPC: 2.58959 (Simulation time: 0 hr 26 min 39 sec) 
Heartbeat CPU 2 instructions: 140000000 cycles: 73907645 heartbeat IPC: 2.01982 cumulative IPC: 1.89426 (Simulation time: 0 hr 26 min 48 sec) 
Heartbeat CPU 0 instructions: 220000000 cycles: 74025308 heartbeat IPC: 3.01688 cumulative IPC: 0.270178 (Simulation time: 0 hr 26 min 50 sec) 
Heartbeat CPU 0 instructions: 230000000 cycles: 77245629 heartbeat IPC: 3.10528 cumulative IPC: 0.388371 (Simulation time: 0 hr 27 min 58 sec) 
Heartbeat CPU 3 instructions: 200000000 cycles: 77357497 heartbeat IPC: 2.50826 cumulative IPC: 2.5854 (Simulation time: 0 hr 28 min 1 sec) 
Heartbeat CPU 1 instructions: 120000000 cycles: 78680046 heartbeat IPC: 1.56462 cumulative IPC: 1.52516 (Simulation time: 0 hr 28 min 28 sec) 
Heartbeat CPU 2 instructions: 150000002 cycles: 78813245 heartbeat IPC: 2.03849 cumulative IPC: 1.90323 (Simulation time: 0 hr 28 min 30 sec) 
Heartbeat CPU 0 instructions: 240000000 cycles: 80556902 heartbeat IPC: 3.01999 cumulative IPC: 0.496543 (Simulation time: 0 hr 29 min 7 sec) 
Heartbeat CPU 3 instructions: 210000002 cycles: 81212101 heartbeat IPC: 2.5943 cumulative IPC: 0.123134 (Simulation time: 0 hr 29 min 21 sec) 
Heartbeat CPU 2 instructions: 160000000 cycles: 83650445 heartbeat IPC: 2.06731 cumulative IPC: 1.91272 (Simulation time: 0 hr 30 min 11 sec) 
Heartbeat CPU 0 instructions: 250000002 cycles: 83769162 heartbeat IPC: 3.11307 cumulative IPC: 0.596878 (Simulation time: 0 hr 30 min 13 sec) 
Heartbeat CPU 3 instructions: 220000000 cycles: 85035856 heartbeat IPC: 2.61523 cumulative IPC: 0.235195 (Simulation time: 0 hr 30 min 42 sec) 
Heartbeat CPU 1 instructions: 130000001 cycles: 85137724 heartbeat IPC: 1.54854 cumulative IPC: 1.52694 (Simulation time: 0 hr 30 min 44 sec) 
Heartbeat CPU 0 instructions: 260000000 cycles: 87024960 heartbeat IPC: 3.07144 cumulative IPC: 0.689457 (Simulation time: 0 hr 31 min 27 sec) 
Heartbeat CPU 2 instructions: 170000000 cycles: 88687978 heartbeat IPC: 1.9851 cumulative IPC: 1.91683 (Simulation time: 0 hr 32 min 4 sec) 
Heartbeat CPU 3 instructions: 230000003 cycles: 88796212 heartbeat IPC: 2.65932 cumulative IPC: 0.337852 (Simulation time: 0 hr 32 min 6 sec) 
Heartbeat CPU 0 instructions: 270000000 cycles: 90366920 heartbeat IPC: 2.99226 cumulative IPC: 0.77462 (Simulation time: 0 hr 32 min 42 sec) 
Heartbeat CPU 1 instructions: 140000000 cycles: 91630061 heartbeat IPC: 1.54028 cumulative IPC: 1.52788 (Simulation time: 0 hr 33 min 9 sec) 
Heartbeat CPU 3 instructions: 240000000 cycles: 92527449 heartbeat IPC: 2.68008 cumulative IPC: 0.432304 (Simulation time: 0 hr 33 min 29 sec) 
Heartbeat CPU 2 instructions: 180000000 cycles: 93584038 heartbeat IPC: 2.04246 cumulative IPC: 1.9234 (Simulation time: 0 hr 33 min 53 sec) 
Heartbeat CPU 0 instructions: 280000000 cycles: 95178096 heartbeat IPC: 2.07849 cumulative IPC: 0.84053 (Simulation time: 0 hr 34 min 28 sec) 
Heartbeat CPU 3 instructions: 250000002 cycles: 96335084 heartbeat IPC: 2.6263 cumulative IPC: 0.519022 (Simulation time: 0 hr 34 min 53 sec) 
Heartbeat CPU 1 instructions: 150000001 cycles: 98157241 heartbeat IPC: 1.53206 cumulative IPC: 1.52816 (Simulation time: 0 hr 35 min 34 sec) 
Heartbeat CPU 2 instructions: 190000000 cycles: 98527614 heartbeat IPC: 2.02283 cumulative IPC: 1.92839 (Simulation time: 0 hr 35 min 42 sec) 
Heartbeat CPU 0 instructions: 290000000 cycles: 99776176 heartbeat IPC: 2.17482 cumulative IPC: 0.902019 (Simulation time: 0 hr 36 min 9 sec) 
Heartbeat CPU 3 instructions: 260000000 cycles: 100024735 heartbeat IPC: 2.71028 cumulative IPC: 0.599852 (Simulation time: 0 hr 36 min 14 sec) 
Heartbeat CPU 0 instructions: 300000000 cycles: 102954418 heartbeat IPC: 3.14639 cumulative IPC: 0.971304 (Simulation time: 0 hr 37 min 21 sec) 
Heartbeat CPU 2 instructions: 200000000 cycles: 103460685 heartbeat IPC: 2.02713 cumulative IPC: 1.9331 (Simulation time: 0 hr 37 min 33 sec) 
Heartbeat CPU 3 instructions: 270000001 cycles: 103780436 heartbeat IPC: 2.66262 cumulative IPC: 0.674501 (Simulation time: 0 hr 37 min 41 sec) 
Heartbeat CPU 1 instructions: 160000000 cycles: 104728477 heartbeat IPC: 1.52178 cumulative IPC: 1.52776 (Simulation time: 0 hr 38 min 1 sec) 
Heartbeat CPU 0 instructions: 310000003 cycles: 106138187 heartbeat IPC: 3.14093 cumulative IPC: 1.03638 (Simulation time: 0 hr 38 min 33 sec) 
Heartbeat CPU 3 instructions: 280000000 cycles: 107489383 heartbeat IPC: 2.69618 cumulative IPC: 0.74426 (Simulation time: 0 hr 39 min 6 sec) 
Heartbeat CPU 2 instructions: 210000000 cycles: 108791094 heartbeat IPC: 1.87603 cumulative IPC: 0.0919193 (Simulation time: 0 hr 39 min 37 sec) 
Heartbeat CPU 0 instructions: 320000000 cycles: 109316180 heartbeat IPC: 3.14664 cumulative IPC: 1.09773 (Simulation time: 0 hr 39 min 49 sec) 
Heartbeat CPU 1 instructions: 170000000 cycles: 111330575 heartbeat IPC: 1.51467 cumulative IPC: 1.52698 (Simulation time: 0 hr 40 min 33 sec) 
Heartbeat CPU 3 instructions: 290000001 cycles: 111377046 heartbeat IPC: 2.57224 cumulative IPC: 0.808066 (Simulation time: 0 hr 40 min 34 sec) 
Heartbeat CPU 0 instructions: 330000002 cycles: 112495461 heartbeat IPC: 3.14537 cumulative IPC: 1.1556 (Simulation time: 0 hr 40 min 58 sec) 
Heartbeat CPU 3 instructions: 300000000 cycles: 115145904 heartbeat IPC: 2.65332 cumulative IPC: 0.868463 (Simulation time: 0 hr 41 min 59 sec) 
Heartbeat CPU 2 instructions: 220000000 cycles: 115216757 heartbeat IPC: 1.55626 cumulative IPC: 0.173586 (Simulation time: 0 hr 42 min 0 sec) 
Heartbeat CPU 0 instructions: 340000000 cycles: 115666316 heartbeat IPC: 3.15372 cumulative IPC: 1.21038 (Simulation time: 0 hr 42 min 11 sec) 
Heartbeat CPU 1 instructions: 180000000 cycles: 117945665 heartbeat IPC: 1.5117 cumulative IPC: 1.52613 (Simulation time: 0 hr 43 min 3 sec) 
Heartbeat CPU 0 instructions: 350000003 cycles: 118835361 heartbeat IPC: 3.15553 cumulative IPC: 1.26225 (Simulation time: 0 hr 43 min 24 sec) 
Heartbeat CPU 3 instructions: 310000000 cycles: 118917391 heartbeat IPC: 2.65147 cumulative IPC: 0.925012 (Simulation time: 0 hr 43 min 26 sec) 
Heartbeat CPU 2 instructions: 230000002 cycles: 120624397 heartbeat IPC: 1.84924 cumulative IPC: 0.248706 (Simulation time: 0 hr 44 min 4 sec) 
Heartbeat CPU 0 instructions: 360000000 cycles: 122002714 heartbeat IPC: 3.15721 cumulative IPC: 1.31145 (Simulation time: 0 hr 44 min 35 sec) 
Heartbeat CPU 3 instructions: 320000000 cycles: 122780886 heartbeat IPC: 2.58833 cumulative IPC: 0.977351 (Simulation time: 0 hr 44 min 52 sec) 
Heartbeat CPU 1 instructions: 190000002 cycles: 124545927 heartbeat IPC: 1.51509 cumulative IPC: 1.52554 (Simulation time: 0 hr 45 min 32 sec) 
Heartbeat CPU 0 instructions: 370000000 cycles: 125164829 heartbeat IPC: 3.16244 cumulative IPC: 1.35821 (Simulation time: 0 hr 45 min 46 sec) 
Heartbeat CPU 2 instructions: 240000000 cycles: 125568344 heartbeat IPC: 2.02268 cumulative IPC: 0.318552 (Simulation time: 0 hr 45 min 55 sec) 
Heartbeat CPU 3 instructions: 330000001 cycles: 126520612 heartbeat IPC: 2.67399 cumulative IPC: 1.0275 (Simulation time: 0 hr 46 min 18 sec) 
Heartbeat CPU 0 instructions: 380000000 cycles: 128331176 heartbeat IPC: 3.15821 cumulative IPC: 1.40262 (Simulation time: 0 hr 46 min 59 sec) 
Heartbeat CPU 3 instructions: 340000000 cycles: 130466671 heartbeat IPC: 2.53417 cumulative IPC: 1.07307 (Simulation time: 0 hr 47 min 46 sec) 
Heartbeat CPU 2 instructions: 250000000 cycles: 130534165 heartbeat IPC: 2.01377 cumulative IPC: 0.383041 (Simulation time: 0 hr 47 min 47 sec) 
Heartbeat CPU 1 instructions: 200000000 cycles: 131143424 heartbeat IPC: 1.51573 cumulative IPC: 1.52505 (Simulation time: 0 hr 48 min 2 sec) 

Warmup complete CPU 0 instructions: 388836119 cycles: 131143425 (Simulation time: 0 hr 48 min 2 sec) 
Warmup complete CPU 1 instructions: 200000001 cycles: 131143425 (Simulation time: 0 hr 48 min 2 sec) 
Warmup complete CPU 2 instructions: 251370540 cycles: 131143424 (Simulation time: 0 hr 48 min 2 sec) 
Warmup complete CPU 3 instructions: 341812505 cycles: 131143424 (Simulation time: 0 hr 48 min 2 sec) 

Heartbeat CPU 0 instructions: 390000002 cycles: 131889705 heartbeat IPC: 2.81015 cumulative IPC: 1.55958 (Simulation time: 0 hr 48 min 11 sec) 
Heartbeat CPU 0 instructions: 400000000 cycles: 137872730 heartbeat IPC: 1.67139 cumulative IPC: 1.65899 (Simulation time: 0 hr 49 min 11 sec) 
Heartbeat CPU 3 instructions: 350000001 cycles: 140297142 heartbeat IPC: 1.01725 cumulative IPC: 0.894445 (Simulation time: 0 hr 49 min 39 sec) 
Heartbeat CPU 0 instructions: 410000000 cycles: 143822032 heartbeat IPC: 1.68087 cumulative IPC: 1.66926 (Simulation time: 0 hr 50 min 16 sec) 
Heartbeat CPU 0 instructions: 420000000 cycles: 149903009 heartbeat IPC: 1.64447 cumulative IPC: 1.66122 (Simulation time: 0 hr 51 min 20 sec) 
Heartbeat CPU 2 instructions: 260000000 cycles: 150772306 heartbeat IPC: 0.494117 cumulative IPC: 0.439631 (Simulation time: 0 hr 51 min 29 sec) 
Heartbeat CPU 3 instructions: 360000000 cycles: 151297957 heartbeat IPC: 0.909023 cumulative IPC: 0.902402 (Simulation time: 0 hr 51 min 36 sec) 
Heartbeat CPU 1 instructions: 210000001 cycles: 154845623 heartbeat IPC: 0.421902 cumulative IPC: 0.421902 (Simulation time: 0 hr 52 min 14 sec) 
Heartbeat CPU 0 instructions: 430000003 cycles: 155727676 heartbeat IPC: 1.71684 cumulative IPC: 1.6744 (Simulation time: 0 hr 52 min 25 sec) 
Heartbeat CPU 3 instructions: 370000001 cycles: 161277530 heartbeat IPC: 1.00205 cumulative IPC: 0.935402 (Simulation time: 0 hr 53 min 24 sec) 
Heartbeat CPU 0 instructions: 440000000 cycles: 161852580 heartbeat IPC: 1.63268 cumulative IPC: 1.66608 (Simulation time: 0 hr 53 min 31 sec) 
Heartbeat CPU 0 instructions: 450000001 cycles: 167983592 heartbeat IPC: 1.63105 cumulative IPC: 1.66025 (Simulation time: 0 hr 54 min 35 sec) 
Heartbeat CPU 3 instructions: 380000000 cycles: 171184997 heartbeat IPC: 1.00934 cumulative IPC: 0.953696 (Simulation time: 0 hr 55 min 13 sec) 
Heartbeat CPU 2 instructions: 270000002 cycles: 173125226 heartbeat IPC: 0.447369 cumulative IPC: 0.443751 (Simulation time: 0 hr 55 min 31 sec) 
Heartbeat CPU 0 instructions: 460000000 cycles: 174193209 heartbeat IPC: 1.61041 cumulative IPC: 1.65306 (Simulation time: 0 hr 55 min 45 sec) 
Heartbeat CPU 1 instructions: 220000000 cycles: 178599628 heartbeat IPC: 0.420982 cumulative IPC: 0.421441 (Simulation time: 0 hr 56 min 34 sec) 
Heartbeat CPU 0 instructions: 470000001 cycles: 179231341 heartbeat IPC: 1.98486 cumulative IPC: 1.68782 (Simulation time: 0 hr 56 min 41 sec) 
Heartbeat CPU 3 instructions: 390000000 cycles: 181567894 heartbeat IPC: 0.963122 cumulative IPC: 0.955637 (Simulation time: 0 hr 57 min 7 sec) 
Heartbeat CPU 0 instructions: 480000000 cycles: 184399818 heartbeat IPC: 1.93481 cumulative IPC: 1.71179 (Simulation time: 0 hr 57 min 34 sec) 
Heartbeat CPU 0 instructions: 490000001 cycles: 191589485 heartbeat IPC: 1.39089 cumulative IPC: 1.67362 (Simulation time: 0 hr 58 min 45 sec) 
Heartbeat CPU 3 instructions: 400000000 cycles: 193581662 heartbeat IPC: 0.832378 cumulative IPC: 0.931921 (Simulation time: 0 hr 59 min 5 sec) 
Heartbeat CPU 2 instructions: 280000000 cycles: 196916445 heartbeat IPC: 0.420323 cumulative IPC: 0.435277 (Simulation time: 0 hr 59 min 35 sec) 
Heartbeat CPU 0 instructions: 500000000 cycles: 200106421 heartbeat IPC: 1.17413 cumulative IPC: 1.61194 (Simulation time: 1 hr 0 min 6 sec) 
Heartbeat CPU 1 instructions: 230000000 cycles: 202361670 heartbeat IPC: 0.420839 cumulative IPC: 0.42124 (Simulation time: 1 hr 0 min 30 sec) 
Heartbeat CPU 3 instructions: 410000002 cycles: 206031992 heartbeat IPC: 0.803192 cumulative IPC: 0.910519 (Simulation time: 1 hr 1 min 3 sec) 
Heartbeat CPU 0 instructions: 510000001 cycles: 207029079 heartbeat IPC: 1.44453 cumulative IPC: 1.59666 (Simulation time: 1 hr 1 min 14 sec) 
Heartbeat CPU 0 instructions: 520000000 cycles: 212822172 heartbeat IPC: 1.72619 cumulative IPC: 1.60585 (Simulation time: 1 hr 2 min 21 sec) 
Heartbeat CPU 3 instructions: 420000000 cycles: 215331454 heartbeat IPC: 1.07533 cumulative IPC: 0.928725 (Simulation time: 1 hr 2 min 48 sec) 
Heartbeat CPU 0 instructions: 530000001 cycles: 218946617 heartbeat IPC: 1.6328 cumulative IPC: 1.60773 (Simulation time: 1 hr 3 min 27 sec) 
Heartbeat CPU 2 instructions: 290000000 cycles: 219099553 heartbeat IPC: 0.450793 cumulative IPC: 0.43919 (Simulation time: 1 hr 3 min 28 sec) 
Heartbeat CPU 0 instructions: 540000000 cycles: 225103307 heartbeat IPC: 1.62425 cumulative IPC: 1.60881 (Simulation time: 1 hr 4 min 29 sec) 
Heartbeat CPU 1 instructions: 240000000 cycles: 226082274 heartbeat IPC: 0.421574 cumulative IPC: 0.421324 (Simulation time: 1 hr 4 min 39 sec) 
Heartbeat CPU 3 instructions: 430000000 cycles: 226839471 heartbeat IPC: 0.868959 cumulative IPC: 0.921538 (Simulation time: 1 hr 4 min 47 sec) 
Heartbeat CPU 0 instructions: 550000003 cycles: 230910015 heartbeat IPC: 1.72215 cumulative IPC: 1.61541 (Simulation time: 1 hr 5 min 31 sec) 
Heartbeat CPU 0 instructions: 560000000 cycles: 237511456 heartbeat IPC: 1.51482 cumulative IPC: 1.60917 (Simulation time: 1 hr 6 min 40 sec) 
Heartbeat CPU 3 instructions: 440000000 cycles: 238175553 heartbeat IPC: 0.882139 cumulative IPC: 0.917365 (Simulation time: 1 hr 6 min 46 sec) 
Heartbeat CPU 2 instructions: 300000000 cycles: 241465998 heartbeat IPC: 0.447098 cumulative IPC: 0.440793 (Simulation time: 1 hr 7 min 22 sec) 
Heartbeat CPU 0 instructions: 570000001 cycles: 243774577 heartbeat IPC: 1.59665 cumulative IPC: 1.60847 (Simulation time: 1 hr 7 min 48 sec) 
Heartbeat CPU 3 instructions: 450000003 cycles: 247845200 heartbeat IPC: 1.03416 cumulative IPC: 0.927042 (Simulation time: 1 hr 8 min 32 sec) 
Heartbeat CPU 1 instructions: 250000000 cycles: 249750792 heartbeat IPC: 0.422502 cumulative IPC: 0.421559 (Simulation time: 1 hr 8 min 52 sec) 
Heartbeat CPU 0 instructions: 580000000 cycles: 249855063 heartbeat IPC: 1.64461 cumulative IPC: 1.61032 (Simulation time: 1 hr 8 min 53 sec) 
Heartbeat CPU 0 instructions: 590000001 cycles: 256081776 heartbeat IPC: 1.60598 cumulative IPC: 1.61011 (Simulation time: 1 hr 10 min 4 sec) 
Heartbeat CPU 3 instructions: 460000000 cycles: 257694693 heartbeat IPC: 1.01528 cumulative IPC: 0.93391 (Simulation time: 1 hr 10 min 21 sec) 
Heartbeat CPU 0 instructions: 600000000 cycles: 262052309 heartbeat IPC: 1.67489 cumulative IPC: 1.61306 (Simulation time: 1 hr 11 min 10 sec) 
Heartbeat CPU 2 instructions: 310000003 cycles: 263497131 heartbeat IPC: 0.453903 cumulative IPC: 0.442976 (Simulation time: 1 hr 11 min 25 sec) 
Heartbeat CPU 3 instructions: 470000002 cycles: 267177103 heartbeat IPC: 1.05458 cumulative IPC: 0.942322 (Simulation time: 1 hr 12 min 5 sec) 
Heartbeat CPU 0 instructions: 610000002 cycles: 267973122 heartbeat IPC: 1.68896 cumulative IPC: 1.61634 (Simulation time: 1 hr 12 min 14 sec) 
Heartbeat CPU 1 instructions: 260000000 cycles: 273537502 heartbeat IPC: 0.420403 cumulative IPC: 0.421366 (Simulation time: 1 hr 13 min 18 sec) 
Heartbeat CPU 0 instructions: 620000000 cycles: 273718293 heartbeat IPC: 1.74059 cumulative IPC: 1.62135 (Simulation time: 1 hr 13 min 20 sec) 
Heartbeat CPU 3 instructions: 480000000 cycles: 276392035 heartbeat IPC: 1.08519 cumulative IPC: 0.951386 (Simulation time: 1 hr 13 min 47 sec) 
Heartbeat CPU 0 instructions: 630000001 cycles: 279493825 heartbeat IPC: 1.73144 cumulative IPC: 1.62564 (Simulation time: 1 hr 14 min 19 sec) 
Heartbeat CPU 0 instructions: 640000000 cycles: 285255919 heartbeat IPC: 1.73548 cumulative IPC: 1.62974 (Simulation time: 1 hr 15 min 23 sec) 
Heartbeat CPU 3 instructions: 490000000 cycles: 285477699 heartbeat IPC: 1.10064 cumulative IPC: 0.960172 (Simulation time: 1 hr 15 min 25 sec) 
Heartbeat CPU 0 instructions: 650000003 cycles: 291295347 heartbeat IPC: 1.65579 cumulative IPC: 1.63073 (Simulation time: 1 hr 16 min 30 sec) 
Heartbeat CPU 3 instructions: 500000000 cycles: 294270604 heartbeat IPC: 1.13728 cumulative IPC: 0.969719 (Simulation time: 1 hr 17 min 3 sec) 
Heartbeat CPU 2 instructions: 320000000 cycles: 295339467 heartbeat IPC: 0.314047 cumulative IPC: 0.417973 (Simulation time: 1 hr 17 min 15 sec) 
Heartbeat CPU 0 instructions: 660000000 cycles: 297022712 heartbeat IPC: 1.746 cumulative IPC: 1.63471 (Simulation time: 1 hr 17 min 34 sec) 
Heartbeat CPU 1 instructions: 270000000 cycles: 297385126 heartbeat IPC: 0.419329 cumulative IPC: 0.421074 (Simulation time: 1 hr 17 min 38 sec) 
Heartbeat CPU 3 instructions: 510000003 cycles: 302877695 heartbeat IPC: 1.16183 cumulative IPC: 0.979347 (Simulation time: 1 hr 18 min 37 sec) 
Heartbeat CPU 0 instructions: 670000000 cycles: 302919625 heartbeat IPC: 1.6958 cumulative IPC: 1.6368 (Simulation time: 1 hr 18 min 38 sec) 
Heartbeat CPU 0 instructions: 680000000 cycles: 308551533 heartbeat IPC: 1.7756 cumulative IPC: 1.64121 (Simulation time: 1 hr 19 min 42 sec) 
Heartbeat CPU 3 instructions: 520000000 cycles: 311322935 heartbeat IPC: 1.1841 cumulative IPC: 0.988944 (Simulation time: 1 hr 20 min 13 sec) 
Heartbeat CPU 0 instructions: 690000002 cycles: 314108516 heartbeat IPC: 1.79954 cumulative IPC: 1.64602 (Simulation time: 1 hr 20 min 48 sec) 
Heartbeat CPU 0 instructions: 700000000 cycles: 319280187 heartbeat IPC: 1.93361 cumulative IPC: 1.65392 (Simulation time: 1 hr 21 min 51 sec) 
Heartbeat CPU 2 instructions: 330000000 cycles: 319295589 heartbeat IPC: 0.41743 cumulative IPC: 0.417904 (Simulation time: 1 hr 21 min 51 sec) 
Heartbeat CPU 3 instructions: 530000003 cycles: 320615684 heartbeat IPC: 1.07611 cumulative IPC: 0.993219 (Simulation time: 1 hr 22 min 13 sec) 
Heartbeat CPU 1 instructions: 280000000 cycles: 321259230 heartbeat IPC: 0.418864 cumulative IPC: 0.420796 (Simulation time: 1 hr 22 min 21 sec) 
Heartbeat CPU 0 instructions: 710000000 cycles: 326785481 heartbeat IPC: 1.33239 cumulative IPC: 1.64159 (Simulation time: 1 hr 23 min 20 sec) 
Heartbeat CPU 3 instructions: 540000000 cycles: 330777322 heartbeat IPC: 0.984093 cumulative IPC: 0.992755 (Simulation time: 1 hr 24 min 3 sec) 
Heartbeat CPU 0 instructions: 720000000 cycles: 335219545 heartbeat IPC: 1.18567 cumulative IPC: 1.62275 (Simulation time: 1 hr 24 min 48 sec) 
Heartbeat CPU 2 instructions: 340000000 cycles: 339689431 heartbeat IPC: 0.490344 cumulative IPC: 0.424988 (Simulation time: 1 hr 25 min 35 sec) 
Heartbeat CPU 0 instructions: 730000002 cycles: 341780880 heartbeat IPC: 1.52408 cumulative IPC: 1.61967 (Simulation time: 1 hr 25 min 54 sec) 
Heartbeat CPU 3 instructions: 550000000 cycles: 342969035 heartbeat IPC: 0.820229 cumulative IPC: 0.982825 (Simulation time: 1 hr 26 min 7 sec) 
Heartbeat CPU 1 instructions: 290000000 cycles: 345063188 heartbeat IPC: 0.420098 cumulative IPC: 0.420718 (Simulation time: 1 hr 26 min 30 sec) 
Heartbeat CPU 0 instructions: 740000000 cycles: 347815501 heartbeat IPC: 1.6571 cumulative IPC: 1.62072 (Simulation time: 1 hr 26 min 57 sec) 
Heartbeat CPU 0 instructions: 750000000 cycles: 353668981 heartbeat IPC: 1.70839 cumulative IPC: 1.62302 (Simulation time: 1 hr 28 min 1 sec) 
Heartbeat CPU 3 instructions: 560000000 cycles: 354030720 heartbeat IPC: 0.904021 cumulative IPC: 0.978914 (Simulation time: 1 hr 28 min 5 sec) 
Heartbeat CPU 0 instructions: 760000000 cycles: 359653413 heartbeat IPC: 1.671 cumulative IPC: 1.62428 (Simulation time: 1 hr 29 min 3 sec) 
Heartbeat CPU 2 instructions: 350000000 cycles: 362773756 heartbeat IPC: 0.433194 cumulative IPC: 0.425805 (Simulation time: 1 hr 29 min 35 sec) 
Heartbeat CPU 0 instructions: 770000000 cycles: 365569417 heartbeat IPC: 1.69033 cumulative IPC: 1.62595 (Simulation time: 1 hr 30 min 4 sec) 
Heartbeat CPU 3 instructions: 570000003 cycles: 366713424 heartbeat IPC: 0.788476 cumulative IPC: 0.968661 (Simulation time: 1 hr 30 min 14 sec) 
Heartbeat CPU 1 instructions: 300000000 cycles: 368809339 heartbeat IPC: 0.421121 cumulative IPC: 0.420759 (Simulation time: 1 hr 30 min 40 sec) 
Heartbeat CPU 0 instructions: 780000000 cycles: 371574418 heartbeat IPC: 1.66528 cumulative IPC: 1.62693 (Simulation time: 1 hr 31 min 10 sec) 
Heartbeat CPU 3 instructions: 580000000 cycles: 377075728 heartbeat IPC: 0.965036 cumulative IPC: 0.968508 (Simulation time: 1 hr 32 min 6 sec) 
Heartbeat CPU 0 instructions: 790000001 cycles: 377952226 heartbeat IPC: 1.56794 cumulative IPC: 1.6254 (Simulation time: 1 hr 32 min 14 sec) 
Heartbeat CPU 0 instructions: 800000000 cycles: 384504591 heartbeat IPC: 1.52617 cumulative IPC: 1.62284 (Simulation time: 1 hr 33 min 20 sec) 
Heartbeat CPU 2 instructions: 360000000 cycles: 385122174 heartbeat IPC: 0.447459 cumulative IPC: 0.427711 (Simulation time: 1 hr 33 min 28 sec) 
Heartbeat CPU 3 instructions: 590000003 cycles: 389491874 heartbeat IPC: 0.805403 cumulative IPC: 0.96067 (Simulation time: 1 hr 34 min 11 sec) 
Heartbeat CPU 0 instructions: 810000000 cycles: 390647657 heartbeat IPC: 1.62785 cumulative IPC: 1.62296 (Simulation time: 1 hr 34 min 25 sec) 
Heartbeat CPU 1 instructions: 310000000 cycles: 392657080 heartbeat IPC: 0.419327 cumulative IPC: 0.420628 (Simulation time: 1 hr 34 min 47 sec) 
Heartbeat CPU 0 instructions: 820000000 cycles: 396841883 heartbeat IPC: 1.61441 cumulative IPC: 1.62276 (Simulation time: 1 hr 35 min 31 sec) 
Heartbeat CPU 3 instructions: 600000000 cycles: 400916263 heartbeat IPC: 0.87532 cumulative IPC: 0.957055 (Simulation time: 1 hr 36 min 12 sec) 
Heartbeat CPU 0 instructions: 830000002 cycles: 402842815 heartbeat IPC: 1.66641 cumulative IPC: 1.62372 (Simulation time: 1 hr 36 min 32 sec) 
Heartbeat CPU 2 instructions: 370000003 cycles: 407450991 heartbeat IPC: 0.447852 cumulative IPC: 0.429338 (Simulation time: 1 hr 37 min 20 sec) 
Heartbeat CPU 0 instructions: 840000000 cycles: 408805527 heartbeat IPC: 1.67709 cumulative IPC: 1.62487 (Simulation time: 1 hr 37 min 33 sec) 
Heartbeat CPU 1 instructions: 320000000 cycles: 412793280 heartbeat IPC: 0.496618 cumulative IPC: 0.426061 (Simulation time: 1 hr 38 min 20 sec) 
Heartbeat CPU 3 instructions: 610000003 cycles: 413209041 heartbeat IPC: 0.813486 cumulative IPC: 0.950798 (Simulation time: 1 hr 38 min 24 sec) 
Heartbeat CPU 0 instructions: 850000000 cycles: 414505422 heartbeat IPC: 1.75442 cumulative IPC: 1.62747 (Simulation time: 1 hr 38 min 38 sec) 
Heartbeat CPU 0 instructions: 860000000 cycles: 420451218 heartbeat IPC: 1.68186 cumulative IPC: 1.62859 (Simulation time: 1 hr 39 min 44 sec) 
Heartbeat CPU 3 instructions: 620000000 cycles: 424218686 heartbeat IPC: 0.908294 cumulative IPC: 0.949202 (Simulation time: 1 hr 40 min 23 sec) 
Heartbeat CPU 0 instructions: 870000000 cycles: 426498300 heartbeat IPC: 1.65369 cumulative IPC: 1.6291 (Simulation time: 1 hr 40 min 45 sec) 
Heartbeat CPU 2 instructions: 380000000 cycles: 429528327 heartbeat IPC: 0.452953 cumulative IPC: 0.431086 (Simulation time: 1 hr 41 min 19 sec) 
Heartbeat CPU 0 instructions: 880000000 cycles: 432431472 heartbeat IPC: 1.68544 cumulative IPC: 1.63021 (Simulation time: 1 hr 41 min 48 sec) 
Heartbeat CPU 1 instructions: 330000003 cycles: 433891474 heartbeat IPC: 0.473974 cumulative IPC: 0.4294 (Simulation time: 1 hr 42 min 4 sec) 
Heartbeat CPU 3 instructions: 630000001 cycles: 435273514 heartbeat IPC: 0.904582 cumulative IPC: 0.94758 (Simulation time: 1 hr 42 min 21 sec) 
Heartbeat CPU 0 instructions: 890000001 cycles: 438049237 heartbeat IPC: 1.78007 cumulative IPC: 1.63296 (Simulation time: 1 hr 42 min 53 sec) 
Heartbeat CPU 0 instructions: 900000000 cycles: 443771796 heartbeat IPC: 1.74747 cumulative IPC: 1.63505 (Simulation time: 1 hr 43 min 54 sec) 
Heartbeat CPU 3 instructions: 640000000 cycles: 444657926 heartbeat IPC: 1.0656 cumulative IPC: 0.951112 (Simulation time: 1 hr 44 min 6 sec) 
Heartbeat CPU 0 instructions: 910000002 cycles: 449366301 heartbeat IPC: 1.78747 cumulative IPC: 1.63773 (Simulation time: 1 hr 44 min 57 sec) 
Heartbeat CPU 2 instructions: 390000002 cycles: 451385690 heartbeat IPC: 0.457512 cumulative IPC: 0.432889 (Simulation time: 1 hr 45 min 18 sec) 
Heartbeat CPU 3 instructions: 650000002 cycles: 454759602 heartbeat IPC: 0.989935 cumulative IPC: 0.952324 (Simulation time: 1 hr 45 min 53 sec) 
Heartbeat CPU 1 instructions: 340000000 cycles: 457687801 heartbeat IPC: 0.420233 cumulative IPC: 0.428732 (Simulation time: 1 hr 46 min 26 sec) 
Heartbeat CPU 0 instructions: 920000000 cycles: 457892855 heartbeat IPC: 1.17281 cumulative IPC: 1.6256 (Simulation time: 1 hr 46 min 28 sec) 
Heartbeat CPU 3 instructions: 660000000 cycles: 463924193 heartbeat IPC: 1.09116 cumulative IPC: 0.956147 (Simulation time: 1 hr 47 min 34 sec) 
Heartbeat CPU 0 instructions: 930000003 cycles: 465486823 heartbeat IPC: 1.31684 cumulative IPC: 1.61859 (Simulation time: 1 hr 47 min 51 sec) 
Heartbeat CPU 0 instructions: 940000000 cycles: 471247017 heartbeat IPC: 1.73605 cumulative IPC: 1.62058 (Simulation time: 1 hr 48 min 57 sec) 
Heartbeat CPU 2 instructions: 400000000 cycles: 473045368 heartbeat IPC: 0.461687 cumulative IPC: 0.434714 (Simulation time: 1 hr 49 min 13 sec) 
Heartbeat CPU 3 instructions: 670000001 cycles: 474023078 heartbeat IPC: 0.990208 cumulative IPC: 0.957151 (Simulation time: 1 hr 49 min 23 sec) 
Heartbeat CPU 0 instructions: 950000003 cycles: 477308134 heartbeat IPC: 1.64986 cumulative IPC: 1.62109 (Simulation time: 1 hr 49 min 58 sec) 
Heartbeat CPU 1 instructions: 350000000 cycles: 481419195 heartbeat IPC: 0.421383 cumulative IPC: 0.428234 (Simulation time: 1 hr 50 min 45 sec) 
Heartbeat CPU 0 instructions: 960000000 cycles: 483433158 heartbeat IPC: 1.63265 cumulative IPC: 1.62129 (Simulation time: 1 hr 51 min 6 sec) 
Heartbeat CPU 3 instructions: 680000000 cycles: 484623741 heartbeat IPC: 0.943337 cumulative IPC: 0.956736 (Simulation time: 1 hr 51 min 18 sec) 
Heartbeat CPU 0 instructions: 970000000 cycles: 489204177 heartbeat IPC: 1.7328 cumulative IPC: 1.62309 (Simulation time: 1 hr 52 min 8 sec) 
Heartbeat CPU 3 instructions: 690000002 cycles: 494154696 heartbeat IPC: 1.04921 cumulative IPC: 0.959164 (Simulation time: 1 hr 53 min 2 sec) 
Heartbeat CPU 2 instructions: 410000000 cycles: 495426943 heartbeat IPC: 0.446796 cumulative IPC: 0.435456 (Simulation time: 1 hr 53 min 14 sec) 
Heartbeat CPU 0 instructions: 980000000 cycles: 495459628 heartbeat IPC: 1.59861 cumulative IPC: 1.62267 (Simulation time: 1 hr 53 min 15 sec) 
Heartbeat CPU 0 instructions: 990000002 cycles: 501535936 heartbeat IPC: 1.64574 cumulative IPC: 1.62305 (Simulation time: 1 hr 54 min 23 sec) 
Heartbeat CPU 3 instructions: 700000000 cycles: 504024542 heartbeat IPC: 1.01319 cumulative IPC: 0.960594 (Simulation time: 1 hr 54 min 51 sec) 
Heartbeat CPU 1 instructions: 360000000 cycles: 505172036 heartbeat IPC: 0.421002 cumulative IPC: 0.427775 (Simulation time: 1 hr 55 min 3 sec) 
Heartbeat CPU 0 instructions: 1000000000 cycles: 507347788 heartbeat IPC: 1.72062 cumulative IPC: 1.62455 (Simulation time: 1 hr 55 min 25 sec) 
Heartbeat CPU 0 instructions: 1010000001 cycles: 513842553 heartbeat IPC: 1.5397 cumulative IPC: 1.62311 (Simulation time: 1 hr 56 min 33 sec) 
Heartbeat CPU 3 instructions: 710000001 cycles: 515391410 heartbeat IPC: 0.87975 cumulative IPC: 0.958203 (Simulation time: 1 hr 56 min 47 sec) 
Heartbeat CPU 2 instructions: 420000000 cycles: 517539206 heartbeat IPC: 0.452238 cumulative IPC: 0.436416 (Simulation time: 1 hr 57 min 11 sec) 
Heartbeat CPU 0 instructions: 1020000000 cycles: 520098674 heartbeat IPC: 1.59843 cumulative IPC: 1.62272 (Simulation time: 1 hr 57 min 36 sec) 
Heartbeat CPU 3 instructions: 720000000 cycles: 525339162 heartbeat IPC: 1.00525 cumulative IPC: 0.95939 (Simulation time: 1 hr 58 min 37 sec) 
Heartbeat CPU 0 instructions: 1030000001 cycles: 526190542 heartbeat IPC: 1.64153 cumulative IPC: 1.62301 (Simulation time: 1 hr 58 min 44 sec) 
Heartbeat CPU 1 instructions: 370000001 cycles: 528888210 heartbeat IPC: 0.421653 cumulative IPC: 0.42741 (Simulation time: 1 hr 59 min 13 sec) 
Heartbeat CPU 0 instructions: 1040000000 cycles: 532301693 heartbeat IPC: 1.63635 cumulative IPC: 1.62321 (Simulation time: 1 hr 59 min 49 sec) 
Heartbeat CPU 3 instructions: 730000002 cycles: 535863833 heartbeat IPC: 0.950149 cumulative IPC: 0.95915 (Simulation time: 2 hr 0 min 27 sec) 
Heartbeat CPU 0 instructions: 1050000001 cycles: 538273070 heartbeat IPC: 1.67466 cumulative IPC: 1.62396 (Simulation time: 2 hr 0 min 54 sec) 
Heartbeat CPU 2 instructions: 430000002 cycles: 539732202 heartbeat IPC: 0.450593 cumulative IPC: 0.437186 (Simulation time: 2 hr 1 min 11 sec) 
Heartbeat CPU 0 instructions: 1060000000 cycles: 543773615 heartbeat IPC: 1.818 cumulative IPC: 1.62655 (Simulation time: 2 hr 2 min 10 sec) 
Heartbeat CPU 3 instructions: 740000000 cycles: 545991090 heartbeat IPC: 0.987434 cumulative IPC: 0.95984 (Simulation time: 2 hr 2 min 40 sec) 
Heartbeat CPU 0 instructions: 1070000001 cycles: 549144343 heartbeat IPC: 1.86195 cumulative IPC: 1.62958 (Simulation time: 2 hr 3 min 13 sec) 
Heartbeat CPU 1 instructions: 380000000 cycles: 552616896 heartbeat IPC: 0.421431 cumulative IPC: 0.427073 (Simulation time: 2 hr 3 min 54 sec) 
Heartbeat CPU 0 instructions: 1080000000 cycles: 554635085 heartbeat IPC: 1.82125 cumulative IPC: 1.63206 (Simulation time: 2 hr 4 min 18 sec) 
Heartbeat CPU 3 instructions: 750000003 cycles: 555320747 heartbeat IPC: 1.07185 cumulative IPC: 0.962304 (Simulation time: 2 hr 4 min 27 sec) 
Heartbeat CPU 0 instructions: 1090000003 cycles: 560793393 heartbeat IPC: 1.62382 cumulative IPC: 1.63194 (Simulation time: 2 hr 5 min 23 sec) 
Heartbeat CPU 3 instructions: 760000000 cycles: 565003837 heartbeat IPC: 1.03273 cumulative IPC: 0.963876 (Simulation time: 2 hr 6 min 10 sec) 
Heartbeat CPU 0 instructions: 1100000000 cycles: 566638988 heartbeat IPC: 1.71069 cumulative IPC: 1.633 (Simulation time: 2 hr 6 min 30 sec) 
Heartbeat CPU 0 instructions: 1110000001 cycles: 571922443 heartbeat IPC: 1.8927 cumulative IPC: 1.63611 (Simulation time: 2 hr 7 min 30 sec) 
Heartbeat CPU 2 instructions: 440000000 cycles: 574117653 heartbeat IPC: 0.290821 cumulative IPC: 0.425825 (Simulation time: 2 hr 7 min 53 sec) 
Heartbeat CPU 3 instructions: 770000002 cycles: 574185813 heartbeat IPC: 1.08909 cumulative IPC: 0.966471 (Simulation time: 2 hr 7 min 54 sec) 
Heartbeat CPU 1 instructions: 390000001 cycles: 576394884 heartbeat IPC: 0.420557 cumulative IPC: 0.426725 (Simulation time: 2 hr 8 min 20 sec) 
Heartbeat CPU 0 instructions: 1120000000 cycles: 577276378 heartbeat IPC: 1.86778 cumulative IPC: 1.63889 (Simulation time: 2 hr 8 min 30 sec) 
Heartbeat CPU 3 instructions: 780000000 cycles: 582749384 heartbeat IPC: 1.16774 cumulative IPC: 0.970287 (Simulation time: 2 hr 9 min 32 sec) 
Heartbeat CPU 0 instructions: 1130000002 cycles: 585047575 heartbeat IPC: 1.2868 cumulative IPC: 1.63286 (Simulation time: 2 hr 9 min 58 sec) 
Heartbeat CPU 3 instructions: 790000002 cycles: 591853697 heartbeat IPC: 1.09838 cumulative IPC: 0.972819 (Simulation time: 2 hr 11 min 19 sec) 
Heartbeat CPU 0 instructions: 1140000000 cycles: 593096953 heartbeat IPC: 1.24233 cumulative IPC: 1.62606 (Simulation time: 2 hr 11 min 33 sec) 
Heartbeat CPU 2 instructions: 450000000 cycles: 595044852 heartbeat IPC: 0.477847 cumulative IPC: 0.428172 (Simulation time: 2 hr 11 min 55 sec) 
Heartbeat CPU 0 instructions: 1150000002 cycles: 598977362 heartbeat IPC: 1.70056 cumulative IPC: 1.627 (Simulation time: 2 hr 12 min 42 sec) 
Heartbeat CPU 1 instructions: 400000000 cycles: 600313525 heartbeat IPC: 0.418084 cumulative IPC: 0.426285 (Simulation time: 2 hr 12 min 57 sec) 
Heartbeat CPU 3 instructions: 800000000 cycles: 602564884 heartbeat IPC: 0.933603 cumulative IPC: 0.971928 (Simulation time: 2 hr 13 min 19 sec) 
Heartbeat CPU 0 instructions: 1160000000 cycles: 605123096 heartbeat IPC: 1.62714 cumulative IPC: 1.627 (Simulation time: 2 hr 13 min 47 sec) 
Heartbeat CPU 0 instructions: 1170000000 cycles: 611265933 heartbeat IPC: 1.62791 cumulative IPC: 1.62701 (Simulation time: 2 hr 14 min 56 sec) 
Heartbeat CPU 3 instructions: 810000000 cycles: 612824997 heartbeat IPC: 0.974648 cumulative IPC: 0.971985 (Simulation time: 2 hr 15 min 11 sec) 
Heartbeat CPU 0 instructions: 1180000000 cycles: 617111672 heartbeat IPC: 1.71065 cumulative IPC: 1.62802 (Simulation time: 2 hr 15 min 57 sec) 
Heartbeat CPU 2 instructions: 460000000 cycles: 617875488 heartbeat IPC: 0.438008 cumulative IPC: 0.428633 (Simulation time: 2 hr 16 min 5 sec) 
Heartbeat CPU 0 instructions: 1190000002 cycles: 623192774 heartbeat IPC: 1.64444 cumulative IPC: 1.62822 (Simulation time: 2 hr 17 min 3 sec) 
Heartbeat CPU 1 instructions: 410000000 cycles: 624103684 heartbeat IPC: 0.420342 cumulative IPC: 0.425998 (Simulation time: 2 hr 17 min 13 sec) 
Heartbeat CPU 3 instructions: 820000000 cycles: 624418208 heartbeat IPC: 0.862574 cumulative IPC: 0.969414 (Simulation time: 2 hr 17 min 17 sec) 
Heartbeat CPU 0 instructions: 1200000000 cycles: 629167159 heartbeat IPC: 1.67381 cumulative IPC: 1.62877 (Simulation time: 2 hr 18 min 6 sec) 
Heartbeat CPU 0 instructions: 1210000001 cycles: 635135476 heartbeat IPC: 1.67551 cumulative IPC: 1.62932 (Simulation time: 2 hr 19 min 9 sec) 
Heartbeat CPU 3 instructions: 830000002 cycles: 635685769 heartbeat IPC: 0.887504 cumulative IPC: 0.967585 (Simulation time: 2 hr 19 min 15 sec) 
Heartbeat CPU 2 instructions: 470000000 cycles: 640012841 heartbeat IPC: 0.451725 cumulative IPC: 0.429638 (Simulation time: 2 hr 20 min 2 sec) 
Heartbeat CPU 0 instructions: 1220000000 cycles: 641045055 heartbeat IPC: 1.69217 cumulative IPC: 1.63005 (Simulation time: 2 hr 20 min 14 sec) 
Heartbeat CPU 0 instructions: 1230000000 cycles: 647493194 heartbeat IPC: 1.55084 cumulative IPC: 1.62906 (Simulation time: 2 hr 21 min 20 sec) 
Heartbeat CPU 3 instructions: 840000000 cycles: 647782246 heartbeat IPC: 0.826687 cumulative IPC: 0.964286 (Simulation time: 2 hr 21 min 23 sec) 
Heartbeat CPU 1 instructions: 420000000 cycles: 647981323 heartbeat IPC: 0.418802 cumulative IPC: 0.425665 (Simulation time: 2 hr 21 min 25 sec) 
Heartbeat CPU 0 instructions: 1240000000 cycles: 653663981 heartbeat IPC: 1.62054 cumulative IPC: 1.62896 (Simulation time: 2 hr 22 min 27 sec) 
Heartbeat CPU 3 instructions: 850000002 cycles: 658540214 heartbeat IPC: 0.929544 cumulative IPC: 0.963577 (Simulation time: 2 hr 23 min 18 sec) 
Heartbeat CPU 0 instructions: 1250000000 cycles: 659860724 heartbeat IPC: 1.61375 cumulative IPC: 1.62878 (Simulation time: 2 hr 23 min 30 sec) 
Heartbeat CPU 2 instructions: 480000000 cycles: 662262980 heartbeat IPC: 0.449435 cumulative IPC: 0.430467 (Simulation time: 2 hr 23 min 58 sec) 
Heartbeat CPU 0 instructions: 1260000000 cycles: 665964695 heartbeat IPC: 1.63828 cumulative IPC: 1.62889 (Simulation time: 2 hr 24 min 40 sec) 
Heartbeat CPU 3 instructions: 860000000 cycles: 668926631 heartbeat IPC: 0.962796 cumulative IPC: 0.963562 (Simulation time: 2 hr 25 min 11 sec) 
Heartbeat CPU 0 instructions: 1270000002 cycles: 672070455 heartbeat IPC: 1.6378 cumulative IPC: 1.62899 (Simulation time: 2 hr 25 min 43 sec) 
Heartbeat CPU 1 instructions: 430000000 cycles: 672261477 heartbeat IPC: 0.411859 cumulative IPC: 0.425046 (Simulation time: 2 hr 25 min 46 sec) 
Heartbeat CPU 0 instructions: 1280000000 cycles: 677373262 heartbeat IPC: 1.88579 cumulative IPC: 1.63148 (Simulation time: 2 hr 26 min 45 sec) 
Heartbeat CPU 3 instructions: 870000001 cycles: 679291486 heartbeat IPC: 0.964799 cumulative IPC: 0.963585 (Simulation time: 2 hr 27 min 6 sec) 
Heartbeat CPU 0 instructions: 1290000000 cycles: 682490524 heartbeat IPC: 1.95417 cumulative IPC: 1.63448 (Simulation time: 2 hr 27 min 41 sec) 
Heartbeat CPU 2 instructions: 490000002 cycles: 684121089 heartbeat IPC: 0.457496 cumulative IPC: 0.431535 (Simulation time: 2 hr 28 min 0 sec) 
Heartbeat CPU 0 instructions: 1300000000 cycles: 688294616 heartbeat IPC: 1.72292 cumulative IPC: 1.6354 (Simulation time: 2 hr 28 min 48 sec) 
Heartbeat CPU 3 instructions: 880000000 cycles: 689249847 heartbeat IPC: 1.00418 cumulative IPC: 0.96431 (Simulation time: 2 hr 28 min 59 sec) 
Heartbeat CPU 0 instructions: 1310000001 cycles: 694394572 heartbeat IPC: 1.63936 cumulative IPC: 1.63544 (Simulation time: 2 hr 29 min 52 sec) 
Heartbeat CPU 1 instructions: 440000000 cycles: 696880465 heartbeat IPC: 0.406191 cumulative IPC: 0.424225 (Simulation time: 2 hr 30 min 22 sec) 
Heartbeat CPU 0 instructions: 1320000000 cycles: 699681476 heartbeat IPC: 1.89147 cumulative IPC: 1.63782 (Simulation time: 2 hr 30 min 51 sec) 
Heartbeat CPU 3 instructions: 890000000 cycles: 700218897 heartbeat IPC: 0.911656 cumulative IPC: 0.963295 (Simulation time: 2 hr 30 min 57 sec) 
Heartbeat CPU 0 instructions: 1330000001 cycles: 705179506 heartbeat IPC: 1.81883 cumulative IPC: 1.63956 (Simulation time: 2 hr 31 min 51 sec) 
Heartbeat CPU 2 instructions: 500000000 cycles: 705991956 heartbeat IPC: 0.457229 cumulative IPC: 0.432513 (Simulation time: 2 hr 32 min 0 sec) 
Heartbeat CPU 3 instructions: 900000000 cycles: 711881379 heartbeat IPC: 0.85745 cumulative IPC: 0.961169 (Simulation time: 2 hr 33 min 0 sec) 
Heartbeat CPU 0 instructions: 1340000000 cycles: 713639745 heartbeat IPC: 1.182 cumulative IPC: 1.63291 (Simulation time: 2 hr 33 min 17 sec) 
Heartbeat CPU 0 instructions: 1350000001 cycles: 721140656 heartbeat IPC: 1.33317 cumulative IPC: 1.6291 (Simulation time: 2 hr 34 min 35 sec) 
Heartbeat CPU 1 instructions: 450000001 cycles: 721804826 heartbeat IPC: 0.401214 cumulative IPC: 0.423254 (Simulation time: 2 hr 34 min 41 sec) 
Heartbeat CPU 3 instructions: 910000000 cycles: 723411100 heartbeat IPC: 0.867324 cumulative IPC: 0.959342 (Simulation time: 2 hr 34 min 58 sec) 
Heartbeat CPU 0 instructions: 1360000000 cycles: 727032246 heartbeat IPC: 1.69733 cumulative IPC: 1.62977 (Simulation time: 2 hr 35 min 34 sec) 
Heartbeat CPU 2 instructions: 510000003 cycles: 728090004 heartbeat IPC: 0.452529 cumulative IPC: 0.433254 (Simulation time: 2 hr 35 min 46 sec) 
Heartbeat CPU 0 instructions: 1370000002 cycles: 732998199 heartbeat IPC: 1.67618 cumulative IPC: 1.63023 (Simulation time: 2 hr 36 min 38 sec) 
Heartbeat CPU 3 instructions: 920000000 cycles: 735843823 heartbeat IPC: 0.804329 cumulative IPC: 0.956155 (Simulation time: 2 hr 37 min 7 sec) 
Heartbeat CPU 0 instructions: 1380000000 cycles: 739075158 heartbeat IPC: 1.64556 cumulative IPC: 1.63039 (Simulation time: 2 hr 37 min 40 sec) 
Finished CPU 0 instructions: 1000000002 cycles: 613526039 cumulative IPC: 1.62992 (Simulation time: 2 hr 38 min 37 sec) 
Heartbeat CPU 0 instructions: 1390000001 cycles: 745341208 heartbeat IPC: 1.5959 cumulative IPC: 1.63004 (Simulation time: 2 hr 38 min 45 sec) 
Heartbeat CPU 1 instructions: 460000000 cycles: 747085914 heartbeat IPC: 0.395553 cumulative IPC: 0.422117 (Simulation time: 2 hr 39 min 3 sec) 
Heartbeat CPU 3 instructions: 930000001 cycles: 748483098 heartbeat IPC: 0.791185 cumulative IPC: 0.952778 (Simulation time: 2 hr 39 min 16 sec) 
Heartbeat CPU 2 instructions: 520000000 cycles: 750503619 heartbeat IPC: 0.446157 cumulative IPC: 0.433721 (Simulation time: 2 hr 39 min 40 sec) 
Heartbeat CPU 0 instructions: 1400000000 cycles: 751364804 heartbeat IPC: 1.66014 cumulative IPC: 1.63033 (Simulation time: 2 hr 39 min 49 sec) 
Heartbeat CPU 0 instructions: 1410000001 cycles: 757574270 heartbeat IPC: 1.61044 cumulative IPC: 1.63013 (Simulation time: 2 hr 40 min 53 sec) 
Heartbeat CPU 3 instructions: 940000000 cycles: 759005955 heartbeat IPC: 0.950312 cumulative IPC: 0.952736 (Simulation time: 2 hr 41 min 10 sec) 
Heartbeat CPU 0 instructions: 1420000000 cycles: 763673330 heartbeat IPC: 1.6396 cumulative IPC: 1.63022 (Simulation time: 2 hr 41 min 58 sec) 
Heartbeat CPU 0 instructions: 1430000003 cycles: 769488530 heartbeat IPC: 1.71963 cumulative IPC: 1.63104 (Simulation time: 2 hr 42 min 59 sec) 
Heartbeat CPU 3 instructions: 950000003 cycles: 770519728 heartbeat IPC: 0.868525 cumulative IPC: 0.95122 (Simulation time: 2 hr 43 min 9 sec) 
Heartbeat CPU 1 instructions: 470000003 cycles: 772464484 heartbeat IPC: 0.394033 cumulative IPC: 0.421006 (Simulation time: 2 hr 43 min 30 sec) 
Heartbeat CPU 2 instructions: 530000001 cycles: 772876990 heartbeat IPC: 0.44696 cumulative IPC: 0.434182 (Simulation time: 2 hr 43 min 34 sec) 
Heartbeat CPU 0 instructions: 1440000000 cycles: 776188598 heartbeat IPC: 1.49252 cumulative IPC: 1.6296 (Simulation time: 2 hr 44 min 11 sec) 
Heartbeat CPU 3 instructions: 960000000 cycles: 781332246 heartbeat IPC: 0.924854 cumulative IPC: 0.950781 (Simulation time: 2 hr 45 min 2 sec) 
Heartbeat CPU 0 instructions: 1450000002 cycles: 782306241 heartbeat IPC: 1.63462 cumulative IPC: 1.62964 (Simulation time: 2 hr 45 min 14 sec) 
Heartbeat CPU 0 instructions: 1460000000 cycles: 788285461 heartbeat IPC: 1.67246 cumulative IPC: 1.63003 (Simulation time: 2 hr 46 min 18 sec) 
Heartbeat CPU 3 instructions: 970000000 cycles: 791187270 heartbeat IPC: 1.01471 cumulative IPC: 0.951736 (Simulation time: 2 hr 46 min 50 sec) 
Heartbeat CPU 0 instructions: 1470000002 cycles: 794224771 heartbeat IPC: 1.6837 cumulative IPC: 1.63051 (Simulation time: 2 hr 47 min 18 sec) 
Heartbeat CPU 2 instructions: 540000000 cycles: 794955476 heartbeat IPC: 0.45293 cumulative IPC: 0.434806 (Simulation time: 2 hr 47 min 27 sec) 
Heartbeat CPU 1 instructions: 480000000 cycles: 797893345 heartbeat IPC: 0.393254 cumulative IPC: 0.419948 (Simulation time: 2 hr 48 min 2 sec) 
Heartbeat CPU 0 instructions: 1480000000 cycles: 799406404 heartbeat IPC: 1.92989 cumulative IPC: 1.63284 (Simulation time: 2 hr 48 min 16 sec) 
Heartbeat CPU 3 instructions: 980000000 cycles: 803663145 heartbeat IPC: 0.801547 cumulative IPC: 0.94895 (Simulation time: 2 hr 49 min 2 sec) 
Heartbeat CPU 0 instructions: 1490000002 cycles: 804408968 heartbeat IPC: 1.99898 cumulative IPC: 1.63556 (Simulation time: 2 hr 49 min 10 sec) 
Heartbeat CPU 0 instructions: 1500000000 cycles: 810343213 heartbeat IPC: 1.68513 cumulative IPC: 1.63599 (Simulation time: 2 hr 50 min 11 sec) 
Heartbeat CPU 0 instructions: 1510000003 cycles: 816043089 heartbeat IPC: 1.75442 cumulative IPC: 1.63698 (Simulation time: 2 hr 51 min 9 sec) 
Heartbeat CPU 2 instructions: 550000002 cycles: 816589754 heartbeat IPC: 0.46223 cumulative IPC: 0.435672 (Simulation time: 2 hr 51 min 16 sec) 
Heartbeat CPU 3 instructions: 990000000 cycles: 817402686 heartbeat IPC: 0.727826 cumulative IPC: 0.944523 (Simulation time: 2 hr 51 min 24 sec) 
Heartbeat CPU 0 instructions: 1520000000 cycles: 821399309 heartbeat IPC: 1.86699 cumulative IPC: 1.63876 (Simulation time: 2 hr 52 min 3 sec) 
Heartbeat CPU 1 instructions: 490000000 cycles: 823361617 heartbeat IPC: 0.392645 cumulative IPC: 0.418943 (Simulation time: 2 hr 52 min 18 sec) 
Heartbeat CPU 3 instructions: 1000000000 cycles: 829464141 heartbeat IPC: 0.829087 cumulative IPC: 0.942529 (Simulation time: 2 hr 53 min 19 sec) 
Heartbeat CPU 0 instructions: 1530000000 cycles: 829890240 heartbeat IPC: 1.17773 cumulative IPC: 1.63316 (Simulation time: 2 hr 53 min 24 sec) 
Heartbeat CPU 0 instructions: 1540000000 cycles: 837916861 heartbeat IPC: 1.24585 cumulative IPC: 1.62876 (Simulation time: 2 hr 54 min 40 sec) 
Heartbeat CPU 3 instructions: 1010000003 cycles: 840512012 heartbeat IPC: 0.905152 cumulative IPC: 0.941947 (Simulation time: 2 hr 55 min 9 sec) 
Heartbeat CPU 0 instructions: 1550000001 cycles: 844279191 heartbeat IPC: 1.57175 cumulative IPC: 1.62825 (Simulation time: 2 hr 55 min 47 sec) 
Heartbeat CPU 1 instructions: 500000000 cycles: 848860815 heartbeat IPC: 0.392169 cumulative IPC: 0.417992 (Simulation time: 2 hr 56 min 36 sec) 
Heartbeat CPU 3 instructions: 1020000000 cycles: 850593385 heartbeat IPC: 0.991928 cumulative IPC: 0.942647 (Simulation time: 2 hr 56 min 52 sec) 
Heartbeat CPU 0 instructions: 1560000000 cycles: 851116044 heartbeat IPC: 1.46266 cumulative IPC: 1.62668 (Simulation time: 2 hr 56 min 57 sec) 
Heartbeat CPU 2 instructions: 560000000 cycles: 853260801 heartbeat IPC: 0.272695 cumulative IPC: 0.427395 (Simulation time: 2 hr 57 min 20 sec) 
Heartbeat CPU 0 instructions: 1570000000 cycles: 858174405 heartbeat IPC: 1.41676 cumulative IPC: 1.62464 (Simulation time: 2 hr 58 min 14 sec) 
Heartbeat CPU 3 instructions: 1030000002 cycles: 859600322 heartbeat IPC: 1.11026 cumulative IPC: 0.94472 (Simulation time: 2 hr 58 min 33 sec) 
Heartbeat CPU 0 instructions: 1580000000 cycles: 864970139 heartbeat IPC: 1.47151 cumulative IPC: 1.62322 (Simulation time: 2 hr 59 min 32 sec) 
Heartbeat CPU 3 instructions: 1040000000 cycles: 869656318 heartbeat IPC: 0.994431 cumulative IPC: 0.945396 (Simulation time: 3 hr 0 min 23 sec) 
Heartbeat CPU 0 instructions: 1590000003 cycles: 871928009 heartbeat IPC: 1.43722 cumulative IPC: 1.62148 (Simulation time: 3 hr 0 min 50 sec) 
Heartbeat CPU 2 instructions: 570000002 cycles: 871932408 heartbeat IPC: 0.535573 cumulative IPC: 0.430122 (Simulation time: 3 hr 0 min 50 sec) 
Heartbeat CPU 1 instructions: 510000001 cycles: 874481711 heartbeat IPC: 0.390306 cumulative IPC: 0.417038 (Simulation time: 3 hr 1 min 19 sec) 
Heartbeat CPU 0 instructions: 1600000000 cycles: 877552273 heartbeat IPC: 1.77801 cumulative IPC: 1.62265 (Simulation time: 3 hr 1 min 50 sec) 
Heartbeat CPU 3 instructions: 1050000000 cycles: 879388760 heartbeat IPC: 1.02749 cumulative IPC: 0.946464 (Simulation time: 3 hr 2 min 11 sec) 
Heartbeat CPU 0 instructions: 1610000001 cycles: 885216098 heartbeat IPC: 1.30483 cumulative IPC: 1.61942 (Simulation time: 3 hr 3 min 15 sec) 
Heartbeat CPU 3 instructions: 1060000000 cycles: 889396286 heartbeat IPC: 0.999248 cumulative IPC: 0.947161 (Simulation time: 3 hr 3 min 58 sec) 
Heartbeat CPU 0 instructions: 1620000000 cycles: 891484602 heartbeat IPC: 1.59528 cumulative IPC: 1.61923 (Simulation time: 3 hr 4 min 20 sec) 
Heartbeat CPU 2 instructions: 580000000 cycles: 894883035 heartbeat IPC: 0.435718 cumulative IPC: 0.43029 (Simulation time: 3 hr 4 min 57 sec) 
Heartbeat CPU 0 instructions: 1630000002 cycles: 897775896 heartbeat IPC: 1.5895 cumulative IPC: 1.61898 (Simulation time: 3 hr 5 min 29 sec) 
Heartbeat CPU 1 instructions: 520000000 cycles: 900013478 heartbeat IPC: 0.391669 cumulative IPC: 0.416195 (Simulation time: 3 hr 5 min 53 sec) 
Heartbeat CPU 3 instructions: 1070000000 cycles: 900029712 heartbeat IPC: 0.940431 cumulative IPC: 0.947068 (Simulation time: 3 hr 5 min 53 sec) 
Heartbeat CPU 0 instructions: 1640000000 cycles: 903720746 heartbeat IPC: 1.68213 cumulative IPC: 1.61947 (Simulation time: 3 hr 6 min 33 sec) 
Heartbeat CPU 3 instructions: 1080000000 cycles: 910115855 heartbeat IPC: 0.991459 cumulative IPC: 0.947643 (Simulation time: 3 hr 7 min 41 sec) 
Heartbeat CPU 0 instructions: 1650000001 cycles: 911755771 heartbeat IPC: 1.24455 cumulative IPC: 1.61561 (Simulation time: 3 hr 7 min 58 sec) 
Heartbeat CPU 2 instructions: 590000000 cycles: 916528639 heartbeat IPC: 0.461988 cumulative IPC: 0.431164 (Simulation time: 3 hr 8 min 50 sec) 
Heartbeat CPU 0 instructions: 1660000000 cycles: 917978694 heartbeat IPC: 1.60696 cumulative IPC: 1.61554 (Simulation time: 3 hr 9 min 8 sec) 
Heartbeat CPU 3 instructions: 1090000003 cycles: 920393486 heartbeat IPC: 0.972987 cumulative IPC: 0.947973 (Simulation time: 3 hr 9 min 34 sec) 
Heartbeat CPU 0 instructions: 1670000001 cycles: 923613884 heartbeat IPC: 1.77456 cumulative IPC: 1.61667 (Simulation time: 3 hr 10 min 7 sec) 
Heartbeat CPU 1 instructions: 530000000 cycles: 924974988 heartbeat IPC: 0.400617 cumulative IPC: 0.415705 (Simulation time: 3 hr 10 min 24 sec) 
Heartbeat CPU 0 instructions: 1680000000 cycles: 929549833 heartbeat IPC: 1.68465 cumulative IPC: 1.61718 (Simulation time: 3 hr 11 min 14 sec) 
Heartbeat CPU 3 instructions: 1100000000 cycles: 931483106 heartbeat IPC: 0.901744 cumulative IPC: 0.947332 (Simulation time: 3 hr 11 min 34 sec) 
Heartbeat CPU 0 instructions: 1690000000 cycles: 936351965 heartbeat IPC: 1.47013 cumulative IPC: 1.61593 (Simulation time: 3 hr 12 min 27 sec) 
Heartbeat CPU 2 instructions: 600000000 cycles: 938448996 heartbeat IPC: 0.456197 cumulative IPC: 0.431843 (Simulation time: 3 hr 12 min 49 sec) 
Heartbeat CPU 3 instructions: 1110000002 cycles: 941740417 heartbeat IPC: 0.974915 cumulative IPC: 0.947681 (Simulation time: 3 hr 13 min 26 sec) 
Heartbeat CPU 0 instructions: 1700000000 cycles: 944245356 heartbeat IPC: 1.26688 cumulative IPC: 1.61255 (Simulation time: 3 hr 13 min 50 sec) 
Heartbeat CPU 1 instructions: 540000000 cycles: 949637228 heartbeat IPC: 0.405478 cumulative IPC: 0.415397 (Simulation time: 3 hr 14 min 46 sec) 
Heartbeat CPU 0 instructions: 1710000002 cycles: 950944134 heartbeat IPC: 1.49281 cumulative IPC: 1.61157 (Simulation time: 3 hr 14 min 59 sec) 
Heartbeat CPU 3 instructions: 1120000000 cycles: 953260947 heartbeat IPC: 0.868015 cumulative IPC: 0.946565 (Simulation time: 3 hr 15 min 23 sec) 
Heartbeat CPU 0 instructions: 1720000000 cycles: 958598162 heartbeat IPC: 1.3065 cumulative IPC: 1.60875 (Simulation time: 3 hr 16 min 18 sec) 
Heartbeat CPU 2 instructions: 610000000 cycles: 960421469 heartbeat IPC: 0.455115 cumulative IPC: 0.43246 (Simulation time: 3 hr 16 min 38 sec) 
Heartbeat CPU 3 instructions: 1130000003 cycles: 964661548 heartbeat IPC: 0.877147 cumulative IPC: 0.945615 (Simulation time: 3 hr 17 min 21 sec) 
Heartbeat CPU 0 instructions: 1730000001 cycles: 966143411 heartbeat IPC: 1.32534 cumulative IPC: 1.60618 (Simulation time: 3 hr 17 min 34 sec) 
Heartbeat CPU 0 instructions: 1740000000 cycles: 972306573 heartbeat IPC: 1.62254 cumulative IPC: 1.6063 (Simulation time: 3 hr 18 min 39 sec) 
Heartbeat CPU 1 instructions: 550000000 cycles: 974755250 heartbeat IPC: 0.398121 cumulative IPC: 0.414883 (Simulation time: 3 hr 19 min 6 sec) 
Heartbeat CPU 3 instructions: 1140000000 cycles: 978002782 heartbeat IPC: 0.749556 cumulative IPC: 0.942527 (Simulation time: 3 hr 19 min 37 sec) 
Heartbeat CPU 0 instructions: 1750000003 cycles: 978671240 heartbeat IPC: 1.57117 cumulative IPC: 1.60604 (Simulation time: 3 hr 19 min 44 sec) 
Heartbeat CPU 2 instructions: 620000000 cycles: 982986325 heartbeat IPC: 0.443167 cumulative IPC: 0.432743 (Simulation time: 3 hr 20 min 32 sec) 
Heartbeat CPU 0 instructions: 1760000000 cycles: 984738086 heartbeat IPC: 1.6483 cumulative IPC: 1.60634 (Simulation time: 3 hr 20 min 49 sec) 
Heartbeat CPU 3 instructions: 1150000001 cycles: 990649611 heartbeat IPC: 0.790712 cumulative IPC: 0.940293 (Simulation time: 3 hr 21 min 49 sec) 
Heartbeat CPU 0 instructions: 1770000003 cycles: 991442836 heartbeat IPC: 1.49148 cumulative IPC: 1.60545 (Simulation time: 3 hr 22 min 0 sec) 
Heartbeat CPU 0 instructions: 1780000000 cycles: 996995128 heartbeat IPC: 1.80106 cumulative IPC: 1.6067 (Simulation time: 3 hr 22 min 59 sec) 
Heartbeat CPU 1 instructions: 560000000 cycles: 1000027990 heartbeat IPC: 0.395683 cumulative IPC: 0.414324 (Simulation time: 3 hr 23 min 28 sec) 
Heartbeat CPU 3 instructions: 1160000000 cycles: 1002346478 heartbeat IPC: 0.85493 cumulative IPC: 0.939147 (Simulation time: 3 hr 23 min 55 sec) 
Heartbeat CPU 0 instructions: 1790000002 cycles: 1003688810 heartbeat IPC: 1.49395 cumulative IPC: 1.60583 (Simulation time: 3 hr 24 min 8 sec) 
Heartbeat CPU 2 instructions: 630000002 cycles: 1005881526 heartbeat IPC: 0.436773 cumulative IPC: 0.432849 (Simulation time: 3 hr 24 min 31 sec) 
Heartbeat CPU 0 instructions: 1800000000 cycles: 1009331361 heartbeat IPC: 1.77225 cumulative IPC: 1.6069 (Simulation time: 3 hr 25 min 10 sec) 
Heartbeat CPU 0 instructions: 1810000000 cycles: 1014834185 heartbeat IPC: 1.81725 cumulative IPC: 1.60821 (Simulation time: 3 hr 26 min 6 sec) 
Heartbeat CPU 3 instructions: 1170000000 cycles: 1015124129 heartbeat IPC: 0.782616 cumulative IPC: 0.936884 (Simulation time: 3 hr 26 min 9 sec) 
Heartbeat CPU 0 instructions: 1820000000 cycles: 1022179594 heartbeat IPC: 1.36139 cumulative IPC: 1.60618 (Simulation time: 3 hr 27 min 22 sec) 
Heartbeat CPU 3 instructions: 1180000000 cycles: 1024894619 heartbeat IPC: 1.02349 cumulative IPC: 0.937831 (Simulation time: 3 hr 27 min 48 sec) 
Heartbeat CPU 1 instructions: 570000000 cycles: 1024980954 heartbeat IPC: 0.400754 cumulative IPC: 0.413945 (Simulation time: 3 hr 27 min 49 sec) 
Heartbeat CPU 0 instructions: 1830000001 cycles: 1027963133 heartbeat IPC: 1.72905 cumulative IPC: 1.60697 (Simulation time: 3 hr 28 min 23 sec) 
Heartbeat CPU 2 instructions: 640000000 cycles: 1028844657 heartbeat IPC: 0.435481 cumulative IPC: 0.432916 (Simulation time: 3 hr 28 min 34 sec) 
Heartbeat CPU 0 instructions: 1840000000 cycles: 1033322874 heartbeat IPC: 1.86576 cumulative IPC: 1.60851 (Simulation time: 3 hr 29 min 26 sec) 
Heartbeat CPU 3 instructions: 1190000002 cycles: 1035640833 heartbeat IPC: 0.93056 cumulative IPC: 0.937745 (Simulation time: 3 hr 29 min 48 sec) 
Heartbeat CPU 0 instructions: 1850000003 cycles: 1039492251 heartbeat IPC: 1.62091 cumulative IPC: 1.60859 (Simulation time: 3 hr 30 min 29 sec) 
Heartbeat CPU 0 instructions: 1860000000 cycles: 1045470043 heartbeat IPC: 1.67286 cumulative IPC: 1.60901 (Simulation time: 3 hr 31 min 35 sec) 
Heartbeat CPU 3 instructions: 1200000000 cycles: 1046315755 heartbeat IPC: 0.936775 cumulative IPC: 0.937733 (Simulation time: 3 hr 31 min 42 sec) 
Heartbeat CPU 1 instructions: 580000000 cycles: 1049304362 heartbeat IPC: 0.411127 cumulative IPC: 0.413871 (Simulation time: 3 hr 32 min 13 sec) 
Heartbeat CPU 2 instructions: 650000000 cycles: 1051358946 heartbeat IPC: 0.444162 cumulative IPC: 0.433191 (Simulation time: 3 hr 32 min 36 sec) 
Heartbeat CPU 0 instructions: 1870000003 cycles: 1051364446 heartbeat IPC: 1.69653 cumulative IPC: 1.60957 (Simulation time: 3 hr 32 min 36 sec) 
Heartbeat CPU 0 instructions: 1880000000 cycles: 1059120026 heartbeat IPC: 1.28939 cumulative IPC: 1.6069 (Simulation time: 3 hr 33 min 56 sec) 
Heartbeat CPU 3 instructions: 1210000002 cycles: 1059523703 heartbeat IPC: 0.75712 cumulative IPC: 0.935164 (Simulation time: 3 hr 34 min 0 sec) 
Heartbeat CPU 0 instructions: 1890000002 cycles: 1065930571 heartbeat IPC: 1.46831 cumulative IPC: 1.60589 (Simulation time: 3 hr 35 min 11 sec) 
Heartbeat CPU 0 instructions: 1900000000 cycles: 1072029444 heartbeat IPC: 1.63965 cumulative IPC: 1.60611 (Simulation time: 3 hr 36 min 14 sec) 
Heartbeat CPU 1 instructions: 590000001 cycles: 1073194761 heartbeat IPC: 0.418578 cumulative IPC: 0.41399 (Simulation time: 3 hr 36 min 24 sec) 
Heartbeat CPU 3 instructions: 1220000000 cycles: 1073300408 heartbeat IPC: 0.725863 cumulative IPC: 0.932103 (Simulation time: 3 hr 36 min 25 sec) 
Heartbeat CPU 2 instructions: 660000000 cycles: 1073831999 heartbeat IPC: 0.444977 cumulative IPC: 0.433472 (Simulation time: 3 hr 36 min 31 sec) 
Heartbeat CPU 0 instructions: 1910000002 cycles: 1077141849 heartbeat IPC: 1.95603 cumulative IPC: 1.608 (Simulation time: 3 hr 37 min 10 sec) 
Heartbeat CPU 0 instructions: 1920000000 cycles: 1083165007 heartbeat IPC: 1.66026 cumulative IPC: 1.60833 (Simulation time: 3 hr 38 min 15 sec) 
Heartbeat CPU 3 instructions: 1230000000 cycles: 1086166277 heartbeat IPC: 0.77725 cumulative IPC: 0.930017 (Simulation time: 3 hr 38 min 43 sec) 
Heartbeat CPU 0 instructions: 1930000002 cycles: 1089058828 heartbeat IPC: 1.69669 cumulative IPC: 1.60887 (Simulation time: 3 hr 39 min 16 sec) 
Heartbeat CPU 0 instructions: 1940000000 cycles: 1094727005 heartbeat IPC: 1.76424 cumulative IPC: 1.60979 (Simulation time: 3 hr 40 min 16 sec) 
Heartbeat CPU 2 instructions: 670000003 cycles: 1096240413 heartbeat IPC: 0.446261 cumulative IPC: 0.433769 (Simulation time: 3 hr 40 min 30 sec) 
Heartbeat CPU 1 instructions: 600000000 cycles: 1096937986 heartbeat IPC: 0.421173 cumulative IPC: 0.414167 (Simulation time: 3 hr 40 min 38 sec) 
Heartbeat CPU 3 instructions: 1240000000 cycles: 1098664821 heartbeat IPC: 0.800093 cumulative IPC: 0.928339 (Simulation time: 3 hr 40 min 54 sec) 
Heartbeat CPU 0 instructions: 1950000001 cycles: 1102668466 heartbeat IPC: 1.25921 cumulative IPC: 1.60692 (Simulation time: 3 hr 41 min 37 sec) 
Heartbeat CPU 3 instructions: 1250000002 cycles: 1109641032 heartbeat IPC: 0.911061 cumulative IPC: 0.928145 (Simulation time: 3 hr 42 min 44 sec) 
Heartbeat CPU 0 instructions: 1960000000 cycles: 1109731229 heartbeat IPC: 1.41588 cumulative IPC: 1.60554 (Simulation time: 3 hr 42 min 45 sec) 
Heartbeat CPU 0 instructions: 1970000003 cycles: 1116365966 heartbeat IPC: 1.50722 cumulative IPC: 1.60488 (Simulation time: 3 hr 44 min 2 sec) 
Heartbeat CPU 1 instructions: 610000001 cycles: 1120716700 heartbeat IPC: 0.420544 cumulative IPC: 0.41432 (Simulation time: 3 hr 44 min 43 sec) 
Heartbeat CPU 0 instructions: 1980000000 cycles: 1122486424 heartbeat IPC: 1.63386 cumulative IPC: 1.60506 (Simulation time: 3 hr 45 min 2 sec) 
Heartbeat CPU 3 instructions: 1260000000 cycles: 1122915366 heartbeat IPC: 0.753333 cumulative IPC: 0.925805 (Simulation time: 3 hr 45 min 6 sec) 
Heartbeat CPU 0 instructions: 1990000001 cycles: 1127664402 heartbeat IPC: 1.93126 cumulative IPC: 1.60675 (Simulation time: 3 hr 45 min 58 sec) 
Heartbeat CPU 2 instructions: 680000000 cycles: 1131103102 heartbeat IPC: 0.28684 cumulative IPC: 0.428647 (Simulation time: 3 hr 46 min 32 sec) 
*** Reached end of trace for Core: 0 Repeating trace: /scratch/user/djimenez/champsim-traces/speccpu2006/xz//454.calculix-460B.champsimtrace.xz
Heartbeat CPU 0 instructions: 2000000000 cycles: 1133402328 heartbeat IPC: 1.74279 cumulative IPC: 1.60753 (Simulation time: 3 hr 46 min 57 sec) 
Heartbeat CPU 3 instructions: 1270000003 cycles: 1135139305 heartbeat IPC: 0.818067 cumulative IPC: 0.924493 (Simulation time: 3 hr 47 min 12 sec) 
Heartbeat CPU 0 instructions: 2010000001 cycles: 1139672271 heartbeat IPC: 1.59491 cumulative IPC: 1.60745 (Simulation time: 3 hr 47 min 58 sec) 
Heartbeat CPU 1 instructions: 620000000 cycles: 1144602134 heartbeat IPC: 0.418665 cumulative IPC: 0.414422 (Simulation time: 3 hr 48 min 50 sec) 
Heartbeat CPU 3 instructions: 1280000000 cycles: 1145342431 heartbeat IPC: 0.980092 cumulative IPC: 0.925053 (Simulation time: 3 hr 48 min 59 sec) 
Heartbeat CPU 0 instructions: 2020000000 cycles: 1145607305 heartbeat IPC: 1.68491 cumulative IPC: 1.60791 (Simulation time: 3 hr 49 min 3 sec) 
Heartbeat CPU 0 instructions: 2030000000 cycles: 1151857689 heartbeat IPC: 1.5999 cumulative IPC: 1.60786 (Simulation time: 3 hr 50 min 13 sec) 
Heartbeat CPU 2 instructions: 690000002 cycles: 1154747159 heartbeat IPC: 0.422939 cumulative IPC: 0.428515 (Simulation time: 3 hr 50 min 41 sec) 
Heartbeat CPU 3 instructions: 1290000000 cycles: 1156503250 heartbeat IPC: 0.895992 cumulative IPC: 0.924736 (Simulation time: 3 hr 51 min 3 sec) 
Heartbeat CPU 0 instructions: 2040000000 cycles: 1157269263 heartbeat IPC: 1.84789 cumulative IPC: 1.60912 (Simulation time: 3 hr 51 min 11 sec) 
Heartbeat CPU 0 instructions: 2050000001 cycles: 1162467371 heartbeat IPC: 1.92378 cumulative IPC: 1.61071 (Simulation time: 3 hr 52 min 10 sec) 
Heartbeat CPU 0 instructions: 2060000000 cycles: 1167857268 heartbeat IPC: 1.85532 cumulative IPC: 1.61198 (Simulation time: 3 hr 53 min 6 sec) 
Heartbeat CPU 1 instructions: 630000001 cycles: 1168730955 heartbeat IPC: 0.414442 cumulative IPC: 0.414423 (Simulation time: 3 hr 53 min 14 sec) 
Heartbeat CPU 3 instructions: 1300000000 cycles: 1168993897 heartbeat IPC: 0.800599 cumulative IPC: 0.923242 (Simulation time: 3 hr 53 min 17 sec) 
Heartbeat CPU 2 instructions: 700000000 cycles: 1175727520 heartbeat IPC: 0.476636 cumulative IPC: 0.429481 (Simulation time: 3 hr 54 min 25 sec) 
Heartbeat CPU 0 instructions: 2070000001 cycles: 1176200626 heartbeat IPC: 1.19856 cumulative IPC: 1.60868 (Simulation time: 3 hr 54 min 30 sec) 
Heartbeat CPU 3 instructions: 1310000000 cycles: 1180053774 heartbeat IPC: 0.904169 cumulative IPC: 0.923041 (Simulation time: 3 hr 55 min 9 sec) 
Heartbeat CPU 0 instructions: 2080000000 cycles: 1184661630 heartbeat IPC: 1.18189 cumulative IPC: 1.60525 (Simulation time: 3 hr 55 min 59 sec) 
Heartbeat CPU 0 instructions: 2090000002 cycles: 1191095873 heartbeat IPC: 1.55418 cumulative IPC: 1.60494 (Simulation time: 3 hr 57 min 1 sec) 
Heartbeat CPU 3 instructions: 1320000000 cycles: 1192447838 heartbeat IPC: 0.806838 cumulative IPC: 0.921684 (Simulation time: 3 hr 57 min 15 sec) 
Heartbeat CPU 1 instructions: 640000000 cycles: 1193438389 heartbeat IPC: 0.404736 cumulative IPC: 0.414198 (Simulation time: 3 hr 57 min 28 sec) 
Heartbeat CPU 0 instructions: 2100000000 cycles: 1196880363 heartbeat IPC: 1.72876 cumulative IPC: 1.60562 (Simulation time: 3 hr 58 min 4 sec) 
Heartbeat CPU 2 instructions: 710000001 cycles: 1197777399 heartbeat IPC: 0.453517 cumulative IPC: 0.429978 (Simulation time: 3 hr 58 min 16 sec) 
Heartbeat CPU 3 instructions: 1330000001 cycles: 1203441909 heartbeat IPC: 0.909581 cumulative IPC: 0.92156 (Simulation time: 3 hr 59 min 11 sec) 
Heartbeat CPU 0 instructions: 2110000002 cycles: 1203533034 heartbeat IPC: 1.50316 cumulative IPC: 1.60498 (Simulation time: 3 hr 59 min 12 sec) 
Heartbeat CPU 0 instructions: 2120000000 cycles: 1209858838 heartbeat IPC: 1.58083 cumulative IPC: 1.60484 (Simulation time: 4 hr 0 min 19 sec) 
Heartbeat CPU 3 instructions: 1340000000 cycles: 1215487122 heartbeat IPC: 0.830205 cumulative IPC: 0.920545 (Simulation time: 4 hr 1 min 14 sec) 
Heartbeat CPU 0 instructions: 2130000001 cycles: 1216027566 heartbeat IPC: 1.62108 cumulative IPC: 1.60493 (Simulation time: 4 hr 1 min 20 sec) 
Finished CPU 3 instructions: 1000000000 cycles: 1085745538 cumulative IPC: 0.921026 (Simulation time: 4 hr 1 min 30 sec) 
Heartbeat CPU 1 instructions: 650000000 cycles: 1218564118 heartbeat IPC: 0.397998 cumulative IPC: 0.413823 (Simulation time: 4 hr 1 min 48 sec) 
Heartbeat CPU 2 instructions: 720000000 cycles: 1221152365 heartbeat IPC: 0.427808 cumulative IPC: 0.429932 (Simulation time: 4 hr 2 min 16 sec) 
Heartbeat CPU 0 instructions: 2140000000 cycles: 1222118228 heartbeat IPC: 1.64186 cumulative IPC: 1.60514 (Simulation time: 4 hr 2 min 25 sec) 
Heartbeat CPU 3 instructions: 1350000002 cycles: 1225818765 heartbeat IPC: 0.9679 cumulative IPC: 0.920992 (Simulation time: 4 hr 3 min 3 sec) 
Heartbeat CPU 0 instructions: 2150000003 cycles: 1228055178 heartbeat IPC: 1.68437 cumulative IPC: 1.60557 (Simulation time: 4 hr 3 min 24 sec) 
Heartbeat CPU 0 instructions: 2160000000 cycles: 1234241035 heartbeat IPC: 1.61659 cumulative IPC: 1.60563 (Simulation time: 4 hr 4 min 27 sec) 
Heartbeat CPU 3 instructions: 1360000000 cycles: 1239166652 heartbeat IPC: 0.749182 cumulative IPC: 0.918923 (Simulation time: 4 hr 5 min 16 sec) 
Heartbeat CPU 0 instructions: 2170000000 cycles: 1240410161 heartbeat IPC: 1.62098 cumulative IPC: 1.60571 (Simulation time: 4 hr 5 min 29 sec) 
Heartbeat CPU 1 instructions: 660000000 cycles: 1244055277 heartbeat IPC: 0.392293 cumulative IPC: 0.41333 (Simulation time: 4 hr 6 min 6 sec) 
Heartbeat CPU 2 instructions: 730000000 cycles: 1244126409 heartbeat IPC: 0.435274 cumulative IPC: 0.430042 (Simulation time: 4 hr 6 min 6 sec) 
Heartbeat CPU 0 instructions: 2180000000 cycles: 1246457118 heartbeat IPC: 1.65372 cumulative IPC: 1.60597 (Simulation time: 4 hr 6 min 32 sec) 
Heartbeat CPU 3 instructions: 1370000003 cycles: 1250204834 heartbeat IPC: 0.905947 cumulative IPC: 0.918795 (Simulation time: 4 hr 7 min 10 sec) 
Heartbeat CPU 0 instructions: 2190000002 cycles: 1252520812 heartbeat IPC: 1.64916 cumulative IPC: 1.60621 (Simulation time: 4 hr 7 min 33 sec) 
Heartbeat CPU 0 instructions: 2200000000 cycles: 1258738270 heartbeat IPC: 1.60837 cumulative IPC: 1.60622 (Simulation time: 4 hr 8 min 38 sec) 
Heartbeat CPU 3 instructions: 1380000000 cycles: 1262475829 heartbeat IPC: 0.81493 cumulative IPC: 0.917668 (Simulation time: 4 hr 9 min 13 sec) 
Heartbeat CPU 0 instructions: 2210000001 cycles: 1264845777 heartbeat IPC: 1.63733 cumulative IPC: 1.60639 (Simulation time: 4 hr 9 min 40 sec) 
Heartbeat CPU 2 instructions: 740000000 cycles: 1266669436 heartbeat IPC: 0.443596 cumulative IPC: 0.430311 (Simulation time: 4 hr 9 min 59 sec) 
Heartbeat CPU 1 instructions: 670000000 cycles: 1269650802 heartbeat IPC: 0.390693 cumulative IPC: 0.412821 (Simulation time: 4 hr 10 min 31 sec) 
Heartbeat CPU 0 instructions: 2220000000 cycles: 1270996621 heartbeat IPC: 1.62579 cumulative IPC: 1.60649 (Simulation time: 4 hr 10 min 42 sec) 
Heartbeat CPU 3 instructions: 1390000003 cycles: 1273014772 heartbeat IPC: 0.948862 cumulative IPC: 0.917956 (Simulation time: 4 hr 11 min 4 sec) 
Heartbeat CPU 0 instructions: 2230000003 cycles: 1277007660 heartbeat IPC: 1.66361 cumulative IPC: 1.60679 (Simulation time: 4 hr 11 min 44 sec) 
Heartbeat CPU 0 instructions: 2240000000 cycles: 1283317820 heartbeat IPC: 1.58475 cumulative IPC: 1.60667 (Simulation time: 4 hr 12 min 51 sec) 
Heartbeat CPU 3 instructions: 1400000000 cycles: 1285169576 heartbeat IPC: 0.82272 cumulative IPC: 0.916953 (Simulation time: 4 hr 13 min 9 sec) 
Heartbeat CPU 0 instructions: 2250000000 cycles: 1288398652 heartbeat IPC: 1.96818 cumulative IPC: 1.60826 (Simulation time: 4 hr 13 min 45 sec) 
Heartbeat CPU 2 instructions: 750000002 cycles: 1289193806 heartbeat IPC: 0.443964 cumulative IPC: 0.430577 (Simulation time: 4 hr 13 min 54 sec) 
Heartbeat CPU 0 instructions: 2260000000 cycles: 1293643500 heartbeat IPC: 1.90663 cumulative IPC: 1.6096 (Simulation time: 4 hr 14 min 46 sec) 
Heartbeat CPU 1 instructions: 680000000 cycles: 1294859038 heartbeat IPC: 0.396696 cumulative IPC: 0.412472 (Simulation time: 4 hr 14 min 58 sec) 
Heartbeat CPU 3 instructions: 1410000002 cycles: 1296051307 heartbeat IPC: 0.918972 cumulative IPC: 0.916972 (Simulation time: 4 hr 15 min 15 sec) 
Heartbeat CPU 0 instructions: 2270000003 cycles: 1299488716 heartbeat IPC: 1.7108 cumulative IPC: 1.61011 (Simulation time: 4 hr 15 min 50 sec) 
Heartbeat CPU 3 instructions: 1420000000 cycles: 1308064870 heartbeat IPC: 0.832392 cumulative IPC: 0.916108 (Simulation time: 4 hr 17 min 22 sec) 
Heartbeat CPU 0 instructions: 2280000000 cycles: 1308332071 heartbeat IPC: 1.13079 cumulative IPC: 1.60651 (Simulation time: 4 hr 17 min 25 sec) 
Heartbeat CPU 2 instructions: 760000000 cycles: 1311915758 heartbeat IPC: 0.440103 cumulative IPC: 0.43076 (Simulation time: 4 hr 18 min 5 sec) 
Heartbeat CPU 0 instructions: 2290000001 cycles: 1316302821 heartbeat IPC: 1.25459 cumulative IPC: 1.60414 (Simulation time: 4 hr 18 min 52 sec) 
Heartbeat CPU 3 instructions: 1430000003 cycles: 1319198261 heartbeat IPC: 0.898199 cumulative IPC: 0.91594 (Simulation time: 4 hr 19 min 25 sec) 
Heartbeat CPU 1 instructions: 690000002 cycles: 1320204102 heartbeat IPC: 0.394554 cumulative IPC: 0.41209 (Simulation time: 4 hr 19 min 36 sec) 
Heartbeat CPU 0 instructions: 2300000000 cycles: 1322123659 heartbeat IPC: 1.71797 cumulative IPC: 1.6047 (Simulation time: 4 hr 19 min 55 sec) 
Heartbeat CPU 0 instructions: 2310000002 cycles: 1328430518 heartbeat IPC: 1.58558 cumulative IPC: 1.6046 (Simulation time: 4 hr 21 min 11 sec) 
Heartbeat CPU 3 instructions: 1440000000 cycles: 1330337652 heartbeat IPC: 0.897715 cumulative IPC: 0.915771 (Simulation time: 4 hr 21 min 38 sec) 
Heartbeat CPU 0 instructions: 2320000000 cycles: 1334221075 heartbeat IPC: 1.72695 cumulative IPC: 1.60519 (Simulation time: 4 hr 22 min 20 sec) 
Heartbeat CPU 2 instructions: 770000000 cycles: 1335547210 heartbeat IPC: 0.423165 cumulative IPC: 0.430611 (Simulation time: 4 hr 22 min 32 sec) 
Heartbeat CPU 0 instructions: 2330000002 cycles: 1340584435 heartbeat IPC: 1.5715 cumulative IPC: 1.60501 (Simulation time: 4 hr 23 min 21 sec) 
Heartbeat CPU 3 instructions: 1450000000 cycles: 1341929306 heartbeat IPC: 0.86269 cumulative IPC: 0.915263 (Simulation time: 4 hr 23 min 36 sec) 
Heartbeat CPU 1 instructions: 700000000 cycles: 1345264078 heartbeat IPC: 0.399043 cumulative IPC: 0.411821 (Simulation time: 4 hr 24 min 6 sec) 
Heartbeat CPU 0 instructions: 2340000000 cycles: 1347069391 heartbeat IPC: 1.54203 cumulative IPC: 1.60467 (Simulation time: 4 hr 24 min 24 sec) 
Heartbeat CPU 0 instructions: 2350000001 cycles: 1353318303 heartbeat IPC: 1.60028 cumulative IPC: 1.60465 (Simulation time: 4 hr 25 min 29 sec) 
Heartbeat CPU 3 instructions: 1460000000 cycles: 1354755009 heartbeat IPC: 0.779684 cumulative IPC: 0.913842 (Simulation time: 4 hr 25 min 46 sec) 
Heartbeat CPU 2 instructions: 780000000 cycles: 1358974714 heartbeat IPC: 0.426849 cumulative IPC: 0.430539 (Simulation time: 4 hr 26 min 31 sec) 
Heartbeat CPU 0 instructions: 2360000000 cycles: 1359256739 heartbeat IPC: 1.68394 cumulative IPC: 1.60503 (Simulation time: 4 hr 26 min 34 sec) 
Heartbeat CPU 0 instructions: 2370000000 cycles: 1365181071 heartbeat IPC: 1.68795 cumulative IPC: 1.60543 (Simulation time: 4 hr 27 min 34 sec) 
Heartbeat CPU 3 instructions: 1470000002 cycles: 1367794388 heartbeat IPC: 0.766908 cumulative IPC: 0.912293 (Simulation time: 4 hr 27 min 57 sec) 
Heartbeat CPU 1 instructions: 710000000 cycles: 1370266957 heartbeat IPC: 0.399954 cumulative IPC: 0.411581 (Simulation time: 4 hr 28 min 25 sec) 
Heartbeat CPU 0 instructions: 2380000000 cycles: 1371351664 heartbeat IPC: 1.62059 cumulative IPC: 1.60551 (Simulation time: 4 hr 28 min 35 sec) 
Heartbeat CPU 0 instructions: 2390000002 cycles: 1377524247 heartbeat IPC: 1.62007 cumulative IPC: 1.60558 (Simulation time: 4 hr 29 min 37 sec) 
Heartbeat CPU 3 instructions: 1480000000 cycles: 1378534979 heartbeat IPC: 0.931047 cumulative IPC: 0.912454 (Simulation time: 4 hr 29 min 49 sec) 
Heartbeat CPU 2 instructions: 790000003 cycles: 1382446830 heartbeat IPC: 0.426038 cumulative IPC: 0.430455 (Simulation time: 4 hr 30 min 32 sec) 
Heartbeat CPU 0 instructions: 2400000000 cycles: 1383333075 heartbeat IPC: 1.72152 cumulative IPC: 1.60612 (Simulation time: 4 hr 30 min 39 sec) 
Heartbeat CPU 3 instructions: 1490000001 cycles: 1389274892 heartbeat IPC: 0.931106 cumulative IPC: 0.912613 (Simulation time: 4 hr 31 min 40 sec) 
Heartbeat CPU 0 instructions: 2410000000 cycles: 1389395803 heartbeat IPC: 1.64942 cumulative IPC: 1.60633 (Simulation time: 4 hr 31 min 41 sec) 
Heartbeat CPU 1 instructions: 720000000 cycles: 1395322258 heartbeat IPC: 0.399117 cumulative IPC: 0.411334 (Simulation time: 4 hr 32 min 42 sec) 
[...]
Heartbeat CPU 0 instructions: 4130000001 cycles: 2461828109 heartbeat IPC: 1.64944 cumulative IPC: 1.60518 (Simulation time: 7 hr 23 min 26 sec) 
Heartbeat CPU 0 instructions: 4140000000 cycles: 2467810142 heartbeat IPC: 1.67167 cumulative IPC: 1.60535 (Simulation time: 7 hr 24 min 23 sec) 
Heartbeat CPU 3 instructions: 2520000000 cycles: 2469710614 heartbeat IPC: 1.1572 cumulative IPC: 0.93142 (Simulation time: 7 hr 24 min 41 sec) 
Heartbeat CPU 0 instructions: 4150000003 cycles: 2473624634 heartbeat IPC: 1.71984 cumulative IPC: 1.60563 (Simulation time: 7 hr 25 min 18 sec) 
Heartbeat CPU 2 instructions: 1240000000 cycles: 2478409002 heartbeat IPC: 0.292877 cumulative IPC: 0.421183 (Simulation time: 7 hr 26 min 4 sec) 
Heartbeat CPU 3 instructions: 2530000003 cycles: 2478695235 heartbeat IPC: 1.11301 cumulative IPC: 0.932115 (Simulation time: 7 hr 26 min 7 sec) 
Heartbeat CPU 0 instructions: 4160000000 cycles: 2479567387 heartbeat IPC: 1.68272 cumulative IPC: 1.60583 (Simulation time: 7 hr 26 min 16 sec) 
Heartbeat CPU 1 instructions: 1160000000 cycles: 2480772152 heartbeat IPC: 0.403585 cumulative IPC: 0.408575 (Simulation time: 7 hr 26 min 28 sec) 
Heartbeat CPU 0 instructions: 4170000000 cycles: 2485762960 heartbeat IPC: 1.61406 cumulative IPC: 1.60585 (Simulation time: 7 hr 27 min 17 sec) 
Heartbeat CPU 3 instructions: 2540000000 cycles: 2488516536 heartbeat IPC: 1.01819 cumulative IPC: 0.932473 (Simulation time: 7 hr 27 min 45 sec) 
Heartbeat CPU 0 instructions: 4180000000 cycles: 2491826944 heartbeat IPC: 1.64908 cumulative IPC: 1.60596 (Simulation time: 7 hr 28 min 15 sec) 
Heartbeat CPU 2 instructions: 1250000000 cycles: 2497876086 heartbeat IPC: 0.513688 cumulative IPC: 0.421944 (Simulation time: 7 hr 29 min 13 sec) 
Heartbeat CPU 0 instructions: 4190000002 cycles: 2497965948 heartbeat IPC: 1.62893 cumulative IPC: 1.60602 (Simulation time: 7 hr 29 min 13 sec) 
Heartbeat CPU 3 instructions: 2550000000 cycles: 2501088398 heartbeat IPC: 0.795427 cumulative IPC: 0.931746 (Simulation time: 7 hr 29 min 39 sec) 
Finished CPU 2 instructions: 1000000003 cycles: 2370440063 cumulative IPC: 0.421863 (Simulation time: 7 hr 29 min 44 sec) 
Heartbeat CPU 0 instructions: 4200000000 cycles: 2503913764 heartbeat IPC: 1.68129 cumulative IPC: 1.60621 (Simulation time: 7 hr 30 min 6 sec) 
Heartbeat CPU 1 instructions: 1170000000 cycles: 2505517095 heartbeat IPC: 0.404123 cumulative IPC: 0.408529 (Simulation time: 7 hr 30 min 20 sec) 
Heartbeat CPU 0 instructions: 4210000001 cycles: 2510111637 heartbeat IPC: 1.61346 cumulative IPC: 1.60623 (Simulation time: 7 hr 31 min 0 sec) 
Heartbeat CPU 3 instructions: 2560000000 cycles: 2511641259 heartbeat IPC: 0.94761 cumulative IPC: 0.931817 (Simulation time: 7 hr 31 min 17 sec) 
Heartbeat CPU 0 instructions: 4220000000 cycles: 2516221524 heartbeat IPC: 1.63669 cumulative IPC: 1.60631 (Simulation time: 7 hr 31 min 59 sec) 
Heartbeat CPU 2 instructions: 1260000000 cycles: 2521510703 heartbeat IPC: 0.423108 cumulative IPC: 0.421956 (Simulation time: 7 hr 32 min 46 sec) 
Heartbeat CPU 0 instructions: 4230000003 cycles: 2522152403 heartbeat IPC: 1.68609 cumulative IPC: 1.6065 (Simulation time: 7 hr 32 min 52 sec) 
Heartbeat CPU 3 instructions: 2570000003 cycles: 2523667888 heartbeat IPC: 0.831488 cumulative IPC: 0.931312 (Simulation time: 7 hr 33 min 5 sec) 
Heartbeat CPU 0 instructions: 4240000000 cycles: 2528283371 heartbeat IPC: 1.63106 cumulative IPC: 1.60657 (Simulation time: 7 hr 33 min 47 sec) 
Heartbeat CPU 1 instructions: 1180000000 cycles: 2529957003 heartbeat IPC: 0.409167 cumulative IPC: 0.408535 (Simulation time: 7 hr 34 min 4 sec) 
Heartbeat CPU 0 instructions: 4250000000 cycles: 2533403555 heartbeat IPC: 1.95305 cumulative IPC: 1.6073 (Simulation time: 7 hr 34 min 38 sec) 
Heartbeat CPU 3 instructions: 2580000000 cycles: 2533848868 heartbeat IPC: 0.982223 cumulative IPC: 0.931528 (Simulation time: 7 hr 34 min 43 sec) 
Heartbeat CPU 0 instructions: 4260000000 cycles: 2538639594 heartbeat IPC: 1.90984 cumulative IPC: 1.60796 (Simulation time: 7 hr 35 min 29 sec) 
Heartbeat CPU 2 instructions: 1270000002 cycles: 2543085024 heartbeat IPC: 0.463514 cumulative IPC: 0.422328 (Simulation time: 7 hr 36 min 12 sec) 
Heartbeat CPU 0 instructions: 4270000003 cycles: 2544322906 heartbeat IPC: 1.75954 cumulative IPC: 1.60832 (Simulation time: 7 hr 36 min 22 sec) 
Heartbeat CPU 3 instructions: 2590000003 cycles: 2545301408 heartbeat IPC: 0.873169 cumulative IPC: 0.931251 (Simulation time: 7 hr 36 min 30 sec) 
Heartbeat CPU 0 instructions: 4280000000 cycles: 2553150455 heartbeat IPC: 1.13282 cumulative IPC: 1.60659 (Simulation time: 7 hr 37 min 42 sec) 
Heartbeat CPU 1 instructions: 1190000000 cycles: 2553232877 heartbeat IPC: 0.429629 cumulative IPC: 0.408738 (Simulation time: 7 hr 37 min 43 sec) 
Heartbeat CPU 3 instructions: 2600000000 cycles: 2556483109 heartbeat IPC: 0.894318 cumulative IPC: 0.931081 (Simulation time: 7 hr 38 min 13 sec) 
Heartbeat CPU 0 instructions: 4290000001 cycles: 2561106053 heartbeat IPC: 1.25698 cumulative IPC: 1.60544 (Simulation time: 7 hr 38 min 53 sec) 
Heartbeat CPU 2 instructions: 1280000000 cycles: 2566668446 heartbeat IPC: 0.424027 cumulative IPC: 0.422344 (Simulation time: 7 hr 39 min 45 sec) 
Heartbeat CPU 0 instructions: 4300000000 cycles: 2566877655 heartbeat IPC: 1.73262 cumulative IPC: 1.60574 (Simulation time: 7 hr 39 min 47 sec) 
Heartbeat CPU 3 instructions: 2610000003 cycles: 2568411157 heartbeat IPC: 0.83836 cumulative IPC: 0.930627 (Simulation time: 7 hr 40 min 0 sec) 
Heartbeat CPU 0 instructions: 4310000002 cycles: 2573134579 heartbeat IPC: 1.59823 cumulative IPC: 1.60572 (Simulation time: 7 hr 40 min 44 sec) 
Heartbeat CPU 1 instructions: 1200000000 cycles: 2575792613 heartbeat IPC: 0.443268 cumulative IPC: 0.409057 (Simulation time: 7 hr 41 min 11 sec) 
Finished CPU 1 instructions: 1000000002 cycles: 2444649196 cumulative IPC: 0.409057 (Simulation time: 7 hr 41 min 11 sec) 

CPU 0 Branch Prediction Accuracy: 98.9385% MPKI: 0.564674

CPU 1 Branch Prediction Accuracy: 96.3086% MPKI: 3.77217

CPU 2 Branch Prediction Accuracy: 95.1114% MPKI: 8.24174

CPU 3 Branch Prediction Accuracy: 97.8631% MPKI: 1.79819

ChampSim completed all CPUs

Total Simulation Statistics (not including warmup)

CPU 0 cumulative IPC: 1.60585 instructions: 3925739651 cycles: 2444649196
L1D TOTAL     ACCESS:  704867027  HIT:  655300631  MISS:   49566396
L1D LOAD      ACCESS:  583839126  HIT:  535258213  MISS:   48580913
L1D RFO       ACCESS:  121027901  HIT:  120042418  MISS:     985483
L1D PREFETCH  ACCESS:          0  HIT:          0  MISS:          0
L1D WRITEBACK ACCESS:          0  HIT:          0  MISS:          0
L1I TOTAL     ACCESS:  823173730  HIT:  823150813  MISS:      22917
L1I LOAD      ACCESS:  823173730  HIT:  823150813  MISS:      22917
L1I RFO       ACCESS:          0  HIT:          0  MISS:          0
L1I PREFETCH  ACCESS:          0  HIT:          0  MISS:          0
L1I WRITEBACK ACCESS:          0  HIT:          0  MISS:          0
L2C TOTAL     ACCESS:  121192530  HIT:   88340433  MISS:   32852097
L2C LOAD      ACCESS:   48603750  HIT:   20402609  MISS:   28201141
L2C RFO       ACCESS:     985477  HIT:     140864  MISS:     844613
L2C PREFETCH  ACCESS:   59406924  HIT:   55707628  MISS:    3699296
L2C WRITEBACK ACCESS:   12196379  HIT:   12089332  MISS:     107047
LLC TOTAL     ACCESS:  102820078  HIT:   97888661  MISS:    4931417
LLC LOAD      ACCESS:   26666936  HIT:   25551720  MISS:    1115216
LLC RFO       ACCESS:     844607  HIT:     405428  MISS:     439179
LLC PREFETCH  ACCESS:   67521864  HIT:   64227559  MISS:    3294305
LLC WRITEBACK ACCESS:    7786671  HIT:    7703954  MISS:      82717

CPU 1 cumulative IPC: 0.409057 instructions: 1000000002 cycles: 2444649196
L1D TOTAL     ACCESS:  381812766  HIT:  366555609  MISS:   15257157
L1D LOAD      ACCESS:  235115103  HIT:  221942399  MISS:   13172704
L1D RFO       ACCESS:  146697663  HIT:  144613210  MISS:    2084453
L1D PREFETCH  ACCESS:          0  HIT:          0  MISS:          0
L1D WRITEBACK ACCESS:          0  HIT:          0  MISS:          0
L1I TOTAL     ACCESS:  306701925  HIT:  303274334  MISS:    3427591
L1I LOAD      ACCESS:  306701925  HIT:  303274334  MISS:    3427591
L1I RFO       ACCESS:          0  HIT:          0  MISS:          0
L1I PREFETCH  ACCESS:          0  HIT:          0  MISS:          0
L1I WRITEBACK ACCESS:          0  HIT:          0  MISS:          0
L2C TOTAL     ACCESS:   33868297  HIT:   33831631  MISS:      36666
L2C LOAD      ACCESS:   16599831  HIT:   16571171  MISS:      28660
L2C RFO       ACCESS:    2083482  HIT:    2081246  MISS:       2236
L2C PREFETCH  ACCESS:   12497444  HIT:   12491723  MISS:       5721
L2C WRITEBACK ACCESS:    2687540  HIT:    2687491  MISS:         49
LLC TOTAL     ACCESS:    1990073  HIT:    1763709  MISS:     226364
LLC LOAD      ACCESS:      28476  HIT:       7799  MISS:      20677
LLC RFO       ACCESS:       2236  HIT:        751  MISS:       1485
LLC PREFETCH  ACCESS:    1955375  HIT:    1754664  MISS:     200711
LLC WRITEBACK ACCESS:       3986  HIT:        495  MISS:       3491

CPU 2 cumulative IPC: 0.422409 instructions: 1032642240 cycles: 2444649197
L1D TOTAL     ACCESS:  227132481  HIT:  172241913  MISS:   54890568
L1D LOAD      ACCESS:  172533838  HIT:  125418534  MISS:   47115304
L1D RFO       ACCESS:   54598643  HIT:   46823379  MISS:    7775264
L1D PREFETCH  ACCESS:          0  HIT:          0  MISS:          0
L1D WRITEBACK ACCESS:          0  HIT:          0  MISS:          0
L1I TOTAL     ACCESS:  238441276  HIT:  238434760  MISS:       6516
L1I LOAD      ACCESS:  238441276  HIT:  238434760  MISS:       6516
L1I RFO       ACCESS:          0  HIT:          0  MISS:          0
L1I PREFETCH  ACCESS:          0  HIT:          0  MISS:          0
L1I WRITEBACK ACCESS:          0  HIT:          0  MISS:          0
L2C TOTAL     ACCESS:   89304890  HIT:   43724884  MISS:   45580006
L2C LOAD      ACCESS:   47117230  HIT:   13689217  MISS:   33428013
L2C RFO       ACCESS:    7774786  HIT:     913711  MISS:    6861075
L2C PREFETCH  ACCESS:   11361730  HIT:    6072482  MISS:    5289248
L2C WRITEBACK ACCESS:   23051144  HIT:   23049474  MISS:       1670
LLC TOTAL     ACCESS:  128175424  HIT:   98572161  MISS:   29603263
LLC LOAD      ACCESS:   32699009  HIT:   22711557  MISS:    9987452
LLC RFO       ACCESS:    6860957  HIT:    2983240  MISS:    3877717
LLC PREFETCH  ACCESS:   71357902  HIT:   55619967  MISS:   15737935
LLC WRITEBACK ACCESS:   17257556  HIT:   17257397  MISS:        159

CPU 3 cumulative IPC: 0.930565 instructions: 2274903810 cycles: 2444649197
L1D TOTAL     ACCESS:  398644834  HIT:  361153775  MISS:   37491059
L1D LOAD      ACCESS:  354985375  HIT:  320213870  MISS:   34771505
L1D RFO       ACCESS:   43659459  HIT:   40939905  MISS:    2719554
L1D PREFETCH  ACCESS:          0  HIT:          0  MISS:          0
L1D WRITEBACK ACCESS:          0  HIT:          0  MISS:          0
L1I TOTAL     ACCESS:  614570517  HIT:  614565323  MISS:       5194
L1I LOAD      ACCESS:  614570517  HIT:  614565323  MISS:       5194
L1I RFO       ACCESS:          0  HIT:          0  MISS:          0
L1I PREFETCH  ACCESS:          0  HIT:          0  MISS:          0
L1I WRITEBACK ACCESS:          0  HIT:          0  MISS:          0
L2C TOTAL     ACCESS:   60982883  HIT:   30293071  MISS:   30689812
L2C LOAD      ACCESS:   34776667  HIT:   16454198  MISS:   18322469
L2C RFO       ACCESS:    2719445  HIT:     341576  MISS:    2377869
L2C PREFETCH  ACCESS:   19660088  HIT:    9678080  MISS:    9982008
L2C WRITEBACK ACCESS:    3826683  HIT:    3819217  MISS:       7466
LLC TOTAL     ACCESS:  132290633  HIT:  112545745  MISS:   19744888
LLC LOAD      ACCESS:   17667338  HIT:   13816207  MISS:    3851131
LLC RFO       ACCESS:    2377868  HIT:    1286496  MISS:    1091372
LLC PREFETCH  ACCESS:  108964140  HIT:   94162927  MISS:   14801213
LLC WRITEBACK ACCESS:    3281287  HIT:    3280115  MISS:       1172

Region of Interest Statistics

CPU 0 cumulative IPC: 1.62992 instructions: 1000000002 cycles: 613526039
L1D TOTAL     ACCESS:  174274779  HIT:  161791651  MISS:   12483128
L1D LOAD      ACCESS:  150236009  HIT:  137900499  MISS:   12335510
L1D RFO       ACCESS:   24038770  HIT:   23891152  MISS:     147618
L1D PREFETCH  ACCESS:          0  HIT:          0  MISS:          0
L1D WRITEBACK ACCESS:          0  HIT:          0  MISS:          0
L1D PREFETCH  REQUESTED:          0  ISSUED:          0  USEFUL:          0  USELESS:          0
L1I TOTAL     ACCESS:  204983796  HIT:  204982663  MISS:       1133
L1I LOAD      ACCESS:  204983796  HIT:  204982663  MISS:       1133
L1I RFO       ACCESS:          0  HIT:          0  MISS:          0
L1I PREFETCH  ACCESS:          0  HIT:          0  MISS:          0
L1I WRITEBACK ACCESS:          0  HIT:          0  MISS:          0
L1I PREFETCH  REQUESTED:          0  ISSUED:          0  USEFUL:          0  USELESS:          0
L2C TOTAL     ACCESS:   26114633  HIT:   16713198  MISS:    9401435
L2C LOAD      ACCESS:   12336640  HIT:    4074819  MISS:    8261821
L2C RFO       ACCESS:     147618  HIT:       9714  MISS:     137904
L2C PREFETCH  ACCESS:   11351324  HIT:   10375719  MISS:     975605
L2C WRITEBACK ACCESS:    2279051  HIT:    2252946  MISS:      26105
L2C PREFETCH  REQUESTED:  204640480  ISSUED:  204636321  USEFUL:    4490152  USELESS:      73020
LLC TOTAL     ACCESS:   28336645  HIT:   27022686  MISS:    1313959
LLC LOAD      ACCESS:    7854414  HIT:    7555555  MISS:     298859
LLC RFO       ACCESS:     137904  HIT:      84356  MISS:      53548
LLC PREFETCH  ACCESS:   18510076  HIT:   17558919  MISS:     951157
LLC WRITEBACK ACCESS:    1834251  HIT:    1823856  MISS:      10395
LLC PREFETCH  REQUESTED:          0  ISSUED:          0  USEFUL:   21955009  USELESS:   18927000
Major fault: 0 Minor fault: 6829

CPU 1 cumulative IPC: 0.409057 instructions: 1000000002 cycles: 2444649196
L1D TOTAL     ACCESS:  381812766  HIT:  366555609  MISS:   15257157
L1D LOAD      ACCESS:  235115103  HIT:  221942399  MISS:   13172704
L1D RFO       ACCESS:  146697663  HIT:  144613210  MISS:    2084453
L1D PREFETCH  ACCESS:          0  HIT:          0  MISS:          0
L1D WRITEBACK ACCESS:          0  HIT:          0  MISS:          0
L1D PREFETCH  REQUESTED:          0  ISSUED:          0  USEFUL:          0  USELESS:          0
L1I TOTAL     ACCESS:  306701925  HIT:  303274334  MISS:    3427591
L1I LOAD      ACCESS:  306701925  HIT:  303274334  MISS:    3427591
L1I RFO       ACCESS:          0  HIT:          0  MISS:          0
L1I PREFETCH  ACCESS:          0  HIT:          0  MISS:          0
L1I WRITEBACK ACCESS:          0  HIT:          0  MISS:          0
L1I PREFETCH  REQUESTED:          0  ISSUED:          0  USEFUL:          0  USELESS:          0
L2C TOTAL     ACCESS:   33868297  HIT:   33831631  MISS:      36666
L2C LOAD      ACCESS:   16599831  HIT:   16571171  MISS:      28660
L2C RFO       ACCESS:    2083482  HIT:    2081246  MISS:       2236
L2C PREFETCH  ACCESS:   12497444  HIT:   12491723  MISS:       5721
L2C WRITEBACK ACCESS:    2687540  HIT:    2687491  MISS:         49
L2C PREFETCH  REQUESTED:   19116652  ISSUED:   19113746  USEFUL:        913  USELESS:       4948
LLC TOTAL     ACCESS:    1990073  HIT:    1763709  MISS:     226364
LLC LOAD      ACCESS:      28476  HIT:       7799  MISS:      20677
LLC RFO       ACCESS:       2236  HIT:        751  MISS:       1485
LLC PREFETCH  ACCESS:    1955375  HIT:    1754664  MISS:     200711
LLC WRITEBACK ACCESS:       3986  HIT:        495  MISS:       3491
LLC PREFETCH  REQUESTED:          0  ISSUED:          0  USEFUL:   21955009  USELESS:   18927000
Major fault: 0 Minor fault: 355

CPU 2 cumulative IPC: 0.421863 instructions: 1000000003 cycles: 2370440063
L1D TOTAL     ACCESS:  220864580  HIT:  167603065  MISS:   53261515
L1D LOAD      ACCESS:  167601178  HIT:  121904560  MISS:   45696618
L1D RFO       ACCESS:   53263402  HIT:   45698505  MISS:    7564897
L1D PREFETCH  ACCESS:          0  HIT:          0  MISS:          0
L1D WRITEBACK ACCESS:          0  HIT:          0  MISS:          0
L1D PREFETCH  REQUESTED:          0  ISSUED:          0  USEFUL:          0  USELESS:          0
L1I TOTAL     ACCESS:  230833025  HIT:  230826718  MISS:       6307
L1I LOAD      ACCESS:  230833025  HIT:  230826718  MISS:       6307
L1I RFO       ACCESS:          0  HIT:          0  MISS:          0
L1I PREFETCH  ACCESS:          0  HIT:          0  MISS:          0
L1I WRITEBACK ACCESS:          0  HIT:          0  MISS:          0
L1I PREFETCH  REQUESTED:          0  ISSUED:          0  USEFUL:          0  USELESS:          0
L2C TOTAL     ACCESS:   86675157  HIT:   42448670  MISS:   44226487
L2C LOAD      ACCESS:   45698396  HIT:   13258201  MISS:   32440195
L2C RFO       ACCESS:    7564423  HIT:     903788  MISS:    6660635
L2C PREFETCH  ACCESS:   11026344  HIT:    5902319  MISS:    5124025
L2C WRITEBACK ACCESS:   22385994  HIT:   22384362  MISS:       1632
L2C PREFETCH  REQUESTED:  120675147  ISSUED:  120633135  USEFUL:    6232950  USELESS:     530349
LLC TOTAL     ACCESS:  124272648  HIT:   95591142  MISS:   28681506
LLC LOAD      ACCESS:   31731922  HIT:   22055456  MISS:    9676466
LLC RFO       ACCESS:    6660517  HIT:    2895912  MISS:    3764605
LLC PREFETCH  ACCESS:   69126390  HIT:   53886113  MISS:   15240277
LLC WRITEBACK ACCESS:   16753819  HIT:   16753661  MISS:        158
LLC PREFETCH  REQUESTED:          0  ISSUED:          0  USEFUL:   21955009  USELESS:   18927000
Major fault: 0 Minor fault: 14622

CPU 3 cumulative IPC: 0.921026 instructions: 1000000000 cycles: 1085745538
L1D TOTAL     ACCESS:  175420600  HIT:  158911420  MISS:   16509180
L1D LOAD      ACCESS:  156110555  HIT:  140785061  MISS:   15325494
L1D RFO       ACCESS:   19310045  HIT:   18126359  MISS:    1183686
L1D PREFETCH  ACCESS:          0  HIT:          0  MISS:          0
L1D WRITEBACK ACCESS:          0  HIT:          0  MISS:          0
L1D PREFETCH  REQUESTED:          0  ISSUED:          0  USEFUL:          0  USELESS:          0
L1I TOTAL     ACCESS:  269915491  HIT:  269913361  MISS:       2130
L1I LOAD      ACCESS:  269915491  HIT:  269913361  MISS:       2130
L1I RFO       ACCESS:          0  HIT:          0  MISS:          0
L1I PREFETCH  ACCESS:          0  HIT:          0  MISS:          0
L1I WRITEBACK ACCESS:          0  HIT:          0  MISS:          0
L1I PREFETCH  REQUESTED:          0  ISSUED:          0  USEFUL:          0  USELESS:          0
L2C TOTAL     ACCESS:   26849168  HIT:   13347116  MISS:   13502052
L2C LOAD      ACCESS:   15327613  HIT:    7221638  MISS:    8105975
L2C RFO       ACCESS:    1183639  HIT:     149283  MISS:    1034356
L2C PREFETCH  ACCESS:    8659596  HIT:    4301159  MISS:    4358437
L2C WRITEBACK ACCESS:    1678320  HIT:    1675036  MISS:       3284
L2C PREFETCH  REQUESTED:  149992554  ISSUED:  149961104  USEFUL:   11389409  USELESS:     181651
LLC TOTAL     ACCESS:   57602986  HIT:   48455451  MISS:    9147535
LLC LOAD      ACCESS:    7819611  HIT:    6058947  MISS:    1760664
LLC RFO       ACCESS:    1034355  HIT:     529442  MISS:     504913
LLC PREFETCH  ACCESS:   47310987  HIT:   40429738  MISS:    6881249
LLC WRITEBACK ACCESS:    1438033  HIT:    1437324  MISS:        709
LLC PREFETCH  REQUESTED:          0  ISSUED:          0  USEFUL:   21955009  USELESS:   18927000
Major fault: 0 Minor fault: 4264

DRAM Statistics
 CHANNEL 0
 RQ ROW_BUFFER_HIT:   14920046  ROW_BUFFER_MISS:   12220908
 DBUS_CONGESTED:   29601135
 WQ ROW_BUFFER_HIT:     802023  ROW_BUFFER_MISS:    4922442  FULL:          0

 CHANNEL 1
 RQ ROW_BUFFER_HIT:   14968954  ROW_BUFFER_MISS:   12282660
 DBUS_CONGESTED:   29601135
 WQ ROW_BUFFER_HIT:     803470  ROW_BUFFER_MISS:    4928223  FULL:          0

 AVG_CONGESTED_CYCLE: 12
