Initialize SIGNATURE TABLE
ST_SET: 1
ST_WAY: 256
ST_TAG_BIT: 16
ST_TAG_MASK: ffff

Initialize PATTERN TABLE
PT_SET: 512
PT_WAY: 4
SIG_DELTA_BIT: 7
C_SIG_BIT: 4
C_DELTA_BIT: 4

Initialize PREFETCH FILTER
FILTER_SET: 1024

*** ChampSim Multicore Out-of-Order Simulator ***

Warmup Instructions: 200000000
Simulation Instructions: 1000000000
Number of CPUs: 4
LLC sets: 8192
LLC ways: 16
Off-chip DRAM Size: 8192 MB Channels: 2 Width: 64-bit Data Rate: 1600 MT/s

CPU 0 runs /scratch/user/djimenez/champsim-traces/speccpu2006/xz//401.bzip2-226B.champsimtrace.xz
CPU 1 runs /scratch/user/djimenez/champsim-traces/speccpu2006/xz//444.namd-23B.champsimtrace.xz
CPU 2 runs /scratch/user/djimenez/champsim-traces/speccpu2006/xz//473.astar-42B.champsimtrace.xz
CPU 3 runs /scratch/user/djimenez/champsim-traces/speccpu2006/xz//459.GemsFDTD-1418B.champsimtrace.xz
Heartbeat CPU 1 instructions: 10000002 cycles: 4664422 heartbeat IPC: 2.14389 cumulative IPC: 2.14389 (Simulation time: 0 hr 1 min 36 sec) 
Heartbeat CPU 0 instructions: 10000002 cycles: 5113502 heartbeat IPC: 1.95561 cumulative IPC: 1.95561 (Simulation time: 0 hr 1 min 44 sec) 
Heartbeat CPU 2 instructions: 10000003 cycles: 7159419 heartbeat IPC: 1.39676 cumulative IPC: 1.39676 (Simulation time: 0 hr 2 min 22 sec) 
Heartbeat CPU 3 instructions: 10000003 cycles: 7881392 heartbeat IPC: 1.26881 cumulative IPC: 1.26881 (Simulation time: 0 hr 2 min 35 sec) 
Heartbeat CPU 1 instructions: 20000000 cycles: 9076285 heartbeat IPC: 2.26662 cumulative IPC: 2.20354 (Simulation time: 0 hr 2 min 57 sec) 
Heartbeat CPU 0 instructions: 20000000 cycles: 10164879 heartbeat IPC: 1.97966 cumulative IPC: 1.96756 (Simulation time: 0 hr 3 min 18 sec) 
Heartbeat CPU 1 instructions: 30000000 cycles: 13466347 heartbeat IPC: 2.27787 cumulative IPC: 2.22778 (Simulation time: 0 hr 4 min 22 sec) 
Heartbeat CPU 2 instructions: 20000000 cycles: 13937438 heartbeat IPC: 1.47536 cumulative IPC: 1.43498 (Simulation time: 0 hr 4 min 31 sec) 
Heartbeat CPU 0 instructions: 30000002 cycles: 14625837 heartbeat IPC: 2.24167 cumulative IPC: 2.05116 (Simulation time: 0 hr 4 min 46 sec) 
Heartbeat CPU 3 instructions: 20000000 cycles: 15762032 heartbeat IPC: 1.26893 cumulative IPC: 1.26887 (Simulation time: 0 hr 5 min 9 sec) 
Heartbeat CPU 1 instructions: 40000000 cycles: 18099482 heartbeat IPC: 2.15837 cumulative IPC: 2.21001 (Simulation time: 0 hr 5 min 54 sec) 
Heartbeat CPU 0 instructions: 40000000 cycles: 19208744 heartbeat IPC: 2.18202 cumulative IPC: 2.08239 (Simulation time: 0 hr 6 min 13 sec) 
Heartbeat CPU 2 instructions: 30000000 cycles: 20790893 heartbeat IPC: 1.45912 cumulative IPC: 1.44294 (Simulation time: 0 hr 6 min 41 sec) 
Heartbeat CPU 1 instructions: 50000001 cycles: 22495271 heartbeat IPC: 2.2749 cumulative IPC: 2.22269 (Simulation time: 0 hr 7 min 12 sec) 
Heartbeat CPU 3 instructions: 30000002 cycles: 23643116 heartbeat IPC: 1.26886 cumulative IPC: 1.26887 (Simulation time: 0 hr 7 min 32 sec) 
Heartbeat CPU 0 instructions: 50000002 cycles: 24792797 heartbeat IPC: 1.79081 cumulative IPC: 2.01671 (Simulation time: 0 hr 7 min 51 sec) 
Heartbeat CPU 1 instructions: 60000000 cycles: 27184212 heartbeat IPC: 2.13268 cumulative IPC: 2.20716 (Simulation time: 0 hr 8 min 31 sec) 
Heartbeat CPU 2 instructions: 40000000 cycles: 27776316 heartbeat IPC: 1.43155 cumulative IPC: 1.44008 (Simulation time: 0 hr 8 min 41 sec) 
Heartbeat CPU 0 instructions: 60000000 cycles: 30318679 heartbeat IPC: 1.80967 cumulative IPC: 1.97898 (Simulation time: 0 hr 9 min 24 sec) 
Heartbeat CPU 3 instructions: 40000000 cycles: 31554301 heartbeat IPC: 1.26403 cumulative IPC: 1.26766 (Simulation time: 0 hr 9 min 45 sec) 
Heartbeat CPU 1 instructions: 70000003 cycles: 31785519 heartbeat IPC: 2.1733 cumulative IPC: 2.20226 (Simulation time: 0 hr 9 min 49 sec) 
Heartbeat CPU 2 instructions: 50000002 cycles: 34718506 heartbeat IPC: 1.44047 cumulative IPC: 1.44015 (Simulation time: 0 hr 10 min 38 sec) 
Heartbeat CPU 0 instructions: 70000001 cycles: 35946607 heartbeat IPC: 1.77685 cumulative IPC: 1.94733 (Simulation time: 0 hr 10 min 58 sec) 
Heartbeat CPU 1 instructions: 80000000 cycles: 36276488 heartbeat IPC: 2.22669 cumulative IPC: 2.20529 (Simulation time: 0 hr 11 min 4 sec) 
Heartbeat CPU 3 instructions: 50000002 cycles: 39492583 heartbeat IPC: 1.25972 cumulative IPC: 1.26606 (Simulation time: 0 hr 11 min 58 sec) 
Heartbeat CPU 1 instructions: 90000001 cycles: 40457874 heartbeat IPC: 2.39155 cumulative IPC: 2.22454 (Simulation time: 0 hr 12 min 14 sec) 
Heartbeat CPU 0 instructions: 80000000 cycles: 41565527 heartbeat IPC: 1.7797 cumulative IPC: 1.92467 (Simulation time: 0 hr 12 min 32 sec) 
Heartbeat CPU 2 instructions: 60000000 cycles: 41604527 heartbeat IPC: 1.45222 cumulative IPC: 1.44215 (Simulation time: 0 hr 12 min 33 sec) 
Heartbeat CPU 1 instructions: 100000000 cycles: 45117865 heartbeat IPC: 2.14593 cumulative IPC: 2.21642 (Simulation time: 0 hr 13 min 31 sec) 
Heartbeat CPU 0 instructions: 90000002 cycles: 47192356 heartbeat IPC: 1.7772 cumulative IPC: 1.90709 (Simulation time: 0 hr 14 min 5 sec) 
Heartbeat CPU 3 instructions: 60000000 cycles: 47432015 heartbeat IPC: 1.25954 cumulative IPC: 1.26497 (Simulation time: 0 hr 14 min 9 sec) 
Heartbeat CPU 2 instructions: 70000001 cycles: 48505592 heartbeat IPC: 1.44905 cumulative IPC: 1.44313 (Simulation time: 0 hr 14 min 28 sec) 
Heartbeat CPU 1 instructions: 110000003 cycles: 49488303 heartbeat IPC: 2.2881 cumulative IPC: 2.22275 (Simulation time: 0 hr 14 min 45 sec) 
Heartbeat CPU 0 instructions: 100000000 cycles: 52770524 heartbeat IPC: 1.7927 cumulative IPC: 1.895 (Simulation time: 0 hr 15 min 40 sec) 
Heartbeat CPU 1 instructions: 120000000 cycles: 53887153 heartbeat IPC: 2.27332 cumulative IPC: 2.22688 (Simulation time: 0 hr 15 min 58 sec) 
Heartbeat CPU 3 instructions: 70000001 cycles: 55369719 heartbeat IPC: 1.25981 cumulative IPC: 1.26423 (Simulation time: 0 hr 16 min 22 sec) 
Heartbeat CPU 2 instructions: 80000000 cycles: 55473142 heartbeat IPC: 1.43522 cumulative IPC: 1.44214 (Simulation time: 0 hr 16 min 24 sec) 
Heartbeat CPU 0 instructions: 110000001 cycles: 58448608 heartbeat IPC: 1.76116 cumulative IPC: 1.882 (Simulation time: 0 hr 17 min 13 sec) 
Heartbeat CPU 1 instructions: 130000002 cycles: 58578200 heartbeat IPC: 2.13172 cumulative IPC: 2.21926 (Simulation time: 0 hr 17 min 15 sec) 
Heartbeat CPU 2 instructions: 90000003 cycles: 62571839 heartbeat IPC: 1.40871 cumulative IPC: 1.43835 (Simulation time: 0 hr 18 min 21 sec) 
Heartbeat CPU 1 instructions: 140000000 cycles: 62817869 heartbeat IPC: 2.35867 cumulative IPC: 2.22867 (Simulation time: 0 hr 18 min 25 sec) 
Heartbeat CPU 3 instructions: 80000000 cycles: 63313189 heartbeat IPC: 1.2589 cumulative IPC: 1.26356 (Simulation time: 0 hr 18 min 34 sec) 
Heartbeat CPU 0 instructions: 120000000 cycles: 64086583 heartbeat IPC: 1.77369 cumulative IPC: 1.87247 (Simulation time: 0 hr 18 min 47 sec) 
Heartbeat CPU 1 instructions: 150000001 cycles: 67586594 heartbeat IPC: 2.097 cumulative IPC: 2.21938 (Simulation time: 0 hr 19 min 50 sec) 
Heartbeat CPU 2 instructions: 100000000 cycles: 69468404 heartbeat IPC: 1.45 cumulative IPC: 1.4395 (Simulation time: 0 hr 20 min 24 sec) 
Heartbeat CPU 0 instructions: 130000002 cycles: 69729598 heartbeat IPC: 1.7721 cumulative IPC: 1.86434 (Simulation time: 0 hr 20 min 28 sec) 
Heartbeat CPU 3 instructions: 90000003 cycles: 71248209 heartbeat IPC: 1.26024 cumulative IPC: 1.26319 (Simulation time: 0 hr 20 min 56 sec) 
Heartbeat CPU 1 instructions: 160000000 cycles: 71862808 heartbeat IPC: 2.33852 cumulative IPC: 2.22646 (Simulation time: 0 hr 21 min 7 sec) 
Heartbeat CPU 0 instructions: 140000000 cycles: 75290443 heartbeat IPC: 1.79829 cumulative IPC: 1.85947 (Simulation time: 0 hr 22 min 8 sec) 
Heartbeat CPU 2 instructions: 110000000 cycles: 76383637 heartbeat IPC: 1.44608 cumulative IPC: 1.4401 (Simulation time: 0 hr 22 min 28 sec) 
Heartbeat CPU 1 instructions: 170000002 cycles: 76652229 heartbeat IPC: 2.08794 cumulative IPC: 2.21781 (Simulation time: 0 hr 22 min 33 sec) 
Heartbeat CPU 3 instructions: 100000000 cycles: 79188520 heartbeat IPC: 1.2594 cumulative IPC: 1.26281 (Simulation time: 0 hr 23 min 20 sec) 
Heartbeat CPU 0 instructions: 150000001 cycles: 80813254 heartbeat IPC: 1.81067 cumulative IPC: 1.85613 (Simulation time: 0 hr 23 min 49 sec) 
Heartbeat CPU 1 instructions: 180000000 cycles: 81408260 heartbeat IPC: 2.10259 cumulative IPC: 2.21108 (Simulation time: 0 hr 23 min 59 sec) 
Heartbeat CPU 2 instructions: 120000000 cycles: 83520627 heartbeat IPC: 1.40115 cumulative IPC: 1.43677 (Simulation time: 0 hr 24 min 37 sec) 
Heartbeat CPU 1 instructions: 190000001 cycles: 85750157 heartbeat IPC: 2.30314 cumulative IPC: 2.21574 (Simulation time: 0 hr 25 min 18 sec) 
Heartbeat CPU 0 instructions: 160000000 cycles: 86433803 heartbeat IPC: 1.77919 cumulative IPC: 1.85113 (Simulation time: 0 hr 25 min 35 sec) 
Heartbeat CPU 3 instructions: 110000001 cycles: 87132192 heartbeat IPC: 1.25886 cumulative IPC: 1.26245 (Simulation time: 0 hr 25 min 48 sec) 
Heartbeat CPU 1 instructions: 200000000 cycles: 90483311 heartbeat IPC: 2.11276 cumulative IPC: 2.21035 (Simulation time: 0 hr 26 min 55 sec) 
Heartbeat CPU 2 instructions: 130000000 cycles: 90530634 heartbeat IPC: 1.42653 cumulative IPC: 1.43598 (Simulation time: 0 hr 26 min 57 sec) 
Heartbeat CPU 0 instructions: 170000002 cycles: 91765804 heartbeat IPC: 1.87547 cumulative IPC: 1.85254 (Simulation time: 0 hr 27 min 33 sec) 
Heartbeat CPU 1 instructions: 210000001 cycles: 94867898 heartbeat IPC: 2.28072 cumulative IPC: 0.10541 (Simulation time: 0 hr 28 min 34 sec) 
Heartbeat CPU 3 instructions: 120000000 cycles: 95066489 heartbeat IPC: 1.26035 cumulative IPC: 1.26227 (Simulation time: 0 hr 28 min 38 sec) 
Heartbeat CPU 2 instructions: 140000000 cycles: 97379054 heartbeat IPC: 1.46019 cumulative IPC: 1.43768 (Simulation time: 0 hr 29 min 18 sec) 
Heartbeat CPU 0 instructions: 180000000 cycles: 97538956 heartbeat IPC: 1.73216 cumulative IPC: 1.84542 (Simulation time: 0 hr 29 min 21 sec) 
Heartbeat CPU 1 instructions: 220000000 cycles: 99529794 heartbeat IPC: 2.14505 cumulative IPC: 0.200945 (Simulation time: 0 hr 29 min 57 sec) 
Heartbeat CPU 3 instructions: 130000003 cycles: 103007650 heartbeat IPC: 1.25926 cumulative IPC: 1.26204 (Simulation time: 0 hr 31 min 10 sec) 
Heartbeat CPU 0 instructions: 190000002 cycles: 103040787 heartbeat IPC: 1.81758 cumulative IPC: 1.84393 (Simulation time: 0 hr 31 min 11 sec) 
Heartbeat CPU 1 instructions: 230000001 cycles: 103844064 heartbeat IPC: 2.31789 cumulative IPC: 0.288895 (Simulation time: 0 hr 31 min 28 sec) 
Heartbeat CPU 2 instructions: 150000001 cycles: 104285394 heartbeat IPC: 1.44795 cumulative IPC: 1.43836 (Simulation time: 0 hr 31 min 35 sec) 
Heartbeat CPU 1 instructions: 240000000 cycles: 108586282 heartbeat IPC: 2.10872 cumulative IPC: 0.368371 (Simulation time: 0 hr 32 min 52 sec) 
Heartbeat CPU 0 instructions: 200000000 cycles: 108722939 heartbeat IPC: 1.7599 cumulative IPC: 1.83954 (Simulation time: 0 hr 32 min 54 sec) 
Heartbeat CPU 3 instructions: 140000000 cycles: 110836126 heartbeat IPC: 1.27739 cumulative IPC: 1.26313 (Simulation time: 0 hr 33 min 32 sec) 
Heartbeat CPU 2 instructions: 160000000 cycles: 111166978 heartbeat IPC: 1.45315 cumulative IPC: 1.43928 (Simulation time: 0 hr 33 min 38 sec) 
Heartbeat CPU 1 instructions: 250000001 cycles: 112914769 heartbeat IPC: 2.31028 cumulative IPC: 0.442812 (Simulation time: 0 hr 34 min 10 sec) 
Heartbeat CPU 0 instructions: 210000001 cycles: 114174637 heartbeat IPC: 1.83429 cumulative IPC: 0.0875851 (Simulation time: 0 hr 34 min 38 sec) 
Heartbeat CPU 1 instructions: 260000000 cycles: 117648335 heartbeat IPC: 2.11257 cumulative IPC: 0.509994 (Simulation time: 0 hr 35 min 44 sec) 
Heartbeat CPU 2 instructions: 170000003 cycles: 118135112 heartbeat IPC: 1.4351 cumulative IPC: 1.43903 (Simulation time: 0 hr 35 min 53 sec) 
Heartbeat CPU 3 instructions: 150000003 cycles: 118593580 heartbeat IPC: 1.28908 cumulative IPC: 1.26482 (Simulation time: 0 hr 36 min 2 sec) 
Heartbeat CPU 0 instructions: 220000000 cycles: 118783882 heartbeat IPC: 2.16955 cumulative IPC: 0.168373 (Simulation time: 0 hr 36 min 6 sec) 
Heartbeat CPU 1 instructions: 270000003 cycles: 121848618 heartbeat IPC: 2.38079 cumulative IPC: 0.574483 (Simulation time: 0 hr 37 min 1 sec) 
Heartbeat CPU 0 instructions: 230000000 cycles: 122922073 heartbeat IPC: 2.41651 cumulative IPC: 0.244057 (Simulation time: 0 hr 37 min 21 sec) 
Heartbeat CPU 2 instructions: 180000000 cycles: 125147337 heartbeat IPC: 1.42608 cumulative IPC: 1.4383 (Simulation time: 0 hr 38 min 1 sec) 
Heartbeat CPU 3 instructions: 160000000 cycles: 126474694 heartbeat IPC: 1.26886 cumulative IPC: 1.26508 (Simulation time: 0 hr 38 min 31 sec) 
Heartbeat CPU 1 instructions: 280000000 cycles: 126576203 heartbeat IPC: 2.11524 cumulative IPC: 0.63203 (Simulation time: 0 hr 38 min 33 sec) 
Heartbeat CPU 0 instructions: 240000000 cycles: 127613030 heartbeat IPC: 2.13176 cumulative IPC: 0.313448 (Simulation time: 0 hr 38 min 56 sec) 
Heartbeat CPU 1 instructions: 290000001 cycles: 130797067 heartbeat IPC: 2.36918 cumulative IPC: 0.688089 (Simulation time: 0 hr 40 min 5 sec) 
Heartbeat CPU 2 instructions: 190000000 cycles: 132187635 heartbeat IPC: 1.42039 cumulative IPC: 1.43735 (Simulation time: 0 hr 40 min 33 sec) 
Heartbeat CPU 0 instructions: 250000001 cycles: 134251357 heartbeat IPC: 1.5064 cumulative IPC: 0.372436 (Simulation time: 0 hr 41 min 12 sec) 
Heartbeat CPU 3 instructions: 170000003 cycles: 134354122 heartbeat IPC: 1.26913 cumulative IPC: 1.26531 (Simulation time: 0 hr 41 min 14 sec) 
Heartbeat CPU 1 instructions: 300000000 cycles: 135533524 heartbeat IPC: 2.11128 cumulative IPC: 0.737825 (Simulation time: 0 hr 41 min 37 sec) 
Heartbeat CPU 2 instructions: 200000000 cycles: 139104648 heartbeat IPC: 1.44571 cumulative IPC: 1.43777 (Simulation time: 0 hr 42 min 42 sec) 
Heartbeat CPU 1 instructions: 310000002 cycles: 139730382 heartbeat IPC: 2.38274 cumulative IPC: 0.78723 (Simulation time: 0 hr 42 min 53 sec) 
Heartbeat CPU 0 instructions: 260000000 cycles: 140749183 heartbeat IPC: 1.53898 cumulative IPC: 0.42629 (Simulation time: 0 hr 43 min 10 sec) 
Heartbeat CPU 3 instructions: 180000000 cycles: 142229877 heartbeat IPC: 1.26972 cumulative IPC: 1.26556 (Simulation time: 0 hr 43 min 34 sec) 
Heartbeat CPU 1 instructions: 320000000 cycles: 144402574 heartbeat IPC: 2.14032 cumulative IPC: 0.83101 (Simulation time: 0 hr 44 min 12 sec) 
Heartbeat CPU 2 instructions: 210000000 cycles: 146027518 heartbeat IPC: 1.44449 cumulative IPC: 0.0684802 (Simulation time: 0 hr 44 min 43 sec) 
Heartbeat CPU 0 instructions: 270000000 cycles: 146358014 heartbeat IPC: 1.7829 cumulative IPC: 0.478279 (Simulation time: 0 hr 44 min 49 sec) 
Heartbeat CPU 1 instructions: 330000001 cycles: 148739261 heartbeat IPC: 2.30591 cumulative IPC: 0.874013 (Simulation time: 0 hr 45 min 32 sec) 
Heartbeat CPU 3 instructions: 190000003 cycles: 150112280 heartbeat IPC: 1.26865 cumulative IPC: 1.26572 (Simulation time: 0 hr 45 min 57 sec) 
Heartbeat CPU 0 instructions: 280000000 cycles: 151510804 heartbeat IPC: 1.9407 cumulative IPC: 0.528015 (Simulation time: 0 hr 46 min 22 sec) 
Heartbeat CPU 2 instructions: 220000000 cycles: 152994049 heartbeat IPC: 1.43543 cumulative IPC: 0.130724 (Simulation time: 0 hr 46 min 49 sec) 
Heartbeat CPU 1 instructions: 340000000 cycles: 153406828 heartbeat IPC: 2.14244 cumulative IPC: 0.912606 (Simulation time: 0 hr 46 min 56 sec) 
Heartbeat CPU 0 instructions: 290000000 cycles: 156645842 heartbeat IPC: 1.94741 cumulative IPC: 0.574544 (Simulation time: 0 hr 47 min 55 sec) 
Heartbeat CPU 1 instructions: 350000000 cycles: 157838490 heartbeat IPC: 2.25649 cumulative IPC: 0.950339 (Simulation time: 0 hr 48 min 16 sec) 
Heartbeat CPU 3 instructions: 200000000 cycles: 157990373 heartbeat IPC: 1.26934 cumulative IPC: 1.2659 (Simulation time: 0 hr 48 min 19 sec) 

Warmup complete CPU 0 instructions: 292634335 cycles: 157990374 (Simulation time: 0 hr 48 min 19 sec) 
Warmup complete CPU 1 instructions: 350363497 cycles: 157990374 (Simulation time: 0 hr 48 min 19 sec) 
Warmup complete CPU 2 instructions: 227203286 cycles: 157990374 (Simulation time: 0 hr 48 min 19 sec) 
Warmup complete CPU 3 instructions: 200000001 cycles: 157990374 (Simulation time: 0 hr 48 min 19 sec) 

Heartbeat CPU 2 instructions: 230000000 cycles: 165736138 heartbeat IPC: 0.784801 cumulative IPC: 0.361064 (Simulation time: 0 hr 49 min 45 sec) 
Heartbeat CPU 0 instructions: 300000000 cycles: 165738653 heartbeat IPC: 1.09977 cumulative IPC: 0.950619 (Simulation time: 0 hr 49 min 45 sec) 
Heartbeat CPU 1 instructions: 360000000 cycles: 165842287 heartbeat IPC: 1.24941 cumulative IPC: 1.22728 (Simulation time: 0 hr 49 min 46 sec) 
Heartbeat CPU 3 instructions: 210000000 cycles: 171953570 heartbeat IPC: 0.716168 cumulative IPC: 0.716168 (Simulation time: 0 hr 50 min 55 sec) 
Heartbeat CPU 1 instructions: 370000002 cycles: 172972187 heartbeat IPC: 1.40254 cumulative IPC: 1.31069 (Simulation time: 0 hr 51 min 6 sec) 
Heartbeat CPU 0 instructions: 310000001 cycles: 175331467 heartbeat IPC: 1.04245 cumulative IPC: 1.00142 (Simulation time: 0 hr 51 min 35 sec) 
Heartbeat CPU 1 instructions: 380000000 cycles: 181496751 heartbeat IPC: 1.17308 cumulative IPC: 1.26079 (Simulation time: 0 hr 52 min 50 sec) 
Heartbeat CPU 0 instructions: 320000000 cycles: 182337602 heartbeat IPC: 1.42732 cumulative IPC: 1.12397 (Simulation time: 0 hr 53 min 1 sec) 
Heartbeat CPU 3 instructions: 220000000 cycles: 186179137 heartbeat IPC: 0.70296 cumulative IPC: 0.709503 (Simulation time: 0 hr 53 min 48 sec) 
Heartbeat CPU 1 instructions: 390000001 cycles: 189486518 heartbeat IPC: 1.2516 cumulative IPC: 1.25846 (Simulation time: 0 hr 54 min 23 sec) 
Heartbeat CPU 0 instructions: 330000003 cycles: 192402852 heartbeat IPC: 0.993518 cumulative IPC: 1.08582 (Simulation time: 0 hr 54 min 52 sec) 
Heartbeat CPU 2 instructions: 240000000 cycles: 194208409 heartbeat IPC: 0.351219 cumulative IPC: 0.353324 (Simulation time: 0 hr 55 min 9 sec) 
Heartbeat CPU 1 instructions: 400000000 cycles: 197654419 heartbeat IPC: 1.2243 cumulative IPC: 1.25142 (Simulation time: 0 hr 55 min 42 sec) 
Heartbeat CPU 3 instructions: 230000002 cycles: 200349982 heartbeat IPC: 0.705674 cumulative IPC: 0.708222 (Simulation time: 0 hr 56 min 8 sec) 
Heartbeat CPU 0 instructions: 340000000 cycles: 205041084 heartbeat IPC: 0.79125 cumulative IPC: 1.00669 (Simulation time: 0 hr 56 min 55 sec) 
Heartbeat CPU 1 instructions: 410000002 cycles: 206277610 heartbeat IPC: 1.15966 cumulative IPC: 1.23504 (Simulation time: 0 hr 57 min 8 sec) 
Heartbeat CPU 3 instructions: 240000000 cycles: 214434960 heartbeat IPC: 0.709976 cumulative IPC: 0.70866 (Simulation time: 0 hr 58 min 29 sec) 
Heartbeat CPU 1 instructions: 420000000 cycles: 215178169 heartbeat IPC: 1.12352 cumulative IPC: 1.21768 (Simulation time: 0 hr 58 min 36 sec) 
Heartbeat CPU 0 instructions: 350000001 cycles: 215888891 heartbeat IPC: 0.921845 cumulative IPC: 0.990797 (Simulation time: 0 hr 58 min 43 sec) 
Heartbeat CPU 1 instructions: 430000000 cycles: 224051596 heartbeat IPC: 1.12696 cumulative IPC: 1.2055 (Simulation time: 1 hr 0 min 0 sec) 
Heartbeat CPU 2 instructions: 250000001 cycles: 225884014 heartbeat IPC: 0.3157 cumulative IPC: 0.335771 (Simulation time: 1 hr 0 min 17 sec) 
Heartbeat CPU 3 instructions: 250000001 cycles: 228519054 heartbeat IPC: 0.710021 cumulative IPC: 0.708931 (Simulation time: 1 hr 0 min 42 sec) 
Heartbeat CPU 0 instructions: 360000000 cycles: 228641218 heartbeat IPC: 0.784171 cumulative IPC: 0.953501 (Simulation time: 1 hr 0 min 43 sec) 
Heartbeat CPU 1 instructions: 440000000 cycles: 232648393 heartbeat IPC: 1.16322 cumulative IPC: 1.20063 (Simulation time: 1 hr 1 min 20 sec) 
Heartbeat CPU 0 instructions: 370000001 cycles: 240922537 heartbeat IPC: 0.814245 cumulative IPC: 0.932879 (Simulation time: 1 hr 2 min 26 sec) 
Heartbeat CPU 1 instructions: 450000003 cycles: 241120642 heartbeat IPC: 1.18032 cumulative IPC: 1.19856 (Simulation time: 1 hr 2 min 28 sec) 
Heartbeat CPU 3 instructions: 260000000 cycles: 245744847 heartbeat IPC: 0.580525 cumulative IPC: 0.683726 (Simulation time: 1 hr 3 min 7 sec) 
Heartbeat CPU 1 instructions: 460000000 cycles: 249864207 heartbeat IPC: 1.1437 cumulative IPC: 1.19334 (Simulation time: 1 hr 3 min 38 sec) 
Heartbeat CPU 0 instructions: 380000000 cycles: 254295166 heartbeat IPC: 0.747796 cumulative IPC: 0.907179 (Simulation time: 1 hr 4 min 15 sec) 
Heartbeat CPU 1 instructions: 470000000 cycles: 258382762 heartbeat IPC: 1.17391 cumulative IPC: 1.19169 (Simulation time: 1 hr 4 min 44 sec) 
Heartbeat CPU 3 instructions: 270000003 cycles: 264986237 heartbeat IPC: 0.519713 cumulative IPC: 0.654231 (Simulation time: 1 hr 5 min 41 sec) 
Heartbeat CPU 0 instructions: 390000001 cycles: 266688380 heartbeat IPC: 0.806893 cumulative IPC: 0.895745 (Simulation time: 1 hr 5 min 54 sec) 
Heartbeat CPU 1 instructions: 480000000 cycles: 267032595 heartbeat IPC: 1.15609 cumulative IPC: 1.18887 (Simulation time: 1 hr 5 min 56 sec) 
Heartbeat CPU 2 instructions: 260000000 cycles: 269474052 heartbeat IPC: 0.22941 cumulative IPC: 0.294184 (Simulation time: 1 hr 6 min 16 sec) 
Heartbeat CPU 1 instructions: 490000002 cycles: 275756068 heartbeat IPC: 1.14633 cumulative IPC: 1.18571 (Simulation time: 1 hr 7 min 14 sec) 
Heartbeat CPU 0 instructions: 400000000 cycles: 280164050 heartbeat IPC: 0.742078 cumulative IPC: 0.878795 (Simulation time: 1 hr 7 min 54 sec) 
Heartbeat CPU 3 instructions: 280000000 cycles: 281980742 heartbeat IPC: 0.588425 cumulative IPC: 0.645211 (Simulation time: 1 hr 8 min 11 sec) 
Heartbeat CPU 1 instructions: 500000000 cycles: 283965456 heartbeat IPC: 1.21812 cumulative IPC: 1.18783 (Simulation time: 1 hr 8 min 29 sec) 
Heartbeat CPU 1 instructions: 510000002 cycles: 292752968 heartbeat IPC: 1.13798 cumulative IPC: 1.18458 (Simulation time: 1 hr 9 min 48 sec) 
Heartbeat CPU 0 instructions: 410000000 cycles: 293443302 heartbeat IPC: 0.753054 cumulative IPC: 0.866468 (Simulation time: 1 hr 9 min 54 sec) 
Heartbeat CPU 3 instructions: 290000001 cycles: 296570025 heartbeat IPC: 0.685435 cumulative IPC: 0.649446 (Simulation time: 1 hr 10 min 22 sec) 
Heartbeat CPU 1 instructions: 520000000 cycles: 301346321 heartbeat IPC: 1.16369 cumulative IPC: 1.18332 (Simulation time: 1 hr 11 min 5 sec) 
Heartbeat CPU 0 instructions: 420000000 cycles: 306669127 heartbeat IPC: 0.756096 cumulative IPC: 0.85665 (Simulation time: 1 hr 11 min 55 sec) 
Heartbeat CPU 2 instructions: 270000003 cycles: 307740423 heartbeat IPC: 0.261326 cumulative IPC: 0.285788 (Simulation time: 1 hr 12 min 5 sec) 
Heartbeat CPU 1 instructions: 530000003 cycles: 309906063 heartbeat IPC: 1.16826 cumulative IPC: 1.18247 (Simulation time: 1 hr 12 min 25 sec) 
Heartbeat CPU 3 instructions: 300000000 cycles: 311602923 heartbeat IPC: 0.665208 cumulative IPC: 0.650988 (Simulation time: 1 hr 12 min 41 sec) 
Heartbeat CPU 1 instructions: 540000000 cycles: 318290816 heartbeat IPC: 1.19264 cumulative IPC: 1.18301 (Simulation time: 1 hr 13 min 47 sec) 
Heartbeat CPU 0 instructions: 430000003 cycles: 319581093 heartbeat IPC: 0.774476 cumulative IPC: 0.850084 (Simulation time: 1 hr 13 min 59 sec) 
Heartbeat CPU 3 instructions: 310000002 cycles: 325537185 heartbeat IPC: 0.717656 cumulative IPC: 0.656533 (Simulation time: 1 hr 14 min 56 sec) 
Heartbeat CPU 1 instructions: 550000002 cycles: 326952210 heartbeat IPC: 1.15455 cumulative IPC: 1.18155 (Simulation time: 1 hr 15 min 9 sec) 
Heartbeat CPU 0 instructions: 440000000 cycles: 332781421 heartbeat IPC: 0.757557 cumulative IPC: 0.843096 (Simulation time: 1 hr 16 min 0 sec) 
Heartbeat CPU 1 instructions: 560000000 cycles: 335514282 heartbeat IPC: 1.16794 cumulative IPC: 1.18089 (Simulation time: 1 hr 16 min 24 sec) 
Heartbeat CPU 2 instructions: 280000000 cycles: 336379541 heartbeat IPC: 0.349173 cumulative IPC: 0.295964 (Simulation time: 1 hr 16 min 32 sec) 
Heartbeat CPU 1 instructions: 570000003 cycles: 344353685 heartbeat IPC: 1.1313 cumulative IPC: 1.17854 (Simulation time: 1 hr 17 min 39 sec) 
Heartbeat CPU 0 instructions: 450000000 cycles: 345401399 heartbeat IPC: 0.792394 cumulative IPC: 0.839682 (Simulation time: 1 hr 17 min 48 sec) 
Heartbeat CPU 1 instructions: 580000000 cycles: 352884414 heartbeat IPC: 1.17223 cumulative IPC: 1.17826 (Simulation time: 1 hr 18 min 51 sec) 
Heartbeat CPU 3 instructions: 320000000 cycles: 353942227 heartbeat IPC: 0.35205 cumulative IPC: 0.612395 (Simulation time: 1 hr 18 min 59 sec) 
Heartbeat CPU 0 instructions: 460000000 cycles: 358931501 heartbeat IPC: 0.739093 cumulative IPC: 0.832909 (Simulation time: 1 hr 19 min 40 sec) 
Heartbeat CPU 1 instructions: 590000000 cycles: 361255074 heartbeat IPC: 1.19465 cumulative IPC: 1.17894 (Simulation time: 1 hr 19 min 59 sec) 
Heartbeat CPU 1 instructions: 600000000 cycles: 370134094 heartbeat IPC: 1.12625 cumulative IPC: 1.17673 (Simulation time: 1 hr 21 min 15 sec) 
Heartbeat CPU 2 instructions: 290000000 cycles: 370230683 heartbeat IPC: 0.295411 cumulative IPC: 0.295876 (Simulation time: 1 hr 21 min 15 sec) 
Heartbeat CPU 0 instructions: 470000002 cycles: 371889519 heartbeat IPC: 0.771723 cumulative IPC: 0.829202 (Simulation time: 1 hr 21 min 29 sec) 
Heartbeat CPU 1 instructions: 610000000 cycles: 378716448 heartbeat IPC: 1.16518 cumulative IPC: 1.17628 (Simulation time: 1 hr 22 min 27 sec) 
Heartbeat CPU 3 instructions: 330000000 cycles: 382626757 heartbeat IPC: 0.34862 cumulative IPC: 0.578713 (Simulation time: 1 hr 23 min 1 sec) 
Heartbeat CPU 0 instructions: 480000000 cycles: 383989944 heartbeat IPC: 0.826417 cumulative IPC: 0.829053 (Simulation time: 1 hr 23 min 12 sec) 
Heartbeat CPU 1 instructions: 620000000 cycles: 387336663 heartbeat IPC: 1.16006 cumulative IPC: 1.17567 (Simulation time: 1 hr 23 min 40 sec) 
Heartbeat CPU 1 instructions: 630000001 cycles: 395927738 heartbeat IPC: 1.164 cumulative IPC: 1.17525 (Simulation time: 1 hr 24 min 50 sec) 
Heartbeat CPU 0 instructions: 490000000 cycles: 397360140 heartbeat IPC: 0.747932 cumulative IPC: 0.824522 (Simulation time: 1 hr 25 min 3 sec) 
Heartbeat CPU 1 instructions: 640000000 cycles: 404485160 heartbeat IPC: 1.16858 cumulative IPC: 1.17502 (Simulation time: 1 hr 26 min 9 sec) 
Heartbeat CPU 3 instructions: 340000000 cycles: 404614396 heartbeat IPC: 0.454801 cumulative IPC: 0.567666 (Simulation time: 1 hr 26 min 11 sec) 
Heartbeat CPU 2 instructions: 300000000 cycles: 406870018 heartbeat IPC: 0.272931 cumulative IPC: 0.292498 (Simulation time: 1 hr 26 min 32 sec) 
Heartbeat CPU 0 instructions: 500000000 cycles: 410511166 heartbeat IPC: 0.760397 cumulative IPC: 0.821183 (Simulation time: 1 hr 27 min 7 sec) 
Heartbeat CPU 1 instructions: 650000000 cycles: 413068031 heartbeat IPC: 1.16511 cumulative IPC: 1.17469 (Simulation time: 1 hr 27 min 31 sec) 
Heartbeat CPU 3 instructions: 350000001 cycles: 421116589 heartbeat IPC: 0.60598 cumulative IPC: 0.570069 (Simulation time: 1 hr 28 min 49 sec) 
Heartbeat CPU 1 instructions: 660000000 cycles: 421542930 heartbeat IPC: 1.17996 cumulative IPC: 1.17486 (Simulation time: 1 hr 28 min 53 sec) 
Heartbeat CPU 0 instructions: 510000000 cycles: 422195233 heartbeat IPC: 0.855866 cumulative IPC: 0.822716 (Simulation time: 1 hr 29 min 0 sec) 
Heartbeat CPU 1 instructions: 670000002 cycles: 430185794 heartbeat IPC: 1.15702 cumulative IPC: 1.17429 (Simulation time: 1 hr 30 min 26 sec) 
Heartbeat CPU 0 instructions: 520000000 cycles: 432261374 heartbeat IPC: 0.993429 cumulative IPC: 0.828982 (Simulation time: 1 hr 30 min 48 sec) 
Heartbeat CPU 3 instructions: 360000000 cycles: 438017622 heartbeat IPC: 0.59168 cumulative IPC: 0.571373 (Simulation time: 1 hr 31 min 44 sec) 
Heartbeat CPU 1 instructions: 680000000 cycles: 439170913 heartbeat IPC: 1.11295 cumulative IPC: 1.17233 (Simulation time: 1 hr 31 min 56 sec) 
Heartbeat CPU 0 instructions: 530000003 cycles: 442824186 heartbeat IPC: 0.946718 cumulative IPC: 0.833348 (Simulation time: 1 hr 32 min 33 sec) 
Heartbeat CPU 2 instructions: 310000001 cycles: 446429112 heartbeat IPC: 0.252786 cumulative IPC: 0.287051 (Simulation time: 1 hr 33 min 9 sec) 
Heartbeat CPU 1 instructions: 690000002 cycles: 447970985 heartbeat IPC: 1.13635 cumulative IPC: 1.17124 (Simulation time: 1 hr 33 min 24 sec) 
Heartbeat CPU 3 instructions: 370000002 cycles: 451688052 heartbeat IPC: 0.731506 cumulative IPC: 0.578826 (Simulation time: 1 hr 34 min 4 sec) 
Heartbeat CPU 1 instructions: 700000000 cycles: 456447227 heartbeat IPC: 1.17977 cumulative IPC: 1.17148 (Simulation time: 1 hr 34 min 53 sec) 
Heartbeat CPU 0 instructions: 540000000 cycles: 460524954 heartbeat IPC: 0.564947 cumulative IPC: 0.817644 (Simulation time: 1 hr 35 min 34 sec) 
Heartbeat CPU 1 instructions: 710000000 cycles: 465003578 heartbeat IPC: 1.16872 cumulative IPC: 1.1714 (Simulation time: 1 hr 36 min 18 sec) 
Heartbeat CPU 3 instructions: 380000000 cycles: 465139659 heartbeat IPC: 0.743405 cumulative IPC: 0.586034 (Simulation time: 1 hr 36 min 19 sec) 
Heartbeat CPU 1 instructions: 720000000 cycles: 473542757 heartbeat IPC: 1.17107 cumulative IPC: 1.1714 (Simulation time: 1 hr 37 min 44 sec) 
Heartbeat CPU 3 instructions: 390000000 cycles: 479144167 heartbeat IPC: 0.714056 cumulative IPC: 0.591617 (Simulation time: 1 hr 38 min 50 sec) 
Heartbeat CPU 0 instructions: 550000003 cycles: 480053124 heartbeat IPC: 0.512081 cumulative IPC: 0.799117 (Simulation time: 1 hr 38 min 58 sec) 
Heartbeat CPU 2 instructions: 320000000 cycles: 481778178 heartbeat IPC: 0.282893 cumulative IPC: 0.286597 (Simulation time: 1 hr 39 min 13 sec) 
Heartbeat CPU 1 instructions: 730000002 cycles: 482294105 heartbeat IPC: 1.14268 cumulative IPC: 1.17062 (Simulation time: 1 hr 39 min 18 sec) 
Heartbeat CPU 1 instructions: 740000000 cycles: 490686738 heartbeat IPC: 1.19152 cumulative IPC: 1.17115 (Simulation time: 1 hr 40 min 37 sec) 
Heartbeat CPU 0 instructions: 560000000 cycles: 493488505 heartbeat IPC: 0.744303 cumulative IPC: 0.796921 (Simulation time: 1 hr 41 min 6 sec) 
Heartbeat CPU 1 instructions: 750000000 cycles: 499307832 heartbeat IPC: 1.15995 cumulative IPC: 1.17086 (Simulation time: 1 hr 42 min 13 sec) 
Heartbeat CPU 0 instructions: 570000000 cycles: 503584475 heartbeat IPC: 0.990494 cumulative IPC: 0.802576 (Simulation time: 1 hr 42 min 59 sec) 
Heartbeat CPU 3 instructions: 400000000 cycles: 507328500 heartbeat IPC: 0.354807 cumulative IPC: 0.572511 (Simulation time: 1 hr 43 min 41 sec) 
Heartbeat CPU 1 instructions: 760000000 cycles: 507889389 heartbeat IPC: 1.16529 cumulative IPC: 1.17073 (Simulation time: 1 hr 43 min 48 sec) 
Heartbeat CPU 2 instructions: 330000001 cycles: 510404307 heartbeat IPC: 0.349331 cumulative IPC: 0.291693 (Simulation time: 1 hr 44 min 17 sec) 
Heartbeat CPU 0 instructions: 580000000 cycles: 514058570 heartbeat IPC: 0.954736 cumulative IPC: 0.807052 (Simulation time: 1 hr 45 min 1 sec) 
Heartbeat CPU 1 instructions: 770000000 cycles: 516158367 heartbeat IPC: 1.20934 cumulative IPC: 1.17162 (Simulation time: 1 hr 45 min 23 sec) 
Heartbeat CPU 0 instructions: 590000001 cycles: 524534061 heartbeat IPC: 0.954609 cumulative IPC: 0.811269 (Simulation time: 1 hr 46 min 52 sec) 
Heartbeat CPU 1 instructions: 780000000 cycles: 524871581 heartbeat IPC: 1.14768 cumulative IPC: 1.17105 (Simulation time: 1 hr 46 min 55 sec) 
Heartbeat CPU 1 instructions: 790000001 cycles: 533334095 heartbeat IPC: 1.18168 cumulative IPC: 1.17129 (Simulation time: 1 hr 48 min 27 sec) 
Heartbeat CPU 0 instructions: 600000000 cycles: 535011887 heartbeat IPC: 0.954396 cumulative IPC: 0.815247 (Simulation time: 1 hr 48 min 46 sec) 
Heartbeat CPU 3 instructions: 410000003 cycles: 535447992 heartbeat IPC: 0.355625 cumulative IPC: 0.556354 (Simulation time: 1 hr 48 min 51 sec) 
Heartbeat CPU 1 instructions: 800000000 cycles: 541772790 heartbeat IPC: 1.18502 cumulative IPC: 1.17159 (Simulation time: 1 hr 50 min 6 sec) 
Heartbeat CPU 0 instructions: 610000001 cycles: 542471969 heartbeat IPC: 1.34047 cumulative IPC: 0.825438 (Simulation time: 1 hr 50 min 15 sec) 
Heartbeat CPU 2 instructions: 340000000 cycles: 545470474 heartbeat IPC: 0.285175 cumulative IPC: 0.291103 (Simulation time: 1 hr 50 min 51 sec) 
Heartbeat CPU 0 instructions: 620000000 cycles: 549822163 heartbeat IPC: 1.36051 cumulative IPC: 0.835475 (Simulation time: 1 hr 51 min 46 sec) 
Heartbeat CPU 1 instructions: 810000000 cycles: 550773861 heartbeat IPC: 1.11098 cumulative IPC: 1.1702 (Simulation time: 1 hr 51 min 57 sec) 
Heartbeat CPU 3 instructions: 420000000 cycles: 555482994 heartbeat IPC: 0.499126 cumulative IPC: 0.553469 (Simulation time: 1 hr 52 min 51 sec) 
Heartbeat CPU 1 instructions: 820000000 cycles: 559264052 heartbeat IPC: 1.17783 cumulative IPC: 1.17036 (Simulation time: 1 hr 53 min 31 sec) 
Heartbeat CPU 0 instructions: 630000000 cycles: 562063412 heartbeat IPC: 0.81691 cumulative IPC: 0.834913 (Simulation time: 1 hr 54 min 2 sec) 
Heartbeat CPU 1 instructions: 830000003 cycles: 567322339 heartbeat IPC: 1.24096 cumulative IPC: 1.17175 (Simulation time: 1 hr 55 min 6 sec) 
Heartbeat CPU 3 instructions: 430000000 cycles: 569669137 heartbeat IPC: 0.704913 cumulative IPC: 0.558688 (Simulation time: 1 hr 55 min 30 sec) 
Heartbeat CPU 0 instructions: 640000000 cycles: 572596493 heartbeat IPC: 0.94939 cumulative IPC: 0.837821 (Simulation time: 1 hr 55 min 59 sec) 
Heartbeat CPU 1 instructions: 840000000 cycles: 576075800 heartbeat IPC: 1.1424 cumulative IPC: 1.17114 (Simulation time: 1 hr 56 min 33 sec) 
Heartbeat CPU 2 instructions: 350000000 cycles: 581408047 heartbeat IPC: 0.27826 cumulative IPC: 0.290013 (Simulation time: 1 hr 57 min 30 sec) 
Heartbeat CPU 3 instructions: 440000000 cycles: 584098517 heartbeat IPC: 0.69303 cumulative IPC: 0.563237 (Simulation time: 1 hr 57 min 59 sec) 
Heartbeat CPU 0 instructions: 650000000 cycles: 584304040 heartbeat IPC: 0.85415 cumulative IPC: 0.838269 (Simulation time: 1 hr 58 min 1 sec) 
Heartbeat CPU 1 instructions: 850000003 cycles: 584758440 heartbeat IPC: 1.15172 cumulative IPC: 1.17074 (Simulation time: 1 hr 58 min 6 sec) 
Heartbeat CPU 0 instructions: 660000000 cycles: 593589341 heartbeat IPC: 1.07697 cumulative IPC: 0.843358 (Simulation time: 1 hr 59 min 46 sec) 
Heartbeat CPU 1 instructions: 860000000 cycles: 593630246 heartbeat IPC: 1.12717 cumulative IPC: 1.16986 (Simulation time: 1 hr 59 min 47 sec) 
Heartbeat CPU 3 instructions: 450000003 cycles: 597568221 heartbeat IPC: 0.742407 cumulative IPC: 0.568727 (Simulation time: 2 hr 0 min 38 sec) 
Heartbeat CPU 1 instructions: 870000003 cycles: 602075637 heartbeat IPC: 1.18408 cumulative IPC: 1.17013 (Simulation time: 2 hr 1 min 29 sec) 
Heartbeat CPU 0 instructions: 670000003 cycles: 603534532 heartbeat IPC: 1.00551 cumulative IPC: 0.846977 (Simulation time: 2 hr 1 min 43 sec) 
Heartbeat CPU 1 instructions: 880000000 cycles: 610625468 heartbeat IPC: 1.16961 cumulative IPC: 1.17012 (Simulation time: 2 hr 2 min 57 sec) 
Heartbeat CPU 3 instructions: 460000000 cycles: 611267816 heartbeat IPC: 0.729948 cumulative IPC: 0.5736 (Simulation time: 2 hr 3 min 5 sec) 
Heartbeat CPU 0 instructions: 680000000 cycles: 615371601 heartbeat IPC: 0.844803 cumulative IPC: 0.846921 (Simulation time: 2 hr 3 min 48 sec) 
Heartbeat CPU 1 instructions: 890000000 cycles: 619389673 heartbeat IPC: 1.141 cumulative IPC: 1.16957 (Simulation time: 2 hr 4 min 32 sec) 
Heartbeat CPU 2 instructions: 360000000 cycles: 623057003 heartbeat IPC: 0.240102 cumulative IPC: 0.285543 (Simulation time: 2 hr 5 min 12 sec) 
Heartbeat CPU 3 instructions: 470000000 cycles: 626153997 heartbeat IPC: 0.671764 cumulative IPC: 0.576721 (Simulation time: 2 hr 5 min 38 sec) 
Heartbeat CPU 0 instructions: 690000000 cycles: 627411154 heartbeat IPC: 0.830596 cumulative IPC: 0.846502 (Simulation time: 2 hr 5 min 50 sec) 
Heartbeat CPU 1 instructions: 900000000 cycles: 627824805 heartbeat IPC: 1.18552 cumulative IPC: 1.16985 (Simulation time: 2 hr 5 min 53 sec) 
Heartbeat CPU 1 instructions: 910000001 cycles: 636179326 heartbeat IPC: 1.19696 cumulative IPC: 1.17033 (Simulation time: 2 hr 7 min 8 sec) 
Heartbeat CPU 0 instructions: 700000000 cycles: 640481743 heartbeat IPC: 0.765076 cumulative IPC: 0.844296 (Simulation time: 2 hr 7 min 47 sec) 
Heartbeat CPU 1 instructions: 920000000 cycles: 644893597 heartbeat IPC: 1.14754 cumulative IPC: 1.16992 (Simulation time: 2 hr 8 min 31 sec) 
Heartbeat CPU 0 instructions: 710000002 cycles: 653114988 heartbeat IPC: 0.791562 cumulative IPC: 0.842951 (Simulation time: 2 hr 9 min 48 sec) 
Heartbeat CPU 1 instructions: 930000001 cycles: 653181130 heartbeat IPC: 1.20663 cumulative IPC: 1.17053 (Simulation time: 2 hr 9 min 48 sec) 
Heartbeat CPU 3 instructions: 480000000 cycles: 654233653 heartbeat IPC: 0.35613 cumulative IPC: 0.564239 (Simulation time: 2 hr 9 min 57 sec) 
Heartbeat CPU 1 instructions: 940000000 cycles: 661495917 heartbeat IPC: 1.20268 cumulative IPC: 1.17106 (Simulation time: 2 hr 11 min 1 sec) 
Heartbeat CPU 2 instructions: 370000000 cycles: 662843513 heartbeat IPC: 0.251341 cumulative IPC: 0.282848 (Simulation time: 2 hr 11 min 12 sec) 
Heartbeat CPU 0 instructions: 720000000 cycles: 665632572 heartbeat IPC: 0.798876 cumulative IPC: 0.841864 (Simulation time: 2 hr 11 min 36 sec) 
Heartbeat CPU 1 instructions: 950000000 cycles: 670152446 heartbeat IPC: 1.1552 cumulative IPC: 1.17079 (Simulation time: 2 hr 12 min 15 sec) 
Heartbeat CPU 0 instructions: 730000003 cycles: 678062886 heartbeat IPC: 0.804485 cumulative IPC: 0.840971 (Simulation time: 2 hr 13 min 25 sec) 
Heartbeat CPU 1 instructions: 960000000 cycles: 678476663 heartbeat IPC: 1.20131 cumulative IPC: 1.17128 (Simulation time: 2 hr 13 min 29 sec) 
Heartbeat CPU 3 instructions: 490000003 cycles: 682417592 heartbeat IPC: 0.354812 cumulative IPC: 0.552984 (Simulation time: 2 hr 14 min 4 sec) 
Heartbeat CPU 1 instructions: 970000003 cycles: 687082130 heartbeat IPC: 1.16205 cumulative IPC: 1.17113 (Simulation time: 2 hr 14 min 44 sec) 
Heartbeat CPU 0 instructions: 740000000 cycles: 690488489 heartbeat IPC: 0.80479 cumulative IPC: 0.840126 (Simulation time: 2 hr 15 min 16 sec) 
Heartbeat CPU 2 instructions: 380000000 cycles: 692573975 heartbeat IPC: 0.336355 cumulative IPC: 0.285824 (Simulation time: 2 hr 15 min 35 sec) 
Heartbeat CPU 1 instructions: 980000000 cycles: 695576617 heartbeat IPC: 1.17723 cumulative IPC: 1.17123 (Simulation time: 2 hr 16 min 5 sec) 
Heartbeat CPU 3 instructions: 500000000 cycles: 700990416 heartbeat IPC: 0.538421 cumulative IPC: 0.552486 (Simulation time: 2 hr 16 min 58 sec) 
Heartbeat CPU 0 instructions: 750000000 cycles: 703316873 heartbeat IPC: 0.779521 cumulative IPC: 0.838701 (Simulation time: 2 hr 17 min 21 sec) 
Heartbeat CPU 1 instructions: 990000003 cycles: 704062086 heartbeat IPC: 1.17849 cumulative IPC: 1.17134 (Simulation time: 2 hr 17 min 28 sec) 
Heartbeat CPU 1 instructions: 1000000000 cycles: 712712070 heartbeat IPC: 1.15607 cumulative IPC: 1.1711 (Simulation time: 2 hr 18 min 53 sec) 
Heartbeat CPU 0 instructions: 760000000 cycles: 714803164 heartbeat IPC: 0.870603 cumulative IPC: 0.839359 (Simulation time: 2 hr 19 min 13 sec) 
Heartbeat CPU 3 instructions: 510000001 cycles: 716230544 heartbeat IPC: 0.656163 cumulative IPC: 0.555317 (Simulation time: 2 hr 19 min 27 sec) 
Heartbeat CPU 1 instructions: 1010000002 cycles: 720827124 heartbeat IPC: 1.23228 cumulative IPC: 1.17199 (Simulation time: 2 hr 20 min 12 sec) 
Heartbeat CPU 0 instructions: 770000000 cycles: 727874939 heartbeat IPC: 0.765007 cumulative IPC: 0.837653 (Simulation time: 2 hr 21 min 20 sec) 
Heartbeat CPU 2 instructions: 390000000 cycles: 729187295 heartbeat IPC: 0.273125 cumulative IPC: 0.28501 (Simulation time: 2 hr 21 min 33 sec) 
Heartbeat CPU 1 instructions: 1020000000 cycles: 729456979 heartbeat IPC: 1.15877 cumulative IPC: 1.17179 (Simulation time: 2 hr 21 min 36 sec) 
Heartbeat CPU 3 instructions: 520000000 cycles: 730262689 heartbeat IPC: 0.712649 cumulative IPC: 0.559174 (Simulation time: 2 hr 21 min 44 sec) 
Heartbeat CPU 1 instructions: 1030000001 cycles: 738429951 heartbeat IPC: 1.11446 cumulative IPC: 1.1709 (Simulation time: 2 hr 23 min 5 sec) 
Heartbeat CPU 0 instructions: 780000000 cycles: 740411042 heartbeat IPC: 0.797696 cumulative IPC: 0.836793 (Simulation time: 2 hr 23 min 25 sec) 
Heartbeat CPU 3 instructions: 530000000 cycles: 743208783 heartbeat IPC: 0.772434 cumulative IPC: 0.563892 (Simulation time: 2 hr 23 min 53 sec) 
Heartbeat CPU 1 instructions: 1040000000 cycles: 747322074 heartbeat IPC: 1.12459 cumulative IPC: 1.1702 (Simulation time: 2 hr 24 min 34 sec) 
Heartbeat CPU 0 instructions: 790000000 cycles: 753023604 heartbeat IPC: 0.79286 cumulative IPC: 0.835862 (Simulation time: 2 hr 25 min 31 sec) 
Heartbeat CPU 1 instructions: 1050000003 cycles: 755806185 heartbeat IPC: 1.17867 cumulative IPC: 1.17032 (Simulation time: 2 hr 25 min 58 sec) 
Heartbeat CPU 3 instructions: 540000000 cycles: 756935080 heartbeat IPC: 0.728529 cumulative IPC: 0.567665 (Simulation time: 2 hr 26 min 9 sec) 
Heartbeat CPU 2 instructions: 400000000 cycles: 764240056 heartbeat IPC: 0.285284 cumulative IPC: 0.285026 (Simulation time: 2 hr 27 min 25 sec) 
Heartbeat CPU 1 instructions: 1060000000 cycles: 764475561 heartbeat IPC: 1.15349 cumulative IPC: 1.17008 (Simulation time: 2 hr 27 min 27 sec) 
Heartbeat CPU 0 instructions: 800000000 cycles: 765586865 heartbeat IPC: 0.795972 cumulative IPC: 0.835037 (Simulation time: 2 hr 27 min 39 sec) 
Heartbeat CPU 3 instructions: 550000000 cycles: 772902663 heartbeat IPC: 0.626269 cumulative IPC: 0.569187 (Simulation time: 2 hr 28 min 49 sec) 
Heartbeat CPU 1 instructions: 1070000000 cycles: 773159796 heartbeat IPC: 1.15151 cumulative IPC: 1.16982 (Simulation time: 2 hr 28 min 52 sec) 
Heartbeat CPU 0 instructions: 810000003 cycles: 776789229 heartbeat IPC: 0.892669 cumulative IPC: 0.83608 (Simulation time: 2 hr 29 min 24 sec) 
Heartbeat CPU 1 instructions: 1080000000 cycles: 781547017 heartbeat IPC: 1.19229 cumulative IPC: 1.17012 (Simulation time: 2 hr 30 min 5 sec) 
Heartbeat CPU 0 instructions: 820000000 cycles: 789613714 heartbeat IPC: 0.779758 cumulative IPC: 0.834937 (Simulation time: 2 hr 31 min 18 sec) 
Heartbeat CPU 1 instructions: 1090000000 cycles: 790220787 heartbeat IPC: 1.1529 cumulative IPC: 1.16988 (Simulation time: 2 hr 31 min 24 sec) 
Heartbeat CPU 2 instructions: 410000002 cycles: 797069504 heartbeat IPC: 0.304605 cumulative IPC: 0.286031 (Simulation time: 2 hr 32 min 32 sec) 
Heartbeat CPU 1 instructions: 1100000000 cycles: 798604368 heartbeat IPC: 1.19281 cumulative IPC: 1.17018 (Simulation time: 2 hr 32 min 44 sec) 
Heartbeat CPU 3 instructions: 560000000 cycles: 800868544 heartbeat IPC: 0.357579 cumulative IPC: 0.559982 (Simulation time: 2 hr 33 min 3 sec) 
Heartbeat CPU 0 instructions: 830000000 cycles: 802183939 heartbeat IPC: 0.795531 cumulative IPC: 0.834168 (Simulation time: 2 hr 33 min 14 sec) 
Heartbeat CPU 1 instructions: 1110000003 cycles: 807004104 heartbeat IPC: 1.19051 cumulative IPC: 1.17045 (Simulation time: 2 hr 34 min 1 sec) 
Heartbeat CPU 0 instructions: 840000000 cycles: 812345787 heartbeat IPC: 0.984073 cumulative IPC: 0.836496 (Simulation time: 2 hr 34 min 54 sec) 
Heartbeat CPU 1 instructions: 1120000000 cycles: 815732942 heartbeat IPC: 1.14563 cumulative IPC: 1.17012 (Simulation time: 2 hr 35 min 25 sec) 
Heartbeat CPU 0 instructions: 850000002 cycles: 822879080 heartbeat IPC: 0.949371 cumulative IPC: 0.838284 (Simulation time: 2 hr 36 min 36 sec) 
Heartbeat CPU 1 instructions: 1130000000 cycles: 824075885 heartbeat IPC: 1.19862 cumulative IPC: 1.17048 (Simulation time: 2 hr 36 min 47 sec) 
Heartbeat CPU 3 instructions: 570000002 cycles: 829335162 heartbeat IPC: 0.351289 cumulative IPC: 0.551133 (Simulation time: 2 hr 37 min 37 sec) 
Heartbeat CPU 2 instructions: 420000000 cycles: 831246402 heartbeat IPC: 0.292595 cumulative IPC: 0.286365 (Simulation time: 2 hr 37 min 58 sec) 
Heartbeat CPU 1 instructions: 1140000000 cycles: 832952829 heartbeat IPC: 1.12651 cumulative IPC: 1.1699 (Simulation time: 2 hr 38 min 17 sec) 
Heartbeat CPU 0 instructions: 860000000 cycles: 839986477 heartbeat IPC: 0.584542 cumulative IPC: 0.831919 (Simulation time: 2 hr 39 min 31 sec) 
Heartbeat CPU 1 instructions: 1150000000 cycles: 841142542 heartbeat IPC: 1.22104 cumulative IPC: 1.17051 (Simulation time: 2 hr 39 min 44 sec) 
Heartbeat CPU 3 instructions: 580000000 cycles: 848154238 heartbeat IPC: 0.531376 cumulative IPC: 0.550594 (Simulation time: 2 hr 40 min 55 sec) 
Heartbeat CPU 1 instructions: 1160000000 cycles: 849487413 heartbeat IPC: 1.19834 cumulative IPC: 1.17085 (Simulation time: 2 hr 41 min 9 sec) 
Heartbeat CPU 1 instructions: 1170000002 cycles: 858338483 heartbeat IPC: 1.12981 cumulative IPC: 1.17033 (Simulation time: 2 hr 42 min 38 sec) 
Heartbeat CPU 0 instructions: 870000000 cycles: 859527740 heartbeat IPC: 0.511738 cumulative IPC: 0.823001 (Simulation time: 2 hr 42 min 50 sec) 
Heartbeat CPU 2 instructions: 430000001 cycles: 862362312 heartbeat IPC: 0.321379 cumulative IPC: 0.287911 (Simulation time: 2 hr 43 min 18 sec) 
Heartbeat CPU 3 instructions: 590000001 cycles: 862718407 heartbeat IPC: 0.686617 cumulative IPC: 0.553405 (Simulation time: 2 hr 43 min 21 sec) 
Heartbeat CPU 1 instructions: 1180000000 cycles: 866713340 heartbeat IPC: 1.19405 cumulative IPC: 1.17061 (Simulation time: 2 hr 44 min 0 sec) 
Heartbeat CPU 0 instructions: 880000000 cycles: 871493891 heartbeat IPC: 0.835691 cumulative IPC: 0.823213 (Simulation time: 2 hr 44 min 52 sec) 
Heartbeat CPU 1 instructions: 1190000002 cycles: 874887175 heartbeat IPC: 1.22342 cumulative IPC: 1.17121 (Simulation time: 2 hr 45 min 29 sec) 
Heartbeat CPU 3 instructions: 600000000 cycles: 877309089 heartbeat IPC: 0.685369 cumulative IPC: 0.556082 (Simulation time: 2 hr 45 min 56 sec) 
Heartbeat CPU 0 instructions: 890000002 cycles: 881996526 heartbeat IPC: 0.952142 cumulative IPC: 0.825084 (Simulation time: 2 hr 46 min 48 sec) 
Heartbeat CPU 1 instructions: 1200000000 cycles: 883614242 heartbeat IPC: 1.14586 cumulative IPC: 1.1709 (Simulation time: 2 hr 47 min 5 sec) 
Heartbeat CPU 3 instructions: 610000001 cycles: 890609432 heartbeat IPC: 0.75186 cumulative IPC: 0.559636 (Simulation time: 2 hr 48 min 23 sec) 
Heartbeat CPU 1 instructions: 1210000000 cycles: 892216276 heartbeat IPC: 1.16252 cumulative IPC: 1.17081 (Simulation time: 2 hr 48 min 40 sec) 
Heartbeat CPU 0 instructions: 900000000 cycles: 892514032 heartbeat IPC: 0.950796 cumulative IPC: 0.826884 (Simulation time: 2 hr 48 min 44 sec) 
Heartbeat CPU 1 instructions: 1220000000 cycles: 901154408 heartbeat IPC: 1.1188 cumulative IPC: 1.17018 (Simulation time: 2 hr 50 min 16 sec) 
Heartbeat CPU 0 instructions: 910000001 cycles: 903055232 heartbeat IPC: 0.948659 cumulative IPC: 0.828607 (Simulation time: 2 hr 50 min 37 sec) 
Heartbeat CPU 2 instructions: 440000000 cycles: 903995452 heartbeat IPC: 0.240193 cumulative IPC: 0.285248 (Simulation time: 2 hr 50 min 47 sec) 
Heartbeat CPU 3 instructions: 620000000 cycles: 904255326 heartbeat IPC: 0.732821 cumulative IPC: 0.562803 (Simulation time: 2 hr 50 min 50 sec) 
Heartbeat CPU 1 instructions: 1230000002 cycles: 909774704 heartbeat IPC: 1.16005 cumulative IPC: 1.17006 (Simulation time: 2 hr 51 min 50 sec) 
Heartbeat CPU 0 instructions: 920000000 cycles: 913583207 heartbeat IPC: 0.94985 cumulative IPC: 0.830296 (Simulation time: 2 hr 52 min 33 sec) 
Heartbeat CPU 3 instructions: 630000000 cycles: 915968435 heartbeat IPC: 0.853744 cumulative IPC: 0.567299 (Simulation time: 2 hr 53 min 2 sec) 
Heartbeat CPU 1 instructions: 1240000000 cycles: 918537411 heartbeat IPC: 1.1412 cumulative IPC: 1.16973 (Simulation time: 2 hr 53 min 37 sec) 
Heartbeat CPU 0 instructions: 930000000 cycles: 921008052 heartbeat IPC: 1.34683 cumulative IPC: 0.835322 (Simulation time: 2 hr 54 min 7 sec) 
Heartbeat CPU 3 instructions: 640000000 cycles: 924732396 heartbeat IPC: 1.14104 cumulative IPC: 0.573857 (Simulation time: 2 hr 54 min 54 sec) 
Heartbeat CPU 1 instructions: 1250000003 cycles: 927245515 heartbeat IPC: 1.14836 cumulative IPC: 1.16949 (Simulation time: 2 hr 55 min 26 sec) 
Heartbeat CPU 0 instructions: 940000000 cycles: 929107072 heartbeat IPC: 1.23472 cumulative IPC: 0.839517 (Simulation time: 2 hr 55 min 45 sec) 
Heartbeat CPU 3 instructions: 650000001 cycles: 933563087 heartbeat IPC: 1.13241 cumulative IPC: 0.580216 (Simulation time: 2 hr 56 min 30 sec) 
Heartbeat CPU 1 instructions: 1260000000 cycles: 935875362 heartbeat IPC: 1.15877 cumulative IPC: 1.16937 (Simulation time: 2 hr 56 min 54 sec) 
Heartbeat CPU 3 instructions: 660000000 cycles: 942248834 heartbeat IPC: 1.15131 cumulative IPC: 0.586541 (Simulation time: 2 hr 57 min 57 sec) 
Heartbeat CPU 0 instructions: 950000003 cycles: 942894118 heartbeat IPC: 0.725319 cumulative IPC: 0.837511 (Simulation time: 2 hr 58 min 3 sec) 
Heartbeat CPU 1 instructions: 1270000001 cycles: 944619770 heartbeat IPC: 1.14359 cumulative IPC: 1.16908 (Simulation time: 2 hr 58 min 21 sec) 
Heartbeat CPU 2 instructions: 450000000 cycles: 945917512 heartbeat IPC: 0.238538 cumulative IPC: 0.282763 (Simulation time: 2 hr 58 min 34 sec) 
Heartbeat CPU 3 instructions: 670000003 cycles: 950984126 heartbeat IPC: 1.14478 cumulative IPC: 0.592691 (Simulation time: 2 hr 59 min 26 sec) 
Heartbeat CPU 1 instructions: 1280000000 cycles: 953196494 heartbeat IPC: 1.16595 cumulative IPC: 1.16905 (Simulation time: 2 hr 59 min 48 sec) 
Heartbeat CPU 0 instructions: 960000000 cycles: 955993056 heartbeat IPC: 0.76342 cumulative IPC: 0.836295 (Simulation time: 3 hr 0 min 16 sec) 
Heartbeat CPU 3 instructions: 680000000 cycles: 959678298 heartbeat IPC: 1.1502 cumulative IPC: 0.598737 (Simulation time: 3 hr 0 min 53 sec) 
Heartbeat CPU 1 instructions: 1290000002 cycles: 961634713 heartbeat IPC: 1.18508 cumulative IPC: 1.16922 (Simulation time: 3 hr 1 min 13 sec) 
Heartbeat CPU 3 instructions: 690000001 cycles: 968422539 heartbeat IPC: 1.14361 cumulative IPC: 0.604616 (Simulation time: 3 hr 2 min 26 sec) 
Heartbeat CPU 0 instructions: 970000000 cycles: 969351680 heartbeat IPC: 0.74858 cumulative IPC: 0.834851 (Simulation time: 3 hr 2 min 36 sec) 
Heartbeat CPU 1 instructions: 1300000000 cycles: 970456492 heartbeat IPC: 1.13356 cumulative IPC: 1.16883 (Simulation time: 3 hr 2 min 48 sec) 
Heartbeat CPU 3 instructions: 700000000 cycles: 977154353 heartbeat IPC: 1.14524 cumulative IPC: 0.610378 (Simulation time: 3 hr 3 min 57 sec) 
Heartbeat CPU 1 instructions: 1310000001 cycles: 978973099 heartbeat IPC: 1.17418 cumulative IPC: 1.16889 (Simulation time: 3 hr 4 min 16 sec) 
Heartbeat CPU 0 instructions: 980000000 cycles: 983966545 heartbeat IPC: 0.684235 cumulative IPC: 0.832186 (Simulation time: 3 hr 5 min 9 sec) 
Heartbeat CPU 2 instructions: 460000000 cycles: 984250530 heartbeat IPC: 0.260872 cumulative IPC: 0.281747 (Simulation time: 3 hr 5 min 12 sec) 
Heartbeat CPU 3 instructions: 710000000 cycles: 985908631 heartbeat IPC: 1.1423 cumulative IPC: 0.616003 (Simulation time: 3 hr 5 min 30 sec) 
Heartbeat CPU 1 instructions: 1320000000 cycles: 987439451 heartbeat IPC: 1.18115 cumulative IPC: 1.16901 (Simulation time: 3 hr 5 min 47 sec) 
Heartbeat CPU 3 instructions: 720000000 cycles: 994740033 heartbeat IPC: 1.13232 cumulative IPC: 0.621452 (Simulation time: 3 hr 7 min 13 sec) 
Heartbeat CPU 1 instructions: 1330000002 cycles: 995957075 heartbeat IPC: 1.17404 cumulative IPC: 1.16906 (Simulation time: 3 hr 7 min 27 sec) 
Heartbeat CPU 0 instructions: 990000001 cycles: 998705766 heartbeat IPC: 0.678462 cumulative IPC: 0.829491 (Simulation time: 3 hr 7 min 56 sec) 
Heartbeat CPU 3 instructions: 730000002 cycles: 1003628319 heartbeat IPC: 1.12508 cumulative IPC: 0.626746 (Simulation time: 3 hr 8 min 49 sec) 
Heartbeat CPU 1 instructions: 1340000000 cycles: 1004901637 heartbeat IPC: 1.118 cumulative IPC: 1.16852 (Simulation time: 3 hr 9 min 3 sec) 
Heartbeat CPU 0 instructions: 1000000000 cycles: 1011907079 heartbeat IPC: 0.7575 cumulative IPC: 0.828378 (Simulation time: 3 hr 10 min 30 sec) 
Heartbeat CPU 3 instructions: 740000000 cycles: 1012439177 heartbeat IPC: 1.13496 cumulative IPC: 0.631986 (Simulation time: 3 hr 10 min 35 sec) 
Heartbeat CPU 1 instructions: 1350000001 cycles: 1013391163 heartbeat IPC: 1.17792 cumulative IPC: 1.16862 (Simulation time: 3 hr 10 min 46 sec) 
Finished CPU 1 instructions: 1000000001 cycles: 855727154 cumulative IPC: 1.1686 (Simulation time: 3 hr 10 min 50 sec) 
Heartbeat CPU 2 instructions: 470000003 cycles: 1018842162 heartbeat IPC: 0.289087 cumulative IPC: 0.282042 (Simulation time: 3 hr 11 min 48 sec) 
Heartbeat CPU 3 instructions: 750000001 cycles: 1021152988 heartbeat IPC: 1.1476 cumulative IPC: 0.637192 (Simulation time: 3 hr 12 min 14 sec) 
Heartbeat CPU 1 instructions: 1360000000 cycles: 1021652793 heartbeat IPC: 1.21041 cumulative IPC: 1.16902 (Simulation time: 3 hr 12 min 20 sec) 
Heartbeat CPU 0 instructions: 1010000000 cycles: 1026963316 heartbeat IPC: 0.664177 cumulative IPC: 0.825533 (Simulation time: 3 hr 13 min 23 sec) 
Heartbeat CPU 3 instructions: 760000000 cycles: 1029905856 heartbeat IPC: 1.14248 cumulative IPC: 0.642264 (Simulation time: 3 hr 13 min 55 sec) 
Heartbeat CPU 1 instructions: 1370000000 cycles: 1030532502 heartbeat IPC: 1.12616 cumulative IPC: 1.16858 (Simulation time: 3 hr 14 min 2 sec) 
Heartbeat CPU 3 instructions: 770000003 cycles: 1038644743 heartbeat IPC: 1.14431 cumulative IPC: 0.647246 (Simulation time: 3 hr 15 min 28 sec) 
Heartbeat CPU 1 instructions: 1380000000 cycles: 1039156090 heartbeat IPC: 1.15961 cumulative IPC: 1.16849 (Simulation time: 3 hr 15 min 33 sec) 
Heartbeat CPU 0 instructions: 1020000000 cycles: 1041468776 heartbeat IPC: 0.689396 cumulative IPC: 0.823298 (Simulation time: 3 hr 15 min 58 sec) 
Heartbeat CPU 3 instructions: 780000000 cycles: 1047458056 heartbeat IPC: 1.13465 cumulative IPC: 0.652075 (Simulation time: 3 hr 17 min 6 sec) 
Heartbeat CPU 1 instructions: 1390000000 cycles: 1048097434 heartbeat IPC: 1.1184 cumulative IPC: 1.16799 (Simulation time: 3 hr 17 min 13 sec) 
Heartbeat CPU 2 instructions: 480000000 cycles: 1049795599 heartbeat IPC: 0.323066 cumulative IPC: 0.283466 (Simulation time: 3 hr 17 min 34 sec) 
Heartbeat CPU 3 instructions: 790000002 cycles: 1056368397 heartbeat IPC: 1.12229 cumulative IPC: 0.656739 (Simulation time: 3 hr 18 min 51 sec) 
Heartbeat CPU 0 instructions: 1030000000 cycles: 1056614524 heartbeat IPC: 0.660251 cumulative IPC: 0.82055 (Simulation time: 3 hr 18 min 53 sec) 
Heartbeat CPU 1 instructions: 1400000000 cycles: 1057002546 heartbeat IPC: 1.12295 cumulative IPC: 1.16754 (Simulation time: 3 hr 18 min 57 sec) 
Heartbeat CPU 3 instructions: 800000000 cycles: 1065186174 heartbeat IPC: 1.13407 cumulative IPC: 0.661379 (Simulation time: 3 hr 20 min 24 sec) 
Heartbeat CPU 1 instructions: 1410000001 cycles: 1065939556 heartbeat IPC: 1.11894 cumulative IPC: 1.16707 (Simulation time: 3 hr 20 min 34 sec) 
Heartbeat CPU 0 instructions: 1040000000 cycles: 1071587632 heartbeat IPC: 0.667864 cumulative IPC: 0.818047 (Simulation time: 3 hr 21 min 35 sec) 
Heartbeat CPU 3 instructions: 810000000 cycles: 1073904333 heartbeat IPC: 1.14703 cumulative IPC: 0.666001 (Simulation time: 3 hr 22 min 2 sec) 
Heartbeat CPU 1 instructions: 1420000000 cycles: 1074780016 heartbeat IPC: 1.13116 cumulative IPC: 1.16672 (Simulation time: 3 hr 22 min 13 sec) 
Heartbeat CPU 2 instructions: 490000000 cycles: 1079063735 heartbeat IPC: 0.341668 cumulative IPC: 0.285316 (Simulation time: 3 hr 23 min 3 sec) 
Heartbeat CPU 3 instructions: 820000000 cycles: 1082615947 heartbeat IPC: 1.14789 cumulative IPC: 0.670542 (Simulation time: 3 hr 23 min 45 sec) 
Heartbeat CPU 1 instructions: 1430000001 cycles: 1083697382 heartbeat IPC: 1.12141 cumulative IPC: 1.16628 (Simulation time: 3 hr 23 min 56 sec) 
Heartbeat CPU 0 instructions: 1050000001 cycles: 1086223100 heartbeat IPC: 0.683272 cumulative IPC: 0.815922 (Simulation time: 3 hr 24 min 24 sec) 
Heartbeat CPU 3 instructions: 830000001 cycles: 1091382128 heartbeat IPC: 1.14075 cumulative IPC: 0.674958 (Simulation time: 3 hr 25 min 21 sec) 
Heartbeat CPU 1 instructions: 1440000000 cycles: 1092615560 heartbeat IPC: 1.12131 cumulative IPC: 1.16585 (Simulation time: 3 hr 25 min 35 sec) 
Heartbeat CPU 3 instructions: 840000000 cycles: 1100322156 heartbeat IPC: 1.11856 cumulative IPC: 0.679166 (Simulation time: 3 hr 26 min 55 sec) 
Heartbeat CPU 0 instructions: 1060000000 cycles: 1101769373 heartbeat IPC: 0.643241 cumulative IPC: 0.813078 (Simulation time: 3 hr 27 min 13 sec) 
Heartbeat CPU 1 instructions: 1450000001 cycles: 1105483632 heartbeat IPC: 0.777117 cumulative IPC: 1.16057 (Simulation time: 3 hr 27 min 54 sec) 
Heartbeat CPU 2 instructions: 500000000 cycles: 1108880772 heartbeat IPC: 0.335379 cumulative IPC: 0.286886 (Simulation time: 3 hr 28 min 27 sec) 
Heartbeat CPU 3 instructions: 850000001 cycles: 1109220876 heartbeat IPC: 1.12376 cumulative IPC: 0.683325 (Simulation time: 3 hr 28 min 31 sec) 
Heartbeat CPU 1 instructions: 1460000000 cycles: 1115477139 heartbeat IPC: 1.00065 cumulative IPC: 1.15891 (Simulation time: 3 hr 29 min 43 sec) 
Heartbeat CPU 3 instructions: 860000000 cycles: 1118086405 heartbeat IPC: 1.12796 cumulative IPC: 0.687431 (Simulation time: 3 hr 30 min 13 sec) 
Heartbeat CPU 0 instructions: 1070000003 cycles: 1118665898 heartbeat IPC: 0.591838 cumulative IPC: 0.809187 (Simulation time: 3 hr 30 min 20 sec) 
Heartbeat CPU 1 instructions: 1470000002 cycles: 1124569481 heartbeat IPC: 1.09983 cumulative IPC: 1.15835 (Simulation time: 3 hr 31 min 23 sec) 
Heartbeat CPU 3 instructions: 870000002 cycles: 1126869267 heartbeat IPC: 1.13858 cumulative IPC: 0.691521 (Simulation time: 3 hr 31 min 47 sec) 
Heartbeat CPU 0 instructions: 1080000000 cycles: 1133658347 heartbeat IPC: 0.667002 cumulative IPC: 0.807002 (Simulation time: 3 hr 33 min 6 sec) 
Heartbeat CPU 1 instructions: 1480000000 cycles: 1133747815 heartbeat IPC: 1.08952 cumulative IPC: 1.1577 (Simulation time: 3 hr 33 min 8 sec) 
Heartbeat CPU 3 instructions: 880000000 cycles: 1135510086 heartbeat IPC: 1.1573 cumulative IPC: 0.695638 (Simulation time: 3 hr 33 min 29 sec) 
Heartbeat CPU 2 instructions: 510000000 cycles: 1137019632 heartbeat IPC: 0.35538 cumulative IPC: 0.288854 (Simulation time: 3 hr 33 min 45 sec) 
Heartbeat CPU 1 instructions: 1490000003 cycles: 1142806316 heartbeat IPC: 1.10394 cumulative IPC: 1.15721 (Simulation time: 3 hr 34 min 48 sec) 
Heartbeat CPU 3 instructions: 890000000 cycles: 1144341605 heartbeat IPC: 1.13231 cumulative IPC: 0.699548 (Simulation time: 3 hr 35 min 6 sec) 
Heartbeat CPU 0 instructions: 1090000000 cycles: 1146904100 heartbeat IPC: 0.754959 cumulative IPC: 0.806305 (Simulation time: 3 hr 35 min 34 sec) 
Heartbeat CPU 1 instructions: 1500000000 cycles: 1151966673 heartbeat IPC: 1.09166 cumulative IPC: 1.1566 (Simulation time: 3 hr 36 min 31 sec) 
Heartbeat CPU 3 instructions: 900000000 cycles: 1153008634 heartbeat IPC: 1.1538 cumulative IPC: 0.703505 (Simulation time: 3 hr 36 min 42 sec) 
Heartbeat CPU 0 instructions: 1100000000 cycles: 1160467583 heartbeat IPC: 0.737274 cumulative IPC: 0.805371 (Simulation time: 3 hr 38 min 1 sec) 
Heartbeat CPU 1 instructions: 1510000001 cycles: 1161087775 heartbeat IPC: 1.09636 cumulative IPC: 1.15606 (Simulation time: 3 hr 38 min 8 sec) 
Heartbeat CPU 3 instructions: 910000002 cycles: 1161803074 heartbeat IPC: 1.13708 cumulative IPC: 0.707303 (Simulation time: 3 hr 38 min 16 sec) 
Heartbeat CPU 2 instructions: 520000000 cycles: 1167067175 heartbeat IPC: 0.332806 cumulative IPC: 0.290163 (Simulation time: 3 hr 39 min 12 sec) 
Heartbeat CPU 1 instructions: 1520000000 cycles: 1170212065 heartbeat IPC: 1.09598 cumulative IPC: 1.15551 (Simulation time: 3 hr 39 min 45 sec) 
Heartbeat CPU 3 instructions: 920000000 cycles: 1170592188 heartbeat IPC: 1.13777 cumulative IPC: 0.71104 (Simulation time: 3 hr 39 min 49 sec) 
Heartbeat CPU 0 instructions: 1110000000 cycles: 1175100866 heartbeat IPC: 0.683374 cumulative IPC: 0.803615 (Simulation time: 3 hr 40 min 37 sec) 
Heartbeat CPU 1 instructions: 1530000001 cycles: 1179325127 heartbeat IPC: 1.09733 cumulative IPC: 1.15499 (Simulation time: 3 hr 41 min 20 sec) 
Heartbeat CPU 3 instructions: 930000001 cycles: 1179430716 heartbeat IPC: 1.13141 cumulative IPC: 0.714677 (Simulation time: 3 hr 41 min 21 sec) 
Heartbeat CPU 3 instructions: 940000000 cycles: 1188211947 heartbeat IPC: 1.13879 cumulative IPC: 0.718292 (Simulation time: 3 hr 42 min 55 sec) 
Heartbeat CPU 1 instructions: 1540000000 cycles: 1188473352 heartbeat IPC: 1.09311 cumulative IPC: 1.15445 (Simulation time: 3 hr 42 min 59 sec) 
Heartbeat CPU 0 instructions: 1120000000 cycles: 1190091461 heartbeat IPC: 0.667085 cumulative IPC: 0.801632 (Simulation time: 3 hr 43 min 16 sec) 
Heartbeat CPU 3 instructions: 950000003 cycles: 1196877684 heartbeat IPC: 1.15397 cumulative IPC: 0.721926 (Simulation time: 3 hr 44 min 28 sec) 
Heartbeat CPU 1 instructions: 1550000003 cycles: 1197578406 heartbeat IPC: 1.09829 cumulative IPC: 1.15395 (Simulation time: 3 hr 44 min 35 sec) 
Heartbeat CPU 2 instructions: 530000002 cycles: 1199284891 heartbeat IPC: 0.310388 cumulative IPC: 0.290789 (Simulation time: 3 hr 44 min 54 sec) 
Heartbeat CPU 0 instructions: 1130000000 cycles: 1204908588 heartbeat IPC: 0.674895 cumulative IPC: 0.799839 (Simulation time: 3 hr 45 min 54 sec) 
Heartbeat CPU 3 instructions: 960000000 cycles: 1205615928 heartbeat IPC: 1.14439 cumulative IPC: 0.72545 (Simulation time: 3 hr 46 min 1 sec) 
Heartbeat CPU 1 instructions: 1560000000 cycles: 1206741483 heartbeat IPC: 1.09134 cumulative IPC: 1.15341 (Simulation time: 3 hr 46 min 13 sec) 
Heartbeat CPU 3 instructions: 970000001 cycles: 1214485231 heartbeat IPC: 1.12748 cumulative IPC: 0.728825 (Simulation time: 3 hr 47 min 39 sec) 
Heartbeat CPU 1 instructions: 1570000001 cycles: 1215879313 heartbeat IPC: 1.09435 cumulative IPC: 1.1529 (Simulation time: 3 hr 47 min 56 sec) 
Heartbeat CPU 0 instructions: 1140000000 cycles: 1218032973 heartbeat IPC: 0.76194 cumulative IPC: 0.799369 (Simulation time: 3 hr 48 min 22 sec) 
Heartbeat CPU 3 instructions: 980000000 cycles: 1223111006 heartbeat IPC: 1.15932 cumulative IPC: 0.732311 (Simulation time: 3 hr 49 min 20 sec) 
Heartbeat CPU 1 instructions: 1580000000 cycles: 1225019129 heartbeat IPC: 1.09411 cumulative IPC: 1.15239 (Simulation time: 3 hr 49 min 41 sec) 
Heartbeat CPU 0 instructions: 1150000000 cycles: 1228589912 heartbeat IPC: 0.947244 cumulative IPC: 0.800828 (Simulation time: 3 hr 50 min 20 sec) 
Heartbeat CPU 3 instructions: 990000000 cycles: 1231757386 heartbeat IPC: 1.15655 cumulative IPC: 0.735728 (Simulation time: 3 hr 50 min 56 sec) 
Heartbeat CPU 2 instructions: 540000000 cycles: 1232021948 heartbeat IPC: 0.305464 cumulative IPC: 0.291236 (Simulation time: 3 hr 50 min 59 sec) 
Heartbeat CPU 1 instructions: 1590000001 cycles: 1234081404 heartbeat IPC: 1.10348 cumulative IPC: 1.15198 (Simulation time: 3 hr 51 min 22 sec) 
Heartbeat CPU 0 instructions: 1160000000 cycles: 1239307790 heartbeat IPC: 0.933021 cumulative IPC: 0.802138 (Simulation time: 3 hr 52 min 20 sec) 
Heartbeat CPU 3 instructions: 1000000000 cycles: 1240438135 heartbeat IPC: 1.15197 cumulative IPC: 0.739066 (Simulation time: 3 hr 52 min 33 sec) 
Heartbeat CPU 1 instructions: 1600000000 cycles: 1243285050 heartbeat IPC: 1.08653 cumulative IPC: 1.15143 (Simulation time: 3 hr 53 min 4 sec) 
Heartbeat CPU 3 instructions: 1010000001 cycles: 1248955684 heartbeat IPC: 1.17405 cumulative IPC: 0.742462 (Simulation time: 3 hr 54 min 6 sec) 
Heartbeat CPU 1 instructions: 1610000000 cycles: 1252352194 heartbeat IPC: 1.10288 cumulative IPC: 1.15102 (Simulation time: 3 hr 54 min 43 sec) 
Heartbeat CPU 3 instructions: 1020000000 cycles: 1257445069 heartbeat IPC: 1.17794 cumulative IPC: 0.745824 (Simulation time: 3 hr 55 min 39 sec) 
Heartbeat CPU 0 instructions: 1170000000 cycles: 1258704220 heartbeat IPC: 0.515559 cumulative IPC: 0.797088 (Simulation time: 3 hr 55 min 53 sec) 
Heartbeat CPU 1 instructions: 1620000000 cycles: 1261398967 heartbeat IPC: 1.10537 cumulative IPC: 1.15065 (Simulation time: 3 hr 56 min 22 sec) 
Heartbeat CPU 3 instructions: 1030000001 cycles: 1265901701 heartbeat IPC: 1.1825 cumulative IPC: 0.749157 (Simulation time: 3 hr 57 min 11 sec) 
Heartbeat CPU 1 instructions: 1630000000 cycles: 1270471129 heartbeat IPC: 1.10227 cumulative IPC: 1.15025 (Simulation time: 3 hr 58 min 4 sec) 
Heartbeat CPU 2 instructions: 550000000 cycles: 1272912483 heartbeat IPC: 0.244555 cumulative IPC: 0.289524 (Simulation time: 3 hr 58 min 31 sec) 
Heartbeat CPU 3 instructions: 1040000000 cycles: 1276837293 heartbeat IPC: 0.914445 cumulative IPC: 0.750773 (Simulation time: 3 hr 59 min 8 sec) 
Heartbeat CPU 0 instructions: 1180000000 cycles: 1278207848 heartbeat IPC: 0.512725 cumulative IPC: 0.792137 (Simulation time: 3 hr 59 min 21 sec) 
Heartbeat CPU 1 instructions: 1640000000 cycles: 1279546666 heartbeat IPC: 1.10186 cumulative IPC: 1.14986 (Simulation time: 3 hr 59 min 33 sec) 
Heartbeat CPU 1 instructions: 1650000002 cycles: 1288592273 heartbeat IPC: 1.10551 cumulative IPC: 1.14951 (Simulation time: 4 hr 1 min 6 sec) 
Heartbeat CPU 0 instructions: 1190000000 cycles: 1288957601 heartbeat IPC: 0.930254 cumulative IPC: 0.79345 (Simulation time: 4 hr 1 min 10 sec) 
Heartbeat CPU 3 instructions: 1050000001 cycles: 1293620957 heartbeat IPC: 0.595818 cumulative IPC: 0.748483 (Simulation time: 4 hr 2 min 0 sec) 
Heartbeat CPU 1 instructions: 1660000000 cycles: 1297728890 heartbeat IPC: 1.0945 cumulative IPC: 1.14907 (Simulation time: 4 hr 2 min 43 sec) 
Heartbeat CPU 0 instructions: 1200000000 cycles: 1299499360 heartbeat IPC: 0.948608 cumulative IPC: 0.794883 (Simulation time: 4 hr 3 min 2 sec) 
Heartbeat CPU 1 instructions: 1670000002 cycles: 1306767144 heartbeat IPC: 1.10641 cumulative IPC: 1.14873 (Simulation time: 4 hr 4 min 18 sec) 
Heartbeat CPU 0 instructions: 1210000002 cycles: 1310051886 heartbeat IPC: 0.947641 cumulative IPC: 0.796282 (Simulation time: 4 hr 4 min 52 sec) 
Heartbeat CPU 3 instructions: 1060000000 cycles: 1310773579 heartbeat IPC: 0.583001 cumulative IPC: 0.746021 (Simulation time: 4 hr 4 min 59 sec) 
Heartbeat CPU 2 instructions: 560000000 cycles: 1315595348 heartbeat IPC: 0.234286 cumulative IPC: 0.287487 (Simulation time: 4 hr 5 min 50 sec) 
Heartbeat CPU 1 instructions: 1680000000 cycles: 1315961428 heartbeat IPC: 1.08763 cumulative IPC: 1.14825 (Simulation time: 4 hr 5 min 54 sec) 
Heartbeat CPU 0 instructions: 1220000000 cycles: 1320559181 heartbeat IPC: 0.95172 cumulative IPC: 0.797687 (Simulation time: 4 hr 6 min 42 sec) 
Heartbeat CPU 1 instructions: 1690000000 cycles: 1324994831 heartbeat IPC: 1.107 cumulative IPC: 1.14793 (Simulation time: 4 hr 7 min 28 sec) 
Heartbeat CPU 3 instructions: 1070000003 cycles: 1327945182 heartbeat IPC: 0.582357 cumulative IPC: 0.743618 (Simulation time: 4 hr 7 min 59 sec) 
Heartbeat CPU 0 instructions: 1230000001 cycles: 1331066184 heartbeat IPC: 0.951746 cumulative IPC: 0.799067 (Simulation time: 4 hr 8 min 31 sec) 
Heartbeat CPU 1 instructions: 1700000000 cycles: 1334168046 heartbeat IPC: 1.09013 cumulative IPC: 1.14748 (Simulation time: 4 hr 9 min 8 sec) 
Heartbeat CPU 0 instructions: 1240000000 cycles: 1338094849 heartbeat IPC: 1.42275 cumulative IPC: 0.802781 (Simulation time: 4 hr 10 min 10 sec) 
Heartbeat CPU 1 instructions: 1710000000 cycles: 1343277908 heartbeat IPC: 1.09771 cumulative IPC: 1.14709 (Simulation time: 4 hr 11 min 25 sec) 
Heartbeat CPU 3 instructions: 1080000000 cycles: 1345756837 heartbeat IPC: 0.56143 cumulative IPC: 0.740886 (Simulation time: 4 hr 11 min 55 sec) 
Heartbeat CPU 0 instructions: 1250000000 cycles: 1346720740 heartbeat IPC: 1.1593 cumulative IPC: 0.805368 (Simulation time: 4 hr 12 min 5 sec) 
Heartbeat CPU 1 instructions: 1720000000 cycles: 1352300768 heartbeat IPC: 1.1083 cumulative IPC: 1.1468 (Simulation time: 4 hr 13 min 7 sec) 
Heartbeat CPU 2 instructions: 570000001 cycles: 1356778685 heartbeat IPC: 0.242817 cumulative IPC: 0.285953 (Simulation time: 4 hr 13 min 54 sec) 
Heartbeat CPU 0 instructions: 1260000000 cycles: 1358800287 heartbeat IPC: 0.827846 cumulative IPC: 0.805594 (Simulation time: 4 hr 14 min 18 sec) 
Heartbeat CPU 1 instructions: 1730000000 cycles: 1361369330 heartbeat IPC: 1.10271 cumulative IPC: 1.14647 (Simulation time: 4 hr 14 min 47 sec) 
Heartbeat CPU 3 instructions: 1090000002 cycles: 1363314335 heartbeat IPC: 0.569557 cumulative IPC: 0.738391 (Simulation time: 4 hr 15 min 11 sec) 
Heartbeat CPU 0 instructions: 1270000001 cycles: 1369266005 heartbeat IPC: 0.955501 cumulative IPC: 0.80689 (Simulation time: 4 hr 16 min 15 sec) 
Heartbeat CPU 1 instructions: 1740000000 cycles: 1370329168 heartbeat IPC: 1.11609 cumulative IPC: 1.14624 (Simulation time: 4 hr 16 min 25 sec) 
Heartbeat CPU 1 instructions: 1750000001 cycles: 1379370233 heartbeat IPC: 1.10606 cumulative IPC: 1.14595 (Simulation time: 4 hr 18 min 4 sec) 
Heartbeat CPU 3 instructions: 1100000000 cycles: 1380869657 heartbeat IPC: 0.569628 cumulative IPC: 0.735968 (Simulation time: 4 hr 18 min 19 sec) 
Heartbeat CPU 0 instructions: 1280000000 cycles: 1381190555 heartbeat IPC: 0.838606 cumulative IPC: 0.807199 (Simulation time: 4 hr 18 min 23 sec) 
Heartbeat CPU 2 instructions: 580000000 cycles: 1386390402 heartbeat IPC: 0.337704 cumulative IPC: 0.2872 (Simulation time: 4 hr 19 min 15 sec) 
Heartbeat CPU 1 instructions: 1760000000 cycles: 1388337989 heartbeat IPC: 1.11511 cumulative IPC: 1.14572 (Simulation time: 4 hr 19 min 34 sec) 
Heartbeat CPU 0 instructions: 1290000002 cycles: 1394040545 heartbeat IPC: 0.778211 cumulative IPC: 0.806897 (Simulation time: 4 hr 20 min 33 sec) 
Finished CPU 0 instructions: 1000000000 cycles: 1239223828 cumulative IPC: 0.806957 (Simulation time: 4 hr 21 min 11 sec) 
Heartbeat CPU 1 instructions: 1770000000 cycles: 1397353257 heartbeat IPC: 1.10923 cumulative IPC: 1.14546 (Simulation time: 4 hr 21 min 12 sec) 
Heartbeat CPU 3 instructions: 1110000001 cycles: 1398481320 heartbeat IPC: 0.567806 cumulative IPC: 0.733581 (Simulation time: 4 hr 21 min 27 sec) 
Heartbeat CPU 0 instructions: 1300000000 cycles: 1405713913 heartbeat IPC: 0.856651 cumulative IPC: 0.807363 (Simulation time: 4 hr 22 min 43 sec) 
Heartbeat CPU 1 instructions: 1780000000 cycles: 1406434705 heartbeat IPC: 1.10115 cumulative IPC: 1.14513 (Simulation time: 4 hr 22 min 51 sec) 
Heartbeat CPU 1 instructions: 1790000002 cycles: 1415478473 heartbeat IPC: 1.10573 cumulative IPC: 1.14485 (Simulation time: 4 hr 24 min 16 sec) 
Heartbeat CPU 2 instructions: 590000003 cycles: 1415801609 heartbeat IPC: 0.340007 cumulative IPC: 0.288435 (Simulation time: 4 hr 24 min 19 sec) 
Heartbeat CPU 3 instructions: 1120000000 cycles: 1416162875 heartbeat IPC: 0.565561 cumulative IPC: 0.731219 (Simulation time: 4 hr 24 min 23 sec) 
Heartbeat CPU 0 instructions: 1310000003 cycles: 1418661346 heartbeat IPC: 0.772354 cumulative IPC: 0.807003 (Simulation time: 4 hr 24 min 47 sec) 
Heartbeat CPU 1 instructions: 1800000000 cycles: 1424639764 heartbeat IPC: 1.09155 cumulative IPC: 1.14447 (Simulation time: 4 hr 25 min 42 sec) 
Heartbeat CPU 0 instructions: 1320000000 cycles: 1431591658 heartbeat IPC: 0.773376 cumulative IPC: 0.806662 (Simulation time: 4 hr 26 min 50 sec) 
Heartbeat CPU 3 instructions: 1130000002 cycles: 1433609532 heartbeat IPC: 0.573176 cumulative IPC: 0.729058 (Simulation time: 4 hr 27 min 9 sec) 
Heartbeat CPU 1 instructions: 1810000002 cycles: 1433698765 heartbeat IPC: 1.10387 cumulative IPC: 1.14418 (Simulation time: 4 hr 27 min 10 sec) 
Heartbeat CPU 1 instructions: 1820000000 cycles: 1442861307 heartbeat IPC: 1.0914 cumulative IPC: 1.1438 (Simulation time: 4 hr 28 min 39 sec) 
Heartbeat CPU 0 instructions: 1330000000 cycles: 1444400240 heartbeat IPC: 0.780727 cumulative IPC: 0.806404 (Simulation time: 4 hr 28 min 53 sec) 
Heartbeat CPU 2 instructions: 600000000 cycles: 1446398817 heartbeat IPC: 0.326827 cumulative IPC: 0.289347 (Simulation time: 4 hr 29 min 12 sec) 
Heartbeat CPU 3 instructions: 1140000000 cycles: 1451059401 heartbeat IPC: 0.57307 cumulative IPC: 0.726953 (Simulation time: 4 hr 29 min 57 sec) 
Heartbeat CPU 1 instructions: 1830000000 cycles: 1451908782 heartbeat IPC: 1.10528 cumulative IPC: 1.14353 (Simulation time: 4 hr 30 min 5 sec) 
Heartbeat CPU 0 instructions: 1340000000 cycles: 1457056622 heartbeat IPC: 0.790115 cumulative IPC: 0.806245 (Simulation time: 4 hr 30 min 55 sec) 
Heartbeat CPU 1 instructions: 1840000000 cycles: 1460995705 heartbeat IPC: 1.10048 cumulative IPC: 1.14323 (Simulation time: 4 hr 31 min 33 sec) 
Heartbeat CPU 3 instructions: 1150000003 cycles: 1468582301 heartbeat IPC: 0.570682 cumulative IPC: 0.724863 (Simulation time: 4 hr 32 min 44 sec) 
Heartbeat CPU 1 instructions: 1850000000 cycles: 1470042697 heartbeat IPC: 1.10534 cumulative IPC: 1.14297 (Simulation time: 4 hr 32 min 59 sec) 
Heartbeat CPU 0 instructions: 1350000003 cycles: 1470240188 heartbeat IPC: 0.75852 cumulative IPC: 0.805766 (Simulation time: 4 hr 33 min 1 sec) 
Heartbeat CPU 2 instructions: 610000000 cycles: 1475522640 heartbeat IPC: 0.343362 cumulative IPC: 0.290541 (Simulation time: 4 hr 33 min 52 sec) 
Heartbeat CPU 1 instructions: 1860000000 cycles: 1479062224 heartbeat IPC: 1.10871 cumulative IPC: 1.14274 (Simulation time: 4 hr 34 min 26 sec) 
Heartbeat CPU 0 instructions: 1360000000 cycles: 1483054792 heartbeat IPC: 0.780359 cumulative IPC: 0.80552 (Simulation time: 4 hr 35 min 4 sec) 
Heartbeat CPU 3 instructions: 1160000000 cycles: 1486131376 heartbeat IPC: 0.56983 cumulative IPC: 0.722815 (Simulation time: 4 hr 35 min 34 sec) 
Heartbeat CPU 1 instructions: 1870000001 cycles: 1488118737 heartbeat IPC: 1.10418 cumulative IPC: 1.14247 (Simulation time: 4 hr 35 min 53 sec) 
Heartbeat CPU 0 instructions: 1370000000 cycles: 1496828554 heartbeat IPC: 0.726018 cumulative IPC: 0.804702 (Simulation time: 4 hr 37 min 15 sec) 
Heartbeat CPU 1 instructions: 1880000000 cycles: 1497129778 heartbeat IPC: 1.10975 cumulative IPC: 1.14225 (Simulation time: 4 hr 37 min 17 sec) 
Heartbeat CPU 3 instructions: 1170000003 cycles: 1503611607 heartbeat IPC: 0.572075 cumulative IPC: 0.720857 (Simulation time: 4 hr 38 min 19 sec) 
Heartbeat CPU 2 instructions: 620000000 cycles: 1503614139 heartbeat IPC: 0.35598 cumulative IPC: 0.291907 (Simulation time: 4 hr 38 min 19 sec) 
Heartbeat CPU 1 instructions: 1890000001 cycles: 1506139577 heartbeat IPC: 1.1099 cumulative IPC: 1.14204 (Simulation time: 4 hr 38 min 44 sec) 
Heartbeat CPU 0 instructions: 1380000000 cycles: 1509191983 heartbeat IPC: 0.808837 cumulative IPC: 0.80474 (Simulation time: 4 hr 39 min 15 sec) 
Heartbeat CPU 1 instructions: 1900000000 cycles: 1515185764 heartbeat IPC: 1.10544 cumulative IPC: 1.14179 (Simulation time: 4 hr 40 min 14 sec) 
Heartbeat CPU 3 instructions: 1180000000 cycles: 1520788713 heartbeat IPC: 0.58217 cumulative IPC: 0.719109 (Simulation time: 4 hr 41 min 8 sec) 
Heartbeat CPU 0 instructions: 1390000002 cycles: 1521927267 heartbeat IPC: 0.78522 cumulative IPC: 0.804558 (Simulation time: 4 hr 41 min 19 sec) 
Heartbeat CPU 1 instructions: 1910000000 cycles: 1524273733 heartbeat IPC: 1.10036 cumulative IPC: 1.14152 (Simulation time: 4 hr 41 min 39 sec) 
Heartbeat CPU 2 instructions: 630000002 cycles: 1531306154 heartbeat IPC: 0.361115 cumulative IPC: 0.293302 (Simulation time: 4 hr 42 min 39 sec) 
Heartbeat CPU 0 instructions: 1400000000 cycles: 1533409709 heartbeat IPC: 0.870895 cumulative IPC: 0.805111 (Simulation time: 4 hr 42 min 56 sec) 
Heartbeat CPU 1 instructions: 1920000000 cycles: 1533445941 heartbeat IPC: 1.09025 cumulative IPC: 1.14118 (Simulation time: 4 hr 42 min 56 sec) 
Heartbeat CPU 1 instructions: 1930000000 cycles: 1542528256 heartbeat IPC: 1.10104 cumulative IPC: 1.14091 (Simulation time: 4 hr 44 min 15 sec) 
Heartbeat CPU 0 instructions: 1410000000 cycles: 1547117184 heartbeat IPC: 0.729529 cumulative IPC: 0.804366 (Simulation time: 4 hr 44 min 59 sec) 
Heartbeat CPU 3 instructions: 1190000000 cycles: 1548206269 heartbeat IPC: 0.36473 cumulative IPC: 0.71212 (Simulation time: 4 hr 45 min 9 sec) 
Heartbeat CPU 1 instructions: 1940000000 cycles: 1551695943 heartbeat IPC: 1.09079 cumulative IPC: 1.14058 (Simulation time: 4 hr 45 min 43 sec) 
Heartbeat CPU 0 instructions: 1420000000 cycles: 1559691214 heartbeat IPC: 0.79529 cumulative IPC: 0.804284 (Simulation time: 4 hr 47 min 3 sec) 
Heartbeat CPU 2 instructions: 640000000 cycles: 1559932142 heartbeat IPC: 0.349333 cumulative IPC: 0.294446 (Simulation time: 4 hr 47 min 5 sec) 
Heartbeat CPU 1 instructions: 1950000001 cycles: 1560763949 heartbeat IPC: 1.10278 cumulative IPC: 1.14034 (Simulation time: 4 hr 47 min 13 sec) 
Heartbeat CPU 3 instructions: 1200000000 cycles: 1565379389 heartbeat IPC: 0.582305 cumulative IPC: 0.710536 (Simulation time: 4 hr 47 min 57 sec) 
Finished CPU 3 instructions: 1000000000 cycles: 1407389041 cumulative IPC: 0.710536 (Simulation time: 4 hr 47 min 57 sec) 
Heartbeat CPU 1 instructions: 1960000000 cycles: 1569930833 heartbeat IPC: 1.09088 cumulative IPC: 1.14002 (Simulation time: 4 hr 48 min 40 sec) 
Heartbeat CPU 0 instructions: 1430000000 cycles: 1572834994 heartbeat IPC: 0.760816 cumulative IPC: 0.80388 (Simulation time: 4 hr 49 min 8 sec) 
Heartbeat CPU 1 instructions: 1970000003 cycles: 1578999973 heartbeat IPC: 1.10264 cumulative IPC: 1.13978 (Simulation time: 4 hr 50 min 9 sec) 
Heartbeat CPU 3 instructions: 1210000001 cycles: 1582943749 heartbeat IPC: 0.569335 cumulative IPC: 0.708795 (Simulation time: 4 hr 50 min 44 sec) 
Heartbeat CPU 0 instructions: 1440000000 cycles: 1585963032 heartbeat IPC: 0.761728 cumulative IPC: 0.803493 (Simulation time: 4 hr 51 min 11 sec) 
Heartbeat CPU 2 instructions: 650000002 cycles: 1587725898 heartbeat IPC: 0.359793 cumulative IPC: 0.295717 (Simulation time: 4 hr 51 min 28 sec) 
Heartbeat CPU 1 instructions: 1980000000 cycles: 1588077852 heartbeat IPC: 1.10158 cumulative IPC: 1.13954 (Simulation time: 4 hr 51 min 31 sec) 
Heartbeat CPU 1 instructions: 1990000001 cycles: 1597156697 heartbeat IPC: 1.10146 cumulative IPC: 1.1393 (Simulation time: 4 hr 52 min 55 sec) 
Heartbeat CPU 0 instructions: 1450000003 cycles: 1598300987 heartbeat IPC: 0.810507 cumulative IPC: 0.803553 (Simulation time: 4 hr 53 min 7 sec) 
Heartbeat CPU 3 instructions: 1220000000 cycles: 1600557701 heartbeat IPC: 0.567732 cumulative IPC: 0.707073 (Simulation time: 4 hr 53 min 30 sec) 
*** Reached end of trace for Core: 1 Repeating trace: /scratch/user/djimenez/champsim-traces/speccpu2006/xz//444.namd-23B.champsimtrace.xz
Heartbeat CPU 1 instructions: 2000000000 cycles: 1606214791 heartbeat IPC: 1.10398 cumulative IPC: 1.13908 (Simulation time: 4 hr 54 min 25 sec) 
Heartbeat CPU 0 instructions: 1460000000 cycles: 1608141639 heartbeat IPC: 1.01619 cumulative IPC: 0.804996 (Simulation time: 4 hr 54 min 42 sec) 
Heartbeat CPU 1 instructions: 2010000003 cycles: 1614993984 heartbeat IPC: 1.13906 cumulative IPC: 1.13908 (Simulation time: 4 hr 55 min 47 sec) 
Heartbeat CPU 2 instructions: 660000000 cycles: 1616801229 heartbeat IPC: 0.343934 cumulative IPC: 0.296678 (Simulation time: 4 hr 56 min 4 sec) 
Heartbeat CPU 3 instructions: 1230000000 cycles: 1618300292 heartbeat IPC: 0.563616 cumulative IPC: 0.70533 (Simulation time: 4 hr 56 min 18 sec) 
Heartbeat CPU 0 instructions: 1470000000 cycles: 1618772148 heartbeat IPC: 0.940689 cumulative IPC: 0.805983 (Simulation time: 4 hr 56 min 23 sec) 
Heartbeat CPU 1 instructions: 2020000000 cycles: 1622824076 heartbeat IPC: 1.27712 cumulative IPC: 1.13981 (Simulation time: 4 hr 57 min 4 sec) 
Heartbeat CPU 1 instructions: 2030000002 cycles: 1630628038 heartbeat IPC: 1.2814 cumulative IPC: 1.14056 (Simulation time: 4 hr 58 min 21 sec) 
Heartbeat CPU 0 instructions: 1480000000 cycles: 1634845239 heartbeat IPC: 0.622158 cumulative IPC: 0.803983 (Simulation time: 4 hr 59 min 2 sec) 
[...]
Heartbeat CPU 0 instructions: 3070000003 cycles: 3581344490 heartbeat IPC: 0.741584 cumulative IPC: 0.8113 (Simulation time: 9 hr 49 min 5 sec) 
Heartbeat CPU 1 instructions: 4300000000 cycles: 3581437558 heartbeat IPC: 1.13666 cumulative IPC: 1.1537 (Simulation time: 9 hr 49 min 6 sec) 
Heartbeat CPU 3 instructions: 2550000000 cycles: 3581481465 heartbeat IPC: 0.607999 cumulative IPC: 0.686434 (Simulation time: 9 hr 49 min 6 sec) 
Heartbeat CPU 1 instructions: 4310000000 cycles: 3588629569 heartbeat IPC: 1.39043 cumulative IPC: 1.1542 (Simulation time: 9 hr 49 min 59 sec) 
Heartbeat CPU 2 instructions: 1200000000 cycles: 3593326200 heartbeat IPC: 0.206749 cumulative IPC: 0.283174 (Simulation time: 9 hr 50 min 32 sec) 
Heartbeat CPU 0 instructions: 3080000000 cycles: 3594542630 heartbeat IPC: 0.757682 cumulative IPC: 0.811094 (Simulation time: 9 hr 50 min 41 sec) 
Heartbeat CPU 1 instructions: 4320000000 cycles: 3597151421 heartbeat IPC: 1.17345 cumulative IPC: 1.15425 (Simulation time: 9 hr 51 min 0 sec) 
Heartbeat CPU 1 instructions: 4330000001 cycles: 3604791736 heartbeat IPC: 1.30885 cumulative IPC: 1.15459 (Simulation time: 9 hr 51 min 58 sec) 
Heartbeat CPU 0 instructions: 3090000000 cycles: 3606453082 heartbeat IPC: 0.839599 cumulative IPC: 0.811192 (Simulation time: 9 hr 52 min 11 sec) 
Heartbeat CPU 3 instructions: 2560000000 cycles: 3609503442 heartbeat IPC: 0.356863 cumulative IPC: 0.683758 (Simulation time: 9 hr 52 min 35 sec) 
Heartbeat CPU 1 instructions: 4340000000 cycles: 3613418179 heartbeat IPC: 1.15923 cumulative IPC: 1.1546 (Simulation time: 9 hr 53 min 3 sec) 
Heartbeat CPU 0 instructions: 3100000000 cycles: 3618712908 heartbeat IPC: 0.815672 cumulative IPC: 0.811208 (Simulation time: 9 hr 53 min 42 sec) 
Heartbeat CPU 1 instructions: 4350000000 cycles: 3621272818 heartbeat IPC: 1.27313 cumulative IPC: 1.15487 (Simulation time: 9 hr 54 min 0 sec) 
Heartbeat CPU 1 instructions: 4360000000 cycles: 3629375863 heartbeat IPC: 1.2341 cumulative IPC: 1.15505 (Simulation time: 9 hr 55 min 1 sec) 
Heartbeat CPU 0 instructions: 3110000000 cycles: 3631724791 heartbeat IPC: 0.768528 cumulative IPC: 0.811048 (Simulation time: 9 hr 55 min 17 sec) 
Heartbeat CPU 1 instructions: 4370000002 cycles: 3636513932 heartbeat IPC: 1.40094 cumulative IPC: 1.15556 (Simulation time: 9 hr 55 min 53 sec) 
Heartbeat CPU 3 instructions: 2570000000 cycles: 3637673932 heartbeat IPC: 0.354981 cumulative IPC: 0.681096 (Simulation time: 9 hr 56 min 1 sec) 
Heartbeat CPU 2 instructions: 1210000000 cycles: 3641755250 heartbeat IPC: 0.206488 cumulative IPC: 0.282108 (Simulation time: 9 hr 56 min 31 sec) 
Heartbeat CPU 0 instructions: 3120000000 cycles: 3644711111 heartbeat IPC: 0.770041 cumulative IPC: 0.810895 (Simulation time: 9 hr 56 min 53 sec) 
Heartbeat CPU 1 instructions: 4380000000 cycles: 3645046733 heartbeat IPC: 1.17195 cumulative IPC: 1.1556 (Simulation time: 9 hr 56 min 55 sec) 
Heartbeat CPU 1 instructions: 4390000001 cycles: 3652993001 heartbeat IPC: 1.25845 cumulative IPC: 1.15583 (Simulation time: 9 hr 58 min 2 sec) 
Heartbeat CPU 3 instructions: 2580000000 cycles: 3656246836 heartbeat IPC: 0.538419 cumulative IPC: 0.680339 (Simulation time: 9 hr 58 min 28 sec) 
Heartbeat CPU 0 instructions: 3130000000 cycles: 3657459425 heartbeat IPC: 0.784417 cumulative IPC: 0.810799 (Simulation time: 9 hr 58 min 39 sec) 
Heartbeat CPU 1 instructions: 4400000000 cycles: 3661133510 heartbeat IPC: 1.22842 cumulative IPC: 1.156 (Simulation time: 9 hr 59 min 9 sec) 
Heartbeat CPU 0 instructions: 3140000000 cycles: 3668462855 heartbeat IPC: 0.908808 cumulative IPC: 0.811106 (Simulation time: 10 hr 0 min 15 sec) 
Heartbeat CPU 1 instructions: 4410000002 cycles: 3669753421 heartbeat IPC: 1.1601 cumulative IPC: 1.15601 (Simulation time: 10 hr 0 min 26 sec) 
Heartbeat CPU 3 instructions: 2590000001 cycles: 3672031380 heartbeat IPC: 0.633531 cumulative IPC: 0.680129 (Simulation time: 10 hr 0 min 45 sec) 
Heartbeat CPU 1 instructions: 4420000000 cycles: 3678656931 heartbeat IPC: 1.12315 cumulative IPC: 1.15593 (Simulation time: 10 hr 1 min 41 sec) 
Heartbeat CPU 0 instructions: 3150000001 cycles: 3678883418 heartbeat IPC: 0.959641 cumulative IPC: 0.811546 (Simulation time: 10 hr 1 min 43 sec) 
Heartbeat CPU 3 instructions: 2600000000 cycles: 3687337755 heartbeat IPC: 0.653323 cumulative IPC: 0.680012 (Simulation time: 10 hr 2 min 56 sec) 
Heartbeat CPU 1 instructions: 4430000000 cycles: 3687526762 heartbeat IPC: 1.12742 cumulative IPC: 1.15586 (Simulation time: 10 hr 2 min 57 sec) 
Heartbeat CPU 0 instructions: 3160000000 cycles: 3689448134 heartbeat IPC: 0.946547 cumulative IPC: 0.81195 (Simulation time: 10 hr 3 min 14 sec) 
Heartbeat CPU 2 instructions: 1220000000 cycles: 3689843698 heartbeat IPC: 0.20795 cumulative IPC: 0.281098 (Simulation time: 10 hr 3 min 17 sec) 
Heartbeat CPU 1 instructions: 4440000000 cycles: 3696110630 heartbeat IPC: 1.16498 cumulative IPC: 1.15588 (Simulation time: 10 hr 4 min 12 sec) 
Heartbeat CPU 3 instructions: 2610000001 cycles: 3700865422 heartbeat IPC: 0.739226 cumulative IPC: 0.680238 (Simulation time: 10 hr 4 min 53 sec) 
Heartbeat CPU 1 instructions: 4450000003 cycles: 3704555921 heartbeat IPC: 1.18409 cumulative IPC: 1.15595 (Simulation time: 10 hr 5 min 25 sec) 
Heartbeat CPU 0 instructions: 3170000000 cycles: 3708814093 heartbeat IPC: 0.51637 cumulative IPC: 0.810338 (Simulation time: 10 hr 6 min 3 sec) 
Heartbeat CPU 1 instructions: 4460000000 cycles: 3713283722 heartbeat IPC: 1.14576 cumulative IPC: 1.15592 (Simulation time: 10 hr 6 min 42 sec) 
Heartbeat CPU 3 instructions: 2620000000 cycles: 3714328720 heartbeat IPC: 0.74276 cumulative IPC: 0.680475 (Simulation time: 10 hr 6 min 51 sec) 
Heartbeat CPU 1 instructions: 4470000000 cycles: 3721766832 heartbeat IPC: 1.17881 cumulative IPC: 1.15597 (Simulation time: 10 hr 7 min 56 sec) 
Finished CPU 2 instructions: 1000000001 cycles: 3565817416 cumulative IPC: 0.280441 (Simulation time: 10 hr 8 min 14 sec) 

CPU 0 Branch Prediction Accuracy: 92.7744% MPKI: 9.60088

CPU 1 Branch Prediction Accuracy: 95.9069% MPKI: 1.5645

CPU 2 Branch Prediction Accuracy: 75.3728% MPKI: 45.2674

CPU 3 Branch Prediction Accuracy: 99.7162% MPKI: 0.0491666

ChampSim completed all CPUs

Total Simulation Statistics (not including warmup)

CPU 0 cumulative IPC: 0.809088 instructions: 2885061072 cycles: 3565817416
L1D TOTAL     ACCESS:  846283114  HIT:  803246468  MISS:   43036646
L1D LOAD      ACCESS:  535794721  HIT:  501033920  MISS:   34760801
L1D RFO       ACCESS:  310488393  HIT:  302212548  MISS:    8275845
L1D PREFETCH  ACCESS:          0  HIT:          0  MISS:          0
L1D WRITEBACK ACCESS:          0  HIT:          0  MISS:          0
L1I TOTAL     ACCESS:  670626441  HIT:  670626441  MISS:          0
L1I LOAD      ACCESS:  670626441  HIT:  670626441  MISS:          0
L1I RFO       ACCESS:          0  HIT:          0  MISS:          0
L1I PREFETCH  ACCESS:          0  HIT:          0  MISS:          0
L1I WRITEBACK ACCESS:          0  HIT:          0  MISS:          0
L2C TOTAL     ACCESS:   61933379  HIT:   40209282  MISS:   21724097
L2C LOAD      ACCESS:   34750444  HIT:   19833169  MISS:   14917275
L2C RFO       ACCESS:    8272971  HIT:    2627759  MISS:    5645212
L2C PREFETCH  ACCESS:    6865136  HIT:    5711270  MISS:    1153866
L2C WRITEBACK ACCESS:   12044828  HIT:   12037084  MISS:       7744
LLC TOTAL     ACCESS:   42447259  HIT:   38235656  MISS:    4211603
LLC LOAD      ACCESS:   14853251  HIT:   14140655  MISS:     712596
LLC RFO       ACCESS:    5644862  HIT:    3590228  MISS:    2054634
LLC PREFETCH  ACCESS:   15360358  HIT:   13934010  MISS:    1426348
LLC WRITEBACK ACCESS:    6588788  HIT:    6570763  MISS:      18025

CPU 1 cumulative IPC: 1.15599 instructions: 4122032460 cycles: 3565817416
L1D TOTAL     ACCESS:  994080341  HIT:  961504997  MISS:   32575344
L1D LOAD      ACCESS:  680686131  HIT:  649565702  MISS:   31120429
L1D RFO       ACCESS:  313394210  HIT:  311939295  MISS:    1454915
L1D PREFETCH  ACCESS:          0  HIT:          0  MISS:          0
L1D WRITEBACK ACCESS:          0  HIT:          0  MISS:          0
L1I TOTAL     ACCESS: 1022529429  HIT: 1022528974  MISS:        455
L1I LOAD      ACCESS: 1022529429  HIT: 1022528974  MISS:        455
L1I RFO       ACCESS:          0  HIT:          0  MISS:          0
L1I PREFETCH  ACCESS:          0  HIT:          0  MISS:          0
L1I WRITEBACK ACCESS:          0  HIT:          0  MISS:          0
L2C TOTAL     ACCESS:   73386838  HIT:   72205671  MISS:    1181167
L2C LOAD      ACCESS:   31119933  HIT:   30475178  MISS:     644755
L2C RFO       ACCESS:    1454555  HIT:    1136461  MISS:     318094
L2C PREFETCH  ACCESS:   32227721  HIT:   32009521  MISS:     218200
L2C WRITEBACK ACCESS:    8584629  HIT:    8584511  MISS:        118
LLC TOTAL     ACCESS:    4542802  HIT:    3281058  MISS:    1261744
LLC LOAD      ACCESS:     572229  HIT:     338060  MISS:     234169
LLC RFO       ACCESS:     318094  HIT:      38197  MISS:     279897
LLC PREFETCH  ACCESS:    3167754  HIT:    2525737  MISS:     642017
LLC WRITEBACK ACCESS:     484725  HIT:     379064  MISS:     105661

CPU 2 cumulative IPC: 0.280441 instructions: 1000000001 cycles: 3565817416
L1D TOTAL     ACCESS:  270346760  HIT:  240681289  MISS:   29665471
L1D LOAD      ACCESS:  227891345  HIT:  198684758  MISS:   29206587
L1D RFO       ACCESS:   42455415  HIT:   41996531  MISS:     458884
L1D PREFETCH  ACCESS:          0  HIT:          0  MISS:          0
L1D WRITEBACK ACCESS:          0  HIT:          0  MISS:          0
L1I TOTAL     ACCESS:  246559701  HIT:  246559691  MISS:         10
L1I LOAD      ACCESS:  246559701  HIT:  246559691  MISS:         10
L1I RFO       ACCESS:          0  HIT:          0  MISS:          0
L1I PREFETCH  ACCESS:          0  HIT:          0  MISS:          0
L1I WRITEBACK ACCESS:          0  HIT:          0  MISS:          0
L2C TOTAL     ACCESS:   44026487  HIT:   22405517  MISS:   21620970
L2C LOAD      ACCESS:   29205807  HIT:    8197539  MISS:   21008268
L2C RFO       ACCESS:     458707  HIT:     270893  MISS:     187814
L2C PREFETCH  ACCESS:    4669865  HIT:    4252051  MISS:     417814
L2C WRITEBACK ACCESS:    9692108  HIT:    9685034  MISS:       7074
LLC TOTAL     ACCESS:   41988969  HIT:   38089756  MISS:    3899213
LLC LOAD      ACCESS:   21007078  HIT:   19785676  MISS:    1221402
LLC RFO       ACCESS:     187797  HIT:     185614  MISS:       2183
LLC PREFETCH  ACCESS:   13628513  HIT:   11111279  MISS:    2517234
LLC WRITEBACK ACCESS:    7165581  HIT:    7007187  MISS:     158394

CPU 3 cumulative IPC: 0.680702 instructions: 2427259391 cycles: 3565817416
L1D TOTAL     ACCESS: 1145365682  HIT: 1098633351  MISS:   46732331
L1D LOAD      ACCESS: 1000299416  HIT:  954084018  MISS:   46215398
L1D RFO       ACCESS:  145066266  HIT:  144549333  MISS:     516933
L1D PREFETCH  ACCESS:          0  HIT:          0  MISS:          0
L1D WRITEBACK ACCESS:          0  HIT:          0  MISS:          0
L1I TOTAL     ACCESS:  620433850  HIT:  620431949  MISS:       1901
L1I LOAD      ACCESS:  620433850  HIT:  620431949  MISS:       1901
L1I RFO       ACCESS:          0  HIT:          0  MISS:          0
L1I PREFETCH  ACCESS:          0  HIT:          0  MISS:          0
L1I WRITEBACK ACCESS:          0  HIT:          0  MISS:          0
L2C TOTAL     ACCESS:   95845589  HIT:   66982180  MISS:   28863409
L2C LOAD      ACCESS:   46215876  HIT:   28615754  MISS:   17600122
L2C RFO       ACCESS:     516768  HIT:      18866  MISS:     497902
L2C PREFETCH  ACCESS:   35439211  HIT:   24676753  MISS:   10762458
L2C WRITEBACK ACCESS:   13673734  HIT:   13670807  MISS:       2927
LLC TOTAL     ACCESS:  114332463  HIT:   89800143  MISS:   24532320
LLC LOAD      ACCESS:   17473151  HIT:   13162105  MISS:    4311046
LLC RFO       ACCESS:     497902  HIT:     445436  MISS:      52466
LLC PREFETCH  ACCESS:   85762029  HIT:   65598285  MISS:   20163744
LLC WRITEBACK ACCESS:   10599381  HIT:   10594317  MISS:       5064

Region of Interest Statistics

CPU 0 cumulative IPC: 0.806957 instructions: 1000000000 cycles: 1239223828
L1D TOTAL     ACCESS:  292935264  HIT:  278242516  MISS:   14692748
L1D LOAD      ACCESS:  184458005  HIT:  172660606  MISS:   11797399
L1D RFO       ACCESS:  108477259  HIT:  105581910  MISS:    2895349
L1D PREFETCH  ACCESS:          0  HIT:          0  MISS:          0
L1D WRITEBACK ACCESS:          0  HIT:          0  MISS:          0
L1D PREFETCH  REQUESTED:          0  ISSUED:          0  USEFUL:          0  USELESS:          0
L1I TOTAL     ACCESS:  233237810  HIT:  233237810  MISS:          0
L1I LOAD      ACCESS:  233237810  HIT:  233237810  MISS:          0
L1I RFO       ACCESS:          0  HIT:          0  MISS:          0
L1I PREFETCH  ACCESS:          0  HIT:          0  MISS:          0
L1I WRITEBACK ACCESS:          0  HIT:          0  MISS:          0
L1I PREFETCH  REQUESTED:          0  ISSUED:          0  USEFUL:          0  USELESS:          0
L2C TOTAL     ACCESS:   21509574  HIT:   14185626  MISS:    7323948
L2C LOAD      ACCESS:   11793186  HIT:    6787112  MISS:    5006074
L2C RFO       ACCESS:    2894247  HIT:     978143  MISS:    1916104
L2C PREFETCH  ACCESS:    2491919  HIT:    2092949  MISS:     398970
L2C WRITEBACK ACCESS:    4330222  HIT:    4327422  MISS:       2800
L2C PREFETCH  REQUESTED:   25884403  ISSUED:   25884315  USEFUL:    1169695  USELESS:     119005
LLC TOTAL     ACCESS:   14546084  HIT:   12697269  MISS:    1848815
LLC LOAD      ACCESS:    4983280  HIT:    4614371  MISS:     368909
LLC RFO       ACCESS:    1916002  HIT:    1061785  MISS:     854217
LLC PREFETCH  ACCESS:    5387556  HIT:    4767508  MISS:     620048
LLC WRITEBACK ACCESS:    2259246  HIT:    2253605  MISS:       5641
LLC PREFETCH  REQUESTED:          0  ISSUED:          0  USEFUL:   13430459  USELESS:   13149868
Major fault: 0 Minor fault: 3032

CPU 1 cumulative IPC: 1.1686 instructions: 1000000001 cycles: 855727154
L1D TOTAL     ACCESS:  239259574  HIT:  231652164  MISS:    7607410
L1D LOAD      ACCESS:  158594005  HIT:  151241925  MISS:    7352080
L1D RFO       ACCESS:   80665569  HIT:   80410239  MISS:     255330
L1D PREFETCH  ACCESS:          0  HIT:          0  MISS:          0
L1D WRITEBACK ACCESS:          0  HIT:          0  MISS:          0
L1D PREFETCH  REQUESTED:          0  ISSUED:          0  USEFUL:          0  USELESS:          0
L1I TOTAL     ACCESS:  246898000  HIT:  246898000  MISS:          0
L1I LOAD      ACCESS:  246898000  HIT:  246898000  MISS:          0
L1I RFO       ACCESS:          0  HIT:          0  MISS:          0
L1I PREFETCH  ACCESS:          0  HIT:          0  MISS:          0
L1I WRITEBACK ACCESS:          0  HIT:          0  MISS:          0
L1I PREFETCH  REQUESTED:          0  ISSUED:          0  USEFUL:          0  USELESS:          0
L2C TOTAL     ACCESS:   17014598  HIT:   16878541  MISS:     136057
L2C LOAD      ACCESS:    7351875  HIT:    7229115  MISS:     122760
L2C RFO       ACCESS:     255254  HIT:     254351  MISS:        903
L2C PREFETCH  ACCESS:    7259128  HIT:    7246777  MISS:      12351
L2C WRITEBACK ACCESS:    2148341  HIT:    2148298  MISS:         43
L2C PREFETCH  REQUESTED:   42590383  ISSUED:   42590383  USEFUL:     224514  USELESS:      13871
LLC TOTAL     ACCESS:     647051  HIT:     476404  MISS:     170647
LLC LOAD      ACCESS:     116443  HIT:      61789  MISS:      54654
LLC RFO       ACCESS:        903  HIT:        812  MISS:         91
LLC PREFETCH  ACCESS:     479259  HIT:     393494  MISS:      85765
LLC WRITEBACK ACCESS:      50446  HIT:      20309  MISS:      30137
LLC PREFETCH  REQUESTED:          0  ISSUED:          0  USEFUL:   13430459  USELESS:   13149868
Major fault: 0 Minor fault: 3862

CPU 2 cumulative IPC: 0.280441 instructions: 1000000001 cycles: 3565817416
L1D TOTAL     ACCESS:  270346760  HIT:  240681289  MISS:   29665471
L1D LOAD      ACCESS:  227891345  HIT:  198684758  MISS:   29206587
L1D RFO       ACCESS:   42455415  HIT:   41996531  MISS:     458884
L1D PREFETCH  ACCESS:          0  HIT:          0  MISS:          0
L1D WRITEBACK ACCESS:          0  HIT:          0  MISS:          0
L1D PREFETCH  REQUESTED:          0  ISSUED:          0  USEFUL:          0  USELESS:          0
L1I TOTAL     ACCESS:  246559701  HIT:  246559691  MISS:         10
L1I LOAD      ACCESS:  246559701  HIT:  246559691  MISS:         10
L1I RFO       ACCESS:          0  HIT:          0  MISS:          0
L1I PREFETCH  ACCESS:          0  HIT:          0  MISS:          0
L1I WRITEBACK ACCESS:          0  HIT:          0  MISS:          0
L1I PREFETCH  REQUESTED:          0  ISSUED:          0  USEFUL:          0  USELESS:          0
L2C TOTAL     ACCESS:   44026487  HIT:   22405517  MISS:   21620970
L2C LOAD      ACCESS:   29205807  HIT:    8197539  MISS:   21008268
L2C RFO       ACCESS:     458707  HIT:     270893  MISS:     187814
L2C PREFETCH  ACCESS:    4669865  HIT:    4252051  MISS:     417814
L2C WRITEBACK ACCESS:    9692108  HIT:    9685034  MISS:       7074
L2C PREFETCH  REQUESTED:   22229469  ISSUED:   22229468  USEFUL:     132349  USELESS:     380151
LLC TOTAL     ACCESS:   41988969  HIT:   38089756  MISS:    3899213
LLC LOAD      ACCESS:   21007078  HIT:   19785676  MISS:    1221402
LLC RFO       ACCESS:     187797  HIT:     185614  MISS:       2183
LLC PREFETCH  ACCESS:   13628513  HIT:   11111279  MISS:    2517234
LLC WRITEBACK ACCESS:    7165581  HIT:    7007187  MISS:     158394
LLC PREFETCH  REQUESTED:          0  ISSUED:          0  USEFUL:   13430459  USELESS:   13149868
Major fault: 0 Minor fault: 6234

CPU 3 cumulative IPC: 0.710536 instructions: 1000000000 cycles: 1407389041
L1D TOTAL     ACCESS:  418327882  HIT:  394859545  MISS:   23468337
L1D LOAD      ACCESS:  358164594  HIT:  334871716  MISS:   23292878
L1D RFO       ACCESS:   60163288  HIT:   59987829  MISS:     175459
L1D PREFETCH  ACCESS:          0  HIT:          0  MISS:          0
L1D WRITEBACK ACCESS:          0  HIT:          0  MISS:          0
L1D PREFETCH  REQUESTED:          0  ISSUED:          0  USEFUL:          0  USELESS:          0
L1I TOTAL     ACCESS:  236030053  HIT:  236029325  MISS:        728
L1I LOAD      ACCESS:  236030053  HIT:  236029325  MISS:        728
L1I RFO       ACCESS:          0  HIT:          0  MISS:          0
L1I PREFETCH  ACCESS:          0  HIT:          0  MISS:          0
L1I WRITEBACK ACCESS:          0  HIT:          0  MISS:          0
L1I PREFETCH  REQUESTED:          0  ISSUED:          0  USEFUL:          0  USELESS:          0
L2C TOTAL     ACCESS:   47152668  HIT:   31963395  MISS:   15189273
L2C LOAD      ACCESS:   23293310  HIT:   14372484  MISS:    8920826
L2C RFO       ACCESS:     175432  HIT:       6135  MISS:     169297
L2C PREFETCH  ACCESS:   17061206  HIT:   10963667  MISS:    6097539
L2C WRITEBACK ACCESS:    6622720  HIT:    6621109  MISS:       1611
L2C PREFETCH  REQUESTED:  118874080  ISSUED:  118715700  USEFUL:   10785392  USELESS:     572567
LLC TOTAL     ACCESS:   61109471  HIT:   48472543  MISS:   12636928
LLC LOAD      ACCESS:    8855801  HIT:    6746946  MISS:    2108855
LLC RFO       ACCESS:     169297  HIT:     148999  MISS:      20298
LLC PREFETCH  ACCESS:   46984053  HIT:   36478814  MISS:   10505239
LLC WRITEBACK ACCESS:    5100320  HIT:    5097784  MISS:       2536
LLC PREFETCH  REQUESTED:          0  ISSUED:          0  USEFUL:   13430459  USELESS:   13149868
Major fault: 0 Minor fault: 191124

DRAM Statistics
 CHANNEL 0
 RQ ROW_BUFFER_HIT:    5577964  ROW_BUFFER_MISS:   11203273
 DBUS_CONGESTED:   22309374
 WQ ROW_BUFFER_HIT:     708252  ROW_BUFFER_MISS:    6515544  FULL:          0

 CHANNEL 1
 RQ ROW_BUFFER_HIT:    5597837  ROW_BUFFER_MISS:   11234400
 DBUS_CONGESTED:   22309374
 WQ ROW_BUFFER_HIT:     709896  ROW_BUFFER_MISS:    6508212  FULL:          0

 AVG_CONGESTED_CYCLE: 13
