Initialize SIGNATURE TABLE
ST_SET: 1
ST_WAY: 256
ST_TAG_BIT: 16
ST_TAG_MASK: ffff

Initialize PATTERN TABLE
PT_SET: 512
PT_WAY: 4
SIG_DELTA_BIT: 7
C_SIG_BIT: 4
C_DELTA_BIT: 4

Initialize PREFETCH FILTER
FILTER_SET: 1024

*** ChampSim Multicore Out-of-Order Simulator ***

Warmup Instructions: 200000000
Simulation Instructions: 1000000000
Number of CPUs: 4
LLC sets: 8192
LLC ways: 16
Off-chip DRAM Size: 8192 MB Channels: 2 Width: 64-bit Data Rate: 1600 MT/s

CPU 0 runs /scratch/user/djimenez/champsim-traces/speccpu2006/xz//403.gcc-17B.champsimtrace.xz
CPU 1 runs /scratch/user/djimenez/champsim-traces/speccpu2006/xz//444.namd-23B.champsimtrace.xz
CPU 2 runs /scratch/user/djimenez/champsim-traces/speccpu2006/xz//416.gamess-875B.champsimtrace.xz
CPU 3 runs /scratch/user/djimenez/champsim-traces/speccpu2006/xz//401.bzip2-277B.champsimtrace.xz
Heartbeat CPU 3 instructions: 10000001 cycles: 3341012 heartbeat IPC: 2.99311 cumulative IPC: 2.99311 (Simulation time: 0 hr 1 min 8 sec) 
Heartbeat CPU 1 instructions: 10000002 cycles: 4664539 heartbeat IPC: 2.14384 cumulative IPC: 2.14384 (Simulation time: 0 hr 1 min 38 sec) 
Heartbeat CPU 2 instructions: 10000003 cycles: 5489016 heartbeat IPC: 1.82182 cumulative IPC: 1.82182 (Simulation time: 0 hr 1 min 56 sec) 
Heartbeat CPU 0 instructions: 10000002 cycles: 5901091 heartbeat IPC: 1.6946 cumulative IPC: 1.6946 (Simulation time: 0 hr 2 min 5 sec) 
Heartbeat CPU 3 instructions: 20000000 cycles: 6933186 heartbeat IPC: 2.78383 cumulative IPC: 2.88468 (Simulation time: 0 hr 2 min 24 sec) 
Heartbeat CPU 1 instructions: 20000000 cycles: 9076376 heartbeat IPC: 2.26663 cumulative IPC: 2.20352 (Simulation time: 0 hr 3 min 8 sec) 
Heartbeat CPU 2 instructions: 20000000 cycles: 10706122 heartbeat IPC: 1.91677 cumulative IPC: 1.86809 (Simulation time: 0 hr 3 min 38 sec) 
Heartbeat CPU 3 instructions: 30000002 cycles: 11891403 heartbeat IPC: 2.01685 cumulative IPC: 2.52283 (Simulation time: 0 hr 3 min 59 sec) 
Heartbeat CPU 0 instructions: 20000000 cycles: 12488562 heartbeat IPC: 1.51803 cumulative IPC: 1.60147 (Simulation time: 0 hr 4 min 10 sec) 
Heartbeat CPU 1 instructions: 30000000 cycles: 13466465 heartbeat IPC: 2.27786 cumulative IPC: 2.22776 (Simulation time: 0 hr 4 min 28 sec) 
Heartbeat CPU 2 instructions: 30000001 cycles: 16053632 heartbeat IPC: 1.87003 cumulative IPC: 1.86874 (Simulation time: 0 hr 5 min 17 sec) 
Heartbeat CPU 3 instructions: 40000000 cycles: 16844778 heartbeat IPC: 2.01883 cumulative IPC: 2.37462 (Simulation time: 0 hr 5 min 32 sec) 
Heartbeat CPU 1 instructions: 40000000 cycles: 18099586 heartbeat IPC: 2.15837 cumulative IPC: 2.21 (Simulation time: 0 hr 5 min 56 sec) 
Heartbeat CPU 2 instructions: 40000000 cycles: 21162049 heartbeat IPC: 1.95755 cumulative IPC: 1.89018 (Simulation time: 0 hr 7 min 8 sec) 
Heartbeat CPU 0 instructions: 30000000 cycles: 21469642 heartbeat IPC: 1.11345 cumulative IPC: 1.39732 (Simulation time: 0 hr 7 min 13 sec) 
Heartbeat CPU 3 instructions: 50000002 cycles: 21701811 heartbeat IPC: 2.05887 cumulative IPC: 2.30396 (Simulation time: 0 hr 7 min 18 sec) 
Heartbeat CPU 1 instructions: 50000001 cycles: 22495397 heartbeat IPC: 2.27489 cumulative IPC: 2.22268 (Simulation time: 0 hr 7 min 33 sec) 
Heartbeat CPU 2 instructions: 50000003 cycles: 26203444 heartbeat IPC: 1.98358 cumulative IPC: 1.90815 (Simulation time: 0 hr 8 min 53 sec) 
Heartbeat CPU 3 instructions: 60000000 cycles: 26701681 heartbeat IPC: 2.00005 cumulative IPC: 2.24705 (Simulation time: 0 hr 9 min 4 sec) 
Heartbeat CPU 1 instructions: 60000000 cycles: 27184368 heartbeat IPC: 2.13266 cumulative IPC: 2.20715 (Simulation time: 0 hr 9 min 15 sec) 
Heartbeat CPU 3 instructions: 70000000 cycles: 31003753 heartbeat IPC: 2.32446 cumulative IPC: 2.25779 (Simulation time: 0 hr 10 min 56 sec) 
Heartbeat CPU 2 instructions: 60000000 cycles: 31564257 heartbeat IPC: 1.86539 cumulative IPC: 1.90088 (Simulation time: 0 hr 11 min 8 sec) 
Heartbeat CPU 1 instructions: 70000003 cycles: 31785729 heartbeat IPC: 2.17327 cumulative IPC: 2.20225 (Simulation time: 0 hr 11 min 12 sec) 
Heartbeat CPU 0 instructions: 40000000 cycles: 32925778 heartbeat IPC: 0.872895 cumulative IPC: 1.21485 (Simulation time: 0 hr 11 min 36 sec) 
Heartbeat CPU 3 instructions: 80000000 cycles: 34361205 heartbeat IPC: 2.97845 cumulative IPC: 2.32821 (Simulation time: 0 hr 12 min 7 sec) 
Heartbeat CPU 1 instructions: 80000000 cycles: 36276717 heartbeat IPC: 2.22668 cumulative IPC: 2.20527 (Simulation time: 0 hr 12 min 44 sec) 
Heartbeat CPU 2 instructions: 70000003 cycles: 37061338 heartbeat IPC: 1.81915 cumulative IPC: 1.88876 (Simulation time: 0 hr 13 min 0 sec) 
Heartbeat CPU 3 instructions: 90000000 cycles: 37841554 heartbeat IPC: 2.87328 cumulative IPC: 2.37834 (Simulation time: 0 hr 13 min 15 sec) 
Heartbeat CPU 0 instructions: 50000000 cycles: 38567764 heartbeat IPC: 1.77243 cumulative IPC: 1.29642 (Simulation time: 0 hr 13 min 28 sec) 
Heartbeat CPU 1 instructions: 90000001 cycles: 40458098 heartbeat IPC: 2.39155 cumulative IPC: 2.22452 (Simulation time: 0 hr 14 min 5 sec) 
Heartbeat CPU 2 instructions: 80000000 cycles: 42612589 heartbeat IPC: 1.8014 cumulative IPC: 1.87738 (Simulation time: 0 hr 14 min 46 sec) 
Heartbeat CPU 3 instructions: 100000000 cycles: 42773811 heartbeat IPC: 2.02747 cumulative IPC: 2.33788 (Simulation time: 0 hr 14 min 49 sec) 
Heartbeat CPU 0 instructions: 60000000 cycles: 44208899 heartbeat IPC: 1.77269 cumulative IPC: 1.35719 (Simulation time: 0 hr 15 min 19 sec) 
Heartbeat CPU 1 instructions: 100000000 cycles: 45118072 heartbeat IPC: 2.14593 cumulative IPC: 2.21641 (Simulation time: 0 hr 15 min 37 sec) 
Heartbeat CPU 3 instructions: 110000000 cycles: 47470387 heartbeat IPC: 2.12921 cumulative IPC: 2.31723 (Simulation time: 0 hr 16 min 26 sec) 
Heartbeat CPU 2 instructions: 90000000 cycles: 47850110 heartbeat IPC: 1.9093 cumulative IPC: 1.88087 (Simulation time: 0 hr 16 min 36 sec) 
Heartbeat CPU 1 instructions: 110000003 cycles: 49488550 heartbeat IPC: 2.28808 cumulative IPC: 2.22274 (Simulation time: 0 hr 17 min 15 sec) 
Heartbeat CPU 0 instructions: 70000000 cycles: 49547379 heartbeat IPC: 1.87319 cumulative IPC: 1.41279 (Simulation time: 0 hr 17 min 16 sec) 
Heartbeat CPU 3 instructions: 120000000 cycles: 52350583 heartbeat IPC: 2.0491 cumulative IPC: 2.29224 (Simulation time: 0 hr 18 min 14 sec) 
Heartbeat CPU 2 instructions: 100000000 cycles: 52885459 heartbeat IPC: 1.98596 cumulative IPC: 1.89088 (Simulation time: 0 hr 18 min 23 sec) 
Heartbeat CPU 1 instructions: 120000000 cycles: 53887456 heartbeat IPC: 2.27329 cumulative IPC: 2.22686 (Simulation time: 0 hr 18 min 41 sec) 
Heartbeat CPU 0 instructions: 80000000 cycles: 56788592 heartbeat IPC: 1.38098 cumulative IPC: 1.40873 (Simulation time: 0 hr 19 min 33 sec) 
Heartbeat CPU 3 instructions: 130000001 cycles: 57268592 heartbeat IPC: 2.03334 cumulative IPC: 2.27001 (Simulation time: 0 hr 19 min 43 sec) 
Heartbeat CPU 2 instructions: 110000000 cycles: 58134250 heartbeat IPC: 1.9052 cumulative IPC: 1.89217 (Simulation time: 0 hr 20 min 1 sec) 
Heartbeat CPU 1 instructions: 130000002 cycles: 58578524 heartbeat IPC: 2.13171 cumulative IPC: 2.21924 (Simulation time: 0 hr 20 min 10 sec) 
Heartbeat CPU 3 instructions: 140000000 cycles: 61246020 heartbeat IPC: 2.51419 cumulative IPC: 2.28586 (Simulation time: 0 hr 21 min 5 sec) 
Heartbeat CPU 1 instructions: 140000000 cycles: 62818216 heartbeat IPC: 2.35866 cumulative IPC: 2.22865 (Simulation time: 0 hr 21 min 33 sec) 
Heartbeat CPU 2 instructions: 120000000 cycles: 63383957 heartbeat IPC: 1.90487 cumulative IPC: 1.89322 (Simulation time: 0 hr 21 min 43 sec) 
Heartbeat CPU 0 instructions: 90000002 cycles: 64471816 heartbeat IPC: 1.30154 cumulative IPC: 1.39596 (Simulation time: 0 hr 22 min 2 sec) 
Heartbeat CPU 3 instructions: 150000002 cycles: 64829000 heartbeat IPC: 2.79097 cumulative IPC: 2.31378 (Simulation time: 0 hr 22 min 9 sec) 
Heartbeat CPU 1 instructions: 150000001 cycles: 67586941 heartbeat IPC: 2.097 cumulative IPC: 2.21936 (Simulation time: 0 hr 22 min 58 sec) 
Heartbeat CPU 2 instructions: 130000002 cycles: 68641321 heartbeat IPC: 1.90209 cumulative IPC: 1.8939 (Simulation time: 0 hr 23 min 17 sec) 
Heartbeat CPU 3 instructions: 160000000 cycles: 68661962 heartbeat IPC: 2.60895 cumulative IPC: 2.33026 (Simulation time: 0 hr 23 min 17 sec) 
Heartbeat CPU 1 instructions: 160000000 cycles: 71863176 heartbeat IPC: 2.33851 cumulative IPC: 2.22645 (Simulation time: 0 hr 24 min 16 sec) 
Heartbeat CPU 0 instructions: 100000000 cycles: 72442908 heartbeat IPC: 1.25453 cumulative IPC: 1.3804 (Simulation time: 0 hr 24 min 27 sec) 
Heartbeat CPU 3 instructions: 170000001 cycles: 73603949 heartbeat IPC: 2.02348 cumulative IPC: 2.30966 (Simulation time: 0 hr 24 min 48 sec) 
Heartbeat CPU 2 instructions: 140000000 cycles: 73753691 heartbeat IPC: 1.95604 cumulative IPC: 1.89821 (Simulation time: 0 hr 24 min 50 sec) 
Heartbeat CPU 1 instructions: 170000002 cycles: 76652560 heartbeat IPC: 2.08795 cumulative IPC: 2.2178 (Simulation time: 0 hr 25 min 43 sec) 
Heartbeat CPU 3 instructions: 180000000 cycles: 78354513 heartbeat IPC: 2.10501 cumulative IPC: 2.29725 (Simulation time: 0 hr 26 min 15 sec) 
Heartbeat CPU 2 instructions: 150000002 cycles: 78764190 heartbeat IPC: 1.99581 cumulative IPC: 1.90442 (Simulation time: 0 hr 26 min 22 sec) 
Heartbeat CPU 0 instructions: 110000000 cycles: 80273144 heartbeat IPC: 1.2771 cumulative IPC: 1.37032 (Simulation time: 0 hr 26 min 50 sec) 
Heartbeat CPU 1 instructions: 180000000 cycles: 81408587 heartbeat IPC: 2.10259 cumulative IPC: 2.21107 (Simulation time: 0 hr 27 min 10 sec) 
Heartbeat CPU 3 instructions: 190000001 cycles: 83268616 heartbeat IPC: 2.03496 cumulative IPC: 2.28177 (Simulation time: 0 hr 27 min 45 sec) 
Heartbeat CPU 2 instructions: 160000000 cycles: 83873560 heartbeat IPC: 1.95719 cumulative IPC: 1.90763 (Simulation time: 0 hr 27 min 56 sec) 
Heartbeat CPU 1 instructions: 190000001 cycles: 85750559 heartbeat IPC: 2.3031 cumulative IPC: 2.21573 (Simulation time: 0 hr 28 min 32 sec) 
Heartbeat CPU 0 instructions: 120000000 cycles: 86399632 heartbeat IPC: 1.63226 cumulative IPC: 1.38889 (Simulation time: 0 hr 28 min 45 sec) 
Heartbeat CPU 3 instructions: 200000000 cycles: 88083881 heartbeat IPC: 2.07673 cumulative IPC: 2.27056 (Simulation time: 0 hr 29 min 21 sec) 
Heartbeat CPU 2 instructions: 170000003 cycles: 89019321 heartbeat IPC: 1.94335 cumulative IPC: 1.9097 (Simulation time: 0 hr 29 min 42 sec) 
Heartbeat CPU 1 instructions: 200000000 cycles: 90483726 heartbeat IPC: 2.11275 cumulative IPC: 2.21034 (Simulation time: 0 hr 30 min 16 sec) 
Heartbeat CPU 3 instructions: 210000003 cycles: 91865792 heartbeat IPC: 2.64417 cumulative IPC: 0.108854 (Simulation time: 0 hr 30 min 42 sec) 
Heartbeat CPU 0 instructions: 130000003 cycles: 92690963 heartbeat IPC: 1.58949 cumulative IPC: 1.40251 (Simulation time: 0 hr 30 min 57 sec) 
Heartbeat CPU 2 instructions: 180000000 cycles: 94450943 heartbeat IPC: 1.84107 cumulative IPC: 1.90575 (Simulation time: 0 hr 31 min 31 sec) 
Heartbeat CPU 1 instructions: 210000001 cycles: 94868300 heartbeat IPC: 2.28072 cumulative IPC: 0.105409 (Simulation time: 0 hr 31 min 40 sec) 
Heartbeat CPU 3 instructions: 220000000 cycles: 95424283 heartbeat IPC: 2.81018 cumulative IPC: 0.20959 (Simulation time: 0 hr 31 min 51 sec) 
Heartbeat CPU 0 instructions: 140000000 cycles: 98820851 heartbeat IPC: 1.63135 cumulative IPC: 1.41671 (Simulation time: 0 hr 32 min 55 sec) 
Heartbeat CPU 3 instructions: 230000000 cycles: 99509656 heartbeat IPC: 2.44776 cumulative IPC: 0.301478 (Simulation time: 0 hr 33 min 8 sec) 
Heartbeat CPU 1 instructions: 220000000 cycles: 99530184 heartbeat IPC: 2.14506 cumulative IPC: 0.200944 (Simulation time: 0 hr 33 min 8 sec) 
Heartbeat CPU 2 instructions: 190000000 cycles: 99959585 heartbeat IPC: 1.81533 cumulative IPC: 1.90077 (Simulation time: 0 hr 33 min 16 sec) 
Heartbeat CPU 1 instructions: 230000001 cycles: 103844460 heartbeat IPC: 2.31789 cumulative IPC: 0.288894 (Simulation time: 0 hr 34 min 30 sec) 
Heartbeat CPU 3 instructions: 240000000 cycles: 104470724 heartbeat IPC: 2.0157 cumulative IPC: 0.382882 (Simulation time: 0 hr 34 min 42 sec) 
Heartbeat CPU 0 instructions: 150000000 cycles: 104924879 heartbeat IPC: 1.63826 cumulative IPC: 1.42959 (Simulation time: 0 hr 34 min 50 sec) 
Heartbeat CPU 2 instructions: 200000000 cycles: 105499475 heartbeat IPC: 1.80509 cumulative IPC: 1.89574 (Simulation time: 0 hr 35 min 1 sec) 
Heartbeat CPU 1 instructions: 240000000 cycles: 108586696 heartbeat IPC: 2.10871 cumulative IPC: 0.368369 (Simulation time: 0 hr 35 min 59 sec) 
Heartbeat CPU 3 instructions: 250000003 cycles: 109380442 heartbeat IPC: 2.03678 cumulative IPC: 0.45712 (Simulation time: 0 hr 36 min 15 sec) 
Heartbeat CPU 2 instructions: 210000002 cycles: 110772716 heartbeat IPC: 1.89637 cumulative IPC: 0.090275 (Simulation time: 0 hr 36 min 42 sec) 
Heartbeat CPU 0 instructions: 160000000 cycles: 111231434 heartbeat IPC: 1.58565 cumulative IPC: 1.43844 (Simulation time: 0 hr 36 min 51 sec) 
Heartbeat CPU 1 instructions: 250000001 cycles: 112915223 heartbeat IPC: 2.31026 cumulative IPC: 0.44281 (Simulation time: 0 hr 37 min 24 sec) 
Heartbeat CPU 3 instructions: 260000000 cycles: 114334993 heartbeat IPC: 2.01835 cumulative IPC: 0.524774 (Simulation time: 0 hr 37 min 52 sec) 
Heartbeat CPU 2 instructions: 220000000 cycles: 115837241 heartbeat IPC: 1.97452 cumulative IPC: 0.172656 (Simulation time: 0 hr 38 min 20 sec) 
Heartbeat CPU 0 instructions: 170000000 cycles: 117387317 heartbeat IPC: 1.62446 cumulative IPC: 1.4482 (Simulation time: 0 hr 38 min 50 sec) 
Heartbeat CPU 1 instructions: 260000000 cycles: 117648766 heartbeat IPC: 2.11258 cumulative IPC: 0.509993 (Simulation time: 0 hr 38 min 56 sec) 
Heartbeat CPU 3 instructions: 270000003 cycles: 118995539 heartbeat IPC: 2.14567 cumulative IPC: 0.588257 (Simulation time: 0 hr 39 min 27 sec) 
Heartbeat CPU 2 instructions: 230000000 cycles: 120891502 heartbeat IPC: 1.97853 cumulative IPC: 0.248156 (Simulation time: 0 hr 40 min 10 sec) 
Heartbeat CPU 1 instructions: 270000003 cycles: 121849086 heartbeat IPC: 2.38077 cumulative IPC: 0.574481 (Simulation time: 0 hr 40 min 30 sec) 
Heartbeat CPU 3 instructions: 280000000 cycles: 122671634 heartbeat IPC: 2.72028 cumulative IPC: 0.652148 (Simulation time: 0 hr 40 min 47 sec) 
Heartbeat CPU 0 instructions: 180000000 cycles: 123516853 heartbeat IPC: 1.63144 cumulative IPC: 1.45729 (Simulation time: 0 hr 41 min 3 sec) 
Heartbeat CPU 2 instructions: 240000000 cycles: 126046478 heartbeat IPC: 1.93987 cumulative IPC: 0.317343 (Simulation time: 0 hr 41 min 54 sec) 
Heartbeat CPU 3 instructions: 290000003 cycles: 126108216 heartbeat IPC: 2.90987 cumulative IPC: 0.713673 (Simulation time: 0 hr 41 min 55 sec) 
Heartbeat CPU 1 instructions: 280000000 cycles: 126576674 heartbeat IPC: 2.11524 cumulative IPC: 0.632028 (Simulation time: 0 hr 42 min 4 sec) 
Heartbeat CPU 0 instructions: 190000000 cycles: 129707005 heartbeat IPC: 1.61547 cumulative IPC: 1.46484 (Simulation time: 0 hr 43 min 4 sec) 
Heartbeat CPU 3 instructions: 300000000 cycles: 130698235 heartbeat IPC: 2.17864 cumulative IPC: 0.765121 (Simulation time: 0 hr 43 min 23 sec) 
Heartbeat CPU 1 instructions: 290000001 cycles: 130797537 heartbeat IPC: 2.36918 cumulative IPC: 0.688086 (Simulation time: 0 hr 43 min 25 sec) 
Heartbeat CPU 2 instructions: 250000000 cycles: 131314795 heartbeat IPC: 1.89814 cumulative IPC: 0.380764 (Simulation time: 0 hr 43 min 35 sec) 
Heartbeat CPU 1 instructions: 300000000 cycles: 135534031 heartbeat IPC: 2.11127 cumulative IPC: 0.737822 (Simulation time: 0 hr 44 min 56 sec) 
Heartbeat CPU 3 instructions: 310000000 cycles: 135578888 heartbeat IPC: 2.04891 cumulative IPC: 0.811336 (Simulation time: 0 hr 44 min 57 sec) 
Heartbeat CPU 0 instructions: 200000000 cycles: 135855011 heartbeat IPC: 1.62654 cumulative IPC: 1.47216 (Simulation time: 0 hr 45 min 3 sec) 

Warmup complete CPU 0 instructions: 200000002 cycles: 135855012 (Simulation time: 0 hr 45 min 3 sec) 
Warmup complete CPU 1 instructions: 300833449 cycles: 135855011 (Simulation time: 0 hr 45 min 3 sec) 
Warmup complete CPU 2 instructions: 258690053 cycles: 135855011 (Simulation time: 0 hr 45 min 3 sec) 
Warmup complete CPU 3 instructions: 310578662 cycles: 135855011 (Simulation time: 0 hr 45 min 3 sec) 

Heartbeat CPU 2 instructions: 260000000 cycles: 137333257 heartbeat IPC: 1.66155 cumulative IPC: 0.88615 (Simulation time: 0 hr 45 min 19 sec) 
Heartbeat CPU 1 instructions: 310000000 cycles: 142477328 heartbeat IPC: 1.44024 cumulative IPC: 1.38419 (Simulation time: 0 hr 46 min 13 sec) 
Heartbeat CPU 3 instructions: 320000000 cycles: 146742553 heartbeat IPC: 0.895763 cumulative IPC: 0.865332 (Simulation time: 0 hr 46 min 57 sec) 
Heartbeat CPU 2 instructions: 270000002 cycles: 150089363 heartbeat IPC: 0.783938 cumulative IPC: 0.794553 (Simulation time: 0 hr 47 min 33 sec) 
Heartbeat CPU 1 instructions: 320000000 cycles: 150974247 heartbeat IPC: 1.1769 cumulative IPC: 1.26769 (Simulation time: 0 hr 47 min 46 sec) 
Heartbeat CPU 3 instructions: 330000001 cycles: 156752441 heartbeat IPC: 0.999012 cumulative IPC: 0.929365 (Simulation time: 0 hr 49 min 4 sec) 
Heartbeat CPU 1 instructions: 330000001 cycles: 158551112 heartbeat IPC: 1.31981 cumulative IPC: 1.28509 (Simulation time: 0 hr 49 min 32 sec) 
Heartbeat CPU 0 instructions: 210000003 cycles: 160134656 heartbeat IPC: 0.411868 cumulative IPC: 0.411868 (Simulation time: 0 hr 49 min 57 sec) 
Heartbeat CPU 2 instructions: 280000000 cycles: 163113857 heartbeat IPC: 0.767784 cumulative IPC: 0.781763 (Simulation time: 0 hr 50 min 34 sec) 
Heartbeat CPU 3 instructions: 340000000 cycles: 164247238 heartbeat IPC: 1.33426 cumulative IPC: 1.03625 (Simulation time: 0 hr 50 min 48 sec) 
Heartbeat CPU 1 instructions: 340000000 cycles: 167112675 heartbeat IPC: 1.16801 cumulative IPC: 1.25302 (Simulation time: 0 hr 51 min 23 sec) 
Heartbeat CPU 3 instructions: 350000001 cycles: 170555749 heartbeat IPC: 1.58516 cumulative IPC: 1.13604 (Simulation time: 0 hr 52 min 6 sec) 
Heartbeat CPU 1 instructions: 350000000 cycles: 174930909 heartbeat IPC: 1.27906 cumulative IPC: 1.25823 (Simulation time: 0 hr 52 min 53 sec) 
Heartbeat CPU 2 instructions: 290000000 cycles: 175877188 heartbeat IPC: 0.783495 cumulative IPC: 0.782315 (Simulation time: 0 hr 53 min 2 sec) 
Heartbeat CPU 3 instructions: 360000000 cycles: 181344997 heartbeat IPC: 0.926849 cumulative IPC: 1.08642 (Simulation time: 0 hr 53 min 58 sec) 
Heartbeat CPU 1 instructions: 360000000 cycles: 183006012 heartbeat IPC: 1.23837 cumulative IPC: 1.25483 (Simulation time: 0 hr 54 min 16 sec) 
Heartbeat CPU 0 instructions: 220000000 cycles: 184562281 heartbeat IPC: 0.409372 cumulative IPC: 0.410616 (Simulation time: 0 hr 54 min 32 sec) 
Heartbeat CPU 2 instructions: 300000000 cycles: 187943958 heartbeat IPC: 0.828722 cumulative IPC: 0.793065 (Simulation time: 0 hr 55 min 8 sec) 
Heartbeat CPU 1 instructions: 370000002 cycles: 190070891 heartbeat IPC: 1.41545 cumulative IPC: 1.27576 (Simulation time: 0 hr 55 min 32 sec) 
Heartbeat CPU 3 instructions: 370000002 cycles: 193733364 heartbeat IPC: 0.807209 cumulative IPC: 1.02666 (Simulation time: 0 hr 56 min 10 sec) 
Heartbeat CPU 1 instructions: 380000000 cycles: 198555444 heartbeat IPC: 1.17861 cumulative IPC: 1.26262 (Simulation time: 0 hr 57 min 1 sec) 
Heartbeat CPU 2 instructions: 310000000 cycles: 199261118 heartbeat IPC: 0.883614 cumulative IPC: 0.809227 (Simulation time: 0 hr 57 min 9 sec) 
Heartbeat CPU 3 instructions: 380000000 cycles: 205146298 heartbeat IPC: 0.876199 cumulative IPC: 1.00188 (Simulation time: 0 hr 58 min 10 sec) 
Heartbeat CPU 1 instructions: 390000001 cycles: 206466960 heartbeat IPC: 1.26398 cumulative IPC: 1.26277 (Simulation time: 0 hr 58 min 24 sec) 
Heartbeat CPU 0 instructions: 230000001 cycles: 208991514 heartbeat IPC: 0.409346 cumulative IPC: 0.410192 (Simulation time: 0 hr 58 min 49 sec) 
Heartbeat CPU 2 instructions: 320000000 cycles: 211057618 heartbeat IPC: 0.847709 cumulative IPC: 0.815264 (Simulation time: 0 hr 59 min 11 sec) 
Heartbeat CPU 1 instructions: 400000000 cycles: 214578474 heartbeat IPC: 1.23282 cumulative IPC: 1.25968 (Simulation time: 0 hr 59 min 47 sec) 
Heartbeat CPU 3 instructions: 390000000 cycles: 217910257 heartbeat IPC: 0.783456 cumulative IPC: 0.967901 (Simulation time: 1 hr 0 min 22 sec) 
Heartbeat CPU 2 instructions: 330000000 cycles: 222059440 heartbeat IPC: 0.90894 cumulative IPC: 0.827219 (Simulation time: 1 hr 1 min 5 sec) 
Heartbeat CPU 1 instructions: 410000002 cycles: 223167487 heartbeat IPC: 1.16428 cumulative IPC: 1.2503 (Simulation time: 1 hr 1 min 17 sec) 
Heartbeat CPU 3 instructions: 400000000 cycles: 230146207 heartbeat IPC: 0.817264 cumulative IPC: 0.948353 (Simulation time: 1 hr 2 min 29 sec) 
Heartbeat CPU 1 instructions: 420000000 cycles: 232048750 heartbeat IPC: 1.12597 cumulative IPC: 1.23882 (Simulation time: 1 hr 2 min 53 sec) 
Heartbeat CPU 0 instructions: 240000000 cycles: 232181148 heartbeat IPC: 0.431227 cumulative IPC: 0.415256 (Simulation time: 1 hr 2 min 55 sec) 
Heartbeat CPU 2 instructions: 340000000 cycles: 233822286 heartbeat IPC: 0.850134 cumulative IPC: 0.82997 (Simulation time: 1 hr 3 min 16 sec) 
Heartbeat CPU 3 instructions: 410000003 cycles: 237954529 heartbeat IPC: 1.28069 cumulative IPC: 0.973769 (Simulation time: 1 hr 4 min 8 sec) 
Heartbeat CPU 1 instructions: 430000000 cycles: 240895445 heartbeat IPC: 1.13037 cumulative IPC: 1.22968 (Simulation time: 1 hr 4 min 45 sec) 
Heartbeat CPU 3 instructions: 420000000 cycles: 244628992 heartbeat IPC: 1.49825 cumulative IPC: 1.00595 (Simulation time: 1 hr 5 min 31 sec) 
Heartbeat CPU 2 instructions: 350000002 cycles: 244971902 heartbeat IPC: 0.896892 cumulative IPC: 0.836809 (Simulation time: 1 hr 5 min 35 sec) 
Heartbeat CPU 1 instructions: 440000000 cycles: 249479331 heartbeat IPC: 1.16497 cumulative IPC: 1.2248 (Simulation time: 1 hr 6 min 27 sec) 
Heartbeat CPU 3 instructions: 430000003 cycles: 253614456 heartbeat IPC: 1.11291 cumulative IPC: 1.01411 (Simulation time: 1 hr 7 min 8 sec) 
Heartbeat CPU 0 instructions: 250000003 cycles: 255768752 heartbeat IPC: 0.423952 cumulative IPC: 0.416966 (Simulation time: 1 hr 7 min 30 sec) 
Heartbeat CPU 1 instructions: 450000003 cycles: 257903720 heartbeat IPC: 1.18703 cumulative IPC: 1.22219 (Simulation time: 1 hr 7 min 52 sec) 
Heartbeat CPU 2 instructions: 360000000 cycles: 258492708 heartbeat IPC: 0.739601 cumulative IPC: 0.826091 (Simulation time: 1 hr 7 min 58 sec) 
Heartbeat CPU 3 instructions: 440000000 cycles: 265637089 heartbeat IPC: 0.831764 cumulative IPC: 0.99722 (Simulation time: 1 hr 9 min 10 sec) 
Heartbeat CPU 1 instructions: 460000000 cycles: 266607240 heartbeat IPC: 1.14896 cumulative IPC: 1.21731 (Simulation time: 1 hr 9 min 19 sec) 
Heartbeat CPU 2 instructions: 370000001 cycles: 272186769 heartbeat IPC: 0.730244 cumulative IPC: 0.816464 (Simulation time: 1 hr 10 min 15 sec) 
Heartbeat CPU 1 instructions: 470000000 cycles: 275079701 heartbeat IPC: 1.18029 cumulative IPC: 1.21506 (Simulation time: 1 hr 10 min 44 sec) 
Heartbeat CPU 3 instructions: 450000000 cycles: 277750077 heartbeat IPC: 0.82556 cumulative IPC: 0.982566 (Simulation time: 1 hr 11 min 10 sec) 
Heartbeat CPU 0 instructions: 260000000 cycles: 279847445 heartbeat IPC: 0.415305 cumulative IPC: 0.416689 (Simulation time: 1 hr 11 min 30 sec) 
Heartbeat CPU 1 instructions: 480000000 cycles: 283688694 heartbeat IPC: 1.16158 cumulative IPC: 1.21195 (Simulation time: 1 hr 12 min 8 sec) 
Heartbeat CPU 2 instructions: 380000000 cycles: 285911460 heartbeat IPC: 0.728614 cumulative IPC: 0.808429 (Simulation time: 1 hr 12 min 30 sec) 
Heartbeat CPU 3 instructions: 460000000 cycles: 290213082 heartbeat IPC: 0.802375 cumulative IPC: 0.968018 (Simulation time: 1 hr 13 min 11 sec) 
Heartbeat CPU 1 instructions: 490000002 cycles: 292357681 heartbeat IPC: 1.15354 cumulative IPC: 1.20871 (Simulation time: 1 hr 13 min 31 sec) 
Heartbeat CPU 2 instructions: 390000000 cycles: 300102832 heartbeat IPC: 0.704654 cumulative IPC: 0.799462 (Simulation time: 1 hr 14 min 43 sec) 
Heartbeat CPU 1 instructions: 500000000 cycles: 300497895 heartbeat IPC: 1.22847 cumulative IPC: 1.20969 (Simulation time: 1 hr 14 min 46 sec) 
Heartbeat CPU 3 instructions: 470000001 cycles: 302576313 heartbeat IPC: 0.80885 cumulative IPC: 0.956215 (Simulation time: 1 hr 15 min 5 sec) 
Heartbeat CPU 0 instructions: 270000001 cycles: 303758239 heartbeat IPC: 0.418221 cumulative IPC: 0.416907 (Simulation time: 1 hr 15 min 16 sec) 
Heartbeat CPU 1 instructions: 510000002 cycles: 309269680 heartbeat IPC: 1.14002 cumulative IPC: 1.20616 (Simulation time: 1 hr 16 min 16 sec) 
Heartbeat CPU 3 instructions: 480000000 cycles: 312216847 heartbeat IPC: 1.03729 cumulative IPC: 0.960646 (Simulation time: 1 hr 16 min 53 sec) 
Heartbeat CPU 2 instructions: 400000000 cycles: 312700115 heartbeat IPC: 0.793822 cumulative IPC: 0.799061 (Simulation time: 1 hr 16 min 59 sec) 
Heartbeat CPU 1 instructions: 520000000 cycles: 317845215 heartbeat IPC: 1.16611 cumulative IPC: 1.20428 (Simulation time: 1 hr 18 min 3 sec) 
Heartbeat CPU 3 instructions: 490000000 cycles: 319497199 heartbeat IPC: 1.37356 cumulative IPC: 0.977016 (Simulation time: 1 hr 18 min 23 sec) 
Heartbeat CPU 2 instructions: 410000001 cycles: 324284607 heartbeat IPC: 0.863223 cumulative IPC: 0.803005 (Simulation time: 1 hr 19 min 21 sec) 
Heartbeat CPU 1 instructions: 530000003 cycles: 326365132 heartbeat IPC: 1.17372 cumulative IPC: 1.20291 (Simulation time: 1 hr 19 min 45 sec) 
Heartbeat CPU 3 instructions: 500000000 cycles: 326783170 heartbeat IPC: 1.3725 cumulative IPC: 0.992108 (Simulation time: 1 hr 19 min 50 sec) 
Heartbeat CPU 0 instructions: 280000000 cycles: 328625337 heartbeat IPC: 0.402138 cumulative IPC: 0.415002 (Simulation time: 1 hr 20 min 10 sec) 
Heartbeat CPU 1 instructions: 540000000 cycles: 334728587 heartbeat IPC: 1.19568 cumulative IPC: 1.20261 (Simulation time: 1 hr 21 min 14 sec) 
Heartbeat CPU 2 instructions: 420000000 cycles: 335542455 heartbeat IPC: 0.888269 cumulative IPC: 0.807812 (Simulation time: 1 hr 21 min 22 sec) 
Heartbeat CPU 3 instructions: 510000000 cycles: 338715805 heartbeat IPC: 0.838038 cumulative IPC: 0.983045 (Simulation time: 1 hr 21 min 54 sec) 
Heartbeat CPU 1 instructions: 550000002 cycles: 343368874 heartbeat IPC: 1.15737 cumulative IPC: 1.20072 (Simulation time: 1 hr 22 min 41 sec) 
Heartbeat CPU 2 instructions: 430000001 cycles: 347799166 heartbeat IPC: 0.81588 cumulative IPC: 0.808279 (Simulation time: 1 hr 23 min 25 sec) 
Heartbeat CPU 3 instructions: 520000000 cycles: 351044781 heartbeat IPC: 0.811097 cumulative IPC: 0.973194 (Simulation time: 1 hr 23 min 58 sec) 
Heartbeat CPU 1 instructions: 560000000 cycles: 351881518 heartbeat IPC: 1.17472 cumulative IPC: 1.1997 (Simulation time: 1 hr 24 min 7 sec) 
Heartbeat CPU 0 instructions: 290000003 cycles: 353392551 heartbeat IPC: 0.40376 cumulative IPC: 0.413722 (Simulation time: 1 hr 24 min 22 sec) 
Heartbeat CPU 2 instructions: 440000000 cycles: 360021740 heartbeat IPC: 0.818158 cumulative IPC: 0.808817 (Simulation time: 1 hr 25 min 24 sec) 
Heartbeat CPU 1 instructions: 570000003 cycles: 360685739 heartbeat IPC: 1.13582 cumulative IPC: 1.1972 (Simulation time: 1 hr 25 min 31 sec) 
Heartbeat CPU 3 instructions: 530000000 cycles: 363559730 heartbeat IPC: 0.799044 cumulative IPC: 0.963622 (Simulation time: 1 hr 25 min 59 sec) 
Heartbeat CPU 1 instructions: 580000000 cycles: 369181999 heartbeat IPC: 1.17699 cumulative IPC: 1.19646 (Simulation time: 1 hr 26 min 51 sec) 
Heartbeat CPU 2 instructions: 450000001 cycles: 372330494 heartbeat IPC: 0.81243 cumulative IPC: 0.809005 (Simulation time: 1 hr 27 min 21 sec) 
Heartbeat CPU 3 instructions: 540000000 cycles: 376184614 heartbeat IPC: 0.792086 cumulative IPC: 0.954611 (Simulation time: 1 hr 27 min 58 sec) 
Heartbeat CPU 0 instructions: 300000000 cycles: 376409415 heartbeat IPC: 0.434464 cumulative IPC: 0.415706 (Simulation time: 1 hr 28 min 0 sec) 
Heartbeat CPU 1 instructions: 590000000 cycles: 377474778 heartbeat IPC: 1.20587 cumulative IPC: 1.19678 (Simulation time: 1 hr 28 min 11 sec) 
Heartbeat CPU 2 instructions: 460000000 cycles: 384473080 heartbeat IPC: 0.823548 cumulative IPC: 0.809716 (Simulation time: 1 hr 29 min 16 sec) 
Heartbeat CPU 1 instructions: 600000000 cycles: 386334803 heartbeat IPC: 1.12866 cumulative IPC: 1.19437 (Simulation time: 1 hr 29 min 33 sec) 
Heartbeat CPU 3 instructions: 550000001 cycles: 388810010 heartbeat IPC: 0.792054 cumulative IPC: 0.946498 (Simulation time: 1 hr 29 min 56 sec) 
Heartbeat CPU 1 instructions: 610000000 cycles: 394900884 heartbeat IPC: 1.16739 cumulative IPC: 1.19348 (Simulation time: 1 hr 30 min 57 sec) 
Heartbeat CPU 2 instructions: 470000000 cycles: 396615489 heartbeat IPC: 0.82356 cumulative IPC: 0.81036 (Simulation time: 1 hr 31 min 19 sec) 
Heartbeat CPU 3 instructions: 560000000 cycles: 398805928 heartbeat IPC: 1.00041 cumulative IPC: 0.948547 (Simulation time: 1 hr 31 min 47 sec) 
Heartbeat CPU 0 instructions: 310000001 cycles: 400502506 heartbeat IPC: 0.415057 cumulative IPC: 0.415647 (Simulation time: 1 hr 32 min 9 sec) 
Heartbeat CPU 1 instructions: 620000000 cycles: 403465145 heartbeat IPC: 1.16764 cumulative IPC: 1.19265 (Simulation time: 1 hr 32 min 47 sec) 
Heartbeat CPU 3 instructions: 570000001 cycles: 406215727 heartbeat IPC: 1.34956 cumulative IPC: 0.959538 (Simulation time: 1 hr 33 min 20 sec) 
Heartbeat CPU 2 instructions: 480000000 cycles: 408668248 heartbeat IPC: 0.829686 cumulative IPC: 0.811214 (Simulation time: 1 hr 33 min 49 sec) 
Heartbeat CPU 1 instructions: 630000001 cycles: 412042966 heartbeat IPC: 1.1658 cumulative IPC: 1.19182 (Simulation time: 1 hr 34 min 32 sec) 
Heartbeat CPU 3 instructions: 580000000 cycles: 413376194 heartbeat IPC: 1.39656 cumulative IPC: 0.970814 (Simulation time: 1 hr 34 min 48 sec) 
Heartbeat CPU 2 instructions: 490000002 cycles: 419862681 heartbeat IPC: 0.893301 cumulative IPC: 0.81445 (Simulation time: 1 hr 35 min 59 sec) 
Heartbeat CPU 1 instructions: 640000000 cycles: 420543463 heartbeat IPC: 1.1764 cumulative IPC: 1.19136 (Simulation time: 1 hr 36 min 6 sec) 
Heartbeat CPU 0 instructions: 320000000 cycles: 423876706 heartbeat IPC: 0.427822 cumulative IPC: 0.416635 (Simulation time: 1 hr 36 min 41 sec) 
Heartbeat CPU 3 instructions: 590000000 cycles: 424324368 heartbeat IPC: 0.913394 cumulative IPC: 0.968634 (Simulation time: 1 hr 36 min 45 sec) 
Heartbeat CPU 1 instructions: 650000000 cycles: 429107736 heartbeat IPC: 1.16764 cumulative IPC: 1.19067 (Simulation time: 1 hr 37 min 36 sec) 
Heartbeat CPU 2 instructions: 500000000 cycles: 431125929 heartbeat IPC: 0.887843 cumulative IPC: 0.817249 (Simulation time: 1 hr 37 min 57 sec) 
Heartbeat CPU 3 instructions: 600000000 cycles: 436281360 heartbeat IPC: 0.836331 cumulative IPC: 0.963369 (Simulation time: 1 hr 38 min 52 sec) 
Heartbeat CPU 1 instructions: 660000000 cycles: 437563541 heartbeat IPC: 1.18262 cumulative IPC: 1.19044 (Simulation time: 1 hr 39 min 5 sec) 
Heartbeat CPU 2 instructions: 510000001 cycles: 442292486 heartbeat IPC: 0.895531 cumulative IPC: 0.820102 (Simulation time: 1 hr 39 min 54 sec) 
Heartbeat CPU 1 instructions: 670000002 cycles: 446178878 heartbeat IPC: 1.16072 cumulative IPC: 1.18962 (Simulation time: 1 hr 40 min 35 sec) 
Heartbeat CPU 0 instructions: 330000002 cycles: 447262181 heartbeat IPC: 0.427616 cumulative IPC: 0.41746 (Simulation time: 1 hr 40 min 45 sec) 
Heartbeat CPU 3 instructions: 610000002 cycles: 448620101 heartbeat IPC: 0.810456 cumulative IPC: 0.957336 (Simulation time: 1 hr 40 min 59 sec) 
Heartbeat CPU 2 instructions: 520000000 cycles: 455018137 heartbeat IPC: 0.785814 cumulative IPC: 0.818735 (Simulation time: 1 hr 42 min 3 sec) 
Heartbeat CPU 1 instructions: 680000000 cycles: 455114308 heartbeat IPC: 1.11914 cumulative IPC: 1.18764 (Simulation time: 1 hr 42 min 4 sec) 
Heartbeat CPU 3 instructions: 620000000 cycles: 460842912 heartbeat IPC: 0.818142 cumulative IPC: 0.952101 (Simulation time: 1 hr 43 min 1 sec) 
Heartbeat CPU 1 instructions: 690000002 cycles: 463903965 heartbeat IPC: 1.1377 cumulative IPC: 1.18631 (Simulation time: 1 hr 43 min 32 sec) 
Heartbeat CPU 2 instructions: 530000002 cycles: 468679057 heartbeat IPC: 0.732015 cumulative IPC: 0.815175 (Simulation time: 1 hr 44 min 22 sec) 
Heartbeat CPU 3 instructions: 630000001 cycles: 471224089 heartbeat IPC: 0.963282 cumulative IPC: 0.952447 (Simulation time: 1 hr 44 min 54 sec) 
Heartbeat CPU 0 instructions: 340000000 cycles: 471596225 heartbeat IPC: 0.410947 cumulative IPC: 0.416988 (Simulation time: 1 hr 44 min 58 sec) 
Heartbeat CPU 1 instructions: 700000000 cycles: 472376430 heartbeat IPC: 1.18029 cumulative IPC: 1.18615 (Simulation time: 1 hr 45 min 7 sec) 
Heartbeat CPU 3 instructions: 640000000 cycles: 478992389 heartbeat IPC: 1.28728 cumulative IPC: 0.960028 (Simulation time: 1 hr 46 min 25 sec) 
Heartbeat CPU 1 instructions: 710000000 cycles: 480937104 heartbeat IPC: 1.16813 cumulative IPC: 1.18571 (Simulation time: 1 hr 46 min 48 sec) 
Heartbeat CPU 2 instructions: 540000000 cycles: 482475598 heartbeat IPC: 0.724819 cumulative IPC: 0.811579 (Simulation time: 1 hr 47 min 6 sec) 
Heartbeat CPU 3 instructions: 650000001 cycles: 485945411 heartbeat IPC: 1.43822 cumulative IPC: 0.969525 (Simulation time: 1 hr 47 min 47 sec) 
Heartbeat CPU 1 instructions: 720000000 cycles: 489459466 heartbeat IPC: 1.17338 cumulative IPC: 1.18541 (Simulation time: 1 hr 48 min 24 sec) 
Heartbeat CPU 0 instructions: 350000001 cycles: 496057821 heartbeat IPC: 0.408804 cumulative IPC: 0.416432 (Simulation time: 1 hr 49 min 29 sec) 
Heartbeat CPU 2 instructions: 550000001 cycles: 496557158 heartbeat IPC: 0.710149 cumulative IPC: 0.807619 (Simulation time: 1 hr 49 min 34 sec) 
Heartbeat CPU 3 instructions: 660000000 cycles: 497127992 heartbeat IPC: 0.894248 cumulative IPC: 0.967195 (Simulation time: 1 hr 49 min 39 sec) 
Heartbeat CPU 1 instructions: 730000002 cycles: 498207444 heartbeat IPC: 1.14312 cumulative IPC: 1.18439 (Simulation time: 1 hr 49 min 50 sec) 
Heartbeat CPU 1 instructions: 740000000 cycles: 506586531 heartbeat IPC: 1.19345 cumulative IPC: 1.18459 (Simulation time: 1 hr 51 min 12 sec) 
Heartbeat CPU 3 instructions: 670000002 cycles: 509389131 heartbeat IPC: 0.815585 cumulative IPC: 0.962218 (Simulation time: 1 hr 51 min 40 sec) 
Heartbeat CPU 2 instructions: 560000000 cycles: 510550233 heartbeat IPC: 0.714639 cumulative IPC: 0.804147 (Simulation time: 1 hr 51 min 52 sec) 
Heartbeat CPU 1 instructions: 750000000 cycles: 515180289 heartbeat IPC: 1.16364 cumulative IPC: 1.18412 (Simulation time: 1 hr 52 min 39 sec) 
Heartbeat CPU 0 instructions: 360000000 cycles: 520388018 heartbeat IPC: 0.411012 cumulative IPC: 0.416089 (Simulation time: 1 hr 53 min 32 sec) 
Heartbeat CPU 3 instructions: 680000000 cycles: 521867899 heartbeat IPC: 0.801361 cumulative IPC: 0.957018 (Simulation time: 1 hr 53 min 47 sec) 
Heartbeat CPU 2 instructions: 570000001 cycles: 522405435 heartbeat IPC: 0.843512 cumulative IPC: 0.805354 (Simulation time: 1 hr 53 min 53 sec) 
Heartbeat CPU 1 instructions: 760000000 cycles: 523746059 heartbeat IPC: 1.16744 cumulative IPC: 1.18375 (Simulation time: 1 hr 54 min 7 sec) 
Heartbeat CPU 1 instructions: 770000000 cycles: 531982945 heartbeat IPC: 1.21405 cumulative IPC: 1.18438 (Simulation time: 1 hr 55 min 32 sec) 
Heartbeat CPU 2 instructions: 580000000 cycles: 533790018 heartbeat IPC: 0.878381 cumulative IPC: 0.807443 (Simulation time: 1 hr 55 min 50 sec) 
Heartbeat CPU 3 instructions: 690000001 cycles: 534387005 heartbeat IPC: 0.798779 cumulative IPC: 0.952047 (Simulation time: 1 hr 55 min 57 sec) 
Heartbeat CPU 1 instructions: 780000000 cycles: 540649679 heartbeat IPC: 1.15384 cumulative IPC: 1.18373 (Simulation time: 1 hr 57 min 2 sec) 
Heartbeat CPU 0 instructions: 370000000 cycles: 544914123 heartbeat IPC: 0.407729 cumulative IPC: 0.415588 (Simulation time: 1 hr 57 min 46 sec) 
Heartbeat CPU 2 instructions: 590000003 cycles: 546172502 heartbeat IPC: 0.807593 cumulative IPC: 0.807448 (Simulation time: 1 hr 57 min 58 sec) 
Heartbeat CPU 3 instructions: 700000000 cycles: 546989163 heartbeat IPC: 0.793515 cumulative IPC: 0.947188 (Simulation time: 1 hr 58 min 7 sec) 
Heartbeat CPU 1 instructions: 790000001 cycles: 549095352 heartbeat IPC: 1.18404 cumulative IPC: 1.18373 (Simulation time: 1 hr 58 min 27 sec) 
Heartbeat CPU 3 instructions: 710000001 cycles: 556973439 heartbeat IPC: 1.00157 cumulative IPC: 0.948477 (Simulation time: 1 hr 59 min 57 sec) 
Heartbeat CPU 1 instructions: 800000000 cycles: 557489898 heartbeat IPC: 1.19125 cumulative IPC: 1.18388 (Simulation time: 2 hr 0 min 3 sec) 
Heartbeat CPU 2 instructions: 600000000 cycles: 558412583 heartbeat IPC: 0.816988 cumulative IPC: 0.807724 (Simulation time: 2 hr 0 min 14 sec) 
Heartbeat CPU 3 instructions: 720000000 cycles: 564827311 heartbeat IPC: 1.27326 cumulative IPC: 0.954424 (Simulation time: 2 hr 1 min 27 sec) 
Heartbeat CPU 1 instructions: 810000000 cycles: 566422260 heartbeat IPC: 1.11952 cumulative IPC: 1.18255 (Simulation time: 2 hr 1 min 44 sec) 
Heartbeat CPU 0 instructions: 380000000 cycles: 568490310 heartbeat IPC: 0.424157 cumulative IPC: 0.416055 (Simulation time: 2 hr 2 min 8 sec) 
Heartbeat CPU 2 instructions: 610000001 cycles: 570455416 heartbeat IPC: 0.830369 cumulative IPC: 0.808352 (Simulation time: 2 hr 2 min 29 sec) 
Heartbeat CPU 3 instructions: 730000003 cycles: 573197219 heartbeat IPC: 1.19476 cumulative IPC: 0.959023 (Simulation time: 2 hr 3 min 0 sec) 
Heartbeat CPU 1 instructions: 820000000 cycles: 574893596 heartbeat IPC: 1.18045 cumulative IPC: 1.18251 (Simulation time: 2 hr 3 min 17 sec) 
Heartbeat CPU 2 instructions: 620000000 cycles: 582842834 heartbeat IPC: 0.807271 cumulative IPC: 0.808322 (Simulation time: 2 hr 4 min 35 sec) 
Heartbeat CPU 1 instructions: 830000003 cycles: 582939113 heartbeat IPC: 1.24293 cumulative IPC: 1.1836 (Simulation time: 2 hr 4 min 36 sec) 
Heartbeat CPU 3 instructions: 740000000 cycles: 585132075 heartbeat IPC: 0.837882 cumulative IPC: 0.955805 (Simulation time: 2 hr 4 min 58 sec) 
Heartbeat CPU 0 instructions: 390000003 cycles: 591588413 heartbeat IPC: 0.432936 cumulative IPC: 0.41691 (Simulation time: 2 hr 6 min 3 sec) 
Heartbeat CPU 1 instructions: 840000000 cycles: 591680614 heartbeat IPC: 1.14397 cumulative IPC: 1.18284 (Simulation time: 2 hr 6 min 4 sec) 
Heartbeat CPU 2 instructions: 630000002 cycles: 594921516 heartbeat IPC: 0.827905 cumulative IPC: 0.808837 (Simulation time: 2 hr 6 min 38 sec) 
Heartbeat CPU 3 instructions: 750000003 cycles: 597972858 heartbeat IPC: 0.778769 cumulative IPC: 0.950886 (Simulation time: 2 hr 7 min 8 sec) 
Heartbeat CPU 1 instructions: 850000003 cycles: 600344498 heartbeat IPC: 1.15422 cumulative IPC: 1.1823 (Simulation time: 2 hr 7 min 31 sec) 
Heartbeat CPU 2 instructions: 640000000 cycles: 607055962 heartbeat IPC: 0.8241 cumulative IPC: 0.80923 (Simulation time: 2 hr 8 min 41 sec) 
Heartbeat CPU 1 instructions: 860000000 cycles: 609186105 heartbeat IPC: 1.13102 cumulative IPC: 1.18134 (Simulation time: 2 hr 9 min 2 sec) 
Heartbeat CPU 3 instructions: 760000000 cycles: 610493222 heartbeat IPC: 0.798699 cumulative IPC: 0.946871 (Simulation time: 2 hr 9 min 15 sec) 
Heartbeat CPU 0 instructions: 400000000 cycles: 615759724 heartbeat IPC: 0.413713 cumulative IPC: 0.416749 (Simulation time: 2 hr 10 min 10 sec) 
Heartbeat CPU 1 instructions: 870000003 cycles: 617630259 heartbeat IPC: 1.18425 cumulative IPC: 1.18139 (Simulation time: 2 hr 10 min 29 sec) 
Heartbeat CPU 2 instructions: 650000000 cycles: 619296528 heartbeat IPC: 0.816956 cumulative IPC: 0.809426 (Simulation time: 2 hr 10 min 46 sec) 
Heartbeat CPU 3 instructions: 770000000 cycles: 623230742 heartbeat IPC: 0.785082 cumulative IPC: 0.942643 (Simulation time: 2 hr 11 min 26 sec) 
Heartbeat CPU 1 instructions: 880000000 cycles: 626171833 heartbeat IPC: 1.17074 cumulative IPC: 1.18121 (Simulation time: 2 hr 11 min 56 sec) 
Heartbeat CPU 2 instructions: 660000000 cycles: 631024956 heartbeat IPC: 0.852629 cumulative IPC: 0.810449 (Simulation time: 2 hr 12 min 46 sec) 
Heartbeat CPU 1 instructions: 890000000 cycles: 634886412 heartbeat IPC: 1.1475 cumulative IPC: 1.18062 (Simulation time: 2 hr 13 min 26 sec) 
Heartbeat CPU 3 instructions: 780000000 cycles: 635914848 heartbeat IPC: 0.788388 cumulative IPC: 0.93873 (Simulation time: 2 hr 13 min 36 sec) 
Heartbeat CPU 0 instructions: 410000000 cycles: 640541013 heartbeat IPC: 0.40353 cumulative IPC: 0.4161 (Simulation time: 2 hr 14 min 24 sec) 
Heartbeat CPU 2 instructions: 670000000 cycles: 642684955 heartbeat IPC: 0.857633 cumulative IPC: 0.811534 (Simulation time: 2 hr 14 min 46 sec) 
Heartbeat CPU 1 instructions: 900000000 cycles: 643302480 heartbeat IPC: 1.1882 cumulative IPC: 1.18075 (Simulation time: 2 hr 14 min 52 sec) 
Heartbeat CPU 3 instructions: 790000000 cycles: 646727104 heartbeat IPC: 0.924876 cumulative IPC: 0.938437 (Simulation time: 2 hr 15 min 35 sec) 
Heartbeat CPU 1 instructions: 910000001 cycles: 651630010 heartbeat IPC: 1.20084 cumulative IPC: 1.18107 (Simulation time: 2 hr 16 min 39 sec) 
Heartbeat CPU 2 instructions: 680000000 cycles: 653828260 heartbeat IPC: 0.8974 cumulative IPC: 0.813382 (Simulation time: 2 hr 17 min 5 sec) 
Heartbeat CPU 3 instructions: 800000000 cycles: 654534040 heartbeat IPC: 1.28091 cumulative IPC: 0.943592 (Simulation time: 2 hr 17 min 14 sec) 
Heartbeat CPU 1 instructions: 920000000 cycles: 660289799 heartbeat IPC: 1.15476 cumulative IPC: 1.18064 (Simulation time: 2 hr 18 min 24 sec) 
Heartbeat CPU 3 instructions: 810000000 cycles: 662532654 heartbeat IPC: 1.25022 cumulative IPC: 0.948249 (Simulation time: 2 hr 18 min 51 sec) 
Heartbeat CPU 0 instructions: 420000000 cycles: 664376907 heartbeat IPC: 0.419535 cumulative IPC: 0.416255 (Simulation time: 2 hr 19 min 14 sec) 
Heartbeat CPU 2 instructions: 690000001 cycles: 665281724 heartbeat IPC: 0.873098 cumulative IPC: 0.814674 (Simulation time: 2 hr 19 min 24 sec) 
Heartbeat CPU 1 instructions: 930000001 cycles: 668541109 heartbeat IPC: 1.21193 cumulative IPC: 1.18112 (Simulation time: 2 hr 19 min 58 sec) 
Heartbeat CPU 3 instructions: 820000000 cycles: 673326568 heartbeat IPC: 0.926448 cumulative IPC: 0.947811 (Simulation time: 2 hr 20 min 49 sec) 
Heartbeat CPU 2 instructions: 700000000 cycles: 676832053 heartbeat IPC: 0.865776 cumulative IPC: 0.815765 (Simulation time: 2 hr 21 min 24 sec) 
Heartbeat CPU 1 instructions: 940000000 cycles: 676845867 heartbeat IPC: 1.20413 cumulative IPC: 1.18147 (Simulation time: 2 hr 21 min 25 sec) 
Heartbeat CPU 1 instructions: 950000000 cycles: 685430554 heartbeat IPC: 1.16486 cumulative IPC: 1.18121 (Simulation time: 2 hr 22 min 50 sec) 
Heartbeat CPU 3 instructions: 830000000 cycles: 686270233 heartbeat IPC: 0.772579 cumulative IPC: 0.94369 (Simulation time: 2 hr 22 min 58 sec) 
Heartbeat CPU 0 instructions: 430000001 cycles: 687598828 heartbeat IPC: 0.430628 cumulative IPC: 0.41686 (Simulation time: 2 hr 23 min 12 sec) 
Heartbeat CPU 2 instructions: 710000001 cycles: 690407133 heartbeat IPC: 0.736644 cumulative IPC: 0.813828 (Simulation time: 2 hr 23 min 40 sec) 
Heartbeat CPU 1 instructions: 960000000 cycles: 693704809 heartbeat IPC: 1.20857 cumulative IPC: 1.18162 (Simulation time: 2 hr 24 min 13 sec) 
Heartbeat CPU 3 instructions: 840000000 cycles: 698768358 heartbeat IPC: 0.80012 cumulative IPC: 0.940502 (Simulation time: 2 hr 25 min 4 sec) 
Heartbeat CPU 1 instructions: 970000003 cycles: 702286985 heartbeat IPC: 1.16521 cumulative IPC: 1.18137 (Simulation time: 2 hr 25 min 39 sec) 
Heartbeat CPU 2 instructions: 720000000 cycles: 703945152 heartbeat IPC: 0.73866 cumulative IPC: 0.812037 (Simulation time: 2 hr 25 min 55 sec) 
Heartbeat CPU 1 instructions: 980000000 cycles: 710721743 heartbeat IPC: 1.18557 cumulative IPC: 1.18143 (Simulation time: 2 hr 27 min 1 sec) 
Heartbeat CPU 3 instructions: 850000000 cycles: 711673023 heartbeat IPC: 0.774914 cumulative IPC: 0.936791 (Simulation time: 2 hr 27 min 11 sec) 
Heartbeat CPU 0 instructions: 440000000 cycles: 712194541 heartbeat IPC: 0.406575 cumulative IPC: 0.416421 (Simulation time: 2 hr 27 min 16 sec) 
Heartbeat CPU 2 instructions: 730000001 cycles: 717611702 heartbeat IPC: 0.731714 cumulative IPC: 0.81015 (Simulation time: 2 hr 28 min 9 sec) 
Heartbeat CPU 1 instructions: 990000003 cycles: 719161890 heartbeat IPC: 1.18481 cumulative IPC: 1.18148 (Simulation time: 2 hr 28 min 24 sec) 
Heartbeat CPU 3 instructions: 860000000 cycles: 724350243 heartbeat IPC: 0.788816 cumulative IPC: 0.933604 (Simulation time: 2 hr 29 min 15 sec) 
Heartbeat CPU 1 instructions: 1000000000 cycles: 727807567 heartbeat IPC: 1.15665 cumulative IPC: 1.18112 (Simulation time: 2 hr 29 min 50 sec) 
Heartbeat CPU 2 instructions: 740000000 cycles: 730758254 heartbeat IPC: 0.760656 cumulative IPC: 0.809056 (Simulation time: 2 hr 30 min 20 sec) 
Heartbeat CPU 1 instructions: 1010000002 cycles: 735886486 heartbeat IPC: 1.23779 cumulative IPC: 1.18188 (Simulation time: 2 hr 31 min 12 sec) 
Heartbeat CPU 0 instructions: 450000000 cycles: 736477653 heartbeat IPC: 0.411809 cumulative IPC: 0.416235 (Simulation time: 2 hr 31 min 18 sec) 
Heartbeat CPU 3 instructions: 870000000 cycles: 737163322 heartbeat IPC: 0.780453 cumulative IPC: 0.93034 (Simulation time: 2 hr 31 min 25 sec) 
Heartbeat CPU 2 instructions: 750000003 cycles: 742253677 heartbeat IPC: 0.869912 cumulative IPC: 0.81021 (Simulation time: 2 hr 32 min 28 sec) 
Heartbeat CPU 1 instructions: 1020000000 cycles: 744500375 heartbeat IPC: 1.16092 cumulative IPC: 1.18159 (Simulation time: 2 hr 32 min 57 sec) 
Heartbeat CPU 3 instructions: 880000000 cycles: 745504759 heartbeat IPC: 1.19883 cumulative IPC: 0.934014 (Simulation time: 2 hr 33 min 9 sec) 
Heartbeat CPU 1 instructions: 1030000001 cycles: 753459914 heartbeat IPC: 1.11613 cumulative IPC: 1.18064 (Simulation time: 2 hr 34 min 42 sec) 
Heartbeat CPU 3 instructions: 890000000 cycles: 753683426 heartbeat IPC: 1.22269 cumulative IPC: 0.937835 (Simulation time: 2 hr 34 min 45 sec) 
Heartbeat CPU 2 instructions: 760000000 cycles: 753706564 heartbeat IPC: 0.873142 cumulative IPC: 0.811376 (Simulation time: 2 hr 34 min 45 sec) 
Heartbeat CPU 0 instructions: 460000000 cycles: 759958518 heartbeat IPC: 0.425879 cumulative IPC: 0.416598 (Simulation time: 2 hr 35 min 58 sec) 
Heartbeat CPU 1 instructions: 1040000000 cycles: 762336313 heartbeat IPC: 1.12658 cumulative IPC: 1.17987 (Simulation time: 2 hr 36 min 21 sec) 
Heartbeat CPU 3 instructions: 900000000 cycles: 762797444 heartbeat IPC: 1.09721 cumulative IPC: 0.940152 (Simulation time: 2 hr 36 min 26 sec) 
Heartbeat CPU 2 instructions: 770000001 cycles: 765882110 heartbeat IPC: 0.821319 cumulative IPC: 0.811568 (Simulation time: 2 hr 36 min 57 sec) 
Heartbeat CPU 1 instructions: 1050000003 cycles: 770803567 heartbeat IPC: 1.18102 cumulative IPC: 1.17989 (Simulation time: 2 hr 37 min 47 sec) 
Heartbeat CPU 3 instructions: 910000002 cycles: 775509069 heartbeat IPC: 0.786682 cumulative IPC: 0.937102 (Simulation time: 2 hr 38 min 33 sec) 
Heartbeat CPU 2 instructions: 780000000 cycles: 778001915 heartbeat IPC: 0.825096 cumulative IPC: 0.811823 (Simulation time: 2 hr 38 min 58 sec) 
Heartbeat CPU 1 instructions: 1060000000 cycles: 779455694 heartbeat IPC: 1.15578 cumulative IPC: 1.17956 (Simulation time: 2 hr 39 min 12 sec) 
Heartbeat CPU 0 instructions: 470000000 cycles: 783914020 heartbeat IPC: 0.417441 cumulative IPC: 0.416629 (Simulation time: 2 hr 39 min 56 sec) 
Heartbeat CPU 1 instructions: 1070000000 cycles: 788080845 heartbeat IPC: 1.1594 cumulative IPC: 1.17929 (Simulation time: 2 hr 40 min 37 sec) 
Heartbeat CPU 3 instructions: 920000000 cycles: 788189332 heartbeat IPC: 0.788627 cumulative IPC: 0.934216 (Simulation time: 2 hr 40 min 39 sec) 
Heartbeat CPU 2 instructions: 790000000 cycles: 790213083 heartbeat IPC: 0.818922 cumulative IPC: 0.811956 (Simulation time: 2 hr 40 min 59 sec) 
Heartbeat CPU 1 instructions: 1080000000 cycles: 796411754 heartbeat IPC: 1.20035 cumulative IPC: 1.17956 (Simulation time: 2 hr 42 min 1 sec) 
Heartbeat CPU 3 instructions: 930000001 cycles: 800901120 heartbeat IPC: 0.786671 cumulative IPC: 0.931396 (Simulation time: 2 hr 42 min 45 sec) 
Heartbeat CPU 2 instructions: 800000000 cycles: 802327157 heartbeat IPC: 0.825486 cumulative IPC: 0.812202 (Simulation time: 2 hr 42 min 59 sec) 
Heartbeat CPU 1 instructions: 1090000000 cycles: 805070877 heartbeat IPC: 1.15485 cumulative IPC: 1.17924 (Simulation time: 2 hr 43 min 26 sec) 
Heartbeat CPU 0 instructions: 480000000 cycles: 809007641 heartbeat IPC: 0.398508 cumulative IPC: 0.415953 (Simulation time: 2 hr 44 min 6 sec) 
Heartbeat CPU 1 instructions: 1100000000 cycles: 813400682 heartbeat IPC: 1.20051 cumulative IPC: 1.1795 (Simulation time: 2 hr 44 min 49 sec) 
Heartbeat CPU 3 instructions: 940000000 cycles: 813666457 heartbeat IPC: 0.783371 cumulative IPC: 0.928608 (Simulation time: 2 hr 44 min 52 sec) 
Heartbeat CPU 2 instructions: 810000002 cycles: 814299208 heartbeat IPC: 0.835279 cumulative IPC: 0.812609 (Simulation time: 2 hr 44 min 58 sec) 
Heartbeat CPU 1 instructions: 1110000003 cycles: 821728186 heartbeat IPC: 1.20084 cumulative IPC: 1.17976 (Simulation time: 2 hr 46 min 14 sec) 
Heartbeat CPU 2 instructions: 820000000 cycles: 825640589 heartbeat IPC: 0.881727 cumulative IPC: 0.813746 (Simulation time: 2 hr 46 min 55 sec) 
Heartbeat CPU 3 instructions: 950000002 cycles: 826446874 heartbeat IPC: 0.782447 cumulative IPC: 0.925903 (Simulation time: 2 hr 47 min 3 sec) 
Heartbeat CPU 1 instructions: 1120000000 cycles: 830430441 heartbeat IPC: 1.14913 cumulative IPC: 1.17938 (Simulation time: 2 hr 47 min 48 sec) 
Heartbeat CPU 0 instructions: 490000000 cycles: 833659018 heartbeat IPC: 0.405657 cumulative IPC: 0.415589 (Simulation time: 2 hr 48 min 26 sec) 
Heartbeat CPU 3 instructions: 960000000 cycles: 836636057 heartbeat IPC: 0.981433 cumulative IPC: 0.926711 (Simulation time: 2 hr 49 min 5 sec) 
Heartbeat CPU 2 instructions: 830000000 cycles: 836733409 heartbeat IPC: 0.901484 cumulative IPC: 0.815134 (Simulation time: 2 hr 49 min 6 sec) 
Heartbeat CPU 1 instructions: 1130000000 cycles: 838713719 heartbeat IPC: 1.20725 cumulative IPC: 1.17971 (Simulation time: 2 hr 49 min 31 sec) 
Heartbeat CPU 3 instructions: 970000002 cycles: 844713224 heartbeat IPC: 1.23806 cumulative IPC: 0.930258 (Simulation time: 2 hr 50 min 43 sec) 
Heartbeat CPU 1 instructions: 1140000000 cycles: 847554394 heartbeat IPC: 1.13114 cumulative IPC: 1.1791 (Simulation time: 2 hr 51 min 17 sec) 
Heartbeat CPU 2 instructions: 840000000 cycles: 848009049 heartbeat IPC: 0.886868 cumulative IPC: 0.81627 (Simulation time: 2 hr 51 min 23 sec) 
Heartbeat CPU 3 instructions: 980000000 cycles: 852706835 heartbeat IPC: 1.251 cumulative IPC: 0.933835 (Simulation time: 2 hr 52 min 19 sec) 
Heartbeat CPU 1 instructions: 1150000000 cycles: 855724322 heartbeat IPC: 1.224 cumulative IPC: 1.17961 (Simulation time: 2 hr 52 min 52 sec) 
Heartbeat CPU 0 instructions: 500000000 cycles: 857315791 heartbeat IPC: 0.422712 cumulative IPC: 0.415823 (Simulation time: 2 hr 53 min 7 sec) 
Heartbeat CPU 2 instructions: 850000000 cycles: 861016249 heartbeat IPC: 0.768805 cumulative IPC: 0.815419 (Simulation time: 2 hr 53 min 44 sec) 
Heartbeat CPU 1 instructions: 1160000000 cycles: 864062552 heartbeat IPC: 1.1993 cumulative IPC: 1.17984 (Simulation time: 2 hr 54 min 14 sec) 
Heartbeat CPU 3 instructions: 990000003 cycles: 864334572 heartbeat IPC: 0.860013 cumulative IPC: 0.932657 (Simulation time: 2 hr 54 min 17 sec) 
Heartbeat CPU 1 instructions: 1170000002 cycles: 872893554 heartbeat IPC: 1.13237 cumulative IPC: 1.17927 (Simulation time: 2 hr 55 min 40 sec) 
Heartbeat CPU 2 instructions: 860000000 cycles: 874621170 heartbeat IPC: 0.735028 cumulative IPC: 0.813938 (Simulation time: 2 hr 55 min 57 sec) 
Heartbeat CPU 3 instructions: 1000000000 cycles: 877253286 heartbeat IPC: 0.774071 cumulative IPC: 0.929893 (Simulation time: 2 hr 56 min 37 sec) 
Heartbeat CPU 1 instructions: 1180000000 cycles: 881255120 heartbeat IPC: 1.19595 cumulative IPC: 1.17946 (Simulation time: 2 hr 57 min 56 sec) 
Heartbeat CPU 0 instructions: 510000003 cycles: 881612664 heartbeat IPC: 0.411576 cumulative IPC: 0.415685 (Simulation time: 2 hr 58 min 3 sec) 
Heartbeat CPU 2 instructions: 870000000 cycles: 888631508 heartbeat IPC: 0.713759 cumulative IPC: 0.812074 (Simulation time: 3 hr 0 min 25 sec) 
Heartbeat CPU 1 instructions: 1190000002 cycles: 889425394 heartbeat IPC: 1.22395 cumulative IPC: 1.17994 (Simulation time: 3 hr 0 min 40 sec) 
Heartbeat CPU 3 instructions: 1010000000 cycles: 889778021 heartbeat IPC: 0.79842 cumulative IPC: 0.927709 (Simulation time: 3 hr 0 min 47 sec) 
Heartbeat CPU 1 instructions: 1200000000 cycles: 898139253 heartbeat IPC: 1.1476 cumulative IPC: 1.17957 (Simulation time: 3 hr 3 min 34 sec) 
Heartbeat CPU 2 instructions: 880000000 cycles: 902564874 heartbeat IPC: 0.717702 cumulative IPC: 0.810359 (Simulation time: 3 hr 4 min 18 sec) 
Heartbeat CPU 3 instructions: 1020000000 cycles: 902568971 heartbeat IPC: 0.781803 cumulative IPC: 0.925275 (Simulation time: 3 hr 4 min 18 sec) 
Heartbeat CPU 0 instructions: 520000000 cycles: 905688446 heartbeat IPC: 0.415355 cumulative IPC: 0.415674 (Simulation time: 3 hr 4 min 48 sec) 
Heartbeat CPU 1 instructions: 1210000000 cycles: 906736626 heartbeat IPC: 1.16315 cumulative IPC: 1.17939 (Simulation time: 3 hr 4 min 58 sec) 
Heartbeat CPU 3 instructions: 1030000003 cycles: 915330800 heartbeat IPC: 0.783587 cumulative IPC: 0.922955 (Simulation time: 3 hr 6 min 21 sec) 
Heartbeat CPU 1 instructions: 1220000000 cycles: 915637307 heartbeat IPC: 1.12351 cumulative IPC: 1.17875 (Simulation time: 3 hr 6 min 24 sec) 
Heartbeat CPU 2 instructions: 890000001 cycles: 916128275 heartbeat IPC: 0.737278 cumulative IPC: 0.809088 (Simulation time: 3 hr 6 min 29 sec) 
Heartbeat CPU 1 instructions: 1230000002 cycles: 924254591 heartbeat IPC: 1.16046 cumulative IPC: 1.17855 (Simulation time: 3 hr 7 min 53 sec) 
Heartbeat CPU 3 instructions: 1040000000 cycles: 927830788 heartbeat IPC: 0.800001 cumulative IPC: 0.921015 (Simulation time: 3 hr 8 min 34 sec) 
Heartbeat CPU 2 instructions: 900000000 cycles: 927992088 heartbeat IPC: 0.842899 cumulative IPC: 0.809595 (Simulation time: 3 hr 8 min 36 sec) 
Heartbeat CPU 0 instructions: 530000001 cycles: 929348009 heartbeat IPC: 0.422662 cumulative IPC: 0.415883 (Simulation time: 3 hr 8 min 55 sec) 
Heartbeat CPU 1 instructions: 1240000000 cycles: 933018163 heartbeat IPC: 1.14109 cumulative IPC: 1.17814 (Simulation time: 3 hr 9 min 43 sec) 
Heartbeat CPU 3 instructions: 1050000001 cycles: 935913263 heartbeat IPC: 1.23724 cumulative IPC: 0.924209 (Simulation time: 3 hr 10 min 20 sec) 
Heartbeat CPU 2 instructions: 910000000 cycles: 941546684 heartbeat IPC: 0.737757 cumulative IPC: 0.808386 (Simulation time: 3 hr 11 min 24 sec) 
Heartbeat CPU 1 instructions: 1250000003 cycles: 941585125 heartbeat IPC: 1.16728 cumulative IPC: 1.17802 (Simulation time: 3 hr 11 min 25 sec) 
Heartbeat CPU 3 instructions: 1060000000 cycles: 943964141 heartbeat IPC: 1.2421 cumulative IPC: 0.927376 (Simulation time: 3 hr 11 min 52 sec) 
Heartbeat CPU 1 instructions: 1260000000 cycles: 950129717 heartbeat IPC: 1.17033 cumulative IPC: 1.17794 (Simulation time: 3 hr 12 min 59 sec) 
Heartbeat CPU 0 instructions: 540000000 cycles: 953233916 heartbeat IPC: 0.418657 cumulative IPC: 0.415964 (Simulation time: 3 hr 13 min 29 sec) 
Heartbeat CPU 3 instructions: 1070000000 cycles: 953674120 heartbeat IPC: 1.02987 cumulative IPC: 0.928593 (Simulation time: 3 hr 13 min 33 sec) 
Heartbeat CPU 2 instructions: 920000000 cycles: 955525834 heartbeat IPC: 0.715351 cumulative IPC: 0.806799 (Simulation time: 3 hr 13 min 51 sec) 
Heartbeat CPU 1 instructions: 1270000001 cycles: 958830521 heartbeat IPC: 1.14932 cumulative IPC: 1.17764 (Simulation time: 3 hr 14 min 31 sec) 
Heartbeat CPU 3 instructions: 1080000000 cycles: 966463035 heartbeat IPC: 0.781927 cumulative IPC: 0.926335 (Simulation time: 3 hr 15 min 45 sec) 
Heartbeat CPU 1 instructions: 1280000000 cycles: 967271030 heartbeat IPC: 1.18476 cumulative IPC: 1.17771 (Simulation time: 3 hr 15 min 52 sec) 
Heartbeat CPU 2 instructions: 930000001 cycles: 969455285 heartbeat IPC: 0.717903 cumulative IPC: 0.805314 (Simulation time: 3 hr 16 min 13 sec) 
Heartbeat CPU 1 instructions: 1290000002 cycles: 975609082 heartbeat IPC: 1.19932 cumulative IPC: 1.17792 (Simulation time: 3 hr 17 min 13 sec) 
Heartbeat CPU 0 instructions: 550000001 cycles: 976441398 heartbeat IPC: 0.430896 cumulative IPC: 0.416376 (Simulation time: 3 hr 17 min 21 sec) 
Heartbeat CPU 3 instructions: 1090000000 cycles: 978861636 heartbeat IPC: 0.806543 cumulative IPC: 0.924573 (Simulation time: 3 hr 17 min 45 sec) 
Heartbeat CPU 2 instructions: 940000000 cycles: 983569663 heartbeat IPC: 0.708497 cumulative IPC: 0.803702 (Simulation time: 3 hr 18 min 30 sec) 
Heartbeat CPU 1 instructions: 1300000000 cycles: 984399209 heartbeat IPC: 1.13764 cumulative IPC: 1.17751 (Simulation time: 3 hr 18 min 38 sec) 
Finished CPU 1 instructions: 1000000003 cycles: 849252232 cumulative IPC: 1.17751 (Simulation time: 3 hr 18 min 45 sec) 
Heartbeat CPU 3 instructions: 1100000000 cycles: 991705666 heartbeat IPC: 0.778572 cumulative IPC: 0.922382 (Simulation time: 3 hr 19 min 47 sec) 
Heartbeat CPU 1 instructions: 1310000001 cycles: 992796435 heartbeat IPC: 1.19087 cumulative IPC: 1.17764 (Simulation time: 3 hr 19 min 58 sec) 
Heartbeat CPU 2 instructions: 950000002 cycles: 997654584 heartbeat IPC: 0.709979 cumulative IPC: 0.80217 (Simulation time: 3 hr 20 min 55 sec) 
Heartbeat CPU 0 instructions: 560000000 cycles: 1000287649 heartbeat IPC: 0.419353 cumulative IPC: 0.416458 (Simulation time: 3 hr 21 min 20 sec) 
Heartbeat CPU 1 instructions: 1320000000 cycles: 1001176957 heartbeat IPC: 1.19324 cumulative IPC: 1.17779 (Simulation time: 3 hr 21 min 29 sec) 
Heartbeat CPU 3 instructions: 1110000000 cycles: 1004411893 heartbeat IPC: 0.787016 cumulative IPC: 0.920402 (Simulation time: 3 hr 22 min 0 sec) 
Heartbeat CPU 1 instructions: 1330000002 cycles: 1009642580 heartbeat IPC: 1.18125 cumulative IPC: 1.17782 (Simulation time: 3 hr 22 min 52 sec) 
Heartbeat CPU 2 instructions: 960000000 cycles: 1011525993 heartbeat IPC: 0.720907 cumulative IPC: 0.800883 (Simulation time: 3 hr 23 min 13 sec) 
Heartbeat CPU 3 instructions: 1120000000 cycles: 1017224601 heartbeat IPC: 0.780475 cumulative IPC: 0.918368 (Simulation time: 3 hr 24 min 8 sec) 
Heartbeat CPU 1 instructions: 1340000000 cycles: 1018494391 heartbeat IPC: 1.12971 cumulative IPC: 1.17734 (Simulation time: 3 hr 24 min 20 sec) 
Heartbeat CPU 0 instructions: 570000003 cycles: 1023497966 heartbeat IPC: 0.430843 cumulative IPC: 0.416834 (Simulation time: 3 hr 25 min 20 sec) 
Heartbeat CPU 2 instructions: 970000003 cycles: 1024641796 heartbeat IPC: 0.762439 cumulative IPC: 0.800316 (Simulation time: 3 hr 25 min 34 sec) 
Heartbeat CPU 3 instructions: 1130000001 cycles: 1026290254 heartbeat IPC: 1.10306 cumulative IPC: 0.920248 (Simulation time: 3 hr 25 min 54 sec) 
Heartbeat CPU 1 instructions: 1350000001 cycles: 1026896956 heartbeat IPC: 1.19011 cumulative IPC: 1.17746 (Simulation time: 3 hr 26 min 2 sec) 
Heartbeat CPU 3 instructions: 1140000000 cycles: 1033854338 heartbeat IPC: 1.32204 cumulative IPC: 0.923632 (Simulation time: 3 hr 27 min 24 sec) 
Heartbeat CPU 1 instructions: 1360000000 cycles: 1035110395 heartbeat IPC: 1.21752 cumulative IPC: 1.17783 (Simulation time: 3 hr 27 min 39 sec) 
Heartbeat CPU 2 instructions: 980000000 cycles: 1036471374 heartbeat IPC: 0.845338 cumulative IPC: 0.800907 (Simulation time: 3 hr 27 min 55 sec) 
Heartbeat CPU 3 instructions: 1150000002 cycles: 1042203377 heartbeat IPC: 1.19774 cumulative IPC: 0.926157 (Simulation time: 3 hr 28 min 59 sec) 
Heartbeat CPU 1 instructions: 1370000000 cycles: 1043961848 heartbeat IPC: 1.12976 cumulative IPC: 1.17736 (Simulation time: 3 hr 29 min 16 sec) 
Heartbeat CPU 0 instructions: 580000000 cycles: 1048233739 heartbeat IPC: 0.404273 cumulative IPC: 0.416494 (Simulation time: 3 hr 29 min 58 sec) 
Heartbeat CPU 2 instructions: 990000003 cycles: 1049422617 heartbeat IPC: 0.772127 cumulative IPC: 0.800499 (Simulation time: 3 hr 30 min 9 sec) 
Heartbeat CPU 1 instructions: 1380000000 cycles: 1052532618 heartbeat IPC: 1.16676 cumulative IPC: 1.17726 (Simulation time: 3 hr 30 min 39 sec) 
Heartbeat CPU 3 instructions: 1160000000 cycles: 1054881651 heartbeat IPC: 0.788751 cumulative IPC: 0.924262 (Simulation time: 3 hr 31 min 1 sec) 
Heartbeat CPU 1 instructions: 1390000000 cycles: 1061397731 heartbeat IPC: 1.12802 cumulative IPC: 1.17679 (Simulation time: 3 hr 32 min 4 sec) 
Heartbeat CPU 2 instructions: 1000000000 cycles: 1063324463 heartbeat IPC: 0.719329 cumulative IPC: 0.799282 (Simulation time: 3 hr 32 min 23 sec) 
Heartbeat CPU 3 instructions: 1170000001 cycles: 1067511850 heartbeat IPC: 0.791753 cumulative IPC: 0.922466 (Simulation time: 3 hr 33 min 3 sec) 
Heartbeat CPU 1 instructions: 1400000000 cycles: 1070220587 heartbeat IPC: 1.13342 cumulative IPC: 1.17638 (Simulation time: 3 hr 33 min 33 sec) 
Heartbeat CPU 0 instructions: 590000001 cycles: 1072496888 heartbeat IPC: 0.412148 cumulative IPC: 0.416381 (Simulation time: 3 hr 33 min 55 sec) 
Heartbeat CPU 2 instructions: 1010000000 cycles: 1076973926 heartbeat IPC: 0.73263 cumulative IPC: 0.798316 (Simulation time: 3 hr 34 min 39 sec) 
Heartbeat CPU 1 instructions: 1410000001 cycles: 1079087717 heartbeat IPC: 1.12776 cumulative IPC: 1.17592 (Simulation time: 3 hr 35 min 0 sec) 
Heartbeat CPU 3 instructions: 1180000000 cycles: 1080263773 heartbeat IPC: 0.784195 cumulative IPC: 0.920599 (Simulation time: 3 hr 35 min 11 sec) 
Heartbeat CPU 1 instructions: 1420000000 cycles: 1087866292 heartbeat IPC: 1.13914 cumulative IPC: 1.17558 (Simulation time: 3 hr 36 min 25 sec) 
Heartbeat CPU 2 instructions: 1020000000 cycles: 1090867569 heartbeat IPC: 0.719754 cumulative IPC: 0.797173 (Simulation time: 3 hr 36 min 54 sec) 
Heartbeat CPU 3 instructions: 1190000001 cycles: 1092857462 heartbeat IPC: 0.794049 cumulative IPC: 0.918933 (Simulation time: 3 hr 37 min 13 sec) 
Heartbeat CPU 1 instructions: 1430000001 cycles: 1096704002 heartbeat IPC: 1.13151 cumulative IPC: 1.17518 (Simulation time: 3 hr 37 min 51 sec) 
Heartbeat CPU 0 instructions: 600000000 cycles: 1097591836 heartbeat IPC: 0.398487 cumulative IPC: 0.415914 (Simulation time: 3 hr 37 min 59 sec) 
Heartbeat CPU 2 instructions: 1030000002 cycles: 1103597389 heartbeat IPC: 0.785557 cumulative IPC: 0.79702 (Simulation time: 3 hr 39 min 2 sec) 
Heartbeat CPU 3 instructions: 1200000000 cycles: 1104410851 heartbeat IPC: 0.865547 cumulative IPC: 0.918296 (Simulation time: 3 hr 39 min 12 sec) 
Heartbeat CPU 1 instructions: 1440000000 cycles: 1105589033 heartbeat IPC: 1.12549 cumulative IPC: 1.17472 (Simulation time: 3 hr 39 min 27 sec) 
Heartbeat CPU 3 instructions: 1210000002 cycles: 1114898507 heartbeat IPC: 0.953502 cumulative IPC: 0.918674 (Simulation time: 3 hr 41 min 8 sec) 
Heartbeat CPU 1 instructions: 1450000001 cycles: 1116868455 heartbeat IPC: 0.88657 cumulative IPC: 1.17141 (Simulation time: 3 hr 41 min 29 sec) 
Heartbeat CPU 2 instructions: 1040000000 cycles: 1117141528 heartbeat IPC: 0.738327 cumulative IPC: 0.79621 (Simulation time: 3 hr 41 min 31 sec) 
Heartbeat CPU 3 instructions: 1220000000 cycles: 1124473935 heartbeat IPC: 1.04434 cumulative IPC: 0.919891 (Simulation time: 3 hr 42 min 50 sec) 
Heartbeat CPU 0 instructions: 610000001 cycles: 1125315334 heartbeat IPC: 0.360705 cumulative IPC: 0.414367 (Simulation time: 3 hr 43 min 0 sec) 
Heartbeat CPU 1 instructions: 1460000000 cycles: 1126463013 heartbeat IPC: 1.04226 cumulative IPC: 1.17016 (Simulation time: 3 hr 43 min 13 sec) 
Heartbeat CPU 2 instructions: 1050000002 cycles: 1130473430 heartbeat IPC: 0.750081 cumulative IPC: 0.795591 (Simulation time: 3 hr 43 min 57 sec) 
Heartbeat CPU 3 instructions: 1230000003 cycles: 1134584018 heartbeat IPC: 0.989112 cumulative IPC: 0.920591 (Simulation time: 3 hr 44 min 38 sec) 
Heartbeat CPU 1 instructions: 1470000002 cycles: 1135539491 heartbeat IPC: 1.10175 cumulative IPC: 1.16954 (Simulation time: 3 hr 44 min 47 sec) 
Heartbeat CPU 2 instructions: 1060000000 cycles: 1143404538 heartbeat IPC: 0.773329 cumulative IPC: 0.795306 (Simulation time: 3 hr 46 min 6 sec) 
Heartbeat CPU 1 instructions: 1480000000 cycles: 1144699370 heartbeat IPC: 1.09172 cumulative IPC: 1.16883 (Simulation time: 3 hr 46 min 19 sec) 
Heartbeat CPU 3 instructions: 1240000000 cycles: 1147160766 heartbeat IPC: 0.795118 cumulative IPC: 0.919031 (Simulation time: 3 hr 46 min 44 sec) 
Heartbeat CPU 0 instructions: 620000000 cycles: 1150424279 heartbeat IPC: 0.398264 cumulative IPC: 0.413969 (Simulation time: 3 hr 47 min 17 sec) 
Heartbeat CPU 1 instructions: 1490000003 cycles: 1153747200 heartbeat IPC: 1.10524 cumulative IPC: 1.16826 (Simulation time: 3 hr 47 min 50 sec) 
Heartbeat CPU 2 instructions: 1070000001 cycles: 1155876896 heartbeat IPC: 0.801773 cumulative IPC: 0.795385 (Simulation time: 3 hr 48 min 12 sec) 
Heartbeat CPU 3 instructions: 1250000003 cycles: 1159570172 heartbeat IPC: 0.805841 cumulative IPC: 0.917659 (Simulation time: 3 hr 48 min 49 sec) 
Heartbeat CPU 1 instructions: 1500000000 cycles: 1162885586 heartbeat IPC: 1.09428 cumulative IPC: 1.16761 (Simulation time: 3 hr 49 min 23 sec) 
Heartbeat CPU 2 instructions: 1080000000 cycles: 1167938738 heartbeat IPC: 0.829061 cumulative IPC: 0.795778 (Simulation time: 3 hr 50 min 14 sec) 
Heartbeat CPU 1 instructions: 1510000001 cycles: 1171978292 heartbeat IPC: 1.09978 cumulative IPC: 1.16701 (Simulation time: 3 hr 50 min 53 sec) 
Heartbeat CPU 3 instructions: 1260000000 cycles: 1172163934 heartbeat IPC: 0.794044 cumulative IPC: 0.916157 (Simulation time: 3 hr 50 min 55 sec) 
Heartbeat CPU 0 instructions: 630000001 cycles: 1174833620 heartbeat IPC: 0.409679 cumulative IPC: 0.413868 (Simulation time: 3 hr 51 min 21 sec) 
Heartbeat CPU 1 instructions: 1520000000 cycles: 1181095469 heartbeat IPC: 1.09683 cumulative IPC: 1.1664 (Simulation time: 3 hr 52 min 22 sec) 
Heartbeat CPU 2 instructions: 1090000001 cycles: 1182215980 heartbeat IPC: 0.700415 cumulative IPC: 0.794477 (Simulation time: 3 hr 52 min 32 sec) 
Heartbeat CPU 3 instructions: 1270000000 cycles: 1184983132 heartbeat IPC: 0.78008 cumulative IPC: 0.914494 (Simulation time: 3 hr 52 min 59 sec) 
Heartbeat CPU 1 instructions: 1530000001 cycles: 1190185712 heartbeat IPC: 1.10008 cumulative IPC: 1.16583 (Simulation time: 3 hr 53 min 51 sec) 
Heartbeat CPU 3 instructions: 1280000000 cycles: 1194865293 heartbeat IPC: 1.01192 cumulative IPC: 0.915403 (Simulation time: 3 hr 54 min 47 sec) 
Heartbeat CPU 2 instructions: 1100000000 cycles: 1196732325 heartbeat IPC: 0.688879 cumulative IPC: 0.793032 (Simulation time: 3 hr 55 min 10 sec) 
Heartbeat CPU 1 instructions: 1540000000 cycles: 1199327146 heartbeat IPC: 1.09392 cumulative IPC: 1.16521 (Simulation time: 3 hr 55 min 39 sec) 
Heartbeat CPU 0 instructions: 640000000 cycles: 1199985989 heartbeat IPC: 0.397577 cumulative IPC: 0.413483 (Simulation time: 3 hr 55 min 47 sec) 
Heartbeat CPU 3 instructions: 1290000003 cycles: 1202642442 heartbeat IPC: 1.28582 cumulative IPC: 0.918104 (Simulation time: 3 hr 56 min 18 sec) 
Heartbeat CPU 1 instructions: 1550000003 cycles: 1208430858 heartbeat IPC: 1.09845 cumulative IPC: 1.16464 (Simulation time: 3 hr 57 min 26 sec) 
Heartbeat CPU 2 instructions: 1110000001 cycles: 1209508963 heartbeat IPC: 0.782679 cumulative IPC: 0.792909 (Simulation time: 3 hr 57 min 40 sec) 
Heartbeat CPU 3 instructions: 1300000000 cycles: 1209856163 heartbeat IPC: 1.38625 cumulative IPC: 0.921248 (Simulation time: 3 hr 57 min 44 sec) 
Heartbeat CPU 1 instructions: 1560000000 cycles: 1217590375 heartbeat IPC: 1.09176 cumulative IPC: 1.16402 (Simulation time: 3 hr 59 min 3 sec) 
Heartbeat CPU 3 instructions: 1310000001 cycles: 1221936628 heartbeat IPC: 0.827783 cumulative IPC: 0.920208 (Simulation time: 3 hr 59 min 46 sec) 
Heartbeat CPU 2 instructions: 1120000000 cycles: 1222080723 heartbeat IPC: 0.795434 cumulative IPC: 0.792938 (Simulation time: 3 hr 59 min 48 sec) 
Finished CPU 3 instructions: 1000000000 cycles: 1086819144 cumulative IPC: 0.920116 (Simulation time: 3 hr 59 min 54 sec) 
Heartbeat CPU 0 instructions: 650000000 cycles: 1223986757 heartbeat IPC: 0.416653 cumulative IPC: 0.413553 (Simulation time: 4 hr 0 min 6 sec) 
Heartbeat CPU 1 instructions: 1570000001 cycles: 1226683025 heartbeat IPC: 1.09979 cumulative IPC: 1.16349 (Simulation time: 4 hr 0 min 34 sec) 
Heartbeat CPU 3 instructions: 1320000000 cycles: 1234375952 heartbeat IPC: 0.803902 cumulative IPC: 0.918891 (Simulation time: 4 hr 1 min 51 sec) 
Heartbeat CPU 2 instructions: 1130000000 cycles: 1234756882 heartbeat IPC: 0.788882 cumulative IPC: 0.792892 (Simulation time: 4 hr 1 min 55 sec) 
Heartbeat CPU 1 instructions: 1580000000 cycles: 1235814264 heartbeat IPC: 1.09514 cumulative IPC: 1.16292 (Simulation time: 4 hr 2 min 6 sec) 
Heartbeat CPU 1 instructions: 1590000001 cycles: 1244856396 heartbeat IPC: 1.10593 cumulative IPC: 1.16246 (Simulation time: 4 hr 3 min 37 sec) 
Heartbeat CPU 3 instructions: 1330000003 cycles: 1246612270 heartbeat IPC: 0.81724 cumulative IPC: 0.917771 (Simulation time: 4 hr 3 min 55 sec) 
Heartbeat CPU 0 instructions: 660000000 cycles: 1246869062 heartbeat IPC: 0.437019 cumulative IPC: 0.414036 (Simulation time: 4 hr 3 min 57 sec) 
Heartbeat CPU 2 instructions: 1140000000 cycles: 1247318490 heartbeat IPC: 0.796076 cumulative IPC: 0.792928 (Simulation time: 4 hr 4 min 2 sec) 
Heartbeat CPU 1 instructions: 1600000000 cycles: 1254023516 heartbeat IPC: 1.09086 cumulative IPC: 1.16187 (Simulation time: 4 hr 5 min 10 sec) 
Heartbeat CPU 2 instructions: 1150000003 cycles: 1259089551 heartbeat IPC: 0.849541 cumulative IPC: 0.793521 (Simulation time: 4 hr 6 min 2 sec) 
Heartbeat CPU 3 instructions: 1340000000 cycles: 1259217740 heartbeat IPC: 0.793306 cumulative IPC: 0.916375 (Simulation time: 4 hr 6 min 3 sec) 
Heartbeat CPU 1 instructions: 1610000000 cycles: 1263077252 heartbeat IPC: 1.10452 cumulative IPC: 1.16141 (Simulation time: 4 hr 6 min 42 sec) 
Heartbeat CPU 2 instructions: 1160000000 cycles: 1270939830 heartbeat IPC: 0.843862 cumulative IPC: 0.794046 (Simulation time: 4 hr 8 min 3 sec) 
Heartbeat CPU 0 instructions: 670000003 cycles: 1271415024 heartbeat IPC: 0.407399 cumulative IPC: 0.413893 (Simulation time: 4 hr 8 min 8 sec) 
Heartbeat CPU 3 instructions: 1350000001 cycles: 1271508998 heartbeat IPC: 0.813586 cumulative IPC: 0.915262 (Simulation time: 4 hr 8 min 9 sec) 
Heartbeat CPU 1 instructions: 1620000000 cycles: 1272116239 heartbeat IPC: 1.10632 cumulative IPC: 1.16097 (Simulation time: 4 hr 8 min 17 sec) 
Heartbeat CPU 3 instructions: 1360000000 cycles: 1279740767 heartbeat IPC: 1.21481 cumulative IPC: 0.917418 (Simulation time: 4 hr 9 min 55 sec) 
Heartbeat CPU 1 instructions: 1630000000 cycles: 1281183009 heartbeat IPC: 1.10293 cumulative IPC: 1.16051 (Simulation time: 4 hr 10 min 11 sec) 
Heartbeat CPU 2 instructions: 1170000000 cycles: 1284380194 heartbeat IPC: 0.744027 cumulative IPC: 0.793461 (Simulation time: 4 hr 10 min 48 sec) 
Heartbeat CPU 3 instructions: 1370000002 cycles: 1287519808 heartbeat IPC: 1.28551 cumulative IPC: 0.919904 (Simulation time: 4 hr 11 min 24 sec) 
Heartbeat CPU 1 instructions: 1640000000 cycles: 1290262158 heartbeat IPC: 1.10142 cumulative IPC: 1.16005 (Simulation time: 4 hr 11 min 56 sec) 
Heartbeat CPU 3 instructions: 1380000000 cycles: 1295789261 heartbeat IPC: 1.20927 cumulative IPC: 0.921967 (Simulation time: 4 hr 12 min 53 sec) 
Heartbeat CPU 0 instructions: 680000000 cycles: 1295961395 heartbeat IPC: 0.407392 cumulative IPC: 0.413755 (Simulation time: 4 hr 12 min 55 sec) 
Heartbeat CPU 2 instructions: 1180000000 cycles: 1298679451 heartbeat IPC: 0.699337 cumulative IPC: 0.792304 (Simulation time: 4 hr 13 min 22 sec) 
Heartbeat CPU 1 instructions: 1650000002 cycles: 1299310115 heartbeat IPC: 1.10522 cumulative IPC: 1.15962 (Simulation time: 4 hr 13 min 28 sec) 
Heartbeat CPU 3 instructions: 1390000001 cycles: 1307934288 heartbeat IPC: 0.823382 cumulative IPC: 0.920946 (Simulation time: 4 hr 14 min 51 sec) 
Heartbeat CPU 1 instructions: 1660000000 cycles: 1308446542 heartbeat IPC: 1.09452 cumulative IPC: 1.15911 (Simulation time: 4 hr 14 min 56 sec) 
Heartbeat CPU 2 instructions: 1190000003 cycles: 1313013699 heartbeat IPC: 0.69763 cumulative IPC: 0.791151 (Simulation time: 4 hr 15 min 41 sec) 
Heartbeat CPU 1 instructions: 1670000002 cycles: 1317484492 heartbeat IPC: 1.10645 cumulative IPC: 1.15871 (Simulation time: 4 hr 16 min 26 sec) 
Heartbeat CPU 0 instructions: 690000001 cycles: 1319472397 heartbeat IPC: 0.425333 cumulative IPC: 0.413985 (Simulation time: 4 hr 16 min 57 sec) 
Heartbeat CPU 3 instructions: 1400000000 cycles: 1320077277 heartbeat IPC: 0.82352 cumulative IPC: 0.919947 (Simulation time: 4 hr 17 min 4 sec) 
Heartbeat CPU 1 instructions: 1680000000 cycles: 1326670863 heartbeat IPC: 1.08857 cumulative IPC: 1.15817 (Simulation time: 4 hr 18 min 20 sec) 
Heartbeat CPU 2 instructions: 1200000000 cycles: 1327435773 heartbeat IPC: 0.693381 cumulative IPC: 0.789967 (Simulation time: 4 hr 18 min 27 sec) 
Heartbeat CPU 3 instructions: 1410000001 cycles: 1332331603 heartbeat IPC: 0.816038 cumulative IPC: 0.918882 (Simulation time: 4 hr 19 min 21 sec) 
Heartbeat CPU 1 instructions: 1690000000 cycles: 1335700992 heartbeat IPC: 1.1074 cumulative IPC: 1.15779 (Simulation time: 4 hr 19 min 59 sec) 
Heartbeat CPU 2 instructions: 1210000000 cycles: 1339778009 heartbeat IPC: 0.810226 cumulative IPC: 0.790175 (Simulation time: 4 hr 20 min 43 sec) 
Heartbeat CPU 0 instructions: 700000000 cycles: 1342759898 heartbeat IPC: 0.429415 cumulative IPC: 0.414283 (Simulation time: 4 hr 21 min 13 sec) 
Heartbeat CPU 3 instructions: 1420000000 cycles: 1344835003 heartbeat IPC: 0.799782 cumulative IPC: 0.917651 (Simulation time: 4 hr 21 min 33 sec) 
Heartbeat CPU 1 instructions: 1700000000 cycles: 1344867007 heartbeat IPC: 1.09099 cumulative IPC: 1.15728 (Simulation time: 4 hr 21 min 33 sec) 
Heartbeat CPU 2 instructions: 1220000000 cycles: 1351812640 heartbeat IPC: 0.830935 cumulative IPC: 0.790578 (Simulation time: 4 hr 22 min 43 sec) 
Heartbeat CPU 1 instructions: 1710000000 cycles: 1353936179 heartbeat IPC: 1.10264 cumulative IPC: 1.15687 (Simulation time: 4 hr 23 min 5 sec) 
Heartbeat CPU 3 instructions: 1430000002 cycles: 1356250993 heartbeat IPC: 0.875965 cumulative IPC: 0.917261 (Simulation time: 4 hr 23 min 33 sec) 
Heartbeat CPU 1 instructions: 1720000000 cycles: 1362939504 heartbeat IPC: 1.1107 cumulative IPC: 1.15654 (Simulation time: 4 hr 24 min 54 sec) 
Heartbeat CPU 3 instructions: 1440000000 cycles: 1364256970 heartbeat IPC: 1.24907 cumulative IPC: 0.919423 (Simulation time: 4 hr 25 min 10 sec) 
Heartbeat CPU 2 instructions: 1230000000 cycles: 1364527272 heartbeat IPC: 0.786495 cumulative IPC: 0.790536 (Simulation time: 4 hr 25 min 13 sec) 
Heartbeat CPU 0 instructions: 710000000 cycles: 1366361549 heartbeat IPC: 0.423699 cumulative IPC: 0.414463 (Simulation time: 4 hr 25 min 34 sec) 
Heartbeat CPU 3 instructions: 1450000002 cycles: 1371168531 heartbeat IPC: 1.44685 cumulative IPC: 0.922374 (Simulation time: 4 hr 26 min 32 sec) 
Heartbeat CPU 1 instructions: 1730000000 cycles: 1372002872 heartbeat IPC: 1.10334 cumulative IPC: 1.15615 (Simulation time: 4 hr 26 min 41 sec) 
Heartbeat CPU 2 instructions: 1240000000 cycles: 1377026164 heartbeat IPC: 0.800071 cumulative IPC: 0.790632 (Simulation time: 4 hr 27 min 39 sec) 
Heartbeat CPU 3 instructions: 1460000000 cycles: 1380027932 heartbeat IPC: 1.12874 cumulative IPC: 0.923844 (Simulation time: 4 hr 28 min 8 sec) 
Heartbeat CPU 1 instructions: 1740000000 cycles: 1380956173 heartbeat IPC: 1.11691 cumulative IPC: 1.15586 (Simulation time: 4 hr 28 min 17 sec) 
Heartbeat CPU 1 instructions: 1750000001 cycles: 1389982356 heartbeat IPC: 1.10789 cumulative IPC: 1.15552 (Simulation time: 4 hr 29 min 46 sec) 
Heartbeat CPU 2 instructions: 1250000001 cycles: 1390003950 heartbeat IPC: 0.770548 cumulative IPC: 0.790424 (Simulation time: 4 hr 29 min 47 sec) 
Heartbeat CPU 0 instructions: 720000000 cycles: 1390078413 heartbeat IPC: 0.421641 cumulative IPC: 0.414599 (Simulation time: 4 hr 29 min 47 sec) 
Heartbeat CPU 3 instructions: 1470000002 cycles: 1392025038 heartbeat IPC: 0.833535 cumulative IPC: 0.922981 (Simulation time: 4 hr 30 min 7 sec) 
Heartbeat CPU 1 instructions: 1760000000 cycles: 1398937334 heartbeat IPC: 1.1167 cumulative IPC: 1.15524 (Simulation time: 4 hr 31 min 16 sec) 
Finished CPU 2 instructions: 1000000000 cycles: 1265378673 cumulative IPC: 0.790277 (Simulation time: 4 hr 31 min 39 sec) 
Heartbeat CPU 2 instructions: 1260000000 cycles: 1402870932 heartbeat IPC: 0.777183 cumulative IPC: 0.79029 (Simulation time: 4 hr 31 min 55 sec) 
Heartbeat CPU 3 instructions: 1480000000 cycles: 1404129639 heartbeat IPC: 0.826132 cumulative IPC: 0.922057 (Simulation time: 4 hr 32 min 8 sec) 
Heartbeat CPU 1 instructions: 1770000000 cycles: 1407943297 heartbeat IPC: 1.11038 cumulative IPC: 1.15492 (Simulation time: 4 hr 32 min 46 sec) 
Heartbeat CPU 0 instructions: 730000002 cycles: 1413289530 heartbeat IPC: 0.430828 cumulative IPC: 0.414894 (Simulation time: 4 hr 33 min 39 sec) 
Heartbeat CPU 2 instructions: 1270000000 cycles: 1415700465 heartbeat IPC: 0.779452 cumulative IPC: 0.790181 (Simulation time: 4 hr 34 min 3 sec) 
Heartbeat CPU 3 instructions: 1490000000 cycles: 1416276777 heartbeat IPC: 0.823239 cumulative IPC: 0.921119 (Simulation time: 4 hr 34 min 9 sec) 
Heartbeat CPU 1 instructions: 1780000000 cycles: 1416990257 heartbeat IPC: 1.10534 cumulative IPC: 1.15457 (Simulation time: 4 hr 34 min 16 sec) 
Heartbeat CPU 1 instructions: 1790000002 cycles: 1426023113 heartbeat IPC: 1.10707 cumulative IPC: 1.15424 (Simulation time: 4 hr 35 min 46 sec) 
Heartbeat CPU 2 instructions: 1280000000 cycles: 1427316400 heartbeat IPC: 0.860886 cumulative IPC: 0.790817 (Simulation time: 4 hr 36 min 0 sec) 
Heartbeat CPU 3 instructions: 1500000000 cycles: 1428781455 heartbeat IPC: 0.799701 cumulative IPC: 0.919945 (Simulation time: 4 hr 36 min 15 sec) 
Heartbeat CPU 1 instructions: 1800000000 cycles: 1435164490 heartbeat IPC: 1.09393 cumulative IPC: 1.15382 (Simulation time: 4 hr 37 min 14 sec) 
Heartbeat CPU 0 instructions: 740000000 cycles: 1436980691 heartbeat IPC: 0.422098 cumulative IPC: 0.415025 (Simulation time: 4 hr 37 min 32 sec) 
Heartbeat CPU 2 instructions: 1290000001 cycles: 1439215671 heartbeat IPC: 0.840388 cumulative IPC: 0.79127 (Simulation time: 4 hr 37 min 53 sec) 
Heartbeat CPU 3 instructions: 1510000001 cycles: 1441421028 heartbeat IPC: 0.791166 cumulative IPC: 0.918698 (Simulation time: 4 hr 38 min 15 sec) 
Heartbeat CPU 1 instructions: 1810000002 cycles: 1444216578 heartbeat IPC: 1.10472 cumulative IPC: 1.15348 (Simulation time: 4 hr 38 min 42 sec) 
Heartbeat CPU 2 instructions: 1300000000 cycles: 1451099807 heartbeat IPC: 0.841458 cumulative IPC: 0.791723 (Simulation time: 4 hr 40 min 0 sec) 
Heartbeat CPU 3 instructions: 1520000000 cycles: 1451434000 heartbeat IPC: 0.998704 cumulative IPC: 0.919307 (Simulation time: 4 hr 40 min 5 sec) 
Heartbeat CPU 1 instructions: 1820000000 cycles: 1453354515 heartbeat IPC: 1.09434 cumulative IPC: 1.15307 (Simulation time: 4 hr 40 min 29 sec) 
Heartbeat CPU 3 instructions: 1530000001 cycles: 1458914354 heartbeat IPC: 1.33684 cumulative IPC: 0.921668 (Simulation time: 4 hr 41 min 44 sec) 
Heartbeat CPU 0 instructions: 750000002 cycles: 1460627801 heartbeat IPC: 0.422885 cumulative IPC: 0.415166 (Simulation time: 4 hr 42 min 4 sec) 
Heartbeat CPU 1 instructions: 1830000000 cycles: 1462403442 heartbeat IPC: 1.1051 cumulative IPC: 1.15274 (Simulation time: 4 hr 42 min 25 sec) 
[...]
Heartbeat CPU 1 instructions: 2960000000 cycles: 2417861325 heartbeat IPC: 1.20884 cumulative IPC: 1.16528 (Simulation time: 7 hr 19 min 32 sec) 
Heartbeat CPU 1 instructions: 2970000003 cycles: 2426443274 heartbeat IPC: 1.16524 cumulative IPC: 1.16528 (Simulation time: 7 hr 20 min 49 sec) 
Heartbeat CPU 3 instructions: 2470000001 cycles: 2428586872 heartbeat IPC: 0.808748 cumulative IPC: 0.941855 (Simulation time: 7 hr 21 min 8 sec) 
Heartbeat CPU 2 instructions: 2060000000 cycles: 2430763812 heartbeat IPC: 0.734977 cumulative IPC: 0.784916 (Simulation time: 7 hr 21 min 27 sec) 
Heartbeat CPU 1 instructions: 2980000000 cycles: 2434889149 heartbeat IPC: 1.18401 cumulative IPC: 1.16534 (Simulation time: 7 hr 22 min 9 sec) 
Heartbeat CPU 3 instructions: 2480000000 cycles: 2438224539 heartbeat IPC: 1.0376 cumulative IPC: 0.942256 (Simulation time: 7 hr 22 min 45 sec) 
Heartbeat CPU 0 instructions: 1160000000 cycles: 2441696450 heartbeat IPC: 0.416372 cumulative IPC: 0.416334 (Simulation time: 7 hr 23 min 22 sec) 
Heartbeat CPU 1 instructions: 2990000003 cycles: 2443330560 heartbeat IPC: 1.18464 cumulative IPC: 1.16541 (Simulation time: 7 hr 23 min 39 sec) 
Heartbeat CPU 2 instructions: 2070000001 cycles: 2444911644 heartbeat IPC: 0.706822 cumulative IPC: 0.784437 (Simulation time: 7 hr 23 min 55 sec) 
Heartbeat CPU 3 instructions: 2490000000 cycles: 2445505269 heartbeat IPC: 1.37349 cumulative IPC: 0.943615 (Simulation time: 7 hr 24 min 1 sec) 
Heartbeat CPU 1 instructions: 3000000000 cycles: 2451979367 heartbeat IPC: 1.15623 cumulative IPC: 1.16538 (Simulation time: 7 hr 25 min 7 sec) 
Heartbeat CPU 3 instructions: 2500000000 cycles: 2452788609 heartbeat IPC: 1.373 cumulative IPC: 0.944965 (Simulation time: 7 hr 25 min 16 sec) 
Heartbeat CPU 2 instructions: 2080000000 cycles: 2459140738 heartbeat IPC: 0.702785 cumulative IPC: 0.783937 (Simulation time: 7 hr 26 min 11 sec) 
Heartbeat CPU 1 instructions: 3010000002 cycles: 2460067945 heartbeat IPC: 1.23631 cumulative IPC: 1.16563 (Simulation time: 7 hr 26 min 20 sec) 
Heartbeat CPU 3 instructions: 2510000000 cycles: 2464721313 heartbeat IPC: 0.838033 cumulative IPC: 0.944417 (Simulation time: 7 hr 27 min 1 sec) 
Heartbeat CPU 0 instructions: 1170000001 cycles: 2466425961 heartbeat IPC: 0.404375 cumulative IPC: 0.416207 (Simulation time: 7 hr 27 min 16 sec) 
Heartbeat CPU 1 instructions: 3020000000 cycles: 2468687409 heartbeat IPC: 1.16016 cumulative IPC: 1.16561 (Simulation time: 7 hr 27 min 37 sec) 
Heartbeat CPU 2 instructions: 2090000000 cycles: 2471766787 heartbeat IPC: 0.792013 cumulative IPC: 0.783981 (Simulation time: 7 hr 28 min 4 sec) 
Heartbeat CPU 3 instructions: 2520000000 cycles: 2477051080 heartbeat IPC: 0.811045 cumulative IPC: 0.943715 (Simulation time: 7 hr 28 min 52 sec) 
Heartbeat CPU 1 instructions: 3030000001 cycles: 2477626834 heartbeat IPC: 1.11864 cumulative IPC: 1.16543 (Simulation time: 7 hr 28 min 57 sec) 
Heartbeat CPU 2 instructions: 2100000000 cycles: 2483360015 heartbeat IPC: 0.862573 cumulative IPC: 0.784369 (Simulation time: 7 hr 29 min 49 sec) 
Heartbeat CPU 1 instructions: 3040000000 cycles: 2486497279 heartbeat IPC: 1.12734 cumulative IPC: 1.16528 (Simulation time: 7 hr 30 min 17 sec) 
Heartbeat CPU 3 instructions: 2530000000 cycles: 2489565393 heartbeat IPC: 0.799085 cumulative IPC: 0.942946 (Simulation time: 7 hr 30 min 44 sec) 
Heartbeat CPU 0 instructions: 1180000000 cycles: 2490323703 heartbeat IPC: 0.41845 cumulative IPC: 0.41623 (Simulation time: 7 hr 30 min 51 sec) 
Heartbeat CPU 1 instructions: 3050000003 cycles: 2494965588 heartbeat IPC: 1.18087 cumulative IPC: 1.16534 (Simulation time: 7 hr 31 min 32 sec) 
Heartbeat CPU 2 instructions: 2110000000 cycles: 2496037698 heartbeat IPC: 0.788788 cumulative IPC: 0.784393 (Simulation time: 7 hr 31 min 42 sec) 
Heartbeat CPU 3 instructions: 2540000000 cycles: 2502188674 heartbeat IPC: 0.792187 cumulative IPC: 0.942142 (Simulation time: 7 hr 32 min 37 sec) 
Heartbeat CPU 1 instructions: 3060000000 cycles: 2503618750 heartbeat IPC: 1.15565 cumulative IPC: 1.1653 (Simulation time: 7 hr 32 min 49 sec) 
Heartbeat CPU 2 instructions: 2120000000 cycles: 2508368793 heartbeat IPC: 0.810958 cumulative IPC: 0.784531 (Simulation time: 7 hr 33 min 32 sec) 
Heartbeat CPU 1 instructions: 3070000000 cycles: 2512243713 heartbeat IPC: 1.15943 cumulative IPC: 1.16528 (Simulation time: 7 hr 34 min 6 sec) 
Heartbeat CPU 0 instructions: 1190000001 cycles: 2514613033 heartbeat IPC: 0.411703 cumulative IPC: 0.416184 (Simulation time: 7 hr 34 min 27 sec) 
Heartbeat CPU 3 instructions: 2550000001 cycles: 2514814957 heartbeat IPC: 0.791999 cumulative IPC: 0.941345 (Simulation time: 7 hr 34 min 29 sec) 
Heartbeat CPU 1 instructions: 3080000000 cycles: 2520572958 heartbeat IPC: 1.20059 cumulative IPC: 1.16541 (Simulation time: 7 hr 35 min 21 sec) 
Heartbeat CPU 2 instructions: 2130000001 cycles: 2520821992 heartbeat IPC: 0.803007 cumulative IPC: 0.784627 (Simulation time: 7 hr 35 min 24 sec) 
Heartbeat CPU 3 instructions: 2560000000 cycles: 2524807944 heartbeat IPC: 1.0007 cumulative IPC: 0.941593 (Simulation time: 7 hr 36 min 10 sec) 
Heartbeat CPU 1 instructions: 3090000000 cycles: 2529232879 heartbeat IPC: 1.15474 cumulative IPC: 1.16537 (Simulation time: 7 hr 37 min 0 sec) 
Heartbeat CPU 3 instructions: 2570000001 cycles: 2532210706 heartbeat IPC: 1.35085 cumulative IPC: 0.942857 (Simulation time: 7 hr 37 min 32 sec) 
Heartbeat CPU 2 instructions: 2140000000 cycles: 2532465001 heartbeat IPC: 0.858884 cumulative IPC: 0.784988 (Simulation time: 7 hr 37 min 34 sec) 
Heartbeat CPU 1 instructions: 3100000000 cycles: 2537581265 heartbeat IPC: 1.19784 cumulative IPC: 1.16548 (Simulation time: 7 hr 38 min 29 sec) 
Heartbeat CPU 0 instructions: 1200000000 cycles: 2538138789 heartbeat IPC: 0.425066 cumulative IPC: 0.416271 (Simulation time: 7 hr 38 min 35 sec) 
Finished CPU 0 instructions: 1000000000 cycles: 2402283792 cumulative IPC: 0.416271 (Simulation time: 7 hr 38 min 35 sec) 

CPU 0 Branch Prediction Accuracy: 97.2775% MPKI: 4.55954

CPU 1 Branch Prediction Accuracy: 95.8329% MPKI: 1.58811

CPU 2 Branch Prediction Accuracy: 97.0058% MPKI: 2.74694

CPU 3 Branch Prediction Accuracy: 92.5472% MPKI: 11.3177

ChampSim completed all CPUs

Total Simulation Statistics (not including warmup)

CPU 0 cumulative IPC: 0.416271 instructions: 1000000000 cycles: 2402283792
L1D TOTAL     ACCESS:  334070078  HIT:  325738092  MISS:    8331986
L1D LOAD      ACCESS:  191569401  HIT:  183250034  MISS:    8319367
L1D RFO       ACCESS:  142500677  HIT:  142488058  MISS:      12619
L1D PREFETCH  ACCESS:          0  HIT:          0  MISS:          0
L1D WRITEBACK ACCESS:          0  HIT:          0  MISS:          0
L1I TOTAL     ACCESS:  311650115  HIT:  311650114  MISS:          1
L1I LOAD      ACCESS:  311650115  HIT:  311650114  MISS:          1
L1I RFO       ACCESS:          0  HIT:          0  MISS:          0
L1I PREFETCH  ACCESS:          0  HIT:          0  MISS:          0
L1I WRITEBACK ACCESS:          0  HIT:          0  MISS:          0
L2C TOTAL     ACCESS:    9976199  HIT:    1843587  MISS:    8132612
L2C LOAD      ACCESS:    8319368  HIT:     313423  MISS:    8005945
L2C RFO       ACCESS:      12619  HIT:       3623  MISS:       8996
L2C PREFETCH  ACCESS:     646234  HIT:     533300  MISS:     112934
L2C WRITEBACK ACCESS:     997978  HIT:     993241  MISS:       4737
LLC TOTAL     ACCESS:   14838647  HIT:   14226209  MISS:     612438
LLC LOAD      ACCESS:    8005920  HIT:    7810928  MISS:     194992
LLC RFO       ACCESS:       8996  HIT:       2277  MISS:       6719
LLC PREFETCH  ACCESS:    5830916  HIT:    5420638  MISS:     410278
LLC WRITEBACK ACCESS:     992815  HIT:     992366  MISS:        449

CPU 1 cumulative IPC: 1.16547 instructions: 2799794252 cycles: 2402283793
L1D TOTAL     ACCESS:  673237919  HIT:  651375387  MISS:   21862532
L1D LOAD      ACCESS:  457594812  HIT:  436647135  MISS:   20947677
L1D RFO       ACCESS:  215643107  HIT:  214728252  MISS:     914855
L1D PREFETCH  ACCESS:          0  HIT:          0  MISS:          0
L1D WRITEBACK ACCESS:          0  HIT:          0  MISS:          0
L1I TOTAL     ACCESS:  693502771  HIT:  693502401  MISS:        370
L1I LOAD      ACCESS:  693502771  HIT:  693502401  MISS:        370
L1I RFO       ACCESS:          0  HIT:          0  MISS:          0
L1I PREFETCH  ACCESS:          0  HIT:          0  MISS:          0
L1I WRITEBACK ACCESS:          0  HIT:          0  MISS:          0
L2C TOTAL     ACCESS:   46828292  HIT:   46145234  MISS:     683058
L2C LOAD      ACCESS:   20947420  HIT:   20531396  MISS:     416024
L2C RFO       ACCESS:     914617  HIT:     755405  MISS:     159212
L2C PREFETCH  ACCESS:   19112325  HIT:   19004721  MISS:     107604
L2C WRITEBACK ACCESS:    5853930  HIT:    5853712  MISS:        218
LLC TOTAL     ACCESS:    2784475  HIT:    2262179  MISS:     522296
LLC LOAD      ACCESS:     377479  HIT:     286279  MISS:      91200
LLC RFO       ACCESS:     159212  HIT:      19876  MISS:     139336
LLC PREFETCH  ACCESS:    1969170  HIT:    1685172  MISS:     283998
LLC WRITEBACK ACCESS:     278614  HIT:     270852  MISS:       7762

CPU 2 cumulative IPC: 0.785196 instructions: 1886263856 cycles: 2402283793
L1D TOTAL     ACCESS:  646922193  HIT:  641036979  MISS:    5885214
L1D LOAD      ACCESS:  410670739  HIT:  406473183  MISS:    4197556
L1D RFO       ACCESS:  236251454  HIT:  234563796  MISS:    1687658
L1D PREFETCH  ACCESS:          0  HIT:          0  MISS:          0
L1D WRITEBACK ACCESS:          0  HIT:          0  MISS:          0
L1I TOTAL     ACCESS:  481918470  HIT:  480938274  MISS:     980196
L1I LOAD      ACCESS:  481918470  HIT:  480938274  MISS:     980196
L1I RFO       ACCESS:          0  HIT:          0  MISS:          0
L1I PREFETCH  ACCESS:          0  HIT:          0  MISS:          0
L1I WRITEBACK ACCESS:          0  HIT:          0  MISS:          0
L2C TOTAL     ACCESS:   11620401  HIT:   11410787  MISS:     209614
L2C LOAD      ACCESS:    5177414  HIT:    4981569  MISS:     195845
L2C RFO       ACCESS:    1675596  HIT:    1666958  MISS:       8638
L2C PREFETCH  ACCESS:    2765129  HIT:    2761078  MISS:       4051
L2C WRITEBACK ACCESS:    2002262  HIT:    2001182  MISS:       1080
LLC TOTAL     ACCESS:     825455  HIT:     768308  MISS:      57147
LLC LOAD      ACCESS:     195816  HIT:     174359  MISS:      21457
LLC RFO       ACCESS:       8638  HIT:       7792  MISS:        846
LLC PREFETCH  ACCESS:     551758  HIT:     524392  MISS:      27366
LLC WRITEBACK ACCESS:      69243  HIT:      61765  MISS:       7478

CPU 3 cumulative IPC: 0.943953 instructions: 2267643455 cycles: 2402283793
L1D TOTAL     ACCESS:  557675114  HIT:  538772431  MISS:   18902683
L1D LOAD      ACCESS:  325214180  HIT:  308381959  MISS:   16832221
L1D RFO       ACCESS:  232460934  HIT:  230390472  MISS:    2070462
L1D PREFETCH  ACCESS:          0  HIT:          0  MISS:          0
L1D WRITEBACK ACCESS:          0  HIT:          0  MISS:          0
L1I TOTAL     ACCESS:  473110805  HIT:  473110805  MISS:          0
L1I LOAD      ACCESS:  473110805  HIT:  473110805  MISS:          0
L1I RFO       ACCESS:          0  HIT:          0  MISS:          0
L1I PREFETCH  ACCESS:          0  HIT:          0  MISS:          0
L1I WRITEBACK ACCESS:          0  HIT:          0  MISS:          0
L2C TOTAL     ACCESS:   26971890  HIT:   13633604  MISS:   13338286
L2C LOAD      ACCESS:   16832172  HIT:    6652905  MISS:   10179267
L2C RFO       ACCESS:    2070462  HIT:     364585  MISS:    1705877
L2C PREFETCH  ACCESS:    4473995  HIT:    3023359  MISS:    1450636
L2C WRITEBACK ACCESS:    3595261  HIT:    3592755  MISS:       2506
LLC TOTAL     ACCESS:   29703409  HIT:   29044607  MISS:     658802
LLC LOAD      ACCESS:   10178532  HIT:   10133335  MISS:      45197
LLC RFO       ACCESS:    1705870  HIT:    1261811  MISS:     444059
LLC PREFETCH  ACCESS:   14744946  HIT:   14575951  MISS:     168995
LLC WRITEBACK ACCESS:    3074061  HIT:    3073510  MISS:        551

Region of Interest Statistics

CPU 0 cumulative IPC: 0.416271 instructions: 1000000000 cycles: 2402283792
L1D TOTAL     ACCESS:  334070078  HIT:  325738092  MISS:    8331986
L1D LOAD      ACCESS:  191569401  HIT:  183250034  MISS:    8319367
L1D RFO       ACCESS:  142500677  HIT:  142488058  MISS:      12619
L1D PREFETCH  ACCESS:          0  HIT:          0  MISS:          0
L1D WRITEBACK ACCESS:          0  HIT:          0  MISS:          0
L1D PREFETCH  REQUESTED:          0  ISSUED:          0  USEFUL:          0  USELESS:          0
L1I TOTAL     ACCESS:  311650115  HIT:  311650114  MISS:          1
L1I LOAD      ACCESS:  311650115  HIT:  311650114  MISS:          1
L1I RFO       ACCESS:          0  HIT:          0  MISS:          0
L1I PREFETCH  ACCESS:          0  HIT:          0  MISS:          0
L1I WRITEBACK ACCESS:          0  HIT:          0  MISS:          0
L1I PREFETCH  REQUESTED:          0  ISSUED:          0  USEFUL:          0  USELESS:          0
L2C TOTAL     ACCESS:    9976199  HIT:    1843587  MISS:    8132612
L2C LOAD      ACCESS:    8319368  HIT:     313423  MISS:    8005945
L2C RFO       ACCESS:      12619  HIT:       3623  MISS:       8996
L2C PREFETCH  ACCESS:     646234  HIT:     533300  MISS:     112934
L2C WRITEBACK ACCESS:     997978  HIT:     993241  MISS:       4737
L2C PREFETCH  REQUESTED:    8389543  ISSUED:    8389511  USEFUL:     130790  USELESS:      40802
LLC TOTAL     ACCESS:   14838647  HIT:   14226209  MISS:     612438
LLC LOAD      ACCESS:    8005920  HIT:    7810928  MISS:     194992
LLC RFO       ACCESS:       8996  HIT:       2277  MISS:       6719
LLC PREFETCH  ACCESS:    5830916  HIT:    5420638  MISS:     410278
LLC WRITEBACK ACCESS:     992815  HIT:     992366  MISS:        449
LLC PREFETCH  REQUESTED:          0  ISSUED:          0  USEFUL:     573040  USELESS:     747244
Major fault: 0 Minor fault: 32921

CPU 1 cumulative IPC: 1.17751 instructions: 1000000003 cycles: 849252232
L1D TOTAL     ACCESS:  238337316  HIT:  230801664  MISS:    7535652
L1D LOAD      ACCESS:  158475985  HIT:  151193124  MISS:    7282861
L1D RFO       ACCESS:   79861331  HIT:   79608540  MISS:     252791
L1D PREFETCH  ACCESS:          0  HIT:          0  MISS:          0
L1D WRITEBACK ACCESS:          0  HIT:          0  MISS:          0
L1D PREFETCH  REQUESTED:          0  ISSUED:          0  USEFUL:          0  USELESS:          0
L1I TOTAL     ACCESS:  246694135  HIT:  246694135  MISS:          0
L1I LOAD      ACCESS:  246694135  HIT:  246694135  MISS:          0
L1I RFO       ACCESS:          0  HIT:          0  MISS:          0
L1I PREFETCH  ACCESS:          0  HIT:          0  MISS:          0
L1I WRITEBACK ACCESS:          0  HIT:          0  MISS:          0
L1I PREFETCH  REQUESTED:          0  ISSUED:          0  USEFUL:          0  USELESS:          0
L2C TOTAL     ACCESS:   16029937  HIT:   15896751  MISS:     133186
L2C LOAD      ACCESS:    7282656  HIT:    7157319  MISS:     125337
L2C RFO       ACCESS:     252718  HIT:     252034  MISS:        684
L2C PREFETCH  ACCESS:    6369334  HIT:    6362262  MISS:       7072
L2C WRITEBACK ACCESS:    2125229  HIT:    2125136  MISS:         93
L2C PREFETCH  REQUESTED:   26291269  ISSUED:   26291268  USEFUL:     118816  USELESS:       2922
LLC TOTAL     ACCESS:     628343  HIT:     551442  MISS:      76901
LLC LOAD      ACCESS:     119458  HIT:      89678  MISS:      29780
LLC RFO       ACCESS:        684  HIT:        661  MISS:         23
LLC PREFETCH  ACCESS:     458325  HIT:     413842  MISS:      44483
LLC WRITEBACK ACCESS:      49876  HIT:      47261  MISS:       2615
LLC PREFETCH  REQUESTED:          0  ISSUED:          0  USEFUL:     573040  USELESS:     747244
Major fault: 0 Minor fault: 3862

CPU 2 cumulative IPC: 0.790277 instructions: 1000000000 cycles: 1265378673
L1D TOTAL     ACCESS:  340759735  HIT:  337800672  MISS:    2959063
L1D LOAD      ACCESS:  218239396  HIT:  216101975  MISS:    2137421
L1D RFO       ACCESS:  122520339  HIT:  121698697  MISS:     821642
L1D PREFETCH  ACCESS:          0  HIT:          0  MISS:          0
L1D WRITEBACK ACCESS:          0  HIT:          0  MISS:          0
L1D PREFETCH  REQUESTED:          0  ISSUED:          0  USEFUL:          0  USELESS:          0
L1I TOTAL     ACCESS:  255506678  HIT:  255042619  MISS:     464059
L1I LOAD      ACCESS:  255506678  HIT:  255042619  MISS:     464059
L1I RFO       ACCESS:          0  HIT:          0  MISS:          0
L1I PREFETCH  ACCESS:          0  HIT:          0  MISS:          0
L1I WRITEBACK ACCESS:          0  HIT:          0  MISS:          0
L1I PREFETCH  REQUESTED:          0  ISSUED:          0  USEFUL:          0  USELESS:          0
L2C TOTAL     ACCESS:    5776163  HIT:    5679643  MISS:      96520
L2C LOAD      ACCESS:    2601348  HIT:    2511272  MISS:      90076
L2C RFO       ACCESS:     816028  HIT:     811758  MISS:       4270
L2C PREFETCH  ACCESS:    1380794  HIT:    1379101  MISS:       1693
L2C WRITEBACK ACCESS:     977993  HIT:     977512  MISS:        481
L2C PREFETCH  REQUESTED:    3919898  ISSUED:    3919861  USEFUL:       3752  USELESS:        514
LLC TOTAL     ACCESS:     393929  HIT:     366143  MISS:      27786
LLC LOAD      ACCESS:      90063  HIT:      79511  MISS:      10552
LLC RFO       ACCESS:       4270  HIT:       3899  MISS:        371
LLC PREFETCH  ACCESS:     268282  HIT:     255034  MISS:      13248
LLC WRITEBACK ACCESS:      31314  HIT:      27699  MISS:       3615
LLC PREFETCH  REQUESTED:          0  ISSUED:          0  USEFUL:     573040  USELESS:     747244
Major fault: 0 Minor fault: 232

CPU 3 cumulative IPC: 0.920116 instructions: 1000000000 cycles: 1086819144
L1D TOTAL     ACCESS:  249205264  HIT:  240593491  MISS:    8611773
L1D LOAD      ACCESS:  145807731  HIT:  138074044  MISS:    7733687
L1D RFO       ACCESS:  103397533  HIT:  102519447  MISS:     878086
L1D PREFETCH  ACCESS:          0  HIT:          0  MISS:          0
L1D WRITEBACK ACCESS:          0  HIT:          0  MISS:          0
L1D PREFETCH  REQUESTED:          0  ISSUED:          0  USEFUL:          0  USELESS:          0
L1I TOTAL     ACCESS:  208205323  HIT:  208205323  MISS:          0
L1I LOAD      ACCESS:  208205323  HIT:  208205323  MISS:          0
L1I RFO       ACCESS:          0  HIT:          0  MISS:          0
L1I PREFETCH  ACCESS:          0  HIT:          0  MISS:          0
L1I WRITEBACK ACCESS:          0  HIT:          0  MISS:          0
L1I PREFETCH  REQUESTED:          0  ISSUED:          0  USEFUL:          0  USELESS:          0
L2C TOTAL     ACCESS:   12020438  HIT:    5630205  MISS:    6390233
L2C LOAD      ACCESS:    7733672  HIT:    2711814  MISS:    5021858
L2C RFO       ACCESS:     878086  HIT:     151236  MISS:     726850
L2C PREFETCH  ACCESS:    1872450  HIT:    1232026  MISS:     640424
L2C WRITEBACK ACCESS:    1536230  HIT:    1535129  MISS:       1101
L2C PREFETCH  REQUESTED:   20155921  ISSUED:   20155907  USEFUL:    1642479  USELESS:      11170
LLC TOTAL     ACCESS:   13663622  HIT:   13345263  MISS:     318359
LLC LOAD      ACCESS:    5021422  HIT:    4982114  MISS:      39308
LLC RFO       ACCESS:     726848  HIT:     537686  MISS:     189162
LLC PREFETCH  ACCESS:    6592248  HIT:    6502652  MISS:      89596
LLC WRITEBACK ACCESS:    1323104  HIT:    1322811  MISS:        293
LLC PREFETCH  REQUESTED:          0  ISSUED:          0  USEFUL:     573040  USELESS:     747244
Major fault: 0 Minor fault: 6556

DRAM Statistics
 CHANNEL 0
 RQ ROW_BUFFER_HIT:     343429  ROW_BUFFER_MISS:     568662
 DBUS_CONGESTED:    1133702
 WQ ROW_BUFFER_HIT:      49152  ROW_BUFFER_MISS:     428076  FULL:          0

 CHANNEL 1
 RQ ROW_BUFFER_HIT:     343769  ROW_BUFFER_MISS:     575494
 DBUS_CONGESTED:    1133702
 WQ ROW_BUFFER_HIT:      49552  ROW_BUFFER_MISS:     427476  FULL:          0

 AVG_CONGESTED_CYCLE: 14
