
*** ChampSim Multicore Out-of-Order Simulator ***

Warmup Instructions: 200000000
Simulation Instructions: 1000000000
Number of CPUs: 4
LLC sets: 8192
LLC ways: 16
Off-chip DRAM Size: 8192 MB Channels: 2 Width: 64-bit Data Rate: 1600 MT/s

CPU 0 runs /scratch/user/djimenez/champsim-traces/speccpu2017/xz/649.fotonik3d_s/649.fotonik3d_s-10881B.champsimtrace.xz
CPU 1 runs /scratch/user/djimenez/champsim-traces/speccpu2017/xz/620.omnetpp_s/620.omnetpp_s-874B.champsimtrace.xz
CPU 2 runs /scratch/user/djimenez/champsim-traces/speccpu2017/xz/657.xz_s/657.xz_s-2302B.champsimtrace.xz
CPU 3 runs /scratch/user/djimenez/champsim-traces/speccpu2017/xz/648.exchange2_s/648.exchange2_s-1511B.champsimtrace.xz
Heartbeat CPU 3 instructions: 10000001 cycles: 4340360 heartbeat IPC: 2.30396 cumulative IPC: 2.30396 (Simulation time: 0 hr 1 min 53 sec) 
Heartbeat CPU 2 instructions: 10000002 cycles: 4455969 heartbeat IPC: 2.24418 cumulative IPC: 2.24418 (Simulation time: 0 hr 1 min 56 sec) 
Heartbeat CPU 1 instructions: 10000000 cycles: 7364695 heartbeat IPC: 1.35783 cumulative IPC: 1.35783 (Simulation time: 0 hr 3 min 12 sec) 
Heartbeat CPU 0 instructions: 10000001 cycles: 8412294 heartbeat IPC: 1.18874 cumulative IPC: 1.18874 (Simulation time: 0 hr 3 min 39 sec) 
Heartbeat CPU 3 instructions: 20000000 cycles: 8622922 heartbeat IPC: 2.33505 cumulative IPC: 2.3194 (Simulation time: 0 hr 3 min 45 sec) 
Heartbeat CPU 2 instructions: 20000000 cycles: 8878912 heartbeat IPC: 2.26094 cumulative IPC: 2.25253 (Simulation time: 0 hr 3 min 52 sec) 
Heartbeat CPU 3 instructions: 30000000 cycles: 12762279 heartbeat IPC: 2.41583 cumulative IPC: 2.35068 (Simulation time: 0 hr 5 min 33 sec) 
Heartbeat CPU 2 instructions: 30000003 cycles: 13396401 heartbeat IPC: 2.21362 cumulative IPC: 2.23941 (Simulation time: 0 hr 5 min 50 sec) 
Heartbeat CPU 1 instructions: 20000000 cycles: 14710503 heartbeat IPC: 1.36132 cumulative IPC: 1.35957 (Simulation time: 0 hr 6 min 24 sec) 
Heartbeat CPU 0 instructions: 20000000 cycles: 16795612 heartbeat IPC: 1.19284 cumulative IPC: 1.19079 (Simulation time: 0 hr 7 min 18 sec) 
Heartbeat CPU 3 instructions: 40000000 cycles: 16908508 heartbeat IPC: 2.41183 cumulative IPC: 2.36567 (Simulation time: 0 hr 7 min 21 sec) 
Heartbeat CPU 2 instructions: 40000000 cycles: 17881329 heartbeat IPC: 2.22969 cumulative IPC: 2.23697 (Simulation time: 0 hr 7 min 46 sec) 
Heartbeat CPU 3 instructions: 50000003 cycles: 21128667 heartbeat IPC: 2.36958 cumulative IPC: 2.36645 (Simulation time: 0 hr 9 min 14 sec) 
Heartbeat CPU 1 instructions: 30000001 cycles: 22057805 heartbeat IPC: 1.36104 cumulative IPC: 1.36006 (Simulation time: 0 hr 9 min 43 sec) 
Heartbeat CPU 2 instructions: 50000003 cycles: 22403685 heartbeat IPC: 2.21124 cumulative IPC: 2.23178 (Simulation time: 0 hr 9 min 52 sec) 
Heartbeat CPU 0 instructions: 30000000 cycles: 25171156 heartbeat IPC: 1.19395 cumulative IPC: 1.19184 (Simulation time: 0 hr 11 min 13 sec) 
Heartbeat CPU 3 instructions: 60000000 cycles: 25365678 heartbeat IPC: 2.36015 cumulative IPC: 2.3654 (Simulation time: 0 hr 11 min 18 sec) 
Heartbeat CPU 2 instructions: 60000000 cycles: 26857000 heartbeat IPC: 2.24552 cumulative IPC: 2.23405 (Simulation time: 0 hr 11 min 59 sec) 
Heartbeat CPU 1 instructions: 40000000 cycles: 29415031 heartbeat IPC: 1.35921 cumulative IPC: 1.35985 (Simulation time: 0 hr 13 min 7 sec) 
Heartbeat CPU 3 instructions: 70000003 cycles: 29715644 heartbeat IPC: 2.29887 cumulative IPC: 2.35566 (Simulation time: 0 hr 13 min 15 sec) 
Heartbeat CPU 2 instructions: 70000002 cycles: 31267468 heartbeat IPC: 2.26733 cumulative IPC: 2.23875 (Simulation time: 0 hr 14 min 0 sec) 
Heartbeat CPU 0 instructions: 40000000 cycles: 33557140 heartbeat IPC: 1.19247 cumulative IPC: 1.192 (Simulation time: 0 hr 14 min 59 sec) 
Heartbeat CPU 3 instructions: 80000000 cycles: 33974963 heartbeat IPC: 2.34779 cumulative IPC: 2.35468 (Simulation time: 0 hr 15 min 10 sec) 
Heartbeat CPU 2 instructions: 80000000 cycles: 35686674 heartbeat IPC: 2.26285 cumulative IPC: 2.24173 (Simulation time: 0 hr 15 min 54 sec) 
Heartbeat CPU 1 instructions: 50000000 cycles: 36772351 heartbeat IPC: 1.35919 cumulative IPC: 1.35972 (Simulation time: 0 hr 16 min 22 sec) 
Heartbeat CPU 3 instructions: 90000000 cycles: 38245187 heartbeat IPC: 2.3418 cumulative IPC: 2.35324 (Simulation time: 0 hr 17 min 0 sec) 
Heartbeat CPU 2 instructions: 90000000 cycles: 40132280 heartbeat IPC: 2.24941 cumulative IPC: 2.24258 (Simulation time: 0 hr 17 min 49 sec) 
Heartbeat CPU 0 instructions: 50000001 cycles: 41975734 heartbeat IPC: 1.18785 cumulative IPC: 1.19116 (Simulation time: 0 hr 18 min 37 sec) 
Heartbeat CPU 3 instructions: 100000000 cycles: 42475504 heartbeat IPC: 2.36389 cumulative IPC: 2.3543 (Simulation time: 0 hr 18 min 50 sec) 
Heartbeat CPU 1 instructions: 60000000 cycles: 44137106 heartbeat IPC: 1.35782 cumulative IPC: 1.3594 (Simulation time: 0 hr 19 min 34 sec) 
Heartbeat CPU 2 instructions: 100000000 cycles: 44532723 heartbeat IPC: 2.2725 cumulative IPC: 2.24554 (Simulation time: 0 hr 19 min 44 sec) 
Heartbeat CPU 3 instructions: 110000001 cycles: 46687345 heartbeat IPC: 2.37426 cumulative IPC: 2.3561 (Simulation time: 0 hr 20 min 40 sec) 
Heartbeat CPU 2 instructions: 110000003 cycles: 48883542 heartbeat IPC: 2.29842 cumulative IPC: 2.25025 (Simulation time: 0 hr 21 min 36 sec) 
Heartbeat CPU 0 instructions: 60000000 cycles: 50367838 heartbeat IPC: 1.1916 cumulative IPC: 1.19124 (Simulation time: 0 hr 22 min 14 sec) 
Heartbeat CPU 3 instructions: 120000000 cycles: 50908973 heartbeat IPC: 2.36875 cumulative IPC: 2.35715 (Simulation time: 0 hr 22 min 28 sec) 
Heartbeat CPU 1 instructions: 70000000 cycles: 51490192 heartbeat IPC: 1.35997 cumulative IPC: 1.35948 (Simulation time: 0 hr 22 min 43 sec) 
Heartbeat CPU 2 instructions: 120000000 cycles: 53343463 heartbeat IPC: 2.24219 cumulative IPC: 2.24957 (Simulation time: 0 hr 23 min 31 sec) 
Heartbeat CPU 3 instructions: 130000000 cycles: 55084065 heartbeat IPC: 2.39516 cumulative IPC: 2.36003 (Simulation time: 0 hr 24 min 17 sec) 
Heartbeat CPU 2 instructions: 130000000 cycles: 57558830 heartbeat IPC: 2.37227 cumulative IPC: 2.25856 (Simulation time: 0 hr 25 min 22 sec) 
Heartbeat CPU 0 instructions: 70000003 cycles: 58738347 heartbeat IPC: 1.19467 cumulative IPC: 1.19173 (Simulation time: 0 hr 25 min 51 sec) 
Heartbeat CPU 1 instructions: 80000000 cycles: 58837547 heartbeat IPC: 1.36103 cumulative IPC: 1.35968 (Simulation time: 0 hr 25 min 54 sec) 
Heartbeat CPU 3 instructions: 140000000 cycles: 59309746 heartbeat IPC: 2.36648 cumulative IPC: 2.36049 (Simulation time: 0 hr 26 min 5 sec) 
Heartbeat CPU 2 instructions: 140000000 cycles: 61728937 heartbeat IPC: 2.39802 cumulative IPC: 2.26798 (Simulation time: 0 hr 27 min 3 sec) 
Heartbeat CPU 3 instructions: 150000000 cycles: 63624001 heartbeat IPC: 2.3179 cumulative IPC: 2.3576 (Simulation time: 0 hr 27 min 48 sec) 
Heartbeat CPU 2 instructions: 150000000 cycles: 65955033 heartbeat IPC: 2.36625 cumulative IPC: 2.27428 (Simulation time: 0 hr 28 min 44 sec) 
Heartbeat CPU 1 instructions: 90000000 cycles: 66187086 heartbeat IPC: 1.36063 cumulative IPC: 1.35978 (Simulation time: 0 hr 28 min 50 sec) 
Heartbeat CPU 0 instructions: 80000000 cycles: 67125838 heartbeat IPC: 1.19225 cumulative IPC: 1.19179 (Simulation time: 0 hr 29 min 12 sec) 
Heartbeat CPU 3 instructions: 160000000 cycles: 67805268 heartbeat IPC: 2.39162 cumulative IPC: 2.3597 (Simulation time: 0 hr 29 min 29 sec) 
Heartbeat CPU 2 instructions: 160000000 cycles: 70316688 heartbeat IPC: 2.29271 cumulative IPC: 2.27542 (Simulation time: 0 hr 30 min 30 sec) 
Heartbeat CPU 3 instructions: 170000001 cycles: 72032496 heartbeat IPC: 2.36562 cumulative IPC: 2.36005 (Simulation time: 0 hr 31 min 13 sec) 
Heartbeat CPU 1 instructions: 100000000 cycles: 73556659 heartbeat IPC: 1.35693 cumulative IPC: 1.3595 (Simulation time: 0 hr 31 min 51 sec) 
Heartbeat CPU 2 instructions: 170000003 cycles: 74868682 heartbeat IPC: 2.19684 cumulative IPC: 2.27064 (Simulation time: 0 hr 32 min 26 sec) 
Heartbeat CPU 0 instructions: 90000001 cycles: 75532295 heartbeat IPC: 1.18956 cumulative IPC: 1.19154 (Simulation time: 0 hr 32 min 44 sec) 
Heartbeat CPU 3 instructions: 180000000 cycles: 76248396 heartbeat IPC: 2.37197 cumulative IPC: 2.36071 (Simulation time: 0 hr 33 min 4 sec) 
Heartbeat CPU 2 instructions: 180000000 cycles: 79403500 heartbeat IPC: 2.20516 cumulative IPC: 2.2669 (Simulation time: 0 hr 34 min 29 sec) 
Heartbeat CPU 3 instructions: 190000000 cycles: 80463067 heartbeat IPC: 2.37266 cumulative IPC: 2.36133 (Simulation time: 0 hr 34 min 57 sec) 
Heartbeat CPU 1 instructions: 110000003 cycles: 80889589 heartbeat IPC: 1.36371 cumulative IPC: 1.35988 (Simulation time: 0 hr 35 min 9 sec) 
Heartbeat CPU 0 instructions: 100000000 cycles: 83912231 heartbeat IPC: 1.19333 cumulative IPC: 1.19172 (Simulation time: 0 hr 36 min 30 sec) 
Heartbeat CPU 2 instructions: 190000001 cycles: 83945854 heartbeat IPC: 2.2015 cumulative IPC: 2.26336 (Simulation time: 0 hr 36 min 30 sec) 
Heartbeat CPU 3 instructions: 200000000 cycles: 84678101 heartbeat IPC: 2.37246 cumulative IPC: 2.36189 (Simulation time: 0 hr 36 min 50 sec) 
Heartbeat CPU 1 instructions: 120000000 cycles: 88242183 heartbeat IPC: 1.36006 cumulative IPC: 1.35989 (Simulation time: 0 hr 38 min 25 sec) 
Heartbeat CPU 2 instructions: 200000000 cycles: 88486425 heartbeat IPC: 2.20237 cumulative IPC: 2.26023 (Simulation time: 0 hr 38 min 31 sec) 
Heartbeat CPU 3 instructions: 210000003 cycles: 88896302 heartbeat IPC: 2.37068 cumulative IPC: 0.112491 (Simulation time: 0 hr 38 min 42 sec) 
Heartbeat CPU 0 instructions: 110000002 cycles: 92302378 heartbeat IPC: 1.19187 cumulative IPC: 1.19174 (Simulation time: 0 hr 40 min 13 sec) 
Heartbeat CPU 2 instructions: 210000000 cycles: 93017691 heartbeat IPC: 2.20689 cumulative IPC: 0.107506 (Simulation time: 0 hr 40 min 32 sec) 
Heartbeat CPU 3 instructions: 220000000 cycles: 93147746 heartbeat IPC: 2.35214 cumulative IPC: 0.214713 (Simulation time: 0 hr 40 min 35 sec) 
Heartbeat CPU 1 instructions: 130000000 cycles: 95577654 heartbeat IPC: 1.36324 cumulative IPC: 1.36015 (Simulation time: 0 hr 41 min 40 sec) 
Heartbeat CPU 3 instructions: 230000001 cycles: 97298635 heartbeat IPC: 2.40912 cumulative IPC: 0.308329 (Simulation time: 0 hr 42 min 25 sec) 
Heartbeat CPU 2 instructions: 220000000 cycles: 97566675 heartbeat IPC: 2.19829 cumulative IPC: 0.204988 (Simulation time: 0 hr 42 min 32 sec) 
Heartbeat CPU 0 instructions: 120000000 cycles: 100700382 heartbeat IPC: 1.19076 cumulative IPC: 1.19165 (Simulation time: 0 hr 43 min 56 sec) 
Heartbeat CPU 3 instructions: 240000000 cycles: 101523107 heartbeat IPC: 2.36716 cumulative IPC: 0.393999 (Simulation time: 0 hr 44 min 18 sec) 
Heartbeat CPU 2 instructions: 230000001 cycles: 102124140 heartbeat IPC: 2.1942 cumulative IPC: 0.29376 (Simulation time: 0 hr 44 min 33 sec) 
Heartbeat CPU 1 instructions: 140000000 cycles: 102938418 heartbeat IPC: 1.35855 cumulative IPC: 1.36004 (Simulation time: 0 hr 44 min 54 sec) 
Heartbeat CPU 3 instructions: 250000002 cycles: 105786873 heartbeat IPC: 2.34535 cumulative IPC: 0.472648 (Simulation time: 0 hr 46 min 4 sec) 
Heartbeat CPU 2 instructions: 240000000 cycles: 106687696 heartbeat IPC: 2.19127 cumulative IPC: 0.374926 (Simulation time: 0 hr 46 min 26 sec) 
Heartbeat CPU 0 instructions: 130000001 cycles: 109103351 heartbeat IPC: 1.19006 cumulative IPC: 1.19153 (Simulation time: 0 hr 47 min 24 sec) 
Heartbeat CPU 3 instructions: 260000000 cycles: 110006495 heartbeat IPC: 2.36988 cumulative IPC: 0.545422 (Simulation time: 0 hr 47 min 48 sec) 
Heartbeat CPU 1 instructions: 150000001 cycles: 110306652 heartbeat IPC: 1.35718 cumulative IPC: 1.35985 (Simulation time: 0 hr 47 min 57 sec) 
Heartbeat CPU 2 instructions: 250000002 cycles: 111232846 heartbeat IPC: 2.20015 cumulative IPC: 0.449508 (Simulation time: 0 hr 48 min 21 sec) 
Heartbeat CPU 3 instructions: 270000002 cycles: 114188493 heartbeat IPC: 2.3912 cumulative IPC: 0.613021 (Simulation time: 0 hr 49 min 40 sec) 
Heartbeat CPU 2 instructions: 260000000 cycles: 115772761 heartbeat IPC: 2.20268 cumulative IPC: 0.518257 (Simulation time: 0 hr 50 min 22 sec) 
Heartbeat CPU 0 instructions: 140000000 cycles: 117482719 heartbeat IPC: 1.19341 cumulative IPC: 1.19166 (Simulation time: 0 hr 51 min 7 sec) 
Heartbeat CPU 1 instructions: 160000000 cycles: 117679692 heartbeat IPC: 1.35629 cumulative IPC: 1.35962 (Simulation time: 0 hr 51 min 13 sec) 
Heartbeat CPU 3 instructions: 280000000 cycles: 118342039 heartbeat IPC: 2.40758 cumulative IPC: 0.676007 (Simulation time: 0 hr 51 min 30 sec) 
Heartbeat CPU 2 instructions: 270000002 cycles: 120329544 heartbeat IPC: 2.19453 cumulative IPC: 0.581736 (Simulation time: 0 hr 52 min 23 sec) 
Heartbeat CPU 3 instructions: 290000003 cycles: 122628279 heartbeat IPC: 2.33305 cumulative IPC: 0.733925 (Simulation time: 0 hr 53 min 24 sec) 
Heartbeat CPU 2 instructions: 280000000 cycles: 124895519 heartbeat IPC: 2.19011 cumulative IPC: 0.640535 (Simulation time: 0 hr 54 min 24 sec) 
Heartbeat CPU 1 instructions: 170000003 cycles: 125031076 heartbeat IPC: 1.36029 cumulative IPC: 1.35966 (Simulation time: 0 hr 54 min 28 sec) 
Heartbeat CPU 0 instructions: 150000002 cycles: 125856718 heartbeat IPC: 1.19417 cumulative IPC: 1.19183 (Simulation time: 0 hr 54 min 50 sec) 
Heartbeat CPU 3 instructions: 300000000 cycles: 126805770 heartbeat IPC: 2.39378 cumulative IPC: 0.788608 (Simulation time: 0 hr 55 min 15 sec) 
Heartbeat CPU 2 instructions: 290000003 cycles: 129467211 heartbeat IPC: 2.18737 cumulative IPC: 0.695157 (Simulation time: 0 hr 56 min 24 sec) 
Heartbeat CPU 3 instructions: 310000003 cycles: 131061003 heartbeat IPC: 2.35005 cumulative IPC: 0.839304 (Simulation time: 0 hr 57 min 6 sec) 
Heartbeat CPU 1 instructions: 180000000 cycles: 132391710 heartbeat IPC: 1.35858 cumulative IPC: 1.3596 (Simulation time: 0 hr 57 min 42 sec) 
Heartbeat CPU 2 instructions: 300000000 cycles: 134078912 heartbeat IPC: 2.1684 cumulative IPC: 0.745829 (Simulation time: 0 hr 58 min 27 sec) 
Heartbeat CPU 0 instructions: 160000000 cycles: 134255479 heartbeat IPC: 1.19065 cumulative IPC: 1.19176 (Simulation time: 0 hr 58 min 32 sec) 
Heartbeat CPU 3 instructions: 320000000 cycles: 135322277 heartbeat IPC: 2.34672 cumulative IPC: 0.886772 (Simulation time: 0 hr 59 min 0 sec) 
Heartbeat CPU 2 instructions: 310000001 cycles: 138590838 heartbeat IPC: 2.21635 cumulative IPC: 0.793703 (Simulation time: 1 hr 0 min 27 sec) 
Heartbeat CPU 3 instructions: 330000003 cycles: 139634932 heartbeat IPC: 2.31876 cumulative IPC: 0.930999 (Simulation time: 1 hr 0 min 55 sec) 
Heartbeat CPU 1 instructions: 190000002 cycles: 139736998 heartbeat IPC: 1.36142 cumulative IPC: 1.3597 (Simulation time: 1 hr 0 min 57 sec) 
Heartbeat CPU 0 instructions: 170000000 cycles: 142661975 heartbeat IPC: 1.18956 cumulative IPC: 1.19163 (Simulation time: 1 hr 2 min 14 sec) 
Heartbeat CPU 2 instructions: 320000000 cycles: 142959378 heartbeat IPC: 2.28909 cumulative IPC: 0.839399 (Simulation time: 1 hr 2 min 22 sec) 
Heartbeat CPU 3 instructions: 340000000 cycles: 143769874 heartbeat IPC: 2.41841 cumulative IPC: 0.973778 (Simulation time: 1 hr 2 min 43 sec) 
Heartbeat CPU 1 instructions: 200000000 cycles: 147085093 heartbeat IPC: 1.3609 cumulative IPC: 1.35976 (Simulation time: 1 hr 4 min 6 sec) 
Heartbeat CPU 2 instructions: 330000001 cycles: 147302485 heartbeat IPC: 2.3025 cumulative IPC: 0.882538 (Simulation time: 1 hr 4 min 11 sec) 
Heartbeat CPU 3 instructions: 350000000 cycles: 147849860 heartbeat IPC: 2.45099 cumulative IPC: 1.01454 (Simulation time: 1 hr 4 min 24 sec) 
Heartbeat CPU 0 instructions: 180000000 cycles: 151039002 heartbeat IPC: 1.19374 cumulative IPC: 1.19175 (Simulation time: 1 hr 5 min 42 sec) 
Heartbeat CPU 2 instructions: 340000000 cycles: 151876620 heartbeat IPC: 2.18621 cumulative IPC: 0.921801 (Simulation time: 1 hr 6 min 2 sec) 
Heartbeat CPU 3 instructions: 360000000 cycles: 152040439 heartbeat IPC: 2.38631 cumulative IPC: 1.05235 (Simulation time: 1 hr 6 min 6 sec) 
Heartbeat CPU 1 instructions: 210000003 cycles: 154454636 heartbeat IPC: 1.35694 cumulative IPC: 0.064744 (Simulation time: 1 hr 7 min 8 sec) 
Heartbeat CPU 3 instructions: 370000003 cycles: 156112328 heartbeat IPC: 2.45586 cumulative IPC: 1.08896 (Simulation time: 1 hr 7 min 52 sec) 
Heartbeat CPU 2 instructions: 350000000 cycles: 156232662 heartbeat IPC: 2.29566 cumulative IPC: 0.960107 (Simulation time: 1 hr 7 min 55 sec) 
Heartbeat CPU 0 instructions: 190000001 cycles: 159428310 heartbeat IPC: 1.19199 cumulative IPC: 1.19176 (Simulation time: 1 hr 9 min 28 sec) 
Heartbeat CPU 3 instructions: 380000000 cycles: 160159977 heartbeat IPC: 2.47057 cumulative IPC: 1.12388 (Simulation time: 1 hr 9 min 50 sec) 
Heartbeat CPU 2 instructions: 360000000 cycles: 160796661 heartbeat IPC: 2.19106 cumulative IPC: 0.995046 (Simulation time: 1 hr 10 min 7 sec) 
Heartbeat CPU 1 instructions: 220000000 cycles: 161786681 heartbeat IPC: 1.36388 cumulative IPC: 0.12362 (Simulation time: 1 hr 10 min 34 sec) 
Heartbeat CPU 3 instructions: 390000000 cycles: 164215916 heartbeat IPC: 2.46552 cumulative IPC: 1.15701 (Simulation time: 1 hr 11 min 41 sec) 
Heartbeat CPU 2 instructions: 370000000 cycles: 164854556 heartbeat IPC: 2.46433 cumulative IPC: 1.03121 (Simulation time: 1 hr 11 min 58 sec) 
Heartbeat CPU 0 instructions: 200000000 cycles: 167824670 heartbeat IPC: 1.19099 cumulative IPC: 1.19172 (Simulation time: 1 hr 13 min 16 sec) 

Warmup complete CPU 0 instructions: 200000001 cycles: 167824689 (Simulation time: 1 hr 13 min 16 sec) 
Warmup complete CPU 1 instructions: 228222985 cycles: 167824688 (Simulation time: 1 hr 13 min 16 sec) 
Warmup complete CPU 2 instructions: 376871609 cycles: 167824688 (Simulation time: 1 hr 13 min 16 sec) 
Warmup complete CPU 3 instructions: 398735449 cycles: 167824688 (Simulation time: 1 hr 13 min 16 sec) 

Heartbeat CPU 3 instructions: 400000000 cycles: 168782218 heartbeat IPC: 2.18996 cumulative IPC: 1.32064 (Simulation time: 1 hr 13 min 28 sec) 
Heartbeat CPU 2 instructions: 380000000 cycles: 171098862 heartbeat IPC: 1.60146 cumulative IPC: 0.955475 (Simulation time: 1 hr 13 min 59 sec) 
Heartbeat CPU 1 instructions: 230000002 cycles: 175298330 heartbeat IPC: 0.740102 cumulative IPC: 0.237771 (Simulation time: 1 hr 14 min 56 sec) 
Heartbeat CPU 3 instructions: 410000002 cycles: 175509678 heartbeat IPC: 1.48645 cumulative IPC: 1.46579 (Simulation time: 1 hr 14 min 59 sec) 
Heartbeat CPU 3 instructions: 420000000 cycles: 181699836 heartbeat IPC: 1.61547 cumulative IPC: 1.53256 (Simulation time: 1 hr 16 min 19 sec) 
Heartbeat CPU 2 instructions: 390000002 cycles: 182035059 heartbeat IPC: 0.914395 cumulative IPC: 0.92386 (Simulation time: 1 hr 16 min 23 sec) 
Heartbeat CPU 3 instructions: 430000000 cycles: 187933442 heartbeat IPC: 1.60421 cumulative IPC: 1.55477 (Simulation time: 1 hr 17 min 40 sec) 
Heartbeat CPU 2 instructions: 400000000 cycles: 192674949 heartbeat IPC: 0.939859 cumulative IPC: 0.93071 (Simulation time: 1 hr 18 min 41 sec) 
Heartbeat CPU 0 instructions: 210000002 cycles: 192800299 heartbeat IPC: 0.40039 cumulative IPC: 0.400391 (Simulation time: 1 hr 18 min 42 sec) 
Heartbeat CPU 3 instructions: 440000000 cycles: 194238127 heartbeat IPC: 1.58612 cumulative IPC: 1.56226 (Simulation time: 1 hr 19 min 1 sec) 
Heartbeat CPU 3 instructions: 450000001 cycles: 200477641 heartbeat IPC: 1.60269 cumulative IPC: 1.56998 (Simulation time: 1 hr 20 min 19 sec) 
Heartbeat CPU 2 instructions: 410000002 cycles: 205573562 heartbeat IPC: 0.775277 cumulative IPC: 0.877599 (Simulation time: 1 hr 21 min 22 sec) 
Heartbeat CPU 3 instructions: 460000000 cycles: 206744878 heartbeat IPC: 1.5956 cumulative IPC: 1.57411 (Simulation time: 1 hr 21 min 37 sec) 
Heartbeat CPU 3 instructions: 470000003 cycles: 212890548 heartbeat IPC: 1.62716 cumulative IPC: 1.58134 (Simulation time: 1 hr 22 min 55 sec) 
Heartbeat CPU 2 instructions: 420000000 cycles: 217204538 heartbeat IPC: 0.859773 cumulative IPC: 0.873401 (Simulation time: 1 hr 23 min 51 sec) 
Heartbeat CPU 0 instructions: 220000000 cycles: 217962536 heartbeat IPC: 0.397421 cumulative IPC: 0.3989 (Simulation time: 1 hr 24 min 1 sec) 
Heartbeat CPU 1 instructions: 240000000 cycles: 218170880 heartbeat IPC: 0.233249 cumulative IPC: 0.233921 (Simulation time: 1 hr 24 min 4 sec) 
Heartbeat CPU 3 instructions: 480000000 cycles: 219087385 heartbeat IPC: 1.61373 cumulative IPC: 1.58526 (Simulation time: 1 hr 24 min 16 sec) 
Heartbeat CPU 3 instructions: 490000001 cycles: 225267888 heartbeat IPC: 1.61799 cumulative IPC: 1.58878 (Simulation time: 1 hr 25 min 38 sec) 
Heartbeat CPU 2 instructions: 430000000 cycles: 227228377 heartbeat IPC: 0.997622 cumulative IPC: 0.894362 (Simulation time: 1 hr 26 min 2 sec) 
Heartbeat CPU 3 instructions: 500000000 cycles: 231456909 heartbeat IPC: 1.61576 cumulative IPC: 1.5914 (Simulation time: 1 hr 26 min 55 sec) 
Heartbeat CPU 3 instructions: 510000000 cycles: 237643804 heartbeat IPC: 1.61632 cumulative IPC: 1.59361 (Simulation time: 1 hr 28 min 15 sec) 
Heartbeat CPU 2 instructions: 440000000 cycles: 239386243 heartbeat IPC: 0.822513 cumulative IPC: 0.882155 (Simulation time: 1 hr 28 min 37 sec) 
Heartbeat CPU 0 instructions: 230000002 cycles: 243308984 heartbeat IPC: 0.394533 cumulative IPC: 0.397434 (Simulation time: 1 hr 29 min 30 sec) 
Heartbeat CPU 3 instructions: 520000000 cycles: 243829744 heartbeat IPC: 1.61657 cumulative IPC: 1.59548 (Simulation time: 1 hr 29 min 37 sec) 
Heartbeat CPU 2 instructions: 450000001 cycles: 248140290 heartbeat IPC: 1.14233 cumulative IPC: 0.910513 (Simulation time: 1 hr 30 min 36 sec) 
Heartbeat CPU 3 instructions: 530000000 cycles: 249994842 heartbeat IPC: 1.62203 cumulative IPC: 1.59747 (Simulation time: 1 hr 31 min 3 sec) 
Heartbeat CPU 3 instructions: 540000000 cycles: 256201468 heartbeat IPC: 1.61118 cumulative IPC: 1.59844 (Simulation time: 1 hr 32 min 34 sec) 
Heartbeat CPU 2 instructions: 460000000 cycles: 256962139 heartbeat IPC: 1.13355 cumulative IPC: 0.932587 (Simulation time: 1 hr 32 min 45 sec) 
Heartbeat CPU 1 instructions: 250000000 cycles: 261049496 heartbeat IPC: 0.233216 cumulative IPC: 0.233597 (Simulation time: 1 hr 33 min 46 sec) 
Heartbeat CPU 3 instructions: 550000001 cycles: 262427032 heartbeat IPC: 1.60628 cumulative IPC: 1.59895 (Simulation time: 1 hr 34 min 7 sec) 
Heartbeat CPU 2 instructions: 470000002 cycles: 265441363 heartbeat IPC: 1.17935 cumulative IPC: 0.954021 (Simulation time: 1 hr 34 min 51 sec) 
Heartbeat CPU 0 instructions: 240000000 cycles: 268506354 heartbeat IPC: 0.396867 cumulative IPC: 0.397292 (Simulation time: 1 hr 35 min 36 sec) 
Heartbeat CPU 3 instructions: 560000000 cycles: 268799316 heartbeat IPC: 1.5693 cumulative IPC: 1.59708 (Simulation time: 1 hr 35 min 40 sec) 
Heartbeat CPU 2 instructions: 480000000 cycles: 274724864 heartbeat IPC: 1.07718 cumulative IPC: 0.964717 (Simulation time: 1 hr 37 min 7 sec) 
Heartbeat CPU 3 instructions: 570000003 cycles: 275128785 heartbeat IPC: 1.57991 cumulative IPC: 1.59607 (Simulation time: 1 hr 37 min 12 sec) 
Heartbeat CPU 3 instructions: 580000000 cycles: 281985654 heartbeat IPC: 1.45839 cumulative IPC: 1.5878 (Simulation time: 1 hr 38 min 49 sec) 
Heartbeat CPU 2 instructions: 490000000 cycles: 284454877 heartbeat IPC: 1.02775 cumulative IPC: 0.969975 (Simulation time: 1 hr 39 min 25 sec) 
Heartbeat CPU 3 instructions: 590000000 cycles: 288194979 heartbeat IPC: 1.61048 cumulative IPC: 1.58897 (Simulation time: 1 hr 40 min 19 sec) 
Heartbeat CPU 2 instructions: 500000000 cycles: 293472091 heartbeat IPC: 1.10899 cumulative IPC: 0.979952 (Simulation time: 1 hr 41 min 40 sec) 
Heartbeat CPU 0 instructions: 250000001 cycles: 293660665 heartbeat IPC: 0.397546 cumulative IPC: 0.397343 (Simulation time: 1 hr 41 min 42 sec) 
Heartbeat CPU 3 instructions: 600000000 cycles: 294311704 heartbeat IPC: 1.63486 cumulative IPC: 1.59119 (Simulation time: 1 hr 41 min 52 sec) 
Heartbeat CPU 3 instructions: 610000002 cycles: 300344919 heartbeat IPC: 1.65749 cumulative IPC: 1.59421 (Simulation time: 1 hr 43 min 20 sec) 
Heartbeat CPU 2 instructions: 510000001 cycles: 302771927 heartbeat IPC: 1.07529 cumulative IPC: 0.986522 (Simulation time: 1 hr 43 min 56 sec) 
Heartbeat CPU 1 instructions: 260000000 cycles: 303977879 heartbeat IPC: 0.232946 cumulative IPC: 0.233392 (Simulation time: 1 hr 44 min 14 sec) 
Heartbeat CPU 3 instructions: 620000000 cycles: 306328743 heartbeat IPC: 1.67117 cumulative IPC: 1.59753 (Simulation time: 1 hr 44 min 48 sec) 
Heartbeat CPU 3 instructions: 630000001 cycles: 312724545 heartbeat IPC: 1.56353 cumulative IPC: 1.59603 (Simulation time: 1 hr 46 min 19 sec) 
Heartbeat CPU 2 instructions: 520000000 cycles: 312892919 heartbeat IPC: 0.988045 cumulative IPC: 0.986628 (Simulation time: 1 hr 46 min 22 sec) 
Heartbeat CPU 0 instructions: 260000000 cycles: 318912662 heartbeat IPC: 0.396008 cumulative IPC: 0.39712 (Simulation time: 1 hr 47 min 48 sec) 
Heartbeat CPU 3 instructions: 640000000 cycles: 318991447 heartbeat IPC: 1.59568 cumulative IPC: 1.59602 (Simulation time: 1 hr 47 min 49 sec) 
Heartbeat CPU 2 instructions: 530000002 cycles: 322557143 heartbeat IPC: 1.03474 cumulative IPC: 0.989633 (Simulation time: 1 hr 48 min 38 sec) 
Heartbeat CPU 3 instructions: 650000000 cycles: 325882919 heartbeat IPC: 1.45107 cumulative IPC: 1.5897 (Simulation time: 1 hr 49 min 26 sec) 
Heartbeat CPU 3 instructions: 660000000 cycles: 332135932 heartbeat IPC: 1.59923 cumulative IPC: 1.59006 (Simulation time: 1 hr 51 min 5 sec) 
Heartbeat CPU 2 instructions: 540000000 cycles: 334753991 heartbeat IPC: 0.819884 cumulative IPC: 0.97723 (Simulation time: 1 hr 51 min 48 sec) 
Heartbeat CPU 3 instructions: 670000001 cycles: 338377836 heartbeat IPC: 1.60208 cumulative IPC: 1.5905 (Simulation time: 1 hr 52 min 49 sec) 
Heartbeat CPU 0 instructions: 270000001 cycles: 344312587 heartbeat IPC: 0.393702 cumulative IPC: 0.396628 (Simulation time: 1 hr 54 min 28 sec) 
Heartbeat CPU 3 instructions: 680000000 cycles: 344589846 heartbeat IPC: 1.60978 cumulative IPC: 1.59118 (Simulation time: 1 hr 54 min 32 sec) 
Heartbeat CPU 1 instructions: 270000000 cycles: 347136698 heartbeat IPC: 0.231702 cumulative IPC: 0.232985 (Simulation time: 1 hr 55 min 15 sec) 
Heartbeat CPU 2 instructions: 550000000 cycles: 347248108 heartbeat IPC: 0.800377 cumulative IPC: 0.964915 (Simulation time: 1 hr 55 min 17 sec) 
Heartbeat CPU 3 instructions: 690000002 cycles: 351540063 heartbeat IPC: 1.4388 cumulative IPC: 1.58541 (Simulation time: 1 hr 56 min 26 sec) 
Heartbeat CPU 3 instructions: 700000000 cycles: 357764210 heartbeat IPC: 1.60665 cumulative IPC: 1.58611 (Simulation time: 1 hr 58 min 13 sec) 
Heartbeat CPU 2 instructions: 560000000 cycles: 358392405 heartbeat IPC: 0.89732 cumulative IPC: 0.960962 (Simulation time: 1 hr 58 min 24 sec) 
Heartbeat CPU 3 instructions: 710000001 cycles: 363997094 heartbeat IPC: 1.60439 cumulative IPC: 1.58669 (Simulation time: 1 hr 59 min 48 sec) 
Heartbeat CPU 2 instructions: 570000000 cycles: 369914993 heartbeat IPC: 0.867861 cumulative IPC: 0.955654 (Simulation time: 2 hr 1 min 13 sec) 
Heartbeat CPU 3 instructions: 720000000 cycles: 370100749 heartbeat IPC: 1.63836 cumulative IPC: 1.58825 (Simulation time: 2 hr 1 min 15 sec) 
Heartbeat CPU 3 instructions: 730000000 cycles: 376168035 heartbeat IPC: 1.64818 cumulative IPC: 1.58999 (Simulation time: 2 hr 2 min 42 sec) 
Heartbeat CPU 2 instructions: 580000000 cycles: 381329513 heartbeat IPC: 0.876077 cumulative IPC: 0.9514 (Simulation time: 2 hr 3 min 51 sec) 
Heartbeat CPU 3 instructions: 740000000 cycles: 383028153 heartbeat IPC: 1.4577 cumulative IPC: 1.58578 (Simulation time: 2 hr 4 min 19 sec) 
Heartbeat CPU 3 instructions: 750000001 cycles: 389820508 heartbeat IPC: 1.47224 cumulative IPC: 1.5823 (Simulation time: 2 hr 5 min 56 sec) 
Heartbeat CPU 1 instructions: 280000000 cycles: 390754799 heartbeat IPC: 0.229263 cumulative IPC: 0.232257 (Simulation time: 2 hr 6 min 7 sec) 
Heartbeat CPU 2 instructions: 590000000 cycles: 392545755 heartbeat IPC: 0.891564 cumulative IPC: 0.948413 (Simulation time: 2 hr 6 min 29 sec) 
Heartbeat CPU 0 instructions: 280000000 cycles: 394718692 heartbeat IPC: 0.198389 cumulative IPC: 0.352588 (Simulation time: 2 hr 6 min 52 sec) 
Heartbeat CPU 3 instructions: 760000000 cycles: 396695597 heartbeat IPC: 1.45453 cumulative IPC: 1.57846 (Simulation time: 2 hr 7 min 15 sec) 
Heartbeat CPU 3 instructions: 770000003 cycles: 403541079 heartbeat IPC: 1.46082 cumulative IPC: 1.57505 (Simulation time: 2 hr 8 min 34 sec) 
Heartbeat CPU 2 instructions: 600000000 cycles: 403815852 heartbeat IPC: 0.887304 cumulative IPC: 0.945495 (Simulation time: 2 hr 8 min 37 sec) 
Heartbeat CPU 3 instructions: 780000000 cycles: 410353168 heartbeat IPC: 1.46798 cumulative IPC: 1.57204 (Simulation time: 2 hr 9 min 49 sec) 
Heartbeat CPU 3 instructions: 790000000 cycles: 417217772 heartbeat IPC: 1.45675 cumulative IPC: 1.56887 (Simulation time: 2 hr 11 min 6 sec) 
Heartbeat CPU 2 instructions: 610000001 cycles: 417320072 heartbeat IPC: 0.740509 cumulative IPC: 0.9344 (Simulation time: 2 hr 11 min 7 sec) 
Heartbeat CPU 3 instructions: 800000000 cycles: 424633271 heartbeat IPC: 1.34853 cumulative IPC: 1.5625 (Simulation time: 2 hr 12 min 30 sec) 
Heartbeat CPU 2 instructions: 620000000 cycles: 429030229 heartbeat IPC: 0.853959 cumulative IPC: 0.930793 (Simulation time: 2 hr 13 min 23 sec) 
Heartbeat CPU 3 instructions: 810000003 cycles: 430795009 heartbeat IPC: 1.62292 cumulative IPC: 1.56392 (Simulation time: 2 hr 13 min 44 sec) 
Heartbeat CPU 1 instructions: 290000000 cycles: 435122802 heartbeat IPC: 0.225388 cumulative IPC: 0.231117 (Simulation time: 2 hr 14 min 30 sec) 
Heartbeat CPU 3 instructions: 820000000 cycles: 438333010 heartbeat IPC: 1.32661 cumulative IPC: 1.55731 (Simulation time: 2 hr 15 min 6 sec) 
Heartbeat CPU 2 instructions: 630000001 cycles: 440526998 heartbeat IPC: 0.86981 cumulative IPC: 0.928222 (Simulation time: 2 hr 15 min 35 sec) 
Heartbeat CPU 3 instructions: 830000002 cycles: 445902587 heartbeat IPC: 1.32108 cumulative IPC: 1.55088 (Simulation time: 2 hr 16 min 46 sec) 
Heartbeat CPU 0 instructions: 290000000 cycles: 452050623 heartbeat IPC: 0.174423 cumulative IPC: 0.316649 (Simulation time: 2 hr 18 min 9 sec) 
Heartbeat CPU 2 instructions: 640000000 cycles: 452080546 heartbeat IPC: 0.865535 cumulative IPC: 0.925674 (Simulation time: 2 hr 18 min 9 sec) 
Heartbeat CPU 3 instructions: 840000000 cycles: 453022734 heartbeat IPC: 1.40447 cumulative IPC: 1.54722 (Simulation time: 2 hr 18 min 22 sec) 
Heartbeat CPU 3 instructions: 850000000 cycles: 459959633 heartbeat IPC: 1.44157 cumulative IPC: 1.54471 (Simulation time: 2 hr 19 min 58 sec) 
Heartbeat CPU 2 instructions: 650000001 cycles: 463202165 heartbeat IPC: 0.89915 cumulative IPC: 0.924676 (Simulation time: 2 hr 20 min 44 sec) 
Heartbeat CPU 3 instructions: 860000000 cycles: 466158713 heartbeat IPC: 1.61314 cumulative IPC: 1.54613 (Simulation time: 2 hr 21 min 26 sec) 
Heartbeat CPU 3 instructions: 870000001 cycles: 472285760 heartbeat IPC: 1.63211 cumulative IPC: 1.54786 (Simulation time: 2 hr 22 min 54 sec) 
Heartbeat CPU 2 instructions: 660000000 cycles: 474087716 heartbeat IPC: 0.918649 cumulative IPC: 0.924462 (Simulation time: 2 hr 23 min 18 sec) 
Heartbeat CPU 0 instructions: 300000000 cycles: 477659845 heartbeat IPC: 0.390484 cumulative IPC: 0.322752 (Simulation time: 2 hr 24 min 10 sec) 
Heartbeat CPU 1 instructions: 300000000 cycles: 478171523 heartbeat IPC: 0.232295 cumulative IPC: 0.23128 (Simulation time: 2 hr 24 min 17 sec) 
Heartbeat CPU 3 instructions: 880000000 cycles: 478432788 heartbeat IPC: 1.6268 cumulative IPC: 1.54943 (Simulation time: 2 hr 24 min 21 sec) 
Heartbeat CPU 3 instructions: 890000000 cycles: 485198612 heartbeat IPC: 1.47802 cumulative IPC: 1.5479 (Simulation time: 2 hr 26 min 0 sec) 
Heartbeat CPU 2 instructions: 670000001 cycles: 485220388 heartbeat IPC: 0.898257 cumulative IPC: 0.923542 (Simulation time: 2 hr 26 min 1 sec) 
Heartbeat CPU 3 instructions: 900000000 cycles: 491348823 heartbeat IPC: 1.62596 cumulative IPC: 1.54939 (Simulation time: 2 hr 27 min 32 sec) 
Heartbeat CPU 2 instructions: 680000000 cycles: 497288599 heartbeat IPC: 0.828623 cumulative IPC: 0.920066 (Simulation time: 2 hr 28 min 54 sec) 
Heartbeat CPU 3 instructions: 910000001 cycles: 497465374 heartbeat IPC: 1.63491 cumulative IPC: 1.55098 (Simulation time: 2 hr 28 min 57 sec) 
Heartbeat CPU 0 instructions: 310000002 cycles: 503630286 heartbeat IPC: 0.385053 cumulative IPC: 0.32757 (Simulation time: 2 hr 30 min 21 sec) 
Heartbeat CPU 3 instructions: 920000000 cycles: 504411664 heartbeat IPC: 1.43962 cumulative IPC: 1.54868 (Simulation time: 2 hr 30 min 33 sec) 
Heartbeat CPU 2 instructions: 690000003 cycles: 508645567 heartbeat IPC: 0.880517 cumulative IPC: 0.918748 (Simulation time: 2 hr 31 min 33 sec) 
Heartbeat CPU 3 instructions: 930000003 cycles: 510575941 heartbeat IPC: 1.62225 cumulative IPC: 1.55 (Simulation time: 2 hr 32 min 0 sec) 
Heartbeat CPU 3 instructions: 940000000 cycles: 516781027 heartbeat IPC: 1.61158 cumulative IPC: 1.5511 (Simulation time: 2 hr 33 min 27 sec) 
Heartbeat CPU 2 instructions: 700000000 cycles: 520538963 heartbeat IPC: 0.840802 cumulative IPC: 0.916119 (Simulation time: 2 hr 34 min 20 sec) 
Heartbeat CPU 1 instructions: 310000000 cycles: 520699329 heartbeat IPC: 0.23514 cumulative IPC: 0.231745 (Simulation time: 2 hr 34 min 22 sec) 
Heartbeat CPU 3 instructions: 950000000 cycles: 523647187 heartbeat IPC: 1.45642 cumulative IPC: 1.54927 (Simulation time: 2 hr 35 min 0 sec) 
Heartbeat CPU 0 instructions: 320000000 cycles: 529532300 heartbeat IPC: 0.38607 cumulative IPC: 0.33176 (Simulation time: 2 hr 36 min 23 sec) 
Heartbeat CPU 3 instructions: 960000000 cycles: 530073681 heartbeat IPC: 1.55606 cumulative IPC: 1.54939 (Simulation time: 2 hr 36 min 31 sec) 
Heartbeat CPU 2 instructions: 710000000 cycles: 531773197 heartbeat IPC: 0.890136 cumulative IPC: 0.915317 (Simulation time: 2 hr 36 min 53 sec) 
Heartbeat CPU 3 instructions: 970000003 cycles: 536474044 heartbeat IPC: 1.56241 cumulative IPC: 1.54961 (Simulation time: 2 hr 38 min 1 sec) 
Heartbeat CPU 3 instructions: 980000000 cycles: 542604321 heartbeat IPC: 1.63125 cumulative IPC: 1.55095 (Simulation time: 2 hr 39 min 28 sec) 
Heartbeat CPU 2 instructions: 720000000 cycles: 543444005 heartbeat IPC: 0.856839 cumulative IPC: 0.9135 (Simulation time: 2 hr 39 min 40 sec) 
Heartbeat CPU 3 instructions: 990000001 cycles: 548722292 heartbeat IPC: 1.63453 cumulative IPC: 1.55229 (Simulation time: 2 hr 40 min 55 sec) 
Heartbeat CPU 3 instructions: 1000000000 cycles: 554723300 heartbeat IPC: 1.66639 cumulative IPC: 1.55406 (Simulation time: 2 hr 42 min 21 sec) 
Heartbeat CPU 2 instructions: 730000001 cycles: 554996847 heartbeat IPC: 0.865588 cumulative IPC: 0.912071 (Simulation time: 2 hr 42 min 25 sec) 
Heartbeat CPU 0 instructions: 330000002 cycles: 555559828 heartbeat IPC: 0.384209 cumulative IPC: 0.33528 (Simulation time: 2 hr 42 min 33 sec) 
Heartbeat CPU 3 instructions: 1010000001 cycles: 560840169 heartbeat IPC: 1.63482 cumulative IPC: 1.55532 (Simulation time: 2 hr 43 min 44 sec) 
Heartbeat CPU 1 instructions: 320000000 cycles: 563517433 heartbeat IPC: 0.233546 cumulative IPC: 0.23194 (Simulation time: 2 hr 44 min 22 sec) 
Heartbeat CPU 3 instructions: 1020000000 cycles: 566866600 heartbeat IPC: 1.65936 cumulative IPC: 1.55689 (Simulation time: 2 hr 45 min 12 sec) 
Heartbeat CPU 2 instructions: 740000000 cycles: 569171023 heartbeat IPC: 0.705508 cumulative IPC: 0.904776 (Simulation time: 2 hr 45 min 45 sec) 
Heartbeat CPU 3 instructions: 1030000002 cycles: 572852877 heartbeat IPC: 1.67049 cumulative IPC: 1.55857 (Simulation time: 2 hr 46 min 36 sec) 
Heartbeat CPU 3 instructions: 1040000000 cycles: 578837069 heartbeat IPC: 1.67107 cumulative IPC: 1.56021 (Simulation time: 2 hr 47 min 55 sec) 
Heartbeat CPU 0 instructions: 340000000 cycles: 581533424 heartbeat IPC: 0.385006 cumulative IPC: 0.338402 (Simulation time: 2 hr 48 min 27 sec) 
Heartbeat CPU 2 instructions: 750000001 cycles: 585404497 heartbeat IPC: 0.616011 cumulative IPC: 0.89355 (Simulation time: 2 hr 49 min 10 sec) 
Heartbeat CPU 3 instructions: 1050000003 cycles: 585566097 heartbeat IPC: 1.4861 cumulative IPC: 1.55901 (Simulation time: 2 hr 49 min 12 sec) 
Heartbeat CPU 3 instructions: 1060000000 cycles: 591754696 heartbeat IPC: 1.61587 cumulative IPC: 1.55984 (Simulation time: 2 hr 50 min 26 sec) 
Heartbeat CPU 3 instructions: 1070000000 cycles: 597817402 heartbeat IPC: 1.64943 cumulative IPC: 1.56111 (Simulation time: 2 hr 51 min 39 sec) 
Heartbeat CPU 2 instructions: 760000000 cycles: 602475193 heartbeat IPC: 0.585799 cumulative IPC: 0.881463 (Simulation time: 2 hr 52 min 36 sec) 
Heartbeat CPU 3 instructions: 1080000000 cycles: 603863095 heartbeat IPC: 1.65407 cumulative IPC: 1.5624 (Simulation time: 2 hr 52 min 53 sec) 
Heartbeat CPU 1 instructions: 330000003 cycles: 606548119 heartbeat IPC: 0.232392 cumulative IPC: 0.231984 (Simulation time: 2 hr 53 min 25 sec) 
Heartbeat CPU 0 instructions: 350000003 cycles: 607618786 heartbeat IPC: 0.383357 cumulative IPC: 0.341069 (Simulation time: 2 hr 53 min 38 sec) 
Heartbeat CPU 3 instructions: 1090000001 cycles: 610003008 heartbeat IPC: 1.62869 cumulative IPC: 1.56332 (Simulation time: 2 hr 54 min 7 sec) 
Heartbeat CPU 3 instructions: 1100000000 cycles: 616312304 heartbeat IPC: 1.58496 cumulative IPC: 1.56362 (Simulation time: 2 hr 55 min 21 sec) 
Heartbeat CPU 2 instructions: 770000001 cycles: 619155221 heartbeat IPC: 0.599519 cumulative IPC: 0.871043 (Simulation time: 2 hr 55 min 54 sec) 
Heartbeat CPU 3 instructions: 1110000001 cycles: 623203370 heartbeat IPC: 1.45115 cumulative IPC: 1.56192 (Simulation time: 2 hr 56 min 42 sec) 
Heartbeat CPU 3 instructions: 1120000000 cycles: 629427243 heartbeat IPC: 1.60672 cumulative IPC: 1.56252 (Simulation time: 2 hr 57 min 57 sec) 
Heartbeat CPU 0 instructions: 360000000 cycles: 633559513 heartbeat IPC: 0.385494 cumulative IPC: 0.343543 (Simulation time: 2 hr 58 min 44 sec) 
Heartbeat CPU 2 instructions: 780000000 cycles: 635387899 heartbeat IPC: 0.616041 cumulative IPC: 0.86219 (Simulation time: 2 hr 59 min 6 sec) 
Heartbeat CPU 3 instructions: 1130000001 cycles: 636285258 heartbeat IPC: 1.45815 cumulative IPC: 1.56099 (Simulation time: 2 hr 59 min 17 sec) 
Heartbeat CPU 3 instructions: 1140000000 cycles: 642418752 heartbeat IPC: 1.63039 cumulative IPC: 1.56189 (Simulation time: 3 hr 0 min 36 sec) 
Heartbeat CPU 3 instructions: 1150000002 cycles: 649232851 heartbeat IPC: 1.46755 cumulative IPC: 1.56056 (Simulation time: 3 hr 2 min 2 sec) 
Heartbeat CPU 1 instructions: 340000000 cycles: 649904228 heartbeat IPC: 0.230648 cumulative IPC: 0.231864 (Simulation time: 3 hr 2 min 11 sec) 
Heartbeat CPU 2 instructions: 790000000 cycles: 653040805 heartbeat IPC: 0.566479 cumulative IPC: 0.851432 (Simulation time: 3 hr 2 min 52 sec) 
Heartbeat CPU 3 instructions: 1160000000 cycles: 655516073 heartbeat IPC: 1.59154 cumulative IPC: 1.56096 (Simulation time: 3 hr 3 min 25 sec) 
Heartbeat CPU 0 instructions: 370000003 cycles: 659560849 heartbeat IPC: 0.384596 cumulative IPC: 0.345714 (Simulation time: 3 hr 4 min 18 sec) 
Heartbeat CPU 3 instructions: 1170000003 cycles: 661819326 heartbeat IPC: 1.58648 cumulative IPC: 1.56128 (Simulation time: 3 hr 4 min 47 sec) 
Heartbeat CPU 3 instructions: 1180000000 cycles: 668529775 heartbeat IPC: 1.49021 cumulative IPC: 1.56033 (Simulation time: 3 hr 6 min 14 sec) 
Heartbeat CPU 2 instructions: 800000000 cycles: 669425935 heartbeat IPC: 0.610309 cumulative IPC: 0.843555 (Simulation time: 3 hr 6 min 26 sec) 
Heartbeat CPU 3 instructions: 1190000000 cycles: 674686850 heartbeat IPC: 1.62415 cumulative IPC: 1.5611 (Simulation time: 3 hr 7 min 36 sec) 
Heartbeat CPU 3 instructions: 1200000000 cycles: 681444516 heartbeat IPC: 1.4798 cumulative IPC: 1.56003 (Simulation time: 3 hr 9 min 4 sec) 
Heartbeat CPU 0 instructions: 380000000 cycles: 685545038 heartbeat IPC: 0.384849 cumulative IPC: 0.347678 (Simulation time: 3 hr 9 min 54 sec) 
Heartbeat CPU 2 instructions: 810000000 cycles: 686234508 heartbeat IPC: 0.594935 cumulative IPC: 0.835494 (Simulation time: 3 hr 10 min 3 sec) 
Heartbeat CPU 3 instructions: 1210000000 cycles: 688329104 heartbeat IPC: 1.45252 cumulative IPC: 1.55861 (Simulation time: 3 hr 10 min 31 sec) 
Heartbeat CPU 1 instructions: 350000001 cycles: 693231020 heartbeat IPC: 0.230804 cumulative IPC: 0.231777 (Simulation time: 3 hr 11 min 36 sec) 
Heartbeat CPU 3 instructions: 1220000000 cycles: 694542676 heartbeat IPC: 1.60938 cumulative IPC: 1.55921 (Simulation time: 3 hr 11 min 53 sec) 
Heartbeat CPU 3 instructions: 1230000000 cycles: 700722287 heartbeat IPC: 1.61822 cumulative IPC: 1.5599 (Simulation time: 3 hr 13 min 12 sec) 
Heartbeat CPU 2 instructions: 820000000 cycles: 703524521 heartbeat IPC: 0.578369 cumulative IPC: 0.827195 (Simulation time: 3 hr 13 min 49 sec) 
Heartbeat CPU 3 instructions: 1240000000 cycles: 706961182 heartbeat IPC: 1.60285 cumulative IPC: 1.56039 (Simulation time: 3 hr 14 min 35 sec) 
Heartbeat CPU 0 instructions: 390000001 cycles: 711407174 heartbeat IPC: 0.386666 cumulative IPC: 0.349533 (Simulation time: 3 hr 15 min 32 sec) 
Heartbeat CPU 3 instructions: 1250000000 cycles: 713762973 heartbeat IPC: 1.4702 cumulative IPC: 1.55927 (Simulation time: 3 hr 16 min 2 sec) 
Heartbeat CPU 3 instructions: 1260000000 cycles: 719959948 heartbeat IPC: 1.61369 cumulative IPC: 1.55988 (Simulation time: 3 hr 17 min 27 sec) 
Heartbeat CPU 2 instructions: 830000000 cycles: 720211049 heartbeat IPC: 0.599286 cumulative IPC: 0.820311 (Simulation time: 3 hr 17 min 31 sec) 
Heartbeat CPU 3 instructions: 1270000000 cycles: 726080117 heartbeat IPC: 1.63394 cumulative IPC: 1.56069 (Simulation time: 3 hr 18 min 43 sec) 
Heartbeat CPU 3 instructions: 1280000000 cycles: 732296484 heartbeat IPC: 1.60866 cumulative IPC: 1.56122 (Simulation time: 3 hr 19 min 58 sec) 
Heartbeat CPU 2 instructions: 840000000 cycles: 736204785 heartbeat IPC: 0.625245 cumulative IPC: 0.814822 (Simulation time: 3 hr 20 min 46 sec) 
Heartbeat CPU 1 instructions: 360000000 cycles: 736443599 heartbeat IPC: 0.231414 cumulative IPC: 0.231749 (Simulation time: 3 hr 20 min 49 sec) 
Heartbeat CPU 0 instructions: 400000000 cycles: 737319126 heartbeat IPC: 0.385922 cumulative IPC: 0.351189 (Simulation time: 3 hr 20 min 59 sec) 
Heartbeat CPU 3 instructions: 1290000000 cycles: 739048482 heartbeat IPC: 1.48104 cumulative IPC: 1.56027 (Simulation time: 3 hr 21 min 18 sec) 
Heartbeat CPU 3 instructions: 1300000000 cycles: 745315996 heartbeat IPC: 1.59553 cumulative IPC: 1.56065 (Simulation time: 3 hr 22 min 34 sec) 
Heartbeat CPU 3 instructions: 1310000003 cycles: 751504416 heartbeat IPC: 1.61592 cumulative IPC: 1.56124 (Simulation time: 3 hr 23 min 49 sec) 
Heartbeat CPU 2 instructions: 850000000 cycles: 752975385 heartbeat IPC: 0.596282 cumulative IPC: 0.808558 (Simulation time: 3 hr 24 min 7 sec) 
Heartbeat CPU 3 instructions: 1320000000 cycles: 757548277 heartbeat IPC: 1.65457 cumulative IPC: 1.5622 (Simulation time: 3 hr 25 min 3 sec) 
Heartbeat CPU 0 instructions: 410000000 cycles: 763172526 heartbeat IPC: 0.386796 cumulative IPC: 0.352735 (Simulation time: 3 hr 26 min 13 sec) 
Heartbeat CPU 3 instructions: 1330000002 cycles: 763709007 heartbeat IPC: 1.62318 cumulative IPC: 1.56283 (Simulation time: 3 hr 26 min 19 sec) 
Heartbeat CPU 2 instructions: 860000000 cycles: 768624516 heartbeat IPC: 0.639013 cumulative IPC: 0.804142 (Simulation time: 3 hr 27 min 19 sec) 
Heartbeat CPU 3 instructions: 1340000000 cycles: 769903045 heartbeat IPC: 1.61446 cumulative IPC: 1.56336 (Simulation time: 3 hr 27 min 34 sec) 
Heartbeat CPU 3 instructions: 1350000000 cycles: 776710390 heartbeat IPC: 1.469 cumulative IPC: 1.5623 (Simulation time: 3 hr 28 min 54 sec) 
Heartbeat CPU 1 instructions: 370000001 cycles: 779499511 heartbeat IPC: 0.232256 cumulative IPC: 0.231785 (Simulation time: 3 hr 29 min 27 sec) 
Heartbeat CPU 3 instructions: 1360000000 cycles: 782912035 heartbeat IPC: 1.61248 cumulative IPC: 1.56281 (Simulation time: 3 hr 30 min 9 sec) 
Heartbeat CPU 2 instructions: 870000001 cycles: 784940938 heartbeat IPC: 0.61288 cumulative IPC: 0.799085 (Simulation time: 3 hr 30 min 33 sec) 
Heartbeat CPU 0 instructions: 420000000 cycles: 789008190 heartbeat IPC: 0.387062 cumulative IPC: 0.354163 (Simulation time: 3 hr 31 min 27 sec) 
Heartbeat CPU 3 instructions: 1370000001 cycles: 789142678 heartbeat IPC: 1.60497 cumulative IPC: 1.56323 (Simulation time: 3 hr 31 min 29 sec) 
Heartbeat CPU 3 instructions: 1380000000 cycles: 795473729 heartbeat IPC: 1.57952 cumulative IPC: 1.5634 (Simulation time: 3 hr 33 min 2 sec) 
Heartbeat CPU 2 instructions: 880000000 cycles: 798649759 heartbeat IPC: 0.729457 cumulative IPC: 0.797572 (Simulation time: 3 hr 33 min 46 sec) 
Heartbeat CPU 3 instructions: 1390000001 cycles: 801781447 heartbeat IPC: 1.58536 cumulative IPC: 1.56362 (Simulation time: 3 hr 34 min 31 sec) 
Finished CPU 3 instructions: 1000000002 cycles: 639402010 cumulative IPC: 1.56396 (Simulation time: 3 hr 35 min 45 sec) 
Heartbeat CPU 3 instructions: 1400000000 cycles: 808015127 heartbeat IPC: 1.60419 cumulative IPC: 1.56401 (Simulation time: 3 hr 35 min 57 sec) 
Heartbeat CPU 2 instructions: 890000000 cycles: 813191907 heartbeat IPC: 0.687656 cumulative IPC: 0.795095 (Simulation time: 3 hr 37 min 8 sec) 
Heartbeat CPU 0 instructions: 430000003 cycles: 814731177 heartbeat IPC: 0.388757 cumulative IPC: 0.355538 (Simulation time: 3 hr 37 min 28 sec) 
Heartbeat CPU 3 instructions: 1410000003 cycles: 814878608 heartbeat IPC: 1.45699 cumulative IPC: 1.56288 (Simulation time: 3 hr 37 min 30 sec) 
Heartbeat CPU 3 instructions: 1420000000 cycles: 821077408 heartbeat IPC: 1.61321 cumulative IPC: 1.56335 (Simulation time: 3 hr 38 min 52 sec) 
Heartbeat CPU 1 instructions: 380000000 cycles: 822666777 heartbeat IPC: 0.231657 cumulative IPC: 0.231777 (Simulation time: 3 hr 39 min 14 sec) 
Heartbeat CPU 3 instructions: 1430000002 cycles: 827257947 heartbeat IPC: 1.61798 cumulative IPC: 1.56386 (Simulation time: 3 hr 40 min 15 sec) 
Heartbeat CPU 2 instructions: 900000000 cycles: 829563797 heartbeat IPC: 0.610803 cumulative IPC: 0.790536 (Simulation time: 3 hr 40 min 45 sec) 
Heartbeat CPU 3 instructions: 1440000000 cycles: 833436991 heartbeat IPC: 1.61837 cumulative IPC: 1.56437 (Simulation time: 3 hr 41 min 36 sec) 
Heartbeat CPU 0 instructions: 440000000 cycles: 840628182 heartbeat IPC: 0.386145 cumulative IPC: 0.356716 (Simulation time: 3 hr 42 min 59 sec) 
Heartbeat CPU 3 instructions: 1450000002 cycles: 840958034 heartbeat IPC: 1.3296 cumulative IPC: 1.56175 (Simulation time: 3 hr 43 min 3 sec) 
Heartbeat CPU 2 instructions: 910000000 cycles: 846600086 heartbeat IPC: 0.586982 cumulative IPC: 0.785427 (Simulation time: 3 hr 44 min 17 sec) 
Heartbeat CPU 3 instructions: 1460000000 cycles: 847206930 heartbeat IPC: 1.60028 cumulative IPC: 1.5621 (Simulation time: 3 hr 44 min 24 sec) 
Heartbeat CPU 3 instructions: 1470000003 cycles: 854118859 heartbeat IPC: 1.44677 cumulative IPC: 1.56094 (Simulation time: 3 hr 45 min 52 sec) 
Heartbeat CPU 3 instructions: 1480000000 cycles: 861585126 heartbeat IPC: 1.33936 cumulative IPC: 1.55856 (Simulation time: 3 hr 47 min 25 sec) 
Heartbeat CPU 2 instructions: 920000000 cycles: 863634865 heartbeat IPC: 0.587034 cumulative IPC: 0.78057 (Simulation time: 3 hr 47 min 49 sec) 
Heartbeat CPU 1 instructions: 390000002 cycles: 865374220 heartbeat IPC: 0.234151 cumulative IPC: 0.231922 (Simulation time: 3 hr 48 min 11 sec) 
Heartbeat CPU 0 instructions: 450000002 cycles: 866425973 heartbeat IPC: 0.38763 cumulative IPC: 0.357858 (Simulation time: 3 hr 48 min 25 sec) 
Heartbeat CPU 3 instructions: 1490000001 cycles: 868510362 heartbeat IPC: 1.44399 cumulative IPC: 1.55742 (Simulation time: 3 hr 48 min 53 sec) 
Heartbeat CPU 3 instructions: 1500000000 cycles: 875353610 heartbeat IPC: 1.46129 cumulative IPC: 1.55649 (Simulation time: 3 hr 50 min 20 sec) 
Heartbeat CPU 2 instructions: 930000002 cycles: 879280960 heartbeat IPC: 0.639137 cumulative IPC: 0.777459 (Simulation time: 3 hr 51 min 10 sec) 
Heartbeat CPU 3 instructions: 1510000002 cycles: 882232515 heartbeat IPC: 1.45372 cumulative IPC: 1.5555 (Simulation time: 3 hr 51 min 48 sec) 
Heartbeat CPU 3 instructions: 1520000000 cycles: 888455798 heartbeat IPC: 1.60687 cumulative IPC: 1.55595 (Simulation time: 3 hr 53 min 12 sec) 
Heartbeat CPU 0 instructions: 460000000 cycles: 892298021 heartbeat IPC: 0.386517 cumulative IPC: 0.358881 (Simulation time: 3 hr 54 min 4 sec) 
Heartbeat CPU 2 instructions: 940000000 cycles: 893371092 heartbeat IPC: 0.709716 cumulative IPC: 0.776144 (Simulation time: 3 hr 54 min 19 sec) 
Heartbeat CPU 3 instructions: 1530000000 cycles: 894784996 heartbeat IPC: 1.57998 cumulative IPC: 1.55616 (Simulation time: 3 hr 54 min 37 sec) 
Heartbeat CPU 3 instructions: 1540000000 cycles: 900840327 heartbeat IPC: 1.65144 cumulative IPC: 1.55694 (Simulation time: 3 hr 55 min 59 sec) 
Heartbeat CPU 3 instructions: 1550000003 cycles: 908220366 heartbeat IPC: 1.35501 cumulative IPC: 1.55493 (Simulation time: 3 hr 57 min 29 sec) 
Heartbeat CPU 1 instructions: 400000000 cycles: 908715088 heartbeat IPC: 0.230729 cumulative IPC: 0.231852 (Simulation time: 3 hr 57 min 36 sec) 
Heartbeat CPU 2 instructions: 950000003 cycles: 909282126 heartbeat IPC: 0.628495 cumulative IPC: 0.772975 (Simulation time: 3 hr 57 min 43 sec) 
Heartbeat CPU 3 instructions: 1560000000 cycles: 914960477 heartbeat IPC: 1.48365 cumulative IPC: 1.55429 (Simulation time: 3 hr 58 min 57 sec) 
Heartbeat CPU 0 instructions: 470000003 cycles: 918146163 heartbeat IPC: 0.386875 cumulative IPC: 0.359846 (Simulation time: 3 hr 59 min 40 sec) 
Heartbeat CPU 3 instructions: 1570000002 cycles: 921135929 heartbeat IPC: 1.61932 cumulative IPC: 1.55482 (Simulation time: 4 hr 0 min 20 sec) 
Heartbeat CPU 2 instructions: 960000000 cycles: 926617114 heartbeat IPC: 0.576868 cumulative IPC: 0.768495 (Simulation time: 4 hr 1 min 37 sec) 
Heartbeat CPU 3 instructions: 1580000000 cycles: 927262039 heartbeat IPC: 1.63236 cumulative IPC: 1.55545 (Simulation time: 4 hr 1 min 45 sec) 
Heartbeat CPU 3 instructions: 1590000003 cycles: 933381482 heartbeat IPC: 1.63414 cumulative IPC: 1.55608 (Simulation time: 4 hr 3 min 3 sec) 
Heartbeat CPU 3 instructions: 1600000000 cycles: 939519452 heartbeat IPC: 1.6292 cumulative IPC: 1.55666 (Simulation time: 4 hr 4 min 17 sec) 
Heartbeat CPU 2 instructions: 970000003 cycles: 943254577 heartbeat IPC: 0.601053 cumulative IPC: 0.764903 (Simulation time: 4 hr 5 min 2 sec) 
Heartbeat CPU 0 instructions: 480000000 cycles: 943930718 heartbeat IPC: 0.387829 cumulative IPC: 0.360775 (Simulation time: 4 hr 5 min 10 sec) 
Heartbeat CPU 3 instructions: 1610000000 cycles: 945640555 heartbeat IPC: 1.63369 cumulative IPC: 1.55726 (Simulation time: 4 hr 5 min 31 sec) 
Heartbeat CPU 3 instructions: 1620000000 cycles: 951735778 heartbeat IPC: 1.64063 cumulative IPC: 1.55791 (Simulation time: 4 hr 6 min 44 sec) 
Heartbeat CPU 1 instructions: 410000000 cycles: 951880048 heartbeat IPC: 0.231669 cumulative IPC: 0.231842 (Simulation time: 4 hr 6 min 46 sec) 
Heartbeat CPU 3 instructions: 1630000000 cycles: 959570341 heartbeat IPC: 1.2764 cumulative IPC: 1.55513 (Simulation time: 4 hr 8 min 13 sec) 
Heartbeat CPU 2 instructions: 980000000 cycles: 959585375 heartbeat IPC: 0.61234 cumulative IPC: 0.761756 (Simulation time: 4 hr 8 min 13 sec) 
Heartbeat CPU 3 instructions: 1640000000 cycles: 965810058 heartbeat IPC: 1.60264 cumulative IPC: 1.5555 (Simulation time: 4 hr 9 min 27 sec) 
Heartbeat CPU 0 instructions: 490000002 cycles: 969764330 heartbeat IPC: 0.387093 cumulative IPC: 0.361623 (Simulation time: 4 hr 10 min 18 sec) 
Heartbeat CPU 3 instructions: 1650000003 cycles: 972021936 heartbeat IPC: 1.60982 cumulative IPC: 1.55592 (Simulation time: 4 hr 10 min 45 sec) 
Heartbeat CPU 2 instructions: 990000002 cycles: 975656358 heartbeat IPC: 0.62224 cumulative IPC: 0.75898 (Simulation time: 4 hr 11 min 28 sec) 
Heartbeat CPU 3 instructions: 1660000000 cycles: 978191233 heartbeat IPC: 1.62093 cumulative IPC: 1.55641 (Simulation time: 4 hr 11 min 59 sec) 
Heartbeat CPU 3 instructions: 1670000003 cycles: 984358477 heartbeat IPC: 1.62147 cumulative IPC: 1.5569 (Simulation time: 4 hr 13 min 13 sec) 
Heartbeat CPU 3 instructions: 1680000000 cycles: 990508012 heartbeat IPC: 1.62614 cumulative IPC: 1.55742 (Simulation time: 4 hr 14 min 27 sec) 
Heartbeat CPU 2 instructions: 1000000000 cycles: 992526925 heartbeat IPC: 0.592748 cumulative IPC: 0.75558 (Simulation time: 4 hr 14 min 51 sec) 
Heartbeat CPU 1 instructions: 420000000 cycles: 994847133 heartbeat IPC: 0.232736 cumulative IPC: 0.231889 (Simulation time: 4 hr 15 min 19 sec) 
Heartbeat CPU 0 instructions: 500000000 cycles: 995599115 heartbeat IPC: 0.387075 cumulative IPC: 0.362418 (Simulation time: 4 hr 15 min 28 sec) 
Heartbeat CPU 3 instructions: 1690000001 cycles: 997164163 heartbeat IPC: 1.50237 cumulative IPC: 1.55698 (Simulation time: 4 hr 15 min 44 sec) 
Heartbeat CPU 3 instructions: 1700000000 cycles: 1003339526 heartbeat IPC: 1.61934 cumulative IPC: 1.55744 (Simulation time: 4 hr 16 min 59 sec) 
Heartbeat CPU 3 instructions: 1710000003 cycles: 1009218775 heartbeat IPC: 1.7009 cumulative IPC: 1.55844 (Simulation time: 4 hr 18 min 11 sec) 
Heartbeat CPU 2 instructions: 1010000000 cycles: 1009306530 heartbeat IPC: 0.595962 cumulative IPC: 0.752397 (Simulation time: 4 hr 18 min 12 sec) 
Heartbeat CPU 3 instructions: 1720000000 cycles: 1015098351 heartbeat IPC: 1.7008 cumulative IPC: 1.55943 (Simulation time: 4 hr 19 min 23 sec) 
Heartbeat CPU 3 instructions: 1730000003 cycles: 1020956984 heartbeat IPC: 1.70688 cumulative IPC: 1.56044 (Simulation time: 4 hr 20 min 39 sec) 
Heartbeat CPU 0 instructions: 510000003 cycles: 1021419770 heartbeat IPC: 0.387287 cumulative IPC: 0.36317 (Simulation time: 4 hr 20 min 45 sec) 
Heartbeat CPU 2 instructions: 1020000000 cycles: 1025903418 heartbeat IPC: 0.602523 cumulative IPC: 0.749498 (Simulation time: 4 hr 21 min 46 sec) 
Heartbeat CPU 3 instructions: 1740000000 cycles: 1026799263 heartbeat IPC: 1.71166 cumulative IPC: 1.56147 (Simulation time: 4 hr 21 min 58 sec) 
Heartbeat CPU 3 instructions: 1750000003 cycles: 1032576220 heartbeat IPC: 1.73102 cumulative IPC: 1.5626 (Simulation time: 4 hr 23 min 15 sec) 
Heartbeat CPU 1 instructions: 430000000 cycles: 1038216744 heartbeat IPC: 0.230576 cumulative IPC: 0.231823 (Simulation time: 4 hr 24 min 30 sec) 
Heartbeat CPU 3 instructions: 1760000000 cycles: 1038388610 heartbeat IPC: 1.72046 cumulative IPC: 1.56366 (Simulation time: 4 hr 24 min 33 sec) 
Heartbeat CPU 2 instructions: 1030000000 cycles: 1042778222 heartbeat IPC: 0.592599 cumulative IPC: 0.746472 (Simulation time: 4 hr 25 min 32 sec) 
Heartbeat CPU 3 instructions: 1770000000 cycles: 1044145910 heartbeat IPC: 1.73693 cumulative IPC: 1.5648 (Simulation time: 4 hr 25 min 50 sec) 
Heartbeat CPU 0 instructions: 520000000 cycles: 1047275590 heartbeat IPC: 0.38676 cumulative IPC: 0.363863 (Simulation time: 4 hr 26 min 32 sec) 
Heartbeat CPU 3 instructions: 1780000000 cycles: 1049925739 heartbeat IPC: 1.73015 cumulative IPC: 1.56588 (Simulation time: 4 hr 27 min 7 sec) 
Heartbeat CPU 3 instructions: 1790000001 cycles: 1055830667 heartbeat IPC: 1.6935 cumulative IPC: 1.56673 (Simulation time: 4 hr 28 min 26 sec) 
Heartbeat CPU 2 instructions: 1040000000 cycles: 1059782221 heartbeat IPC: 0.588097 cumulative IPC: 0.743453 (Simulation time: 4 hr 29 min 17 sec) 
Heartbeat CPU 3 instructions: 1800000000 cycles: 1061668006 heartbeat IPC: 1.71311 cumulative IPC: 1.56768 (Simulation time: 4 hr 29 min 40 sec) 
Heartbeat CPU 3 instructions: 1810000003 cycles: 1067529854 heartbeat IPC: 1.70595 cumulative IPC: 1.56859 (Simulation time: 4 hr 30 min 57 sec) 
Heartbeat CPU 0 instructions: 530000001 cycles: 1073054835 heartbeat IPC: 0.387909 cumulative IPC: 0.364548 (Simulation time: 4 hr 32 min 11 sec) 
Heartbeat CPU 3 instructions: 1820000000 cycles: 1073379961 heartbeat IPC: 1.70937 cumulative IPC: 1.5695 (Simulation time: 4 hr 32 min 15 sec) 
Heartbeat CPU 2 instructions: 1050000002 cycles: 1076415023 heartbeat IPC: 0.601222 cumulative IPC: 0.740849 (Simulation time: 4 hr 32 min 54 sec) 
Heartbeat CPU 3 instructions: 1830000000 cycles: 1079086592 heartbeat IPC: 1.75235 cumulative IPC: 1.57064 (Simulation time: 4 hr 33 min 27 sec) 
Heartbeat CPU 1 instructions: 440000000 cycles: 1081188677 heartbeat IPC: 0.23271 cumulative IPC: 0.231865 (Simulation time: 4 hr 33 min 53 sec) 
Heartbeat CPU 3 instructions: 1840000000 cycles: 1084821169 heartbeat IPC: 1.74381 cumulative IPC: 1.57172 (Simulation time: 4 hr 34 min 38 sec) 
Heartbeat CPU 3 instructions: 1850000002 cycles: 1090519492 heartbeat IPC: 1.7549 cumulative IPC: 1.57285 (Simulation time: 4 hr 35 min 55 sec) 
Heartbeat CPU 2 instructions: 1060000000 cycles: 1092835103 heartbeat IPC: 0.60901 cumulative IPC: 0.738509 (Simulation time: 4 hr 36 min 26 sec) 
Heartbeat CPU 3 instructions: 1860000000 cycles: 1097184524 heartbeat IPC: 1.50037 cumulative IPC: 1.57233 (Simulation time: 4 hr 37 min 20 sec) 
Heartbeat CPU 0 instructions: 540000000 cycles: 1098919337 heartbeat IPC: 0.38663 cumulative IPC: 0.365162 (Simulation time: 4 hr 37 min 43 sec) 
Heartbeat CPU 3 instructions: 1870000000 cycles: 1103236084 heartbeat IPC: 1.65247 cumulative IPC: 1.57285 (Simulation time: 4 hr 38 min 50 sec) 
Heartbeat CPU 3 instructions: 1880000000 cycles: 1109298555 heartbeat IPC: 1.64949 cumulative IPC: 1.57335 (Simulation time: 4 hr 40 min 20 sec) 
Heartbeat CPU 2 instructions: 1070000000 cycles: 1109312448 heartbeat IPC: 0.606894 cumulative IPC: 0.736205 (Simulation time: 4 hr 40 min 21 sec) 
Heartbeat CPU 3 instructions: 1890000002 cycles: 1115540429 heartbeat IPC: 1.60208 cumulative IPC: 1.57354 (Simulation time: 4 hr 41 min 53 sec) 
Heartbeat CPU 3 instructions: 1900000000 cycles: 1121850860 heartbeat IPC: 1.58468 cumulative IPC: 1.57361 (Simulation time: 4 hr 43 min 15 sec) 
Heartbeat CPU 1 instructions: 450000002 cycles: 1124414654 heartbeat IPC: 0.231342 cumulative IPC: 0.231841 (Simulation time: 4 hr 43 min 49 sec) 
Heartbeat CPU 0 instructions: 550000000 cycles: 1124742875 heartbeat IPC: 0.387244 cumulative IPC: 0.365757 (Simulation time: 4 hr 43 min 53 sec) 
Heartbeat CPU 2 instructions: 1080000000 cycles: 1126086738 heartbeat IPC: 0.59615 cumulative IPC: 0.733754 (Simulation time: 4 hr 44 min 11 sec) 
Heartbeat CPU 3 instructions: 1910000001 cycles: 1128023204 heartbeat IPC: 1.62013 cumulative IPC: 1.57391 (Simulation time: 4 hr 44 min 36 sec) 
Heartbeat CPU 3 instructions: 1920000000 cycles: 1134209345 heartbeat IPC: 1.61652 cumulative IPC: 1.57418 (Simulation time: 4 hr 45 min 51 sec) 
Heartbeat CPU 3 instructions: 1930000002 cycles: 1140370990 heartbeat IPC: 1.62294 cumulative IPC: 1.57449 (Simulation time: 4 hr 47 min 5 sec) 
Heartbeat CPU 2 instructions: 1090000003 cycles: 1142503523 heartbeat IPC: 0.609133 cumulative IPC: 0.731655 (Simulation time: 4 hr 47 min 31 sec) 
Heartbeat CPU 3 instructions: 1940000000 cycles: 1146560054 heartbeat IPC: 1.61575 cumulative IPC: 1.57475 (Simulation time: 4 hr 48 min 20 sec) 
Heartbeat CPU 0 instructions: 560000000 cycles: 1150573663 heartbeat IPC: 0.387135 cumulative IPC: 0.366319 (Simulation time: 4 hr 49 min 7 sec) 
Heartbeat CPU 3 instructions: 1950000001 cycles: 1152675287 heartbeat IPC: 1.63526 cumulative IPC: 1.57513 (Simulation time: 4 hr 49 min 32 sec) 
Heartbeat CPU 3 instructions: 1960000000 cycles: 1158880633 heartbeat IPC: 1.61151 cumulative IPC: 1.57535 (Simulation time: 4 hr 50 min 46 sec) 
Heartbeat CPU 2 instructions: 1100000000 cycles: 1159567775 heartbeat IPC: 0.58602 cumulative IPC: 0.729149 (Simulation time: 4 hr 50 min 54 sec) 
Heartbeat CPU 3 instructions: 1970000001 cycles: 1165015097 heartbeat IPC: 1.63013 cumulative IPC: 1.57569 (Simulation time: 4 hr 51 min 59 sec) 
Heartbeat CPU 1 instructions: 460000000 cycles: 1166972189 heartbeat IPC: 0.234976 cumulative IPC: 0.231975 (Simulation time: 4 hr 52 min 23 sec) 
Heartbeat CPU 3 instructions: 1980000000 cycles: 1171248488 heartbeat IPC: 1.60426 cumulative IPC: 1.57587 (Simulation time: 4 hr 53 min 14 sec) 
Heartbeat CPU 2 instructions: 1110000001 cycles: 1176359517 heartbeat IPC: 0.595531 cumulative IPC: 0.726924 (Simulation time: 4 hr 54 min 15 sec) 
Heartbeat CPU 0 instructions: 570000000 cycles: 1176419962 heartbeat IPC: 0.386903 cumulative IPC: 0.366847 (Simulation time: 4 hr 54 min 16 sec) 
Heartbeat CPU 3 instructions: 1990000002 cycles: 1177409441 heartbeat IPC: 1.62313 cumulative IPC: 1.57616 (Simulation time: 4 hr 54 min 28 sec) 
*** Reached end of trace for Core: 3 Repeating trace: /scratch/user/djimenez/champsim-traces/speccpu2017/xz/648.exchange2_s/648.exchange2_s-1511B.champsimtrace.xz
Heartbeat CPU 3 instructions: 2000000000 cycles: 1184267099 heartbeat IPC: 1.45822 cumulative IPC: 1.57536 (Simulation time: 4 hr 55 min 47 sec) 
Heartbeat CPU 3 instructions: 2010000001 cycles: 1190870558 heartbeat IPC: 1.51436 cumulative IPC: 1.57497 (Simulation time: 4 hr 57 min 5 sec) 
Heartbeat CPU 2 instructions: 1120000000 cycles: 1192878201 heartbeat IPC: 0.605375 cumulative IPC: 0.724965 (Simulation time: 4 hr 57 min 28 sec) 
Heartbeat CPU 3 instructions: 2020000000 cycles: 1197332832 heartbeat IPC: 1.54744 cumulative IPC: 1.5748 (Simulation time: 4 hr 58 min 21 sec) 
Heartbeat CPU 0 instructions: 580000000 cycles: 1202315433 heartbeat IPC: 0.386168 cumulative IPC: 0.36733 (Simulation time: 4 hr 59 min 19 sec) 
Heartbeat CPU 3 instructions: 2030000000 cycles: 1203668325 heartbeat IPC: 1.57841 cumulative IPC: 1.57482 (Simulation time: 4 hr 59 min 35 sec) 
Heartbeat CPU 2 instructions: 1130000002 cycles: 1209971138 heartbeat IPC: 0.585037 cumulative IPC: 0.72267 (Simulation time: 5 hr 0 min 50 sec) 
Heartbeat CPU 3 instructions: 2040000000 cycles: 1209994086 heartbeat IPC: 1.58084 cumulative IPC: 1.57485 (Simulation time: 5 hr 0 min 51 sec) 
Heartbeat CPU 1 instructions: 470000001 cycles: 1210064571 heartbeat IPC: 0.23206 cumulative IPC: 0.231978 (Simulation time: 5 hr 0 min 51 sec) 
Heartbeat CPU 3 instructions: 2050000002 cycles: 1216364732 heartbeat IPC: 1.5697 cumulative IPC: 1.57482 (Simulation time: 5 hr 2 min 6 sec) 
Heartbeat CPU 3 instructions: 2060000000 cycles: 1222789221 heartbeat IPC: 1.55654 cumulative IPC: 1.57471 (Simulation time: 5 hr 3 min 27 sec) 
Heartbeat CPU 2 instructions: 1140000000 cycles: 1226574442 heartbeat IPC: 0.60229 cumulative IPC: 0.720783 (Simulation time: 5 hr 4 min 16 sec) 
Heartbeat CPU 0 instructions: 590000003 cycles: 1228145243 heartbeat IPC: 0.38715 cumulative IPC: 0.367813 (Simulation time: 5 hr 4 min 36 sec) 
Heartbeat CPU 3 instructions: 2070000000 cycles: 1229358223 heartbeat IPC: 1.5223 cumulative IPC: 1.57439 (Simulation time: 5 hr 4 min 52 sec) 
Heartbeat CPU 3 instructions: 2080000000 cycles: 1236898112 heartbeat IPC: 1.32628 cumulative IPC: 1.57264 (Simulation time: 5 hr 6 min 23 sec) 
Heartbeat CPU 2 instructions: 1150000001 cycles: 1243052731 heartbeat IPC: 0.606859 cumulative IPC: 0.719037 (Simulation time: 5 hr 7 min 42 sec) 
Heartbeat CPU 3 instructions: 2090000000 cycles: 1243820471 heartbeat IPC: 1.44459 cumulative IPC: 1.57181 (Simulation time: 5 hr 7 min 51 sec) 
Heartbeat CPU 3 instructions: 2100000000 cycles: 1250671497 heartbeat IPC: 1.45964 cumulative IPC: 1.5711 (Simulation time: 5 hr 9 min 11 sec) 
Heartbeat CPU 1 instructions: 480000000 cycles: 1253006804 heartbeat IPC: 0.232871 cumulative IPC: 0.232014 (Simulation time: 5 hr 9 min 39 sec) 
Heartbeat CPU 0 instructions: 600000000 cycles: 1254089905 heartbeat IPC: 0.385436 cumulative IPC: 0.368234 (Simulation time: 5 hr 9 min 53 sec) 
Heartbeat CPU 3 instructions: 2110000001 cycles: 1257535014 heartbeat IPC: 1.45698 cumulative IPC: 1.57038 (Simulation time: 5 hr 10 min 32 sec) 
Heartbeat CPU 2 instructions: 1160000000 cycles: 1259535301 heartbeat IPC: 0.606701 cumulative IPC: 0.717341 (Simulation time: 5 hr 10 min 56 sec) 
Heartbeat CPU 3 instructions: 2120000000 cycles: 1264367672 heartbeat IPC: 1.46356 cumulative IPC: 1.56972 (Simulation time: 5 hr 11 min 52 sec) 
Heartbeat CPU 3 instructions: 2130000002 cycles: 1270545579 heartbeat IPC: 1.61867 cumulative IPC: 1.56999 (Simulation time: 5 hr 13 min 7 sec) 
Heartbeat CPU 2 instructions: 1170000001 cycles: 1276236749 heartbeat IPC: 0.598751 cumulative IPC: 0.715554 (Simulation time: 5 hr 14 min 18 sec) 
Heartbeat CPU 3 instructions: 2140000000 cycles: 1276732160 heartbeat IPC: 1.6164 cumulative IPC: 1.57025 (Simulation time: 5 hr 14 min 25 sec) 
Heartbeat CPU 0 instructions: 610000000 cycles: 1278917891 heartbeat IPC: 0.402771 cumulative IPC: 0.369006 (Simulation time: 5 hr 14 min 52 sec) 
Heartbeat CPU 3 instructions: 2150000000 cycles: 1284133324 heartbeat IPC: 1.35114 cumulative IPC: 1.5688 (Simulation time: 5 hr 15 min 52 sec) 
Heartbeat CPU 3 instructions: 2160000000 cycles: 1290320347 heartbeat IPC: 1.61629 cumulative IPC: 1.56906 (Simulation time: 5 hr 17 min 10 sec) 
Heartbeat CPU 2 instructions: 1180000000 cycles: 1293432842 heartbeat IPC: 0.581527 cumulative IPC: 0.713506 (Simulation time: 5 hr 17 min 51 sec) 
Heartbeat CPU 1 instructions: 490000002 cycles: 1295943227 heartbeat IPC: 0.232903 cumulative IPC: 0.232047 (Simulation time: 5 hr 18 min 23 sec) 
Heartbeat CPU 3 instructions: 2170000003 cycles: 1296487240 heartbeat IPC: 1.62156 cumulative IPC: 1.56935 (Simulation time: 5 hr 18 min 29 sec) 
Heartbeat CPU 0 instructions: 620000000 cycles: 1301248115 heartbeat IPC: 0.447824 cumulative IPC: 0.370559 (Simulation time: 5 hr 19 min 30 sec) 
Heartbeat CPU 3 instructions: 2180000000 cycles: 1302666293 heartbeat IPC: 1.61837 cumulative IPC: 1.56962 (Simulation time: 5 hr 19 min 48 sec) 
Heartbeat CPU 3 instructions: 2190000000 cycles: 1308841259 heartbeat IPC: 1.61944 cumulative IPC: 1.56988 (Simulation time: 5 hr 21 min 7 sec) 
Heartbeat CPU 2 instructions: 1190000003 cycles: 1309776251 heartbeat IPC: 0.611868 cumulative IPC: 0.712052 (Simulation time: 5 hr 21 min 19 sec) 
Heartbeat CPU 3 instructions: 2200000000 cycles: 1315036771 heartbeat IPC: 1.61407 cumulative IPC: 1.57012 (Simulation time: 5 hr 22 min 25 sec) 
Heartbeat CPU 3 instructions: 2210000001 cycles: 1321231386 heartbeat IPC: 1.61431 cumulative IPC: 1.57036 (Simulation time: 5 hr 23 min 44 sec) 
Heartbeat CPU 0 instructions: 630000001 cycles: 1323581338 heartbeat IPC: 0.447763 cumulative IPC: 0.372051 (Simulation time: 5 hr 24 min 14 sec) 
Heartbeat CPU 2 instructions: 1200000000 cycles: 1326483920 heartbeat IPC: 0.598527 cumulative IPC: 0.710415 (Simulation time: 5 hr 24 min 48 sec) 
Heartbeat CPU 3 instructions: 2220000000 cycles: 1328042435 heartbeat IPC: 1.4682 cumulative IPC: 1.56976 (Simulation time: 5 hr 25 min 7 sec) 
Heartbeat CPU 3 instructions: 2230000000 cycles: 1334174090 heartbeat IPC: 1.63088 cumulative IPC: 1.57008 (Simulation time: 5 hr 26 min 21 sec) 
Heartbeat CPU 1 instructions: 500000000 cycles: 1338669616 heartbeat IPC: 0.234047 cumulative IPC: 0.23212 (Simulation time: 5 hr 27 min 19 sec) 
Heartbeat CPU 3 instructions: 2240000000 cycles: 1340366300 heartbeat IPC: 1.61493 cumulative IPC: 1.57032 (Simulation time: 5 hr 27 min 40 sec) 
Heartbeat CPU 2 instructions: 1210000000 cycles: 1342765312 heartbeat IPC: 0.614198 cumulative IPC: 0.709081 (Simulation time: 5 hr 28 min 9 sec) 
Heartbeat CPU 0 instructions: 640000000 cycles: 1345831502 heartbeat IPC: 0.449435 cumulative IPC: 0.373512 (Simulation time: 5 hr 28 min 48 sec) 
Heartbeat CPU 3 instructions: 2250000002 cycles: 1346567820 heartbeat IPC: 1.61251 cumulative IPC: 1.57054 (Simulation time: 5 hr 28 min 57 sec) 
Heartbeat CPU 3 instructions: 2260000000 cycles: 1353322225 heartbeat IPC: 1.48052 cumulative IPC: 1.57003 (Simulation time: 5 hr 30 min 26 sec) 
Heartbeat CPU 2 instructions: 1220000000 cycles: 1359373970 heartbeat IPC: 0.602096 cumulative IPC: 0.70759 (Simulation time: 5 hr 31 min 49 sec) 
Heartbeat CPU 3 instructions: 2270000002 cycles: 1359478486 heartbeat IPC: 1.62436 cumulative IPC: 1.57031 (Simulation time: 5 hr 31 min 50 sec) 
Heartbeat CPU 3 instructions: 2280000000 cycles: 1365640428 heartbeat IPC: 1.62286 cumulative IPC: 1.57058 (Simulation time: 5 hr 33 min 16 sec) 
Heartbeat CPU 0 instructions: 650000002 cycles: 1368181565 heartbeat IPC: 0.447426 cumulative IPC: 0.374889 (Simulation time: 5 hr 33 min 48 sec) 
Heartbeat CPU 3 instructions: 2290000003 cycles: 1372947179 heartbeat IPC: 1.3686 cumulative IPC: 1.56935 (Simulation time: 5 hr 34 min 51 sec) 
Heartbeat CPU 2 instructions: 1230000002 cycles: 1375578371 heartbeat IPC: 0.617116 cumulative IPC: 0.706376 (Simulation time: 5 hr 35 min 27 sec) 
Heartbeat CPU 3 instructions: 2300000000 cycles: 1379149395 heartbeat IPC: 1.61233 cumulative IPC: 1.56957 (Simulation time: 5 hr 36 min 15 sec) 
Heartbeat CPU 1 instructions: 510000002 cycles: 1381464427 heartbeat IPC: 0.233673 cumulative IPC: 0.232175 (Simulation time: 5 hr 36 min 46 sec) 
Heartbeat CPU 3 instructions: 2310000000 cycles: 1386037476 heartbeat IPC: 1.45178 cumulative IPC: 1.56891 (Simulation time: 5 hr 37 min 45 sec) 
Heartbeat CPU 0 instructions: 660000000 cycles: 1390466035 heartbeat IPC: 0.448743 cumulative IPC: 0.376235 (Simulation time: 5 hr 38 min 45 sec) 
Heartbeat CPU 3 instructions: 2320000000 cycles: 1392419859 heartbeat IPC: 1.56681 cumulative IPC: 1.5689 (Simulation time: 5 hr 39 min 12 sec) 
Heartbeat CPU 2 instructions: 1240000000 cycles: 1392500115 heartbeat IPC: 0.590955 cumulative IPC: 0.704781 (Simulation time: 5 hr 39 min 13 sec) 
Heartbeat CPU 3 instructions: 2330000003 cycles: 1399324625 heartbeat IPC: 1.44828 cumulative IPC: 1.56822 (Simulation time: 5 hr 40 min 41 sec) 
Heartbeat CPU 3 instructions: 2340000000 cycles: 1405703459 heartbeat IPC: 1.56768 cumulative IPC: 1.56822 (Simulation time: 5 hr 41 min 59 sec) 
Heartbeat CPU 2 instructions: 1250000000 cycles: 1409895274 heartbeat IPC: 0.574873 cumulative IPC: 0.702962 (Simulation time: 5 hr 42 min 52 sec) 
Heartbeat CPU 3 instructions: 2350000000 cycles: 1411803122 heartbeat IPC: 1.63943 cumulative IPC: 1.56857 (Simulation time: 5 hr 43 min 17 sec) 
Heartbeat CPU 0 instructions: 670000002 cycles: 1412823603 heartbeat IPC: 0.447276 cumulative IPC: 0.37751 (Simulation time: 5 hr 43 min 30 sec) 
Heartbeat CPU 3 instructions: 2360000000 cycles: 1418669614 heartbeat IPC: 1.45635 cumulative IPC: 1.56795 (Simulation time: 5 hr 44 min 39 sec) 
Heartbeat CPU 1 instructions: 520000000 cycles: 1424148817 heartbeat IPC: 0.234278 cumulative IPC: 0.232247 (Simulation time: 5 hr 45 min 47 sec) 
Heartbeat CPU 3 instructions: 2370000001 cycles: 1424872356 heartbeat IPC: 1.61219 cumulative IPC: 1.56817 (Simulation time: 5 hr 45 min 57 sec) 
Heartbeat CPU 2 instructions: 1260000000 cycles: 1426033983 heartbeat IPC: 0.619628 cumulative IPC: 0.701893 (Simulation time: 5 hr 46 min 11 sec) 
Heartbeat CPU 3 instructions: 2380000000 cycles: 1430977731 heartbeat IPC: 1.6379 cumulative IPC: 1.56851 (Simulation time: 5 hr 47 min 16 sec) 
Heartbeat CPU 0 instructions: 680000000 cycles: 1435473722 heartbeat IPC: 0.441499 cumulative IPC: 0.378654 (Simulation time: 5 hr 48 min 18 sec) 
Heartbeat CPU 3 instructions: 2390000002 cycles: 1437075429 heartbeat IPC: 1.63996 cumulative IPC: 1.56885 (Simulation time: 5 hr 48 min 38 sec) 
Heartbeat CPU 2 instructions: 1270000000 cycles: 1442716655 heartbeat IPC: 0.599424 cumulative IPC: 0.700552 (Simulation time: 5 hr 49 min 52 sec) 
Heartbeat CPU 3 instructions: 2400000000 cycles: 1443471337 heartbeat IPC: 1.5635 cumulative IPC: 1.56882 (Simulation time: 5 hr 50 min 1 sec) 
Heartbeat CPU 3 instructions: 2410000002 cycles: 1450202150 heartbeat IPC: 1.4857 cumulative IPC: 1.56839 (Simulation time: 5 hr 51 min 30 sec) 
Heartbeat CPU 3 instructions: 2420000000 cycles: 1456393611 heartbeat IPC: 1.61513 cumulative IPC: 1.56861 (Simulation time: 5 hr 52 min 56 sec) 
Heartbeat CPU 0 instructions: 690000003 cycles: 1457472798 heartbeat IPC: 0.454565 cumulative IPC: 0.379949 (Simulation time: 5 hr 53 min 11 sec) 
Heartbeat CPU 2 instructions: 1280000000 cycles: 1458354443 heartbeat IPC: 0.639477 cumulative IPC: 0.699812 (Simulation time: 5 hr 53 min 23 sec) 
Heartbeat CPU 3 instructions: 2430000000 cycles: 1462629235 heartbeat IPC: 1.60369 cumulative IPC: 1.56878 (Simulation time: 5 hr 54 min 20 sec) 
Heartbeat CPU 1 instructions: 530000000 cycles: 1467039202 heartbeat IPC: 0.233152 cumulative IPC: 0.232277 (Simulation time: 5 hr 55 min 20 sec) 
Heartbeat CPU 3 instructions: 2440000000 cycles: 1468931456 heartbeat IPC: 1.58674 cumulative IPC: 1.56887 (Simulation time: 5 hr 55 min 45 sec) 
Heartbeat CPU 2 instructions: 1290000001 cycles: 1474901528 heartbeat IPC: 0.604336 cumulative IPC: 0.698603 (Simulation time: 5 hr 57 min 7 sec) 
Heartbeat CPU 3 instructions: 2450000001 cycles: 1475170606 heartbeat IPC: 1.60278 cumulative IPC: 1.56903 (Simulation time: 5 hr 57 min 11 sec) 
Heartbeat CPU 0 instructions: 700000000 cycles: 1478297707 heartbeat IPC: 0.480194 cumulative IPC: 0.381542 (Simulation time: 5 hr 57 min 53 sec) 
Heartbeat CPU 3 instructions: 2460000000 cycles: 1481439667 heartbeat IPC: 1.59514 cumulative IPC: 1.56915 (Simulation time: 5 hr 58 min 36 sec) 
Heartbeat CPU 3 instructions: 2470000003 cycles: 1487584750 heartbeat IPC: 1.62732 cumulative IPC: 1.56943 (Simulation time: 5 hr 59 min 58 sec) 
Heartbeat CPU 2 instructions: 1300000000 cycles: 1491665842 heartbeat IPC: 0.596505 cumulative IPC: 0.697311 (Simulation time: 6 hr 0 min 54 sec) 
Heartbeat CPU 3 instructions: 2480000000 cycles: 1493779334 heartbeat IPC: 1.61431 cumulative IPC: 1.56963 (Simulation time: 6 hr 1 min 23 sec) 
Heartbeat CPU 0 instructions: 710000003 cycles: 1499164615 heartbeat IPC: 0.479228 cumulative IPC: 0.383073 (Simulation time: 6 hr 2 min 36 sec) 
Heartbeat CPU 3 instructions: 2490000001 cycles: 1499958726 heartbeat IPC: 1.61828 cumulative IPC: 1.56986 (Simulation time: 6 hr 2 min 47 sec) 
Heartbeat CPU 3 instructions: 2500000000 cycles: 1506149203 heartbeat IPC: 1.61538 cumulative IPC: 1.57007 (Simulation time: 6 hr 4 min 13 sec) 
Heartbeat CPU 2 instructions: 1310000001 cycles: 1507686060 heartbeat IPC: 0.624211 cumulative IPC: 0.696437 (Simulation time: 6 hr 4 min 33 sec) 
Heartbeat CPU 1 instructions: 540000000 cycles: 1509109289 heartbeat IPC: 0.237699 cumulative IPC: 0.232447 (Simulation time: 6 hr 4 min 53 sec) 
Heartbeat CPU 3 instructions: 2510000000 cycles: 1512333887 heartbeat IPC: 1.6169 cumulative IPC: 1.57029 (Simulation time: 6 hr 5 min 36 sec) 
Heartbeat CPU 3 instructions: 2520000000 cycles: 1518520540 heartbeat IPC: 1.61638 cumulative IPC: 1.5705 (Simulation time: 6 hr 7 min 0 sec) 
Heartbeat CPU 0 instructions: 720000000 cycles: 1519971382 heartbeat IPC: 0.480613 cumulative IPC: 0.384574 (Simulation time: 6 hr 7 min 20 sec) 
Heartbeat CPU 2 instructions: 1320000000 cycles: 1523962080 heartbeat IPC: 0.614401 cumulative IPC: 0.695452 (Simulation time: 6 hr 8 min 15 sec) 
Heartbeat CPU 3 instructions: 2530000000 cycles: 1524685907 heartbeat IPC: 1.62196 cumulative IPC: 1.57073 (Simulation time: 6 hr 8 min 25 sec) 
Heartbeat CPU 3 instructions: 2540000000 cycles: 1530892240 heartbeat IPC: 1.61126 cumulative IPC: 1.57092 (Simulation time: 6 hr 9 min 43 sec) 
Heartbeat CPU 3 instructions: 2550000001 cycles: 1537118235 heartbeat IPC: 1.60617 cumulative IPC: 1.57108 (Simulation time: 6 hr 11 min 1 sec) 
Heartbeat CPU 2 instructions: 1330000003 cycles: 1540731031 heartbeat IPC: 0.59634 cumulative IPC: 0.694241 (Simulation time: 6 hr 11 min 45 sec) 
Heartbeat CPU 0 instructions: 730000000 cycles: 1540737855 heartbeat IPC: 0.481545 cumulative IPC: 0.38604 (Simulation time: 6 hr 11 min 45 sec) 
Heartbeat CPU 3 instructions: 2560000000 cycles: 1543490534 heartbeat IPC: 1.56929 cumulative IPC: 1.57107 (Simulation time: 6 hr 12 min 18 sec) 
Heartbeat CPU 3 instructions: 2570000003 cycles: 1549818148 heartbeat IPC: 1.58037 cumulative IPC: 1.57111 (Simulation time: 6 hr 13 min 37 sec) 
Heartbeat CPU 1 instructions: 550000001 cycles: 1552135978 heartbeat IPC: 0.232414 cumulative IPC: 0.232446 (Simulation time: 6 hr 14 min 6 sec) 
Heartbeat CPU 3 instructions: 2580000000 cycles: 1556675249 heartbeat IPC: 1.45834 cumulative IPC: 1.57055 (Simulation time: 6 hr 15 min 5 sec) 
Heartbeat CPU 2 instructions: 1340000000 cycles: 1557137518 heartbeat IPC: 0.609515 cumulative IPC: 0.693241 (Simulation time: 6 hr 15 min 11 sec) 
Heartbeat CPU 0 instructions: 740000000 cycles: 1561488615 heartbeat IPC: 0.48191 cumulative IPC: 0.387468 (Simulation time: 6 hr 16 min 11 sec) 
Heartbeat CPU 3 instructions: 2590000000 cycles: 1562884661 heartbeat IPC: 1.61046 cumulative IPC: 1.57073 (Simulation time: 6 hr 16 min 30 sec) 
Heartbeat CPU 3 instructions: 2600000000 cycles: 1569002416 heartbeat IPC: 1.63459 cumulative IPC: 1.57101 (Simulation time: 6 hr 17 min 53 sec) 
Heartbeat CPU 2 instructions: 1350000001 cycles: 1573798918 heartbeat IPC: 0.60019 cumulative IPC: 0.692138 (Simulation time: 6 hr 18 min 59 sec) 
Heartbeat CPU 3 instructions: 2610000002 cycles: 1575038698 heartbeat IPC: 1.65665 cumulative IPC: 1.57138 (Simulation time: 6 hr 19 min 16 sec) 
Heartbeat CPU 3 instructions: 2620000000 cycles: 1581022437 heartbeat IPC: 1.6712 cumulative IPC: 1.5718 (Simulation time: 6 hr 20 min 43 sec) 
Heartbeat CPU 0 instructions: 750000002 cycles: 1582264568 heartbeat IPC: 0.481326 cumulative IPC: 0.388847 (Simulation time: 6 hr 21 min 0 sec) 
Heartbeat CPU 3 instructions: 2630000001 cycles: 1587416512 heartbeat IPC: 1.56395 cumulative IPC: 1.57176 (Simulation time: 6 hr 22 min 12 sec) 
Heartbeat CPU 2 instructions: 1360000000 cycles: 1589866364 heartbeat IPC: 0.622376 cumulative IPC: 0.69135 (Simulation time: 6 hr 22 min 47 sec) 
Heartbeat CPU 3 instructions: 2640000000 cycles: 1593683659 heartbeat IPC: 1.59562 cumulative IPC: 1.57187 (Simulation time: 6 hr 23 min 41 sec) 
Heartbeat CPU 1 instructions: 560000000 cycles: 1595201513 heartbeat IPC: 0.232204 cumulative IPC: 0.232438 (Simulation time: 6 hr 24 min 4 sec) 
Heartbeat CPU 3 instructions: 2650000001 cycles: 1600575227 heartbeat IPC: 1.45105 cumulative IPC: 1.57129 (Simulation time: 6 hr 25 min 22 sec) 
Heartbeat CPU 0 instructions: 760000000 cycles: 1602993356 heartbeat IPC: 0.482421 cumulative IPC: 0.390198 (Simulation time: 6 hr 25 min 58 sec) 
Heartbeat CPU 2 instructions: 1370000001 cycles: 1605710355 heartbeat IPC: 0.631154 cumulative IPC: 0.690687 (Simulation time: 6 hr 26 min 36 sec) 
Heartbeat CPU 3 instructions: 2660000000 cycles: 1606828814 heartbeat IPC: 1.59908 cumulative IPC: 1.57141 (Simulation time: 6 hr 26 min 52 sec) 
Heartbeat CPU 3 instructions: 2670000001 cycles: 1613069781 heartbeat IPC: 1.60232 cumulative IPC: 1.57154 (Simulation time: 6 hr 28 min 22 sec) 
Finished CPU 2 instructions: 1000000003 cycles: 1449965836 cumulative IPC: 0.689671 (Simulation time: 6 hr 29 min 27 sec) 
Heartbeat CPU 3 instructions: 2680000000 cycles: 1619279031 heartbeat IPC: 1.6105 cumulative IPC: 1.57171 (Simulation time: 6 hr 29 min 49 sec) 
Heartbeat CPU 2 instructions: 1380000000 cycles: 1622526354 heartbeat IPC: 0.594672 cumulative IPC: 0.689577 (Simulation time: 6 hr 30 min 33 sec) 
Heartbeat CPU 0 instructions: 770000000 cycles: 1624112063 heartbeat IPC: 0.473514 cumulative IPC: 0.391406 (Simulation time: 6 hr 30 min 52 sec) 
Heartbeat CPU 3 instructions: 2690000002 cycles: 1626228024 heartbeat IPC: 1.43906 cumulative IPC: 1.57108 (Simulation time: 6 hr 31 min 22 sec) 
Heartbeat CPU 3 instructions: 2700000000 cycles: 1632451026 heartbeat IPC: 1.60694 cumulative IPC: 1.57123 (Simulation time: 6 hr 32 min 46 sec) 
Heartbeat CPU 1 instructions: 570000001 cycles: 1637778798 heartbeat IPC: 0.234867 cumulative IPC: 0.232509 (Simulation time: 6 hr 33 min 58 sec) 
[...]
Heartbeat CPU 3 instructions: 6950000000 cycles: 4347732731 heartbeat IPC: 1.4569 cumulative IPC: 1.56732 (Simulation time: 16 hr 41 min 51 sec) 
Heartbeat CPU 3 instructions: 6960000000 cycles: 4354158774 heartbeat IPC: 1.55617 cumulative IPC: 1.56731 (Simulation time: 16 hr 42 min 48 sec) 
Heartbeat CPU 0 instructions: 1950000002 cycles: 4354314063 heartbeat IPC: 0.474053 cumulative IPC: 0.418011 (Simulation time: 16 hr 42 min 49 sec) 
Heartbeat CPU 2 instructions: 3170000001 cycles: 4356341071 heartbeat IPC: 0.595091 cumulative IPC: 0.666854 (Simulation time: 16 hr 43 min 7 sec) 
Heartbeat CPU 1 instructions: 1200000000 cycles: 4360497434 heartbeat IPC: 0.231098 cumulative IPC: 0.23178 (Simulation time: 16 hr 43 min 43 sec) 
Heartbeat CPU 3 instructions: 6970000003 cycles: 4360561048 heartbeat IPC: 1.56195 cumulative IPC: 1.5673 (Simulation time: 16 hr 43 min 44 sec) 
Heartbeat CPU 3 instructions: 6980000000 cycles: 4366692413 heartbeat IPC: 1.63096 cumulative IPC: 1.56739 (Simulation time: 16 hr 44 min 38 sec) 
Heartbeat CPU 3 instructions: 6990000001 cycles: 4372809143 heartbeat IPC: 1.63486 cumulative IPC: 1.56749 (Simulation time: 16 hr 45 min 33 sec) 
Heartbeat CPU 2 instructions: 3180000000 cycles: 4373688981 heartbeat IPC: 0.576438 cumulative IPC: 0.666481 (Simulation time: 16 hr 45 min 41 sec) 
Heartbeat CPU 0 instructions: 1960000000 cycles: 4375725929 heartbeat IPC: 0.467031 cumulative IPC: 0.418261 (Simulation time: 16 hr 46 min 0 sec) 
Heartbeat CPU 3 instructions: 7000000000 cycles: 4378809386 heartbeat IPC: 1.6666 cumulative IPC: 1.56763 (Simulation time: 16 hr 46 min 28 sec) 
Heartbeat CPU 3 instructions: 7010000001 cycles: 4384922594 heartbeat IPC: 1.6358 cumulative IPC: 1.56773 (Simulation time: 16 hr 47 min 23 sec) 
Heartbeat CPU 2 instructions: 3190000003 cycles: 4390231351 heartbeat IPC: 0.604508 cumulative IPC: 0.666238 (Simulation time: 16 hr 48 min 10 sec) 
Heartbeat CPU 3 instructions: 7020000000 cycles: 4390948099 heartbeat IPC: 1.65961 cumulative IPC: 1.56786 (Simulation time: 16 hr 48 min 17 sec) 
Heartbeat CPU 3 instructions: 7030000002 cycles: 4396934793 heartbeat IPC: 1.67037 cumulative IPC: 1.568 (Simulation time: 16 hr 49 min 9 sec) 
Heartbeat CPU 0 instructions: 1970000000 cycles: 4397079478 heartbeat IPC: 0.468306 cumulative IPC: 0.418513 (Simulation time: 16 hr 49 min 11 sec) 
Heartbeat CPU 3 instructions: 7040000000 cycles: 4402920317 heartbeat IPC: 1.6707 cumulative IPC: 1.56815 (Simulation time: 16 hr 50 min 3 sec) 
Heartbeat CPU 1 instructions: 1210000000 cycles: 4403353075 heartbeat IPC: 0.233342 cumulative IPC: 0.231796 (Simulation time: 16 hr 50 min 7 sec) 
Heartbeat CPU 2 instructions: 3200000000 cycles: 4407137980 heartbeat IPC: 0.591484 cumulative IPC: 0.66594 (Simulation time: 16 hr 50 min 41 sec) 
Heartbeat CPU 3 instructions: 7050000003 cycles: 4409647201 heartbeat IPC: 1.48657 cumulative IPC: 1.56802 (Simulation time: 16 hr 51 min 2 sec) 
Heartbeat CPU 3 instructions: 7060000000 cycles: 4415836728 heartbeat IPC: 1.61563 cumulative IPC: 1.56809 (Simulation time: 16 hr 51 min 57 sec) 
Heartbeat CPU 0 instructions: 1980000000 cycles: 4417973566 heartbeat IPC: 0.478604 cumulative IPC: 0.418809 (Simulation time: 16 hr 52 min 17 sec) 
Heartbeat CPU 3 instructions: 7070000000 cycles: 4421899052 heartbeat IPC: 1.64953 cumulative IPC: 1.56821 (Simulation time: 16 hr 52 min 53 sec) 
Heartbeat CPU 2 instructions: 3210000000 cycles: 4423653364 heartbeat IPC: 0.605496 cumulative IPC: 0.665705 (Simulation time: 16 hr 53 min 8 sec) 
Heartbeat CPU 3 instructions: 7080000000 cycles: 4427946335 heartbeat IPC: 1.65364 cumulative IPC: 1.56833 (Simulation time: 16 hr 53 min 47 sec) 
Heartbeat CPU 3 instructions: 7090000001 cycles: 4434087737 heartbeat IPC: 1.62829 cumulative IPC: 1.56841 (Simulation time: 16 hr 54 min 42 sec) 
Heartbeat CPU 0 instructions: 1990000002 cycles: 4438659078 heartbeat IPC: 0.48343 cumulative IPC: 0.419122 (Simulation time: 16 hr 55 min 23 sec) 
Heartbeat CPU 3 instructions: 7100000000 cycles: 4440398812 heartbeat IPC: 1.58452 cumulative IPC: 1.56844 (Simulation time: 16 hr 55 min 39 sec) 
Heartbeat CPU 2 instructions: 3220000000 cycles: 4440525614 heartbeat IPC: 0.592689 cumulative IPC: 0.665417 (Simulation time: 16 hr 55 min 40 sec) 
Heartbeat CPU 1 instructions: 1220000000 cycles: 4446678774 heartbeat IPC: 0.23081 cumulative IPC: 0.231786 (Simulation time: 16 hr 56 min 34 sec) 
Heartbeat CPU 3 instructions: 7110000001 cycles: 4447287336 heartbeat IPC: 1.45169 cumulative IPC: 1.56825 (Simulation time: 16 hr 56 min 39 sec) 
Heartbeat CPU 3 instructions: 7120000000 cycles: 4453510512 heartbeat IPC: 1.6069 cumulative IPC: 1.56831 (Simulation time: 16 hr 57 min 35 sec) 
Heartbeat CPU 2 instructions: 3230000002 cycles: 4457006561 heartbeat IPC: 0.606761 cumulative IPC: 0.665192 (Simulation time: 16 hr 58 min 6 sec) 
*** Reached end of trace for Core: 0 Repeating trace: /scratch/user/djimenez/champsim-traces/speccpu2017/xz/649.fotonik3d_s/649.fotonik3d_s-10881B.champsimtrace.xz
Heartbeat CPU 0 instructions: 2000000000 cycles: 4459466120 heartbeat IPC: 0.480606 cumulative IPC: 0.41942 (Simulation time: 16 hr 58 min 27 sec) 
Heartbeat CPU 3 instructions: 7130000001 cycles: 4460365594 heartbeat IPC: 1.45877 cumulative IPC: 1.56813 (Simulation time: 16 hr 58 min 34 sec) 
Heartbeat CPU 3 instructions: 7140000000 cycles: 4466496573 heartbeat IPC: 1.63106 cumulative IPC: 1.56822 (Simulation time: 16 hr 59 min 31 sec) 
Heartbeat CPU 3 instructions: 7150000002 cycles: 4473310587 heartbeat IPC: 1.46756 cumulative IPC: 1.56806 (Simulation time: 17 hr 0 min 31 sec) 
Heartbeat CPU 2 instructions: 3240000000 cycles: 4474077328 heartbeat IPC: 0.585797 cumulative IPC: 0.664877 (Simulation time: 17 hr 0 min 38 sec) 
Heartbeat CPU 3 instructions: 7160000000 cycles: 4479595493 heartbeat IPC: 1.59111 cumulative IPC: 1.56809 (Simulation time: 17 hr 1 min 27 sec) 
Finished CPU 1 instructions: 1000000002 cycles: 4314711327 cumulative IPC: 0.231765 (Simulation time: 17 hr 1 min 53 sec) 

CPU 0 Branch Prediction Accuracy: 99.5908% MPKI: 0.0396878

CPU 1 Branch Prediction Accuracy: 96.717% MPKI: 4.73726

CPU 2 Branch Prediction Accuracy: 90.589% MPKI: 11.9337

CPU 3 Branch Prediction Accuracy: 96.9716% MPKI: 4.06289

ChampSim completed all CPUs

Total Simulation Statistics (not including warmup)

CPU 0 cumulative IPC: 0.419262 instructions: 1808993160 cycles: 4314711326
L1D TOTAL     ACCESS:  825549385  HIT:  789842901  MISS:   35706484
L1D LOAD      ACCESS:  720158934  HIT:  684452783  MISS:   35706151
L1D RFO       ACCESS:  105390451  HIT:  105390118  MISS:        333
L1D PREFETCH  ACCESS:          0  HIT:          0  MISS:          0
L1D WRITEBACK ACCESS:          0  HIT:          0  MISS:          0
L1I TOTAL     ACCESS:  494859782  HIT:  494859248  MISS:        534
L1I LOAD      ACCESS:  494859782  HIT:  494859248  MISS:        534
L1I RFO       ACCESS:          0  HIT:          0  MISS:          0
L1I PREFETCH  ACCESS:          0  HIT:          0  MISS:          0
L1I WRITEBACK ACCESS:          0  HIT:          0  MISS:          0
L2C TOTAL     ACCESS:   49222755  HIT:   17603208  MISS:   31619547
L2C LOAD      ACCESS:   35706676  HIT:    4089512  MISS:   31617164
L2C RFO       ACCESS:        329  HIT:        291  MISS:         38
L2C PREFETCH  ACCESS:          0  HIT:          0  MISS:          0
L2C WRITEBACK ACCESS:   13515750  HIT:   13513405  MISS:       2345
LLC TOTAL     ACCESS:   45114475  HIT:   15896193  MISS:   29218282
LLC LOAD      ACCESS:   31617164  HIT:    2399295  MISS:   29217869
LLC RFO       ACCESS:         38  HIT:         19  MISS:         19
LLC PREFETCH  ACCESS:          0  HIT:          0  MISS:          0
LLC WRITEBACK ACCESS:   13497273  HIT:   13496879  MISS:        394

CPU 1 cumulative IPC: 0.231765 instructions: 1000000002 cycles: 4314711327
L1D TOTAL     ACCESS:  442977833  HIT:  422957026  MISS:   20020807
L1D LOAD      ACCESS:  261682940  HIT:  244180434  MISS:   17502506
L1D RFO       ACCESS:  181294893  HIT:  178776592  MISS:    2518301
L1D PREFETCH  ACCESS:          0  HIT:          0  MISS:          0
L1D WRITEBACK ACCESS:          0  HIT:          0  MISS:          0
L1I TOTAL     ACCESS:  356466884  HIT:  356085947  MISS:     380937
L1I LOAD      ACCESS:  356466884  HIT:  356085947  MISS:     380937
L1I RFO       ACCESS:          0  HIT:          0  MISS:          0
L1I PREFETCH  ACCESS:          0  HIT:          0  MISS:          0
L1I WRITEBACK ACCESS:          0  HIT:          0  MISS:          0
L2C TOTAL     ACCESS:   30078025  HIT:   15599756  MISS:   14478269
L2C LOAD      ACCESS:   17882849  HIT:    5452606  MISS:   12430243
L2C RFO       ACCESS:    2518168  HIT:     500949  MISS:    2017219
L2C PREFETCH  ACCESS:          0  HIT:          0  MISS:          0
L2C WRITEBACK ACCESS:    9677008  HIT:    9646201  MISS:      30807
LLC TOTAL     ACCESS:   21702405  HIT:   12347566  MISS:    9354839
LLC LOAD      ACCESS:   12430202  HIT:    4012196  MISS:    8418006
LLC RFO       ACCESS:    2017216  HIT:    1090660  MISS:     926556
LLC PREFETCH  ACCESS:          0  HIT:          0  MISS:          0
LLC WRITEBACK ACCESS:    7254987  HIT:    7244710  MISS:      10277

CPU 2 cumulative IPC: 0.664668 instructions: 2867850700 cycles: 4314711327
L1D TOTAL     ACCESS:  608890103  HIT:  588772212  MISS:   20117891
L1D LOAD      ACCESS:  402382849  HIT:  385263617  MISS:   17119232
L1D RFO       ACCESS:  206507254  HIT:  203508595  MISS:    2998659
L1D PREFETCH  ACCESS:          0  HIT:          0  MISS:          0
L1D WRITEBACK ACCESS:          0  HIT:          0  MISS:          0
L1I TOTAL     ACCESS:  547397068  HIT:  547390790  MISS:       6278
L1I LOAD      ACCESS:  547397068  HIT:  547390790  MISS:       6278
L1I RFO       ACCESS:          0  HIT:          0  MISS:          0
L1I PREFETCH  ACCESS:          0  HIT:          0  MISS:          0
L1I WRITEBACK ACCESS:          0  HIT:          0  MISS:          0
L2C TOTAL     ACCESS:   33386834  HIT:   21978819  MISS:   11408015
L2C LOAD      ACCESS:   17124929  HIT:    7026521  MISS:   10098408
L2C RFO       ACCESS:    2997136  HIT:    1726561  MISS:    1270575
L2C PREFETCH  ACCESS:          0  HIT:          0  MISS:          0
L2C WRITEBACK ACCESS:   13264769  HIT:   13225737  MISS:      39032
LLC TOTAL     ACCESS:   19184413  HIT:   13163067  MISS:    6021346
LLC LOAD      ACCESS:   10098400  HIT:    4811837  MISS:    5286563
LLC RFO       ACCESS:    1270481  HIT:     593257  MISS:     677224
LLC PREFETCH  ACCESS:          0  HIT:          0  MISS:          0
LLC WRITEBACK ACCESS:    7815532  HIT:    7757973  MISS:      57559

CPU 3 cumulative IPC: 1.5681 instructions: 6765889744 cycles: 4314711327
L1D TOTAL     ACCESS: 1816891377  HIT: 1816891362  MISS:         15
L1D LOAD      ACCESS:  784833862  HIT:  784833856  MISS:          6
L1D RFO       ACCESS: 1032057515  HIT: 1032057506  MISS:          9
L1D PREFETCH  ACCESS:          0  HIT:          0  MISS:          0
L1D WRITEBACK ACCESS:          0  HIT:          0  MISS:          0
L1I TOTAL     ACCESS: 1488846848  HIT: 1488600392  MISS:     246456
L1I LOAD      ACCESS: 1488846848  HIT: 1488600392  MISS:     246456
L1I RFO       ACCESS:          0  HIT:          0  MISS:          0
L1I PREFETCH  ACCESS:          0  HIT:          0  MISS:          0
L1I WRITEBACK ACCESS:          0  HIT:          0  MISS:          0
L2C TOTAL     ACCESS:     246480  HIT:     246446  MISS:         34
L2C LOAD      ACCESS:     246462  HIT:     246428  MISS:         34
L2C RFO       ACCESS:          9  HIT:          9  MISS:          0
L2C PREFETCH  ACCESS:          0  HIT:          0  MISS:          0
L2C WRITEBACK ACCESS:          9  HIT:          9  MISS:          0
LLC TOTAL     ACCESS:         34  HIT:          0  MISS:         34
LLC LOAD      ACCESS:         34  HIT:          0  MISS:         34
LLC RFO       ACCESS:          0  HIT:          0  MISS:          0
LLC PREFETCH  ACCESS:          0  HIT:          0  MISS:          0
LLC WRITEBACK ACCESS:          0  HIT:          0  MISS:          0

Region of Interest Statistics

CPU 0 cumulative IPC: 0.397822 instructions: 1000000000 cycles: 2513686642
L1D TOTAL     ACCESS:  563698693  HIT:  542973336  MISS:   20725357
L1D LOAD      ACCESS:  499354309  HIT:  478629272  MISS:   20725037
L1D RFO       ACCESS:   64344384  HIT:   64344064  MISS:        320
L1D PREFETCH  ACCESS:          0  HIT:          0  MISS:          0
L1D WRITEBACK ACCESS:          0  HIT:          0  MISS:          0
L1D PREFETCH  REQUESTED:          0  ISSUED:          0  USEFUL:          0  USELESS:          0
L1I TOTAL     ACCESS:  306239348  HIT:  306239014  MISS:        334
L1I LOAD      ACCESS:  306239348  HIT:  306239014  MISS:        334
L1I RFO       ACCESS:          0  HIT:          0  MISS:          0
L1I PREFETCH  ACCESS:          0  HIT:          0  MISS:          0
L1I WRITEBACK ACCESS:          0  HIT:          0  MISS:          0
L1I PREFETCH  REQUESTED:          0  ISSUED:          0  USEFUL:          0  USELESS:          0
L2C TOTAL     ACCESS:   29523125  HIT:   12031757  MISS:   17491368
L2C LOAD      ACCESS:   20725366  HIT:    3234040  MISS:   17491326
L2C RFO       ACCESS:        316  HIT:        290  MISS:         26
L2C PREFETCH  ACCESS:          0  HIT:          0  MISS:          0
L2C WRITEBACK ACCESS:    8797443  HIT:    8797427  MISS:         16
L2C PREFETCH  REQUESTED:          0  ISSUED:          0  USEFUL:          0  USELESS:          0
LLC TOTAL     ACCESS:   26284901  HIT:   10994247  MISS:   15290654
LLC LOAD      ACCESS:   17491326  HIT:    2200703  MISS:   15290623
LLC RFO       ACCESS:         26  HIT:         15  MISS:         11
LLC PREFETCH  ACCESS:          0  HIT:          0  MISS:          0
LLC WRITEBACK ACCESS:    8793549  HIT:    8793529  MISS:         20
LLC PREFETCH  REQUESTED:          0  ISSUED:          0  USEFUL:          0  USELESS:          0
Major fault: 0 Minor fault: 941584

CPU 1 cumulative IPC: 0.231765 instructions: 1000000002 cycles: 4314711327
L1D TOTAL     ACCESS:  442977833  HIT:  422957026  MISS:   20020807
L1D LOAD      ACCESS:  261682940  HIT:  244180434  MISS:   17502506
L1D RFO       ACCESS:  181294893  HIT:  178776592  MISS:    2518301
L1D PREFETCH  ACCESS:          0  HIT:          0  MISS:          0
L1D WRITEBACK ACCESS:          0  HIT:          0  MISS:          0
L1D PREFETCH  REQUESTED:          0  ISSUED:          0  USEFUL:          0  USELESS:          0
L1I TOTAL     ACCESS:  356466884  HIT:  356085947  MISS:     380937
L1I LOAD      ACCESS:  356466884  HIT:  356085947  MISS:     380937
L1I RFO       ACCESS:          0  HIT:          0  MISS:          0
L1I PREFETCH  ACCESS:          0  HIT:          0  MISS:          0
L1I WRITEBACK ACCESS:          0  HIT:          0  MISS:          0
L1I PREFETCH  REQUESTED:          0  ISSUED:          0  USEFUL:          0  USELESS:          0
L2C TOTAL     ACCESS:   30078025  HIT:   15599756  MISS:   14478269
L2C LOAD      ACCESS:   17882849  HIT:    5452606  MISS:   12430243
L2C RFO       ACCESS:    2518168  HIT:     500949  MISS:    2017219
L2C PREFETCH  ACCESS:          0  HIT:          0  MISS:          0
L2C WRITEBACK ACCESS:    9677008  HIT:    9646201  MISS:      30807
L2C PREFETCH  REQUESTED:          0  ISSUED:          0  USEFUL:          0  USELESS:          0
LLC TOTAL     ACCESS:   21702405  HIT:   12347566  MISS:    9354839
LLC LOAD      ACCESS:   12430202  HIT:    4012196  MISS:    8418006
LLC RFO       ACCESS:    2017216  HIT:    1090660  MISS:     926556
LLC PREFETCH  ACCESS:          0  HIT:          0  MISS:          0
LLC WRITEBACK ACCESS:    7254987  HIT:    7244710  MISS:      10277
LLC PREFETCH  REQUESTED:          0  ISSUED:          0  USEFUL:          0  USELESS:          0
Major fault: 0 Minor fault: 52209

CPU 2 cumulative IPC: 0.689671 instructions: 1000000003 cycles: 1449965836
L1D TOTAL     ACCESS:  214387776  HIT:  207998900  MISS:    6388876
L1D LOAD      ACCESS:  142128766  HIT:  136628537  MISS:    5500229
L1D RFO       ACCESS:   72259010  HIT:   71370363  MISS:     888647
L1D PREFETCH  ACCESS:          0  HIT:          0  MISS:          0
L1D WRITEBACK ACCESS:          0  HIT:          0  MISS:          0
L1D PREFETCH  REQUESTED:          0  ISSUED:          0  USEFUL:          0  USELESS:          0
L1I TOTAL     ACCESS:  192279531  HIT:  192277353  MISS:       2178
L1I LOAD      ACCESS:  192279531  HIT:  192277353  MISS:       2178
L1I RFO       ACCESS:          0  HIT:          0  MISS:          0
L1I PREFETCH  ACCESS:          0  HIT:          0  MISS:          0
L1I WRITEBACK ACCESS:          0  HIT:          0  MISS:          0
L1I PREFETCH  REQUESTED:          0  ISSUED:          0  USEFUL:          0  USELESS:          0
L2C TOTAL     ACCESS:   10573535  HIT:    7162665  MISS:    3410870
L2C LOAD      ACCESS:    5502199  HIT:    2439096  MISS:    3063103
L2C RFO       ACCESS:     888245  HIT:     553866  MISS:     334379
L2C PREFETCH  ACCESS:          0  HIT:          0  MISS:          0
L2C WRITEBACK ACCESS:    4183091  HIT:    4169703  MISS:      13388
L2C PREFETCH  REQUESTED:          0  ISSUED:          0  USEFUL:          0  USELESS:          0
LLC TOTAL     ACCESS:    5732961  HIT:    3943505  MISS:    1789456
LLC LOAD      ACCESS:    3063102  HIT:    1497566  MISS:    1565536
LLC RFO       ACCESS:     334359  HIT:     132067  MISS:     202292
LLC PREFETCH  ACCESS:          0  HIT:          0  MISS:          0
LLC WRITEBACK ACCESS:    2335500  HIT:    2313872  MISS:      21628
LLC PREFETCH  REQUESTED:          0  ISSUED:          0  USEFUL:          0  USELESS:          0
Major fault: 0 Minor fault: 12493

CPU 3 cumulative IPC: 1.56396 instructions: 1000000002 cycles: 639402010
L1D TOTAL     ACCESS:  269001545  HIT:  269001545  MISS:          0
L1D LOAD      ACCESS:  116059874  HIT:  116059874  MISS:          0
L1D RFO       ACCESS:  152941671  HIT:  152941671  MISS:          0
L1D PREFETCH  ACCESS:          0  HIT:          0  MISS:          0
L1D WRITEBACK ACCESS:          0  HIT:          0  MISS:          0
L1D PREFETCH  REQUESTED:          0  ISSUED:          0  USEFUL:          0  USELESS:          0
L1I TOTAL     ACCESS:  220163762  HIT:  220127643  MISS:      36119
L1I LOAD      ACCESS:  220163762  HIT:  220127643  MISS:      36119
L1I RFO       ACCESS:          0  HIT:          0  MISS:          0
L1I PREFETCH  ACCESS:          0  HIT:          0  MISS:          0
L1I WRITEBACK ACCESS:          0  HIT:          0  MISS:          0
L1I PREFETCH  REQUESTED:          0  ISSUED:          0  USEFUL:          0  USELESS:          0
L2C TOTAL     ACCESS:      36119  HIT:      36085  MISS:         34
L2C LOAD      ACCESS:      36119  HIT:      36085  MISS:         34
L2C RFO       ACCESS:          0  HIT:          0  MISS:          0
L2C PREFETCH  ACCESS:          0  HIT:          0  MISS:          0
L2C WRITEBACK ACCESS:          0  HIT:          0  MISS:          0
L2C PREFETCH  REQUESTED:          0  ISSUED:          0  USEFUL:          0  USELESS:          0
LLC TOTAL     ACCESS:         34  HIT:          0  MISS:         34
LLC LOAD      ACCESS:         34  HIT:          0  MISS:         34
LLC RFO       ACCESS:          0  HIT:          0  MISS:          0
LLC PREFETCH  ACCESS:          0  HIT:          0  MISS:          0
LLC WRITEBACK ACCESS:          0  HIT:          0  MISS:          0
LLC PREFETCH  REQUESTED:          0  ISSUED:          0  USEFUL:          0  USELESS:          0
Major fault: 0 Minor fault: 50

DRAM Statistics
 CHANNEL 0
 RQ ROW_BUFFER_HIT:    6189245  ROW_BUFFER_MISS:   16089213
 DBUS_CONGESTED:   28190490
 WQ ROW_BUFFER_HIT:    1149113  ROW_BUFFER_MISS:   10056694  FULL:          0

 CHANNEL 1
 RQ ROW_BUFFER_HIT:    6196121  ROW_BUFFER_MISS:   16049576
 DBUS_CONGESTED:   28190490
 WQ ROW_BUFFER_HIT:    1141947  ROW_BUFFER_MISS:   10024887  FULL:          0

 AVG_CONGESTED_CYCLE: 13
