
*** ChampSim Multicore Out-of-Order Simulator ***

Warmup Instructions: 200000000
Simulation Instructions: 1000000000
Number of CPUs: 1
LLC sets: 2048
LLC ways: 16
Off-chip DRAM Size: 4096 MB Channels: 1 Width: 64-bit Data Rate: 1600 MT/s

CPU 0 runs /scratch/user/djimenez/champsim-traces/speccpu2017/xz/603.bwaves_s/603.bwaves_s-1740B.champsimtrace.xz
L2C DA-AMPM prefetcher
Heartbeat CPU 0 instructions: 10000001 cycles: 5274272 heartbeat IPC: 1.896 cumulative IPC: 1.896 (Simulation time: 0 hr 0 min 23 sec) 
Heartbeat CPU 0 instructions: 20000000 cycles: 10550287 heartbeat IPC: 1.89537 cumulative IPC: 1.89568 (Simulation time: 0 hr 0 min 45 sec) 
Heartbeat CPU 0 instructions: 30000002 cycles: 15824601 heartbeat IPC: 1.89598 cumulative IPC: 1.89578 (Simulation time: 0 hr 1 min 8 sec) 
Heartbeat CPU 0 instructions: 40000000 cycles: 21097918 heartbeat IPC: 1.89634 cumulative IPC: 1.89592 (Simulation time: 0 hr 1 min 31 sec) 
Heartbeat CPU 0 instructions: 50000003 cycles: 26372781 heartbeat IPC: 1.89578 cumulative IPC: 1.89589 (Simulation time: 0 hr 1 min 54 sec) 
Heartbeat CPU 0 instructions: 60000000 cycles: 31645196 heartbeat IPC: 1.89666 cumulative IPC: 1.89602 (Simulation time: 0 hr 2 min 16 sec) 
Heartbeat CPU 0 instructions: 70000000 cycles: 36919209 heartbeat IPC: 1.89609 cumulative IPC: 1.89603 (Simulation time: 0 hr 2 min 39 sec) 
Heartbeat CPU 0 instructions: 80000000 cycles: 42194149 heartbeat IPC: 1.89576 cumulative IPC: 1.896 (Simulation time: 0 hr 3 min 2 sec) 
Heartbeat CPU 0 instructions: 90000000 cycles: 47468749 heartbeat IPC: 1.89588 cumulative IPC: 1.89598 (Simulation time: 0 hr 3 min 24 sec) 
Heartbeat CPU 0 instructions: 100000000 cycles: 52743132 heartbeat IPC: 1.89596 cumulative IPC: 1.89598 (Simulation time: 0 hr 3 min 47 sec) 
Heartbeat CPU 0 instructions: 110000001 cycles: 58016590 heartbeat IPC: 1.89629 cumulative IPC: 1.89601 (Simulation time: 0 hr 4 min 10 sec) 
Heartbeat CPU 0 instructions: 120000000 cycles: 63290301 heartbeat IPC: 1.8962 cumulative IPC: 1.89603 (Simulation time: 0 hr 4 min 32 sec) 
Heartbeat CPU 0 instructions: 130000003 cycles: 68563377 heartbeat IPC: 1.89643 cumulative IPC: 1.89606 (Simulation time: 0 hr 4 min 55 sec) 
Heartbeat CPU 0 instructions: 140000000 cycles: 73837635 heartbeat IPC: 1.896 cumulative IPC: 1.89605 (Simulation time: 0 hr 5 min 18 sec) 
Heartbeat CPU 0 instructions: 150000002 cycles: 79112442 heartbeat IPC: 1.8958 cumulative IPC: 1.89604 (Simulation time: 0 hr 5 min 40 sec) 
Heartbeat CPU 0 instructions: 160000000 cycles: 84386742 heartbeat IPC: 1.89599 cumulative IPC: 1.89603 (Simulation time: 0 hr 6 min 3 sec) 
Heartbeat CPU 0 instructions: 170000000 cycles: 89660959 heartbeat IPC: 1.89602 cumulative IPC: 1.89603 (Simulation time: 0 hr 6 min 26 sec) 
Heartbeat CPU 0 instructions: 180000000 cycles: 94933928 heartbeat IPC: 1.89646 cumulative IPC: 1.89606 (Simulation time: 0 hr 6 min 49 sec) 
Heartbeat CPU 0 instructions: 190000002 cycles: 100207179 heartbeat IPC: 1.89636 cumulative IPC: 1.89607 (Simulation time: 0 hr 7 min 11 sec) 
Heartbeat CPU 0 instructions: 200000000 cycles: 105482535 heartbeat IPC: 1.89561 cumulative IPC: 1.89605 (Simulation time: 0 hr 7 min 34 sec) 

Warmup complete CPU 0 instructions: 200000001 cycles: 105482550 (Simulation time: 0 hr 7 min 34 sec) 

Heartbeat CPU 0 instructions: 210000002 cycles: 113503053 heartbeat IPC: 1.2468 cumulative IPC: 1.2468 (Simulation time: 0 hr 8 min 1 sec) 
Heartbeat CPU 0 instructions: 220000000 cycles: 121490321 heartbeat IPC: 1.25199 cumulative IPC: 1.24939 (Simulation time: 0 hr 8 min 29 sec) 
Heartbeat CPU 0 instructions: 230000002 cycles: 129500569 heartbeat IPC: 1.2484 cumulative IPC: 1.24906 (Simulation time: 0 hr 8 min 56 sec) 
Heartbeat CPU 0 instructions: 240000000 cycles: 137479316 heartbeat IPC: 1.25333 cumulative IPC: 1.25013 (Simulation time: 0 hr 9 min 23 sec) 
Heartbeat CPU 0 instructions: 250000003 cycles: 145466862 heartbeat IPC: 1.25195 cumulative IPC: 1.25049 (Simulation time: 0 hr 9 min 51 sec) 
Heartbeat CPU 0 instructions: 260000000 cycles: 153454109 heartbeat IPC: 1.252 cumulative IPC: 1.25074 (Simulation time: 0 hr 10 min 18 sec) 
Heartbeat CPU 0 instructions: 270000001 cycles: 161446518 heartbeat IPC: 1.25119 cumulative IPC: 1.2508 (Simulation time: 0 hr 10 min 45 sec) 
Heartbeat CPU 0 instructions: 280000000 cycles: 169432461 heartbeat IPC: 1.2522 cumulative IPC: 1.25098 (Simulation time: 0 hr 11 min 13 sec) 
Heartbeat CPU 0 instructions: 290000002 cycles: 177409492 heartbeat IPC: 1.2536 cumulative IPC: 1.25127 (Simulation time: 0 hr 11 min 40 sec) 
Heartbeat CPU 0 instructions: 300000000 cycles: 185402326 heartbeat IPC: 1.25112 cumulative IPC: 1.25125 (Simulation time: 0 hr 12 min 7 sec) 
Heartbeat CPU 0 instructions: 310000001 cycles: 193396364 heartbeat IPC: 1.25093 cumulative IPC: 1.25123 (Simulation time: 0 hr 12 min 35 sec) 
Heartbeat CPU 0 instructions: 320000000 cycles: 201389141 heartbeat IPC: 1.25113 cumulative IPC: 1.25122 (Simulation time: 0 hr 13 min 2 sec) 
Heartbeat CPU 0 instructions: 330000003 cycles: 209364915 heartbeat IPC: 1.2538 cumulative IPC: 1.25142 (Simulation time: 0 hr 13 min 29 sec) 
Heartbeat CPU 0 instructions: 340000000 cycles: 217355406 heartbeat IPC: 1.25149 cumulative IPC: 1.25142 (Simulation time: 0 hr 13 min 57 sec) 
Heartbeat CPU 0 instructions: 350000002 cycles: 225338934 heartbeat IPC: 1.25258 cumulative IPC: 1.2515 (Simulation time: 0 hr 14 min 24 sec) 
Heartbeat CPU 0 instructions: 360000000 cycles: 233338789 heartbeat IPC: 1.25002 cumulative IPC: 1.25141 (Simulation time: 0 hr 14 min 51 sec) 
Heartbeat CPU 0 instructions: 370000000 cycles: 241324288 heartbeat IPC: 1.25227 cumulative IPC: 1.25146 (Simulation time: 0 hr 15 min 19 sec) 
Heartbeat CPU 0 instructions: 380000000 cycles: 249315159 heartbeat IPC: 1.25143 cumulative IPC: 1.25145 (Simulation time: 0 hr 15 min 46 sec) 
Heartbeat CPU 0 instructions: 390000001 cycles: 257302323 heartbeat IPC: 1.25201 cumulative IPC: 1.25148 (Simulation time: 0 hr 16 min 13 sec) 
Heartbeat CPU 0 instructions: 400000000 cycles: 265295899 heartbeat IPC: 1.251 cumulative IPC: 1.25146 (Simulation time: 0 hr 16 min 41 sec) 
Heartbeat CPU 0 instructions: 410000000 cycles: 273277572 heartbeat IPC: 1.25287 cumulative IPC: 1.25153 (Simulation time: 0 hr 17 min 8 sec) 
Heartbeat CPU 0 instructions: 420000000 cycles: 281262624 heartbeat IPC: 1.25234 cumulative IPC: 1.25156 (Simulation time: 0 hr 17 min 35 sec) 
Heartbeat CPU 0 instructions: 430000000 cycles: 289247964 heartbeat IPC: 1.25229 cumulative IPC: 1.2516 (Simulation time: 0 hr 18 min 3 sec) 
Heartbeat CPU 0 instructions: 440000000 cycles: 297288403 heartbeat IPC: 1.24371 cumulative IPC: 1.25127 (Simulation time: 0 hr 18 min 30 sec) 
Heartbeat CPU 0 instructions: 450000000 cycles: 305290132 heartbeat IPC: 1.24973 cumulative IPC: 1.2512 (Simulation time: 0 hr 18 min 58 sec) 
Heartbeat CPU 0 instructions: 460000000 cycles: 313281543 heartbeat IPC: 1.25134 cumulative IPC: 1.25121 (Simulation time: 0 hr 19 min 25 sec) 
Heartbeat CPU 0 instructions: 470000000 cycles: 321269209 heartbeat IPC: 1.25193 cumulative IPC: 1.25124 (Simulation time: 0 hr 19 min 52 sec) 
Heartbeat CPU 0 instructions: 480000000 cycles: 329284527 heartbeat IPC: 1.24761 cumulative IPC: 1.25111 (Simulation time: 0 hr 20 min 20 sec) 
Heartbeat CPU 0 instructions: 490000003 cycles: 337273503 heartbeat IPC: 1.25173 cumulative IPC: 1.25113 (Simulation time: 0 hr 20 min 47 sec) 
Heartbeat CPU 0 instructions: 500000000 cycles: 345261806 heartbeat IPC: 1.25183 cumulative IPC: 1.25115 (Simulation time: 0 hr 21 min 14 sec) 
Heartbeat CPU 0 instructions: 510000002 cycles: 353250965 heartbeat IPC: 1.2517 cumulative IPC: 1.25117 (Simulation time: 0 hr 21 min 42 sec) 
Heartbeat CPU 0 instructions: 520000000 cycles: 361229601 heartbeat IPC: 1.25335 cumulative IPC: 1.25124 (Simulation time: 0 hr 22 min 9 sec) 
Heartbeat CPU 0 instructions: 530000003 cycles: 369213733 heartbeat IPC: 1.25248 cumulative IPC: 1.25127 (Simulation time: 0 hr 22 min 36 sec) 
Heartbeat CPU 0 instructions: 540000000 cycles: 377208843 heartbeat IPC: 1.25076 cumulative IPC: 1.25126 (Simulation time: 0 hr 23 min 4 sec) 
Heartbeat CPU 0 instructions: 550000001 cycles: 385183848 heartbeat IPC: 1.25392 cumulative IPC: 1.25133 (Simulation time: 0 hr 23 min 31 sec) 
Heartbeat CPU 0 instructions: 560000000 cycles: 393170909 heartbeat IPC: 1.25202 cumulative IPC: 1.25135 (Simulation time: 0 hr 23 min 58 sec) 
Heartbeat CPU 0 instructions: 570000003 cycles: 401160291 heartbeat IPC: 1.25166 cumulative IPC: 1.25136 (Simulation time: 0 hr 24 min 26 sec) 
Heartbeat CPU 0 instructions: 580000000 cycles: 409140550 heartbeat IPC: 1.25309 cumulative IPC: 1.25141 (Simulation time: 0 hr 24 min 53 sec) 
Heartbeat CPU 0 instructions: 590000001 cycles: 417116444 heartbeat IPC: 1.25378 cumulative IPC: 1.25147 (Simulation time: 0 hr 25 min 20 sec) 
Heartbeat CPU 0 instructions: 600000000 cycles: 425096841 heartbeat IPC: 1.25307 cumulative IPC: 1.25151 (Simulation time: 0 hr 25 min 48 sec) 
Heartbeat CPU 0 instructions: 610000000 cycles: 433086195 heartbeat IPC: 1.25167 cumulative IPC: 1.25151 (Simulation time: 0 hr 26 min 15 sec) 
Heartbeat CPU 0 instructions: 620000000 cycles: 441105145 heartbeat IPC: 1.24705 cumulative IPC: 1.25141 (Simulation time: 0 hr 26 min 42 sec) 
Heartbeat CPU 0 instructions: 630000002 cycles: 449088408 heartbeat IPC: 1.25262 cumulative IPC: 1.25143 (Simulation time: 0 hr 27 min 10 sec) 
Heartbeat CPU 0 instructions: 640000000 cycles: 457081683 heartbeat IPC: 1.25105 cumulative IPC: 1.25143 (Simulation time: 0 hr 27 min 37 sec) 
Heartbeat CPU 0 instructions: 650000000 cycles: 465071310 heartbeat IPC: 1.25162 cumulative IPC: 1.25143 (Simulation time: 0 hr 28 min 5 sec) 
Heartbeat CPU 0 instructions: 660000000 cycles: 473061627 heartbeat IPC: 1.25151 cumulative IPC: 1.25143 (Simulation time: 0 hr 28 min 32 sec) 
Heartbeat CPU 0 instructions: 670000001 cycles: 481057382 heartbeat IPC: 1.25066 cumulative IPC: 1.25142 (Simulation time: 0 hr 28 min 59 sec) 
Heartbeat CPU 0 instructions: 680000000 cycles: 489032575 heartbeat IPC: 1.25389 cumulative IPC: 1.25147 (Simulation time: 0 hr 29 min 27 sec) 
Heartbeat CPU 0 instructions: 690000003 cycles: 497015516 heartbeat IPC: 1.25267 cumulative IPC: 1.25149 (Simulation time: 0 hr 29 min 54 sec) 
Heartbeat CPU 0 instructions: 700000000 cycles: 505006475 heartbeat IPC: 1.25141 cumulative IPC: 1.25149 (Simulation time: 0 hr 30 min 21 sec) 
Heartbeat CPU 0 instructions: 710000002 cycles: 512992032 heartbeat IPC: 1.25226 cumulative IPC: 1.2515 (Simulation time: 0 hr 30 min 49 sec) 
Heartbeat CPU 0 instructions: 720000000 cycles: 520982762 heartbeat IPC: 1.25145 cumulative IPC: 1.2515 (Simulation time: 0 hr 31 min 16 sec) 
Heartbeat CPU 0 instructions: 730000000 cycles: 528967923 heartbeat IPC: 1.25232 cumulative IPC: 1.25152 (Simulation time: 0 hr 31 min 43 sec) 
Heartbeat CPU 0 instructions: 740000000 cycles: 536998316 heartbeat IPC: 1.24527 cumulative IPC: 1.2514 (Simulation time: 0 hr 32 min 11 sec) 
Heartbeat CPU 0 instructions: 750000001 cycles: 544999696 heartbeat IPC: 1.24978 cumulative IPC: 1.25137 (Simulation time: 0 hr 32 min 38 sec) 
Heartbeat CPU 0 instructions: 760000000 cycles: 552984797 heartbeat IPC: 1.25233 cumulative IPC: 1.25139 (Simulation time: 0 hr 33 min 5 sec) 
Heartbeat CPU 0 instructions: 770000003 cycles: 560977344 heartbeat IPC: 1.25117 cumulative IPC: 1.25139 (Simulation time: 0 hr 33 min 33 sec) 
Heartbeat CPU 0 instructions: 780000000 cycles: 568961715 heartbeat IPC: 1.25245 cumulative IPC: 1.2514 (Simulation time: 0 hr 34 min 0 sec) 
Heartbeat CPU 0 instructions: 790000002 cycles: 576949869 heartbeat IPC: 1.25185 cumulative IPC: 1.25141 (Simulation time: 0 hr 34 min 27 sec) 
Heartbeat CPU 0 instructions: 800000000 cycles: 584937349 heartbeat IPC: 1.25196 cumulative IPC: 1.25142 (Simulation time: 0 hr 34 min 55 sec) 
Heartbeat CPU 0 instructions: 810000000 cycles: 592921696 heartbeat IPC: 1.25245 cumulative IPC: 1.25144 (Simulation time: 0 hr 35 min 22 sec) 
Heartbeat CPU 0 instructions: 820000000 cycles: 600906505 heartbeat IPC: 1.25238 cumulative IPC: 1.25145 (Simulation time: 0 hr 35 min 49 sec) 
Heartbeat CPU 0 instructions: 830000002 cycles: 608896974 heartbeat IPC: 1.25149 cumulative IPC: 1.25145 (Simulation time: 0 hr 36 min 17 sec) 
Heartbeat CPU 0 instructions: 840000000 cycles: 616889459 heartbeat IPC: 1.25118 cumulative IPC: 1.25145 (Simulation time: 0 hr 36 min 44 sec) 
Heartbeat CPU 0 instructions: 850000001 cycles: 624883612 heartbeat IPC: 1.25091 cumulative IPC: 1.25144 (Simulation time: 0 hr 37 min 11 sec) 
Heartbeat CPU 0 instructions: 860000000 cycles: 632915569 heartbeat IPC: 1.24503 cumulative IPC: 1.25134 (Simulation time: 0 hr 37 min 39 sec) 
Heartbeat CPU 0 instructions: 870000001 cycles: 640908307 heartbeat IPC: 1.25114 cumulative IPC: 1.25134 (Simulation time: 0 hr 38 min 6 sec) 
Heartbeat CPU 0 instructions: 880000000 cycles: 648903761 heartbeat IPC: 1.25071 cumulative IPC: 1.25133 (Simulation time: 0 hr 38 min 33 sec) 
Heartbeat CPU 0 instructions: 890000003 cycles: 656894100 heartbeat IPC: 1.25151 cumulative IPC: 1.25133 (Simulation time: 0 hr 39 min 1 sec) 
Heartbeat CPU 0 instructions: 900000000 cycles: 664890062 heartbeat IPC: 1.25063 cumulative IPC: 1.25132 (Simulation time: 0 hr 39 min 28 sec) 
Heartbeat CPU 0 instructions: 910000002 cycles: 672863459 heartbeat IPC: 1.25417 cumulative IPC: 1.25136 (Simulation time: 0 hr 39 min 55 sec) 
Heartbeat CPU 0 instructions: 920000000 cycles: 680848356 heartbeat IPC: 1.25236 cumulative IPC: 1.25138 (Simulation time: 0 hr 40 min 23 sec) 
Heartbeat CPU 0 instructions: 930000000 cycles: 688867979 heartbeat IPC: 1.24694 cumulative IPC: 1.25132 (Simulation time: 0 hr 40 min 50 sec) 
Heartbeat CPU 0 instructions: 940000000 cycles: 696844164 heartbeat IPC: 1.25373 cumulative IPC: 1.25135 (Simulation time: 0 hr 41 min 17 sec) 
Heartbeat CPU 0 instructions: 950000002 cycles: 704832262 heartbeat IPC: 1.25186 cumulative IPC: 1.25136 (Simulation time: 0 hr 41 min 44 sec) 
Heartbeat CPU 0 instructions: 960000000 cycles: 712824204 heartbeat IPC: 1.25126 cumulative IPC: 1.25135 (Simulation time: 0 hr 42 min 12 sec) 
Heartbeat CPU 0 instructions: 970000000 cycles: 720804453 heartbeat IPC: 1.25309 cumulative IPC: 1.25138 (Simulation time: 0 hr 42 min 39 sec) 
Heartbeat CPU 0 instructions: 980000000 cycles: 728794432 heartbeat IPC: 1.25157 cumulative IPC: 1.25138 (Simulation time: 0 hr 43 min 6 sec) 
Heartbeat CPU 0 instructions: 990000003 cycles: 736779660 heartbeat IPC: 1.25231 cumulative IPC: 1.25139 (Simulation time: 0 hr 43 min 34 sec) 
Heartbeat CPU 0 instructions: 1000000000 cycles: 744797094 heartbeat IPC: 1.24728 cumulative IPC: 1.25134 (Simulation time: 0 hr 44 min 1 sec) 
Heartbeat CPU 0 instructions: 1010000000 cycles: 752782605 heartbeat IPC: 1.25227 cumulative IPC: 1.25135 (Simulation time: 0 hr 44 min 28 sec) 
Heartbeat CPU 0 instructions: 1020000000 cycles: 760760794 heartbeat IPC: 1.25342 cumulative IPC: 1.25138 (Simulation time: 0 hr 44 min 56 sec) 
Heartbeat CPU 0 instructions: 1030000002 cycles: 768763133 heartbeat IPC: 1.24963 cumulative IPC: 1.25136 (Simulation time: 0 hr 45 min 23 sec) 
Heartbeat CPU 0 instructions: 1040000000 cycles: 776753904 heartbeat IPC: 1.25144 cumulative IPC: 1.25136 (Simulation time: 0 hr 45 min 50 sec) 
Heartbeat CPU 0 instructions: 1050000002 cycles: 784812315 heartbeat IPC: 1.24094 cumulative IPC: 1.25123 (Simulation time: 0 hr 46 min 18 sec) 
Heartbeat CPU 0 instructions: 1060000000 cycles: 792795330 heartbeat IPC: 1.25266 cumulative IPC: 1.25125 (Simulation time: 0 hr 46 min 45 sec) 
Heartbeat CPU 0 instructions: 1070000000 cycles: 800787339 heartbeat IPC: 1.25125 cumulative IPC: 1.25125 (Simulation time: 0 hr 47 min 12 sec) 
Heartbeat CPU 0 instructions: 1080000000 cycles: 808897091 heartbeat IPC: 1.23308 cumulative IPC: 1.25104 (Simulation time: 0 hr 47 min 40 sec) 
Heartbeat CPU 0 instructions: 1090000000 cycles: 816877622 heartbeat IPC: 1.25305 cumulative IPC: 1.25106 (Simulation time: 0 hr 48 min 7 sec) 
Heartbeat CPU 0 instructions: 1100000000 cycles: 824861965 heartbeat IPC: 1.25245 cumulative IPC: 1.25108 (Simulation time: 0 hr 48 min 34 sec) 
Heartbeat CPU 0 instructions: 1110000000 cycles: 832851010 heartbeat IPC: 1.25171 cumulative IPC: 1.25109 (Simulation time: 0 hr 49 min 2 sec) 
Heartbeat CPU 0 instructions: 1120000000 cycles: 840842978 heartbeat IPC: 1.25126 cumulative IPC: 1.25109 (Simulation time: 0 hr 49 min 29 sec) 
Heartbeat CPU 0 instructions: 1130000000 cycles: 848831511 heartbeat IPC: 1.25179 cumulative IPC: 1.25109 (Simulation time: 0 hr 49 min 56 sec) 
Heartbeat CPU 0 instructions: 1140000000 cycles: 856825838 heartbeat IPC: 1.25089 cumulative IPC: 1.25109 (Simulation time: 0 hr 50 min 24 sec) 
Heartbeat CPU 0 instructions: 1150000001 cycles: 864807946 heartbeat IPC: 1.2528 cumulative IPC: 1.25111 (Simulation time: 0 hr 50 min 51 sec) 
Heartbeat CPU 0 instructions: 1160000000 cycles: 872786080 heartbeat IPC: 1.25343 cumulative IPC: 1.25113 (Simulation time: 0 hr 51 min 18 sec) 
Heartbeat CPU 0 instructions: 1170000000 cycles: 880772797 heartbeat IPC: 1.25208 cumulative IPC: 1.25114 (Simulation time: 0 hr 51 min 46 sec) 
Heartbeat CPU 0 instructions: 1180000000 cycles: 888745480 heartbeat IPC: 1.25428 cumulative IPC: 1.25118 (Simulation time: 0 hr 52 min 13 sec) 
Heartbeat CPU 0 instructions: 1190000003 cycles: 896734868 heartbeat IPC: 1.25166 cumulative IPC: 1.25118 (Simulation time: 0 hr 52 min 40 sec) 
Heartbeat CPU 0 instructions: 1200000000 cycles: 904712753 heartbeat IPC: 1.25346 cumulative IPC: 1.2512 (Simulation time: 0 hr 53 min 7 sec) 
Finished CPU 0 instructions: 1000000000 cycles: 799230218 cumulative IPC: 1.2512 (Simulation time: 0 hr 53 min 7 sec) 

CPU 0 Branch Prediction Accuracy: 99.9709% MPKI: 0.007273

ChampSim completed all CPUs

Region of Interest Statistics

CPU 0 cumulative IPC: 1.2512 instructions: 1000000000 cycles: 799230218
L1D TOTAL     ACCESS:  382624791  HIT:  361828476  MISS:   20796315
L1D LOAD      ACCESS:  326470294  HIT:  306316199  MISS:   20154095
L1D RFO       ACCESS:   56154497  HIT:   55512277  MISS:     642220
L1D PREFETCH  ACCESS:          0  HIT:          0  MISS:          0
L1D WRITEBACK ACCESS:          0  HIT:          0  MISS:          0
L1D PREFETCH  REQUESTED:          0  ISSUED:          0  USEFUL:          0  USELESS:          0
L1I TOTAL     ACCESS:  246011524  HIT:  246011524  MISS:          0
L1I LOAD      ACCESS:  246011524  HIT:  246011524  MISS:          0
L1I RFO       ACCESS:          0  HIT:          0  MISS:          0
L1I PREFETCH  ACCESS:          0  HIT:          0  MISS:          0
L1I WRITEBACK ACCESS:          0  HIT:          0  MISS:          0
L1I PREFETCH  REQUESTED:          0  ISSUED:          0  USEFUL:          0  USELESS:          0
L2C TOTAL     ACCESS:   38521147  HIT:   19495237  MISS:   19025910
L2C LOAD      ACCESS:   20147841  HIT:   18657660  MISS:    1490181
L2C RFO       ACCESS:     629397  HIT:     142154  MISS:     487243
L2C PREFETCH  ACCESS:   17044015  HIT:        120  MISS:   17043895
L2C WRITEBACK ACCESS:     699894  HIT:     695303  MISS:       4591
L2C PREFETCH  REQUESTED:   21181546  ISSUED:   21155927  USEFUL:   20551388  USELESS:        307
LLC TOTAL     ACCESS:   19513451  HIT:     509259  MISS:   19004192
LLC LOAD      ACCESS:    1008386  HIT:      18493  MISS:     989893
LLC RFO       ACCESS:     487243  HIT:          0  MISS:     487243
LLC PREFETCH  ACCESS:   17525688  HIT:          0  MISS:   17525688
LLC WRITEBACK ACCESS:     492134  HIT:     490766  MISS:       1368
LLC PREFETCH  REQUESTED:          0  ISSUED:          0  USEFUL:      21652  USELESS:   20982338
Major fault: 0 Minor fault: 338319

L2C DA-AMPM prefetcher final stats

DRAM Statistics
 CHANNEL 0
 RQ ROW_BUFFER_HIT:   18033569  ROW_BUFFER_MISS:     969255
 DBUS_CONGESTED:    7952370
 WQ ROW_BUFFER_HIT:     307566  ROW_BUFFER_MISS:     181123  FULL:          0

 AVG_CONGESTED_CYCLE: 11
