
*** ChampSim Multicore Out-of-Order Simulator ***

Warmup Instructions: 200000000
Simulation Instructions: 1000000000
Number of CPUs: 1
LLC sets: 2048
LLC ways: 16
Off-chip DRAM Size: 4096 MB Channels: 1 Width: 64-bit Data Rate: 1600 MT/s

CPU 0 runs /scratch/user/djimenez/champsim-traces/speccpu2017/xz/605.mcf_s/605.mcf_s-782B.champsimtrace.xz
L2C DA-AMPM prefetcher
Heartbeat CPU 0 instructions: 10000001 cycles: 6194107 heartbeat IPC: 1.61444 cumulative IPC: 1.61444 (Simulation time: 0 hr 0 min 18 sec) 
Heartbeat CPU 0 instructions: 20000000 cycles: 12300246 heartbeat IPC: 1.6377 cumulative IPC: 1.62598 (Simulation time: 0 hr 0 min 37 sec) 
Heartbeat CPU 0 instructions: 30000000 cycles: 18550789 heartbeat IPC: 1.59986 cumulative IPC: 1.61718 (Simulation time: 0 hr 0 min 56 sec) 
Heartbeat CPU 0 instructions: 40000000 cycles: 24757512 heartbeat IPC: 1.61116 cumulative IPC: 1.61567 (Simulation time: 0 hr 1 min 15 sec) 
Heartbeat CPU 0 instructions: 50000000 cycles: 30946589 heartbeat IPC: 1.61575 cumulative IPC: 1.61569 (Simulation time: 0 hr 1 min 34 sec) 
Heartbeat CPU 0 instructions: 60000000 cycles: 37101529 heartbeat IPC: 1.62471 cumulative IPC: 1.61718 (Simulation time: 0 hr 1 min 52 sec) 
Heartbeat CPU 0 instructions: 70000001 cycles: 43266953 heartbeat IPC: 1.62195 cumulative IPC: 1.61786 (Simulation time: 0 hr 2 min 11 sec) 
Heartbeat CPU 0 instructions: 80000000 cycles: 49436269 heartbeat IPC: 1.62093 cumulative IPC: 1.61825 (Simulation time: 0 hr 2 min 30 sec) 
Heartbeat CPU 0 instructions: 90000003 cycles: 55689567 heartbeat IPC: 1.59916 cumulative IPC: 1.6161 (Simulation time: 0 hr 2 min 48 sec) 
Heartbeat CPU 0 instructions: 100000000 cycles: 61965502 heartbeat IPC: 1.59339 cumulative IPC: 1.6138 (Simulation time: 0 hr 3 min 7 sec) 
Heartbeat CPU 0 instructions: 110000002 cycles: 68274252 heartbeat IPC: 1.5851 cumulative IPC: 1.61115 (Simulation time: 0 hr 3 min 25 sec) 
Heartbeat CPU 0 instructions: 120000000 cycles: 74553117 heartbeat IPC: 1.59264 cumulative IPC: 1.60959 (Simulation time: 0 hr 3 min 44 sec) 
Heartbeat CPU 0 instructions: 130000000 cycles: 80723642 heartbeat IPC: 1.62061 cumulative IPC: 1.61043 (Simulation time: 0 hr 4 min 3 sec) 
Heartbeat CPU 0 instructions: 140000000 cycles: 86879925 heartbeat IPC: 1.62436 cumulative IPC: 1.61142 (Simulation time: 0 hr 4 min 21 sec) 
Heartbeat CPU 0 instructions: 150000003 cycles: 93042330 heartbeat IPC: 1.62274 cumulative IPC: 1.61217 (Simulation time: 0 hr 4 min 40 sec) 
Heartbeat CPU 0 instructions: 160000000 cycles: 99255818 heartbeat IPC: 1.6094 cumulative IPC: 1.612 (Simulation time: 0 hr 4 min 59 sec) 
Heartbeat CPU 0 instructions: 170000000 cycles: 105451041 heartbeat IPC: 1.61415 cumulative IPC: 1.61212 (Simulation time: 0 hr 5 min 18 sec) 
Heartbeat CPU 0 instructions: 180000000 cycles: 111634045 heartbeat IPC: 1.61734 cumulative IPC: 1.61241 (Simulation time: 0 hr 5 min 37 sec) 
Heartbeat CPU 0 instructions: 190000002 cycles: 117903844 heartbeat IPC: 1.59495 cumulative IPC: 1.61148 (Simulation time: 0 hr 5 min 55 sec) 
Heartbeat CPU 0 instructions: 200000000 cycles: 124193802 heartbeat IPC: 1.58984 cumulative IPC: 1.61039 (Simulation time: 0 hr 6 min 14 sec) 

Warmup complete CPU 0 instructions: 200000001 cycles: 124193803 (Simulation time: 0 hr 6 min 14 sec) 

Heartbeat CPU 0 instructions: 210000002 cycles: 181546329 heartbeat IPC: 0.17436 cumulative IPC: 0.17436 (Simulation time: 0 hr 6 min 58 sec) 
Heartbeat CPU 0 instructions: 220000000 cycles: 237970129 heartbeat IPC: 0.17723 cumulative IPC: 0.175783 (Simulation time: 0 hr 7 min 42 sec) 
Heartbeat CPU 0 instructions: 230000000 cycles: 294091292 heartbeat IPC: 0.178186 cumulative IPC: 0.176577 (Simulation time: 0 hr 8 min 26 sec) 
Heartbeat CPU 0 instructions: 240000000 cycles: 349408885 heartbeat IPC: 0.180774 cumulative IPC: 0.177608 (Simulation time: 0 hr 9 min 9 sec) 
Heartbeat CPU 0 instructions: 250000002 cycles: 403581912 heartbeat IPC: 0.184594 cumulative IPC: 0.178963 (Simulation time: 0 hr 9 min 52 sec) 
Heartbeat CPU 0 instructions: 260000000 cycles: 457586055 heartbeat IPC: 0.185171 cumulative IPC: 0.179968 (Simulation time: 0 hr 10 min 35 sec) 
Heartbeat CPU 0 instructions: 270000001 cycles: 510217304 heartbeat IPC: 0.190001 cumulative IPC: 0.181336 (Simulation time: 0 hr 11 min 18 sec) 
Heartbeat CPU 0 instructions: 280000000 cycles: 564850550 heartbeat IPC: 0.183039 cumulative IPC: 0.181547 (Simulation time: 0 hr 12 min 2 sec) 
Heartbeat CPU 0 instructions: 290000001 cycles: 617701289 heartbeat IPC: 0.189212 cumulative IPC: 0.182368 (Simulation time: 0 hr 12 min 45 sec) 
Heartbeat CPU 0 instructions: 300000000 cycles: 670560214 heartbeat IPC: 0.189183 cumulative IPC: 0.183027 (Simulation time: 0 hr 13 min 28 sec) 
Heartbeat CPU 0 instructions: 310000001 cycles: 723032713 heartbeat IPC: 0.190576 cumulative IPC: 0.183689 (Simulation time: 0 hr 14 min 11 sec) 
Heartbeat CPU 0 instructions: 320000000 cycles: 774203151 heartbeat IPC: 0.195425 cumulative IPC: 0.184613 (Simulation time: 0 hr 14 min 54 sec) 
Heartbeat CPU 0 instructions: 330000000 cycles: 825493055 heartbeat IPC: 0.19497 cumulative IPC: 0.18537 (Simulation time: 0 hr 15 min 36 sec) 
Heartbeat CPU 0 instructions: 340000000 cycles: 880508361 heartbeat IPC: 0.181768 cumulative IPC: 0.185108 (Simulation time: 0 hr 16 min 20 sec) 
Heartbeat CPU 0 instructions: 350000000 cycles: 932506571 heartbeat IPC: 0.192314 cumulative IPC: 0.185572 (Simulation time: 0 hr 17 min 3 sec) 
Heartbeat CPU 0 instructions: 360000000 cycles: 984164891 heartbeat IPC: 0.19358 cumulative IPC: 0.186053 (Simulation time: 0 hr 17 min 46 sec) 
Heartbeat CPU 0 instructions: 370000001 cycles: 1035734405 heartbeat IPC: 0.193913 cumulative IPC: 0.186497 (Simulation time: 0 hr 18 min 29 sec) 
Heartbeat CPU 0 instructions: 380000000 cycles: 1091043572 heartbeat IPC: 0.180802 cumulative IPC: 0.186172 (Simulation time: 0 hr 19 min 12 sec) 
Heartbeat CPU 0 instructions: 390000001 cycles: 1144460698 heartbeat IPC: 0.187206 cumulative IPC: 0.186226 (Simulation time: 0 hr 19 min 54 sec) 
Heartbeat CPU 0 instructions: 400000000 cycles: 1193786934 heartbeat IPC: 0.202732 cumulative IPC: 0.186987 (Simulation time: 0 hr 20 min 35 sec) 
Heartbeat CPU 0 instructions: 410000002 cycles: 1245316240 heartbeat IPC: 0.194064 cumulative IPC: 0.187312 (Simulation time: 0 hr 21 min 18 sec) 
Heartbeat CPU 0 instructions: 420000000 cycles: 1296007507 heartbeat IPC: 0.197273 cumulative IPC: 0.187743 (Simulation time: 0 hr 22 min 0 sec) 
Heartbeat CPU 0 instructions: 430000000 cycles: 1346245048 heartbeat IPC: 0.199054 cumulative IPC: 0.188208 (Simulation time: 0 hr 22 min 42 sec) 
Heartbeat CPU 0 instructions: 440000000 cycles: 1399768761 heartbeat IPC: 0.186833 cumulative IPC: 0.18815 (Simulation time: 0 hr 23 min 25 sec) 
Heartbeat CPU 0 instructions: 450000003 cycles: 1451833681 heartbeat IPC: 0.192068 cumulative IPC: 0.188304 (Simulation time: 0 hr 24 min 8 sec) 
Heartbeat CPU 0 instructions: 460000000 cycles: 1503684937 heartbeat IPC: 0.192859 cumulative IPC: 0.188475 (Simulation time: 0 hr 24 min 51 sec) 
Heartbeat CPU 0 instructions: 470000000 cycles: 1559959783 heartbeat IPC: 0.177699 cumulative IPC: 0.188053 (Simulation time: 0 hr 25 min 36 sec) 
Heartbeat CPU 0 instructions: 480000000 cycles: 1610910438 heartbeat IPC: 0.196268 cumulative IPC: 0.188334 (Simulation time: 0 hr 26 min 18 sec) 
Heartbeat CPU 0 instructions: 490000003 cycles: 1660748660 heartbeat IPC: 0.200649 cumulative IPC: 0.188734 (Simulation time: 0 hr 27 min 1 sec) 
Heartbeat CPU 0 instructions: 500000000 cycles: 1712183811 heartbeat IPC: 0.19442 cumulative IPC: 0.188918 (Simulation time: 0 hr 27 min 43 sec) 
Heartbeat CPU 0 instructions: 510000000 cycles: 1766182760 heartbeat IPC: 0.185189 cumulative IPC: 0.188795 (Simulation time: 0 hr 28 min 27 sec) 
Heartbeat CPU 0 instructions: 520000000 cycles: 1819233401 heartbeat IPC: 0.188499 cumulative IPC: 0.188786 (Simulation time: 0 hr 29 min 10 sec) 
Heartbeat CPU 0 instructions: 530000000 cycles: 1876581420 heartbeat IPC: 0.174374 cumulative IPC: 0.188314 (Simulation time: 0 hr 29 min 54 sec) 
Heartbeat CPU 0 instructions: 540000000 cycles: 1930396926 heartbeat IPC: 0.18582 cumulative IPC: 0.18824 (Simulation time: 0 hr 30 min 36 sec) 
Heartbeat CPU 0 instructions: 550000001 cycles: 1984959805 heartbeat IPC: 0.183275 cumulative IPC: 0.188095 (Simulation time: 0 hr 31 min 20 sec) 
Heartbeat CPU 0 instructions: 560000000 cycles: 2039362312 heartbeat IPC: 0.183815 cumulative IPC: 0.187973 (Simulation time: 0 hr 32 min 3 sec) 
Heartbeat CPU 0 instructions: 570000000 cycles: 2094139479 heartbeat IPC: 0.182558 cumulative IPC: 0.187822 (Simulation time: 0 hr 32 min 47 sec) 
Heartbeat CPU 0 instructions: 580000000 cycles: 2151065713 heartbeat IPC: 0.175666 cumulative IPC: 0.187481 (Simulation time: 0 hr 33 min 31 sec) 
Heartbeat CPU 0 instructions: 590000002 cycles: 2205869288 heartbeat IPC: 0.18247 cumulative IPC: 0.187349 (Simulation time: 0 hr 34 min 15 sec) 
Heartbeat CPU 0 instructions: 600000000 cycles: 2256079515 heartbeat IPC: 0.199163 cumulative IPC: 0.187627 (Simulation time: 0 hr 34 min 57 sec) 
Heartbeat CPU 0 instructions: 610000001 cycles: 2306918941 heartbeat IPC: 0.196698 cumulative IPC: 0.187839 (Simulation time: 0 hr 35 min 40 sec) 
Heartbeat CPU 0 instructions: 620000000 cycles: 2358633058 heartbeat IPC: 0.193371 cumulative IPC: 0.187967 (Simulation time: 0 hr 36 min 23 sec) 
Heartbeat CPU 0 instructions: 630000000 cycles: 2414674704 heartbeat IPC: 0.178439 cumulative IPC: 0.187734 (Simulation time: 0 hr 37 min 7 sec) 
Heartbeat CPU 0 instructions: 640000000 cycles: 2471338043 heartbeat IPC: 0.176481 cumulative IPC: 0.187462 (Simulation time: 0 hr 37 min 51 sec) 
Heartbeat CPU 0 instructions: 650000001 cycles: 2528414976 heartbeat IPC: 0.175202 cumulative IPC: 0.187171 (Simulation time: 0 hr 38 min 36 sec) 
Heartbeat CPU 0 instructions: 660000000 cycles: 2584767516 heartbeat IPC: 0.177454 cumulative IPC: 0.186948 (Simulation time: 0 hr 39 min 20 sec) 
Heartbeat CPU 0 instructions: 670000000 cycles: 2639839757 heartbeat IPC: 0.18158 cumulative IPC: 0.186831 (Simulation time: 0 hr 40 min 4 sec) 
Heartbeat CPU 0 instructions: 680000000 cycles: 2692570787 heartbeat IPC: 0.189642 cumulative IPC: 0.186888 (Simulation time: 0 hr 40 min 47 sec) 
Heartbeat CPU 0 instructions: 690000001 cycles: 2742940857 heartbeat IPC: 0.198531 cumulative IPC: 0.187112 (Simulation time: 0 hr 41 min 29 sec) 
Heartbeat CPU 0 instructions: 700000000 cycles: 2797452605 heartbeat IPC: 0.183447 cumulative IPC: 0.187038 (Simulation time: 0 hr 42 min 13 sec) 
Heartbeat CPU 0 instructions: 710000000 cycles: 2855630763 heartbeat IPC: 0.171886 cumulative IPC: 0.186715 (Simulation time: 0 hr 42 min 58 sec) 
Heartbeat CPU 0 instructions: 720000000 cycles: 2907890641 heartbeat IPC: 0.191351 cumulative IPC: 0.186802 (Simulation time: 0 hr 43 min 40 sec) 
Heartbeat CPU 0 instructions: 730000000 cycles: 2959297890 heartbeat IPC: 0.194525 cumulative IPC: 0.186942 (Simulation time: 0 hr 44 min 23 sec) 
Heartbeat CPU 0 instructions: 740000000 cycles: 3012733261 heartbeat IPC: 0.187142 cumulative IPC: 0.186946 (Simulation time: 0 hr 45 min 6 sec) 
Heartbeat CPU 0 instructions: 750000000 cycles: 3065705715 heartbeat IPC: 0.188777 cumulative IPC: 0.186979 (Simulation time: 0 hr 45 min 50 sec) 
Heartbeat CPU 0 instructions: 760000000 cycles: 3116570710 heartbeat IPC: 0.196599 cumulative IPC: 0.187142 (Simulation time: 0 hr 46 min 33 sec) 
Heartbeat CPU 0 instructions: 770000000 cycles: 3166922282 heartbeat IPC: 0.198604 cumulative IPC: 0.187332 (Simulation time: 0 hr 47 min 15 sec) 
Heartbeat CPU 0 instructions: 780000000 cycles: 3216970449 heartbeat IPC: 0.199808 cumulative IPC: 0.187534 (Simulation time: 0 hr 47 min 58 sec) 
Heartbeat CPU 0 instructions: 790000000 cycles: 3266244028 heartbeat IPC: 0.202949 cumulative IPC: 0.187775 (Simulation time: 0 hr 48 min 41 sec) 
Heartbeat CPU 0 instructions: 800000000 cycles: 3318361493 heartbeat IPC: 0.191874 cumulative IPC: 0.187842 (Simulation time: 0 hr 49 min 24 sec) 
Heartbeat CPU 0 instructions: 810000003 cycles: 3369609085 heartbeat IPC: 0.195131 cumulative IPC: 0.187957 (Simulation time: 0 hr 50 min 8 sec) 
Heartbeat CPU 0 instructions: 820000000 cycles: 3419648797 heartbeat IPC: 0.199841 cumulative IPC: 0.188138 (Simulation time: 0 hr 50 min 50 sec) 
Heartbeat CPU 0 instructions: 830000000 cycles: 3468471765 heartbeat IPC: 0.204822 cumulative IPC: 0.188381 (Simulation time: 0 hr 51 min 33 sec) 
Heartbeat CPU 0 instructions: 840000000 cycles: 3518490294 heartbeat IPC: 0.199926 cumulative IPC: 0.188552 (Simulation time: 0 hr 52 min 15 sec) 
Heartbeat CPU 0 instructions: 850000002 cycles: 3569228685 heartbeat IPC: 0.197089 cumulative IPC: 0.188677 (Simulation time: 0 hr 52 min 58 sec) 
Heartbeat CPU 0 instructions: 860000000 cycles: 3622913036 heartbeat IPC: 0.186274 cumulative IPC: 0.18864 (Simulation time: 0 hr 53 min 42 sec) 
Heartbeat CPU 0 instructions: 870000000 cycles: 3675338878 heartbeat IPC: 0.190746 cumulative IPC: 0.188672 (Simulation time: 0 hr 54 min 25 sec) 
Heartbeat CPU 0 instructions: 880000000 cycles: 3728159144 heartbeat IPC: 0.189321 cumulative IPC: 0.188681 (Simulation time: 0 hr 55 min 8 sec) 
Heartbeat CPU 0 instructions: 890000000 cycles: 3781811733 heartbeat IPC: 0.186384 cumulative IPC: 0.188647 (Simulation time: 0 hr 55 min 52 sec) 
Heartbeat CPU 0 instructions: 900000000 cycles: 3840486816 heartbeat IPC: 0.17043 cumulative IPC: 0.18836 (Simulation time: 0 hr 56 min 38 sec) 
Heartbeat CPU 0 instructions: 910000000 cycles: 3896772319 heartbeat IPC: 0.177666 cumulative IPC: 0.1882 (Simulation time: 0 hr 57 min 22 sec) 
Heartbeat CPU 0 instructions: 920000000 cycles: 3949412267 heartbeat IPC: 0.18997 cumulative IPC: 0.188225 (Simulation time: 0 hr 58 min 6 sec) 
Heartbeat CPU 0 instructions: 930000000 cycles: 4003641409 heartbeat IPC: 0.184403 cumulative IPC: 0.188171 (Simulation time: 0 hr 58 min 50 sec) 
Heartbeat CPU 0 instructions: 940000000 cycles: 4057370051 heartbeat IPC: 0.18612 cumulative IPC: 0.188143 (Simulation time: 0 hr 59 min 33 sec) 
Heartbeat CPU 0 instructions: 950000001 cycles: 4109323173 heartbeat IPC: 0.192481 cumulative IPC: 0.1882 (Simulation time: 1 hr 0 min 16 sec) 
Heartbeat CPU 0 instructions: 960000000 cycles: 4162839784 heartbeat IPC: 0.186858 cumulative IPC: 0.188182 (Simulation time: 1 hr 1 min 0 sec) 
Heartbeat CPU 0 instructions: 970000000 cycles: 4215470539 heartbeat IPC: 0.190003 cumulative IPC: 0.188205 (Simulation time: 1 hr 1 min 44 sec) 
Heartbeat CPU 0 instructions: 980000000 cycles: 4264065910 heartbeat IPC: 0.205781 cumulative IPC: 0.188412 (Simulation time: 1 hr 2 min 26 sec) 
Heartbeat CPU 0 instructions: 990000002 cycles: 4320351203 heartbeat IPC: 0.177666 cumulative IPC: 0.188267 (Simulation time: 1 hr 3 min 11 sec) 
Heartbeat CPU 0 instructions: 1000000000 cycles: 4375727397 heartbeat IPC: 0.180583 cumulative IPC: 0.188167 (Simulation time: 1 hr 3 min 55 sec) 
Heartbeat CPU 0 instructions: 1010000001 cycles: 4431244766 heartbeat IPC: 0.180124 cumulative IPC: 0.188064 (Simulation time: 1 hr 4 min 39 sec) 
Heartbeat CPU 0 instructions: 1020000000 cycles: 4485266487 heartbeat IPC: 0.185111 cumulative IPC: 0.188027 (Simulation time: 1 hr 5 min 23 sec) 
Heartbeat CPU 0 instructions: 1030000001 cycles: 4541076335 heartbeat IPC: 0.17918 cumulative IPC: 0.187915 (Simulation time: 1 hr 6 min 7 sec) 
Heartbeat CPU 0 instructions: 1040000000 cycles: 4600840287 heartbeat IPC: 0.167325 cumulative IPC: 0.18764 (Simulation time: 1 hr 6 min 53 sec) 
Heartbeat CPU 0 instructions: 1050000000 cycles: 4656071194 heartbeat IPC: 0.181058 cumulative IPC: 0.18756 (Simulation time: 1 hr 7 min 37 sec) 
Heartbeat CPU 0 instructions: 1060000000 cycles: 4711736298 heartbeat IPC: 0.179646 cumulative IPC: 0.187464 (Simulation time: 1 hr 8 min 21 sec) 
Heartbeat CPU 0 instructions: 1070000001 cycles: 4768449749 heartbeat IPC: 0.176325 cumulative IPC: 0.187328 (Simulation time: 1 hr 9 min 6 sec) 
Heartbeat CPU 0 instructions: 1080000000 cycles: 4825598552 heartbeat IPC: 0.174982 cumulative IPC: 0.187178 (Simulation time: 1 hr 9 min 51 sec) 
Heartbeat CPU 0 instructions: 1090000000 cycles: 4879696249 heartbeat IPC: 0.184851 cumulative IPC: 0.187152 (Simulation time: 1 hr 10 min 34 sec) 
Heartbeat CPU 0 instructions: 1100000000 cycles: 4931430069 heartbeat IPC: 0.193297 cumulative IPC: 0.187218 (Simulation time: 1 hr 11 min 17 sec) 
Heartbeat CPU 0 instructions: 1110000000 cycles: 4984766703 heartbeat IPC: 0.187488 cumulative IPC: 0.187221 (Simulation time: 1 hr 12 min 0 sec) 
Heartbeat CPU 0 instructions: 1120000000 cycles: 5037241800 heartbeat IPC: 0.190567 cumulative IPC: 0.187256 (Simulation time: 1 hr 12 min 43 sec) 
Heartbeat CPU 0 instructions: 1130000003 cycles: 5093275793 heartbeat IPC: 0.178463 cumulative IPC: 0.187157 (Simulation time: 1 hr 13 min 27 sec) 
Heartbeat CPU 0 instructions: 1140000000 cycles: 5146694192 heartbeat IPC: 0.187201 cumulative IPC: 0.187158 (Simulation time: 1 hr 14 min 11 sec) 
Heartbeat CPU 0 instructions: 1150000000 cycles: 5201882142 heartbeat IPC: 0.181199 cumulative IPC: 0.187093 (Simulation time: 1 hr 14 min 55 sec) 
Heartbeat CPU 0 instructions: 1160000000 cycles: 5257604216 heartbeat IPC: 0.179462 cumulative IPC: 0.18701 (Simulation time: 1 hr 15 min 39 sec) 
Heartbeat CPU 0 instructions: 1170000002 cycles: 5311640839 heartbeat IPC: 0.18506 cumulative IPC: 0.18699 (Simulation time: 1 hr 16 min 22 sec) 
Heartbeat CPU 0 instructions: 1180000000 cycles: 5367020121 heartbeat IPC: 0.180573 cumulative IPC: 0.186922 (Simulation time: 1 hr 17 min 6 sec) 
Heartbeat CPU 0 instructions: 1190000002 cycles: 5420129147 heartbeat IPC: 0.188292 cumulative IPC: 0.186936 (Simulation time: 1 hr 17 min 49 sec) 
Heartbeat CPU 0 instructions: 1200000000 cycles: 5478689953 heartbeat IPC: 0.170763 cumulative IPC: 0.186759 (Simulation time: 1 hr 18 min 34 sec) 
Finished CPU 0 instructions: 1000000000 cycles: 5354496163 cumulative IPC: 0.186759 (Simulation time: 1 hr 18 min 34 sec) 

CPU 0 Branch Prediction Accuracy: 96.8196% MPKI: 9.50327

ChampSim completed all CPUs

Region of Interest Statistics

CPU 0 cumulative IPC: 0.186759 instructions: 1000000000 cycles: 5354496163
L1D TOTAL     ACCESS:  225947574  HIT:   69065765  MISS:  156881809
L1D LOAD      ACCESS:  209872527  HIT:   53310086  MISS:  156562441
L1D RFO       ACCESS:   16075047  HIT:   15755679  MISS:     319368
L1D PREFETCH  ACCESS:          0  HIT:          0  MISS:          0
L1D WRITEBACK ACCESS:          0  HIT:          0  MISS:          0
L1D PREFETCH  REQUESTED:          0  ISSUED:          0  USEFUL:          0  USELESS:          0
L1I TOTAL     ACCESS:  215591567  HIT:  215591567  MISS:          0
L1I LOAD      ACCESS:  215591567  HIT:  215591567  MISS:          0
L1I RFO       ACCESS:          0  HIT:          0  MISS:          0
L1I PREFETCH  ACCESS:          0  HIT:          0  MISS:          0
L1I WRITEBACK ACCESS:          0  HIT:          0  MISS:          0
L1I PREFETCH  REQUESTED:          0  ISSUED:          0  USEFUL:          0  USELESS:          0
L2C TOTAL     ACCESS:  207530623  HIT:   57106025  MISS:  150424598
L2C LOAD      ACCESS:  156562123  HIT:   54502602  MISS:  102059521
L2C RFO       ACCESS:     319367  HIT:      10207  MISS:     309160
L2C PREFETCH  ACCESS:   48355107  HIT:     299416  MISS:   48055691
L2C WRITEBACK ACCESS:    2294026  HIT:    2293800  MISS:        226
L2C PREFETCH  REQUESTED:   66518370  ISSUED:   66518370  USEFUL:   56105112  USELESS:    2539698
LLC TOTAL     ACCESS:  152614472  HIT:   73048671  MISS:   79565801
LLC LOAD      ACCESS:   99764799  HIT:   68661784  MISS:   31103015
LLC RFO       ACCESS:     309158  HIT:     267333  MISS:      41825
LLC PREFETCH  ACCESS:   50350400  HIT:    1929470  MISS:   48420930
LLC WRITEBACK ACCESS:    2190115  HIT:    2190084  MISS:         31
LLC PREFETCH  REQUESTED:          0  ISSUED:          0  USEFUL:     169468  USELESS:   58406029
Major fault: 0 Minor fault: 443600

L2C DA-AMPM prefetcher final stats

DRAM Statistics
 CHANNEL 0
 RQ ROW_BUFFER_HIT:   54400512  ROW_BUFFER_MISS:   25128043
 DBUS_CONGESTED:   42116829
 WQ ROW_BUFFER_HIT:      75801  ROW_BUFFER_MISS:     616922  FULL:          0

 AVG_CONGESTED_CYCLE: 13
