
*** ChampSim Multicore Out-of-Order Simulator ***

Warmup Instructions: 200000000
Simulation Instructions: 1000000000
Number of CPUs: 1
LLC sets: 2048
LLC ways: 16
Off-chip DRAM Size: 4096 MB Channels: 1 Width: 64-bit Data Rate: 1600 MT/s

CPU 0 runs /scratch/user/djimenez/champsim-traces/speccpu2017/xz/641.leela_s/641.leela_s-1083B.champsimtrace.xz
L2C DA-AMPM prefetcher
Heartbeat CPU 0 instructions: 10000000 cycles: 6306601 heartbeat IPC: 1.58564 cumulative IPC: 1.58564 (Simulation time: 0 hr 0 min 14 sec) 
Heartbeat CPU 0 instructions: 20000000 cycles: 12629880 heartbeat IPC: 1.58146 cumulative IPC: 1.58355 (Simulation time: 0 hr 0 min 27 sec) 
Heartbeat CPU 0 instructions: 30000002 cycles: 18977688 heartbeat IPC: 1.57535 cumulative IPC: 1.5808 (Simulation time: 0 hr 0 min 41 sec) 
Heartbeat CPU 0 instructions: 40000000 cycles: 25304933 heartbeat IPC: 1.58047 cumulative IPC: 1.58072 (Simulation time: 0 hr 0 min 55 sec) 
Heartbeat CPU 0 instructions: 50000001 cycles: 31635473 heartbeat IPC: 1.57964 cumulative IPC: 1.5805 (Simulation time: 0 hr 1 min 8 sec) 
Heartbeat CPU 0 instructions: 60000000 cycles: 37961074 heartbeat IPC: 1.58088 cumulative IPC: 1.58057 (Simulation time: 0 hr 1 min 22 sec) 
Heartbeat CPU 0 instructions: 70000003 cycles: 44295759 heartbeat IPC: 1.57861 cumulative IPC: 1.58029 (Simulation time: 0 hr 1 min 36 sec) 
Heartbeat CPU 0 instructions: 80000000 cycles: 50611820 heartbeat IPC: 1.58326 cumulative IPC: 1.58066 (Simulation time: 0 hr 1 min 50 sec) 
Heartbeat CPU 0 instructions: 90000001 cycles: 56994568 heartbeat IPC: 1.56672 cumulative IPC: 1.5791 (Simulation time: 0 hr 2 min 3 sec) 
Heartbeat CPU 0 instructions: 100000000 cycles: 63352789 heartbeat IPC: 1.57277 cumulative IPC: 1.57846 (Simulation time: 0 hr 2 min 17 sec) 
Heartbeat CPU 0 instructions: 110000000 cycles: 69641033 heartbeat IPC: 1.59027 cumulative IPC: 1.57953 (Simulation time: 0 hr 2 min 31 sec) 
Heartbeat CPU 0 instructions: 120000000 cycles: 75937500 heartbeat IPC: 1.58819 cumulative IPC: 1.58025 (Simulation time: 0 hr 2 min 44 sec) 
Heartbeat CPU 0 instructions: 130000002 cycles: 82262589 heartbeat IPC: 1.58101 cumulative IPC: 1.58031 (Simulation time: 0 hr 2 min 58 sec) 
Heartbeat CPU 0 instructions: 140000000 cycles: 88601917 heartbeat IPC: 1.57745 cumulative IPC: 1.5801 (Simulation time: 0 hr 3 min 12 sec) 
Heartbeat CPU 0 instructions: 150000000 cycles: 94914025 heartbeat IPC: 1.58426 cumulative IPC: 1.58038 (Simulation time: 0 hr 3 min 25 sec) 
Heartbeat CPU 0 instructions: 160000000 cycles: 101203852 heartbeat IPC: 1.58987 cumulative IPC: 1.58097 (Simulation time: 0 hr 3 min 39 sec) 
Heartbeat CPU 0 instructions: 170000002 cycles: 107503567 heartbeat IPC: 1.58737 cumulative IPC: 1.58134 (Simulation time: 0 hr 3 min 53 sec) 
Heartbeat CPU 0 instructions: 180000000 cycles: 113826408 heartbeat IPC: 1.58157 cumulative IPC: 1.58136 (Simulation time: 0 hr 4 min 6 sec) 
Heartbeat CPU 0 instructions: 190000001 cycles: 120127319 heartbeat IPC: 1.58707 cumulative IPC: 1.58166 (Simulation time: 0 hr 4 min 20 sec) 
Heartbeat CPU 0 instructions: 200000000 cycles: 126447770 heartbeat IPC: 1.58217 cumulative IPC: 1.58168 (Simulation time: 0 hr 4 min 34 sec) 

Warmup complete CPU 0 instructions: 200000001 cycles: 126447772 (Simulation time: 0 hr 4 min 34 sec) 

Heartbeat CPU 0 instructions: 210000002 cycles: 149570219 heartbeat IPC: 0.43248 cumulative IPC: 0.43248 (Simulation time: 0 hr 4 min 58 sec) 
Heartbeat CPU 0 instructions: 220000000 cycles: 172683996 heartbeat IPC: 0.432642 cumulative IPC: 0.432561 (Simulation time: 0 hr 5 min 23 sec) 
Heartbeat CPU 0 instructions: 230000000 cycles: 195871788 heartbeat IPC: 0.431261 cumulative IPC: 0.432127 (Simulation time: 0 hr 5 min 48 sec) 
Heartbeat CPU 0 instructions: 240000000 cycles: 218743975 heartbeat IPC: 0.437212 cumulative IPC: 0.433387 (Simulation time: 0 hr 6 min 12 sec) 
Heartbeat CPU 0 instructions: 250000000 cycles: 278206319 heartbeat IPC: 0.168174 cumulative IPC: 0.329471 (Simulation time: 0 hr 7 min 15 sec) 
Heartbeat CPU 0 instructions: 260000000 cycles: 316034267 heartbeat IPC: 0.264355 cumulative IPC: 0.316478 (Simulation time: 0 hr 7 min 57 sec) 
Heartbeat CPU 0 instructions: 270000002 cycles: 339651532 heartbeat IPC: 0.423419 cumulative IPC: 0.328324 (Simulation time: 0 hr 8 min 22 sec) 
Heartbeat CPU 0 instructions: 280000000 cycles: 363094719 heartbeat IPC: 0.426563 cumulative IPC: 0.338056 (Simulation time: 0 hr 8 min 47 sec) 
Heartbeat CPU 0 instructions: 290000000 cycles: 386682703 heartbeat IPC: 0.423945 cumulative IPC: 0.345841 (Simulation time: 0 hr 9 min 12 sec) 
Heartbeat CPU 0 instructions: 300000000 cycles: 414226712 heartbeat IPC: 0.363055 cumulative IPC: 0.347489 (Simulation time: 0 hr 9 min 42 sec) 
Heartbeat CPU 0 instructions: 310000003 cycles: 437672480 heartbeat IPC: 0.426516 cumulative IPC: 0.353442 (Simulation time: 0 hr 10 min 7 sec) 
Heartbeat CPU 0 instructions: 320000000 cycles: 461206807 heartbeat IPC: 0.424911 cumulative IPC: 0.358467 (Simulation time: 0 hr 10 min 32 sec) 
Heartbeat CPU 0 instructions: 330000002 cycles: 484614709 heartbeat IPC: 0.427206 cumulative IPC: 0.362959 (Simulation time: 0 hr 10 min 57 sec) 
Heartbeat CPU 0 instructions: 340000000 cycles: 508142149 heartbeat IPC: 0.425036 cumulative IPC: 0.366786 (Simulation time: 0 hr 11 min 22 sec) 
Heartbeat CPU 0 instructions: 350000002 cycles: 531490478 heartbeat IPC: 0.428296 cumulative IPC: 0.370331 (Simulation time: 0 hr 11 min 47 sec) 
Heartbeat CPU 0 instructions: 360000000 cycles: 554838531 heartbeat IPC: 0.428301 cumulative IPC: 0.373491 (Simulation time: 0 hr 12 min 11 sec) 
Heartbeat CPU 0 instructions: 370000000 cycles: 578054729 heartbeat IPC: 0.430734 cumulative IPC: 0.376434 (Simulation time: 0 hr 12 min 36 sec) 
Heartbeat CPU 0 instructions: 380000000 cycles: 601471608 heartbeat IPC: 0.427042 cumulative IPC: 0.378928 (Simulation time: 0 hr 13 min 1 sec) 
Heartbeat CPU 0 instructions: 390000002 cycles: 624744809 heartbeat IPC: 0.429679 cumulative IPC: 0.381299 (Simulation time: 0 hr 13 min 26 sec) 
Heartbeat CPU 0 instructions: 400000000 cycles: 647873568 heartbeat IPC: 0.432362 cumulative IPC: 0.383564 (Simulation time: 0 hr 13 min 51 sec) 
Heartbeat CPU 0 instructions: 410000003 cycles: 671006920 heartbeat IPC: 0.432276 cumulative IPC: 0.385633 (Simulation time: 0 hr 14 min 16 sec) 
Heartbeat CPU 0 instructions: 420000000 cycles: 694176797 heartbeat IPC: 0.431595 cumulative IPC: 0.387509 (Simulation time: 0 hr 14 min 40 sec) 
Heartbeat CPU 0 instructions: 430000001 cycles: 717327684 heartbeat IPC: 0.431949 cumulative IPC: 0.38925 (Simulation time: 0 hr 15 min 5 sec) 
Heartbeat CPU 0 instructions: 440000000 cycles: 740466436 heartbeat IPC: 0.432175 cumulative IPC: 0.390868 (Simulation time: 0 hr 15 min 30 sec) 
Heartbeat CPU 0 instructions: 450000003 cycles: 763438732 heartbeat IPC: 0.435307 cumulative IPC: 0.39247 (Simulation time: 0 hr 15 min 55 sec) 
Heartbeat CPU 0 instructions: 460000000 cycles: 786660152 heartbeat IPC: 0.430637 cumulative IPC: 0.393813 (Simulation time: 0 hr 16 min 20 sec) 
Heartbeat CPU 0 instructions: 470000001 cycles: 809761803 heartbeat IPC: 0.43287 cumulative IPC: 0.395133 (Simulation time: 0 hr 16 min 44 sec) 
Heartbeat CPU 0 instructions: 480000000 cycles: 832947052 heartbeat IPC: 0.431309 cumulative IPC: 0.39632 (Simulation time: 0 hr 17 min 9 sec) 
Heartbeat CPU 0 instructions: 490000000 cycles: 856261136 heartbeat IPC: 0.428925 cumulative IPC: 0.397362 (Simulation time: 0 hr 17 min 34 sec) 
Heartbeat CPU 0 instructions: 500000000 cycles: 879224705 heartbeat IPC: 0.435472 cumulative IPC: 0.398524 (Simulation time: 0 hr 17 min 59 sec) 
Heartbeat CPU 0 instructions: 510000001 cycles: 902434338 heartbeat IPC: 0.430856 cumulative IPC: 0.399491 (Simulation time: 0 hr 18 min 23 sec) 
Heartbeat CPU 0 instructions: 520000000 cycles: 925486381 heartbeat IPC: 0.433801 cumulative IPC: 0.400481 (Simulation time: 0 hr 18 min 48 sec) 
Heartbeat CPU 0 instructions: 530000001 cycles: 948388348 heartbeat IPC: 0.436644 cumulative IPC: 0.401489 (Simulation time: 0 hr 19 min 13 sec) 
Heartbeat CPU 0 instructions: 540000000 cycles: 971023834 heartbeat IPC: 0.441784 cumulative IPC: 0.402569 (Simulation time: 0 hr 19 min 38 sec) 
Heartbeat CPU 0 instructions: 550000000 cycles: 994041472 heartbeat IPC: 0.434449 cumulative IPC: 0.403415 (Simulation time: 0 hr 20 min 2 sec) 
Heartbeat CPU 0 instructions: 560000000 cycles: 1017097949 heartbeat IPC: 0.433718 cumulative IPC: 0.404199 (Simulation time: 0 hr 20 min 27 sec) 
Heartbeat CPU 0 instructions: 570000001 cycles: 1040033411 heartbeat IPC: 0.436006 cumulative IPC: 0.404998 (Simulation time: 0 hr 20 min 52 sec) 
Heartbeat CPU 0 instructions: 580000000 cycles: 1062793680 heartbeat IPC: 0.439362 cumulative IPC: 0.405833 (Simulation time: 0 hr 21 min 17 sec) 
Heartbeat CPU 0 instructions: 590000003 cycles: 1085964806 heartbeat IPC: 0.431572 cumulative IPC: 0.406454 (Simulation time: 0 hr 21 min 41 sec) 
Heartbeat CPU 0 instructions: 600000000 cycles: 1108928871 heartbeat IPC: 0.435463 cumulative IPC: 0.407133 (Simulation time: 0 hr 22 min 6 sec) 
Heartbeat CPU 0 instructions: 610000000 cycles: 1132098556 heartbeat IPC: 0.431598 cumulative IPC: 0.407696 (Simulation time: 0 hr 22 min 31 sec) 
Heartbeat CPU 0 instructions: 620000000 cycles: 1155214334 heartbeat IPC: 0.432605 cumulative IPC: 0.408256 (Simulation time: 0 hr 22 min 56 sec) 
Heartbeat CPU 0 instructions: 630000001 cycles: 1178078646 heartbeat IPC: 0.437363 cumulative IPC: 0.408889 (Simulation time: 0 hr 23 min 20 sec) 
Heartbeat CPU 0 instructions: 640000000 cycles: 1200949044 heartbeat IPC: 0.437246 cumulative IPC: 0.409492 (Simulation time: 0 hr 23 min 45 sec) 
Heartbeat CPU 0 instructions: 650000002 cycles: 1223811715 heartbeat IPC: 0.437394 cumulative IPC: 0.410074 (Simulation time: 0 hr 24 min 10 sec) 
Heartbeat CPU 0 instructions: 660000000 cycles: 1246821164 heartbeat IPC: 0.434604 cumulative IPC: 0.410577 (Simulation time: 0 hr 24 min 35 sec) 
Heartbeat CPU 0 instructions: 670000001 cycles: 1269895609 heartbeat IPC: 0.43338 cumulative IPC: 0.411038 (Simulation time: 0 hr 25 min 0 sec) 
Heartbeat CPU 0 instructions: 680000000 cycles: 1292832558 heartbeat IPC: 0.435978 cumulative IPC: 0.411528 (Simulation time: 0 hr 25 min 24 sec) 
Heartbeat CPU 0 instructions: 690000000 cycles: 1315684349 heartbeat IPC: 0.437602 cumulative IPC: 0.412029 (Simulation time: 0 hr 25 min 49 sec) 
Heartbeat CPU 0 instructions: 700000000 cycles: 1338615797 heartbeat IPC: 0.436082 cumulative IPC: 0.412484 (Simulation time: 0 hr 26 min 14 sec) 
Heartbeat CPU 0 instructions: 710000003 cycles: 1361546045 heartbeat IPC: 0.436105 cumulative IPC: 0.412923 (Simulation time: 0 hr 26 min 39 sec) 
Heartbeat CPU 0 instructions: 720000000 cycles: 1384448069 heartbeat IPC: 0.436642 cumulative IPC: 0.413354 (Simulation time: 0 hr 27 min 3 sec) 
Heartbeat CPU 0 instructions: 730000001 cycles: 1407272990 heartbeat IPC: 0.438118 cumulative IPC: 0.413796 (Simulation time: 0 hr 27 min 28 sec) 
Heartbeat CPU 0 instructions: 740000000 cycles: 1430237070 heartbeat IPC: 0.435463 cumulative IPC: 0.414177 (Simulation time: 0 hr 27 min 53 sec) 
Heartbeat CPU 0 instructions: 750000001 cycles: 1453187335 heartbeat IPC: 0.435725 cumulative IPC: 0.41455 (Simulation time: 0 hr 28 min 18 sec) 
Heartbeat CPU 0 instructions: 760000000 cycles: 1476049419 heartbeat IPC: 0.437405 cumulative IPC: 0.414937 (Simulation time: 0 hr 28 min 42 sec) 
Heartbeat CPU 0 instructions: 770000002 cycles: 1498940770 heartbeat IPC: 0.436846 cumulative IPC: 0.415303 (Simulation time: 0 hr 29 min 7 sec) 
Heartbeat CPU 0 instructions: 780000000 cycles: 1521697645 heartbeat IPC: 0.439428 cumulative IPC: 0.415696 (Simulation time: 0 hr 29 min 32 sec) 
Heartbeat CPU 0 instructions: 790000000 cycles: 1544294949 heartbeat IPC: 0.442531 cumulative IPC: 0.416124 (Simulation time: 0 hr 29 min 57 sec) 
Heartbeat CPU 0 instructions: 800000000 cycles: 1567036299 heartbeat IPC: 0.439728 cumulative IPC: 0.416496 (Simulation time: 0 hr 30 min 21 sec) 
Heartbeat CPU 0 instructions: 810000000 cycles: 1589832420 heartbeat IPC: 0.438671 cumulative IPC: 0.416842 (Simulation time: 0 hr 30 min 46 sec) 
Heartbeat CPU 0 instructions: 820000000 cycles: 1612665136 heartbeat IPC: 0.437968 cumulative IPC: 0.417166 (Simulation time: 0 hr 31 min 11 sec) 
Heartbeat CPU 0 instructions: 830000003 cycles: 1635967008 heartbeat IPC: 0.42915 cumulative IPC: 0.417351 (Simulation time: 0 hr 31 min 36 sec) 
Heartbeat CPU 0 instructions: 840000000 cycles: 1658883666 heartbeat IPC: 0.436364 cumulative IPC: 0.417636 (Simulation time: 0 hr 32 min 0 sec) 
Heartbeat CPU 0 instructions: 850000003 cycles: 1681783689 heartbeat IPC: 0.436681 cumulative IPC: 0.417916 (Simulation time: 0 hr 32 min 25 sec) 
Heartbeat CPU 0 instructions: 860000000 cycles: 1704623657 heartbeat IPC: 0.437829 cumulative IPC: 0.418204 (Simulation time: 0 hr 32 min 50 sec) 
Heartbeat CPU 0 instructions: 870000003 cycles: 1727493590 heartbeat IPC: 0.437255 cumulative IPC: 0.418476 (Simulation time: 0 hr 33 min 14 sec) 
Heartbeat CPU 0 instructions: 880000000 cycles: 1750265761 heartbeat IPC: 0.439132 cumulative IPC: 0.418766 (Simulation time: 0 hr 33 min 39 sec) 
Heartbeat CPU 0 instructions: 890000001 cycles: 1773182574 heartbeat IPC: 0.436361 cumulative IPC: 0.419011 (Simulation time: 0 hr 34 min 4 sec) 
Heartbeat CPU 0 instructions: 900000000 cycles: 1796093751 heartbeat IPC: 0.436468 cumulative IPC: 0.419251 (Simulation time: 0 hr 34 min 29 sec) 
Heartbeat CPU 0 instructions: 910000001 cycles: 1819046535 heartbeat IPC: 0.435677 cumulative IPC: 0.419473 (Simulation time: 0 hr 34 min 53 sec) 
Heartbeat CPU 0 instructions: 920000000 cycles: 1842024850 heartbeat IPC: 0.435193 cumulative IPC: 0.419684 (Simulation time: 0 hr 35 min 18 sec) 
Heartbeat CPU 0 instructions: 930000002 cycles: 1864878765 heartbeat IPC: 0.437562 cumulative IPC: 0.419919 (Simulation time: 0 hr 35 min 43 sec) 
Heartbeat CPU 0 instructions: 940000000 cycles: 1887691444 heartbeat IPC: 0.438353 cumulative IPC: 0.420158 (Simulation time: 0 hr 36 min 7 sec) 
Heartbeat CPU 0 instructions: 950000001 cycles: 1917151179 heartbeat IPC: 0.339446 cumulative IPC: 0.41883 (Simulation time: 0 hr 36 min 39 sec) 
Heartbeat CPU 0 instructions: 960000000 cycles: 1940176241 heartbeat IPC: 0.434309 cumulative IPC: 0.419026 (Simulation time: 0 hr 37 min 4 sec) 
Heartbeat CPU 0 instructions: 970000000 cycles: 1963069866 heartbeat IPC: 0.436803 cumulative IPC: 0.419248 (Simulation time: 0 hr 37 min 28 sec) 
Heartbeat CPU 0 instructions: 980000000 cycles: 1986103473 heartbeat IPC: 0.434148 cumulative IPC: 0.419432 (Simulation time: 0 hr 37 min 53 sec) 
Heartbeat CPU 0 instructions: 990000001 cycles: 2009147075 heartbeat IPC: 0.43396 cumulative IPC: 0.41961 (Simulation time: 0 hr 38 min 18 sec) 
Heartbeat CPU 0 instructions: 1000000000 cycles: 2032017845 heartbeat IPC: 0.437239 cumulative IPC: 0.419822 (Simulation time: 0 hr 38 min 43 sec) 
Heartbeat CPU 0 instructions: 1010000001 cycles: 2055050950 heartbeat IPC: 0.434158 cumulative IPC: 0.419993 (Simulation time: 0 hr 39 min 8 sec) 
Heartbeat CPU 0 instructions: 1020000000 cycles: 2077954339 heartbeat IPC: 0.436617 cumulative IPC: 0.420188 (Simulation time: 0 hr 39 min 32 sec) 
Heartbeat CPU 0 instructions: 1030000003 cycles: 2100770468 heartbeat IPC: 0.438287 cumulative IPC: 0.420397 (Simulation time: 0 hr 39 min 57 sec) 
Heartbeat CPU 0 instructions: 1040000000 cycles: 2123923545 heartbeat IPC: 0.431908 cumulative IPC: 0.420531 (Simulation time: 0 hr 40 min 22 sec) 
Heartbeat CPU 0 instructions: 1050000000 cycles: 2146862292 heartbeat IPC: 0.435944 cumulative IPC: 0.420706 (Simulation time: 0 hr 40 min 47 sec) 
Heartbeat CPU 0 instructions: 1060000000 cycles: 2169743877 heartbeat IPC: 0.437033 cumulative IPC: 0.420889 (Simulation time: 0 hr 41 min 11 sec) 
Heartbeat CPU 0 instructions: 1070000001 cycles: 2192656392 heartbeat IPC: 0.436443 cumulative IPC: 0.421061 (Simulation time: 0 hr 41 min 36 sec) 
Heartbeat CPU 0 instructions: 1080000000 cycles: 2215601010 heartbeat IPC: 0.435832 cumulative IPC: 0.421223 (Simulation time: 0 hr 42 min 1 sec) 
Heartbeat CPU 0 instructions: 1090000003 cycles: 2238474136 heartbeat IPC: 0.437194 cumulative IPC: 0.421396 (Simulation time: 0 hr 42 min 26 sec) 
Heartbeat CPU 0 instructions: 1100000000 cycles: 2261358253 heartbeat IPC: 0.436984 cumulative IPC: 0.421563 (Simulation time: 0 hr 42 min 50 sec) 
Heartbeat CPU 0 instructions: 1110000000 cycles: 2284214304 heartbeat IPC: 0.437521 cumulative IPC: 0.421732 (Simulation time: 0 hr 43 min 15 sec) 
Heartbeat CPU 0 instructions: 1120000000 cycles: 2307191111 heartbeat IPC: 0.435221 cumulative IPC: 0.421874 (Simulation time: 0 hr 43 min 40 sec) 
Heartbeat CPU 0 instructions: 1130000003 cycles: 2330063193 heartbeat IPC: 0.437214 cumulative IPC: 0.422034 (Simulation time: 0 hr 44 min 4 sec) 
Heartbeat CPU 0 instructions: 1140000000 cycles: 2352726822 heartbeat IPC: 0.441235 cumulative IPC: 0.422229 (Simulation time: 0 hr 44 min 29 sec) 
Heartbeat CPU 0 instructions: 1150000001 cycles: 2375564628 heartbeat IPC: 0.43787 cumulative IPC: 0.422388 (Simulation time: 0 hr 44 min 54 sec) 
Heartbeat CPU 0 instructions: 1160000000 cycles: 2398560155 heartbeat IPC: 0.434867 cumulative IPC: 0.422514 (Simulation time: 0 hr 45 min 19 sec) 
Heartbeat CPU 0 instructions: 1170000002 cycles: 2421433805 heartbeat IPC: 0.437184 cumulative IPC: 0.422661 (Simulation time: 0 hr 45 min 43 sec) 
Heartbeat CPU 0 instructions: 1180000000 cycles: 2444297012 heartbeat IPC: 0.437384 cumulative IPC: 0.422806 (Simulation time: 0 hr 46 min 8 sec) 
Heartbeat CPU 0 instructions: 1190000000 cycles: 2466933117 heartbeat IPC: 0.441772 cumulative IPC: 0.422989 (Simulation time: 0 hr 46 min 33 sec) 
Heartbeat CPU 0 instructions: 1200000000 cycles: 2489793635 heartbeat IPC: 0.437435 cumulative IPC: 0.423129 (Simulation time: 0 hr 46 min 57 sec) 
Finished CPU 0 instructions: 1000000000 cycles: 2363345879 cumulative IPC: 0.423129 (Simulation time: 0 hr 46 min 57 sec) 

CPU 0 Branch Prediction Accuracy: 84.8552% MPKI: 16.4812

ChampSim completed all CPUs

Region of Interest Statistics

CPU 0 cumulative IPC: 0.423129 instructions: 1000000000 cycles: 2363345879
L1D TOTAL     ACCESS:  335429787  HIT:  331368581  MISS:    4061206
L1D LOAD      ACCESS:  219498596  HIT:  216425981  MISS:    3072615
L1D RFO       ACCESS:  115931191  HIT:  114942600  MISS:     988591
L1D PREFETCH  ACCESS:          0  HIT:          0  MISS:          0
L1D WRITEBACK ACCESS:          0  HIT:          0  MISS:          0
L1D PREFETCH  REQUESTED:          0  ISSUED:          0  USEFUL:          0  USELESS:          0
L1I TOTAL     ACCESS:  231682058  HIT:  231608033  MISS:      74025
L1I LOAD      ACCESS:  231682058  HIT:  231608033  MISS:      74025
L1I RFO       ACCESS:          0  HIT:          0  MISS:          0
L1I PREFETCH  ACCESS:          0  HIT:          0  MISS:          0
L1I WRITEBACK ACCESS:          0  HIT:          0  MISS:          0
L1I PREFETCH  REQUESTED:          0  ISSUED:          0  USEFUL:          0  USELESS:          0
L2C TOTAL     ACCESS:    6032875  HIT:    4648619  MISS:    1384256
L2C LOAD      ACCESS:    3146585  HIT:    2934850  MISS:     211735
L2C RFO       ACCESS:     988587  HIT:     375377  MISS:     613210
L2C PREFETCH  ACCESS:     589943  HIT:      31174  MISS:     558769
L2C WRITEBACK ACCESS:    1307760  HIT:    1307218  MISS:        542
L2C PREFETCH  REQUESTED:     667287  ISSUED:     667287  USEFUL:     525393  USELESS:      42799
LLC TOTAL     ACCESS:    2046000  HIT:     779317  MISS:    1266683
LLC LOAD      ACCESS:     175506  HIT:      70878  MISS:     104628
LLC RFO       ACCESS:     613190  HIT:      14176  MISS:     599014
LLC PREFETCH  ACCESS:     595005  HIT:      32133  MISS:     562872
LLC WRITEBACK ACCESS:     662299  HIT:     662130  MISS:        169
LLC PREFETCH  REQUESTED:          0  ISSUED:          0  USEFUL:       9592  USELESS:     545438
Major fault: 0 Minor fault: 2649

L2C DA-AMPM prefetcher final stats

DRAM Statistics
 CHANNEL 0
 RQ ROW_BUFFER_HIT:     979341  ROW_BUFFER_MISS:     287157
 DBUS_CONGESTED:    1029091
 WQ ROW_BUFFER_HIT:     318403  ROW_BUFFER_MISS:     299451  FULL:          0

 AVG_CONGESTED_CYCLE: 14
