
*** ChampSim Multicore Out-of-Order Simulator ***

Warmup Instructions: 200000000
Simulation Instructions: 1000000000
Number of CPUs: 1
LLC sets: 2048
LLC ways: 16
Off-chip DRAM Size: 4096 MB Channels: 1 Width: 64-bit Data Rate: 1600 MT/s

CPU 0 runs /scratch/user/djimenez/champsim-traces/speccpu2017/xz/641.leela_s/641.leela_s-602B.champsimtrace.xz
L2C DA-AMPM prefetcher
Heartbeat CPU 0 instructions: 10000000 cycles: 6396987 heartbeat IPC: 1.56324 cumulative IPC: 1.56324 (Simulation time: 0 hr 0 min 13 sec) 
Heartbeat CPU 0 instructions: 20000000 cycles: 12730194 heartbeat IPC: 1.57898 cumulative IPC: 1.57107 (Simulation time: 0 hr 0 min 27 sec) 
Heartbeat CPU 0 instructions: 30000000 cycles: 19015725 heartbeat IPC: 1.59096 cumulative IPC: 1.57764 (Simulation time: 0 hr 0 min 40 sec) 
Heartbeat CPU 0 instructions: 40000000 cycles: 25307580 heartbeat IPC: 1.58936 cumulative IPC: 1.58055 (Simulation time: 0 hr 0 min 54 sec) 
Heartbeat CPU 0 instructions: 50000000 cycles: 31596252 heartbeat IPC: 1.59016 cumulative IPC: 1.58247 (Simulation time: 0 hr 1 min 7 sec) 
Heartbeat CPU 0 instructions: 60000000 cycles: 37865509 heartbeat IPC: 1.59509 cumulative IPC: 1.58456 (Simulation time: 0 hr 1 min 20 sec) 
Heartbeat CPU 0 instructions: 70000001 cycles: 44114562 heartbeat IPC: 1.60024 cumulative IPC: 1.58678 (Simulation time: 0 hr 1 min 34 sec) 
Heartbeat CPU 0 instructions: 80000000 cycles: 50341949 heartbeat IPC: 1.60581 cumulative IPC: 1.58913 (Simulation time: 0 hr 1 min 47 sec) 
Heartbeat CPU 0 instructions: 90000000 cycles: 56595367 heartbeat IPC: 1.59913 cumulative IPC: 1.59024 (Simulation time: 0 hr 2 min 1 sec) 
Heartbeat CPU 0 instructions: 100000000 cycles: 62928086 heartbeat IPC: 1.5791 cumulative IPC: 1.58912 (Simulation time: 0 hr 2 min 14 sec) 
Heartbeat CPU 0 instructions: 110000003 cycles: 69287729 heartbeat IPC: 1.57242 cumulative IPC: 1.58758 (Simulation time: 0 hr 2 min 28 sec) 
Heartbeat CPU 0 instructions: 120000000 cycles: 75653000 heartbeat IPC: 1.57102 cumulative IPC: 1.58619 (Simulation time: 0 hr 2 min 41 sec) 
Heartbeat CPU 0 instructions: 130000002 cycles: 81921234 heartbeat IPC: 1.59535 cumulative IPC: 1.58689 (Simulation time: 0 hr 2 min 55 sec) 
Heartbeat CPU 0 instructions: 140000000 cycles: 88179958 heartbeat IPC: 1.59777 cumulative IPC: 1.58766 (Simulation time: 0 hr 3 min 8 sec) 
Heartbeat CPU 0 instructions: 150000001 cycles: 94450924 heartbeat IPC: 1.59465 cumulative IPC: 1.58813 (Simulation time: 0 hr 3 min 21 sec) 
Heartbeat CPU 0 instructions: 160000000 cycles: 100767892 heartbeat IPC: 1.58304 cumulative IPC: 1.58781 (Simulation time: 0 hr 3 min 35 sec) 
Heartbeat CPU 0 instructions: 170000000 cycles: 107021838 heartbeat IPC: 1.59899 cumulative IPC: 1.58846 (Simulation time: 0 hr 3 min 48 sec) 
Heartbeat CPU 0 instructions: 180000000 cycles: 113250841 heartbeat IPC: 1.60539 cumulative IPC: 1.58939 (Simulation time: 0 hr 4 min 2 sec) 
Heartbeat CPU 0 instructions: 190000003 cycles: 121476557 heartbeat IPC: 1.2157 cumulative IPC: 1.56409 (Simulation time: 0 hr 4 min 20 sec) 
Heartbeat CPU 0 instructions: 200000000 cycles: 128197590 heartbeat IPC: 1.48787 cumulative IPC: 1.56009 (Simulation time: 0 hr 4 min 34 sec) 

Warmup complete CPU 0 instructions: 200000001 cycles: 128197591 (Simulation time: 0 hr 4 min 34 sec) 

Heartbeat CPU 0 instructions: 210000003 cycles: 152157447 heartbeat IPC: 0.417365 cumulative IPC: 0.417365 (Simulation time: 0 hr 5 min 0 sec) 
Heartbeat CPU 0 instructions: 220000000 cycles: 175971332 heartbeat IPC: 0.419923 cumulative IPC: 0.41864 (Simulation time: 0 hr 5 min 25 sec) 
Heartbeat CPU 0 instructions: 230000000 cycles: 199815980 heartbeat IPC: 0.419381 cumulative IPC: 0.418887 (Simulation time: 0 hr 5 min 50 sec) 
Heartbeat CPU 0 instructions: 240000000 cycles: 223568458 heartbeat IPC: 0.421009 cumulative IPC: 0.419415 (Simulation time: 0 hr 6 min 15 sec) 
Heartbeat CPU 0 instructions: 250000000 cycles: 247252007 heartbeat IPC: 0.422234 cumulative IPC: 0.419976 (Simulation time: 0 hr 6 min 40 sec) 
Heartbeat CPU 0 instructions: 260000000 cycles: 270858222 heartbeat IPC: 0.423617 cumulative IPC: 0.420579 (Simulation time: 0 hr 7 min 5 sec) 
Heartbeat CPU 0 instructions: 270000001 cycles: 294551014 heartbeat IPC: 0.422069 cumulative IPC: 0.420791 (Simulation time: 0 hr 7 min 30 sec) 
Heartbeat CPU 0 instructions: 280000000 cycles: 318177110 heartbeat IPC: 0.423261 cumulative IPC: 0.421098 (Simulation time: 0 hr 7 min 55 sec) 
Heartbeat CPU 0 instructions: 290000000 cycles: 341750783 heartbeat IPC: 0.424202 cumulative IPC: 0.421441 (Simulation time: 0 hr 8 min 20 sec) 
Heartbeat CPU 0 instructions: 300000000 cycles: 365430153 heartbeat IPC: 0.422309 cumulative IPC: 0.421527 (Simulation time: 0 hr 8 min 46 sec) 
Heartbeat CPU 0 instructions: 310000000 cycles: 388941327 heartbeat IPC: 0.42533 cumulative IPC: 0.42187 (Simulation time: 0 hr 9 min 11 sec) 
Heartbeat CPU 0 instructions: 320000000 cycles: 412382412 heartbeat IPC: 0.426601 cumulative IPC: 0.42226 (Simulation time: 0 hr 9 min 36 sec) 
Heartbeat CPU 0 instructions: 330000002 cycles: 435827951 heartbeat IPC: 0.42652 cumulative IPC: 0.422585 (Simulation time: 0 hr 10 min 1 sec) 
Heartbeat CPU 0 instructions: 340000000 cycles: 459476132 heartbeat IPC: 0.422865 cumulative IPC: 0.422605 (Simulation time: 0 hr 10 min 26 sec) 
Heartbeat CPU 0 instructions: 350000000 cycles: 482947671 heartbeat IPC: 0.426048 cumulative IPC: 0.422833 (Simulation time: 0 hr 10 min 51 sec) 
Heartbeat CPU 0 instructions: 360000000 cycles: 506343606 heartbeat IPC: 0.427425 cumulative IPC: 0.423117 (Simulation time: 0 hr 11 min 16 sec) 
Heartbeat CPU 0 instructions: 370000001 cycles: 529959656 heartbeat IPC: 0.423441 cumulative IPC: 0.423136 (Simulation time: 0 hr 11 min 41 sec) 
Heartbeat CPU 0 instructions: 380000000 cycles: 553494646 heartbeat IPC: 0.424899 cumulative IPC: 0.423234 (Simulation time: 0 hr 12 min 6 sec) 
Heartbeat CPU 0 instructions: 390000000 cycles: 576824824 heartbeat IPC: 0.428629 cumulative IPC: 0.423514 (Simulation time: 0 hr 12 min 30 sec) 
Heartbeat CPU 0 instructions: 400000000 cycles: 600208243 heartbeat IPC: 0.427653 cumulative IPC: 0.423719 (Simulation time: 0 hr 12 min 55 sec) 
Heartbeat CPU 0 instructions: 410000000 cycles: 623612882 heartbeat IPC: 0.427266 cumulative IPC: 0.423887 (Simulation time: 0 hr 13 min 20 sec) 
Heartbeat CPU 0 instructions: 420000000 cycles: 647021488 heartbeat IPC: 0.427193 cumulative IPC: 0.424036 (Simulation time: 0 hr 13 min 45 sec) 
Heartbeat CPU 0 instructions: 430000003 cycles: 670351287 heartbeat IPC: 0.428636 cumulative IPC: 0.424234 (Simulation time: 0 hr 14 min 10 sec) 
Heartbeat CPU 0 instructions: 440000000 cycles: 693759945 heartbeat IPC: 0.427192 cumulative IPC: 0.424356 (Simulation time: 0 hr 14 min 35 sec) 
Heartbeat CPU 0 instructions: 450000003 cycles: 717328272 heartbeat IPC: 0.424298 cumulative IPC: 0.424354 (Simulation time: 0 hr 15 min 0 sec) 
Heartbeat CPU 0 instructions: 460000000 cycles: 740843737 heartbeat IPC: 0.425252 cumulative IPC: 0.424389 (Simulation time: 0 hr 15 min 25 sec) 
Heartbeat CPU 0 instructions: 470000002 cycles: 764337750 heartbeat IPC: 0.42564 cumulative IPC: 0.424435 (Simulation time: 0 hr 15 min 50 sec) 
Heartbeat CPU 0 instructions: 480000000 cycles: 787882057 heartbeat IPC: 0.424731 cumulative IPC: 0.424445 (Simulation time: 0 hr 16 min 15 sec) 
Heartbeat CPU 0 instructions: 490000000 cycles: 811282064 heartbeat IPC: 0.42735 cumulative IPC: 0.424545 (Simulation time: 0 hr 16 min 40 sec) 
Heartbeat CPU 0 instructions: 500000000 cycles: 834607665 heartbeat IPC: 0.428714 cumulative IPC: 0.424682 (Simulation time: 0 hr 17 min 5 sec) 
Heartbeat CPU 0 instructions: 510000000 cycles: 857970023 heartbeat IPC: 0.428039 cumulative IPC: 0.42479 (Simulation time: 0 hr 17 min 30 sec) 
Heartbeat CPU 0 instructions: 520000000 cycles: 882501620 heartbeat IPC: 0.407638 cumulative IPC: 0.424232 (Simulation time: 0 hr 17 min 56 sec) 
Heartbeat CPU 0 instructions: 530000000 cycles: 905701966 heartbeat IPC: 0.431028 cumulative IPC: 0.424435 (Simulation time: 0 hr 18 min 21 sec) 
Heartbeat CPU 0 instructions: 540000000 cycles: 929007428 heartbeat IPC: 0.429084 cumulative IPC: 0.42457 (Simulation time: 0 hr 18 min 46 sec) 
Heartbeat CPU 0 instructions: 550000000 cycles: 952307689 heartbeat IPC: 0.42918 cumulative IPC: 0.424701 (Simulation time: 0 hr 19 min 11 sec) 
Heartbeat CPU 0 instructions: 560000000 cycles: 975462010 heartbeat IPC: 0.431885 cumulative IPC: 0.424897 (Simulation time: 0 hr 19 min 36 sec) 
Heartbeat CPU 0 instructions: 570000002 cycles: 998894190 heartbeat IPC: 0.426764 cumulative IPC: 0.424947 (Simulation time: 0 hr 20 min 1 sec) 
Heartbeat CPU 0 instructions: 580000000 cycles: 1022224344 heartbeat IPC: 0.42863 cumulative IPC: 0.425043 (Simulation time: 0 hr 20 min 26 sec) 
Heartbeat CPU 0 instructions: 590000000 cycles: 1045442224 heartbeat IPC: 0.430703 cumulative IPC: 0.425186 (Simulation time: 0 hr 20 min 51 sec) 
Heartbeat CPU 0 instructions: 600000000 cycles: 1068654361 heartbeat IPC: 0.430809 cumulative IPC: 0.425325 (Simulation time: 0 hr 21 min 16 sec) 
Heartbeat CPU 0 instructions: 610000000 cycles: 1091873446 heartbeat IPC: 0.43068 cumulative IPC: 0.425454 (Simulation time: 0 hr 21 min 41 sec) 
Heartbeat CPU 0 instructions: 620000000 cycles: 1114883315 heartbeat IPC: 0.434596 cumulative IPC: 0.425667 (Simulation time: 0 hr 22 min 6 sec) 
Heartbeat CPU 0 instructions: 630000001 cycles: 1138119085 heartbeat IPC: 0.430371 cumulative IPC: 0.425776 (Simulation time: 0 hr 22 min 31 sec) 
Heartbeat CPU 0 instructions: 640000000 cycles: 1161355112 heartbeat IPC: 0.430366 cumulative IPC: 0.425879 (Simulation time: 0 hr 22 min 56 sec) 
Heartbeat CPU 0 instructions: 650000001 cycles: 1184692946 heartbeat IPC: 0.428489 cumulative IPC: 0.425937 (Simulation time: 0 hr 23 min 20 sec) 
Heartbeat CPU 0 instructions: 660000000 cycles: 1208042922 heartbeat IPC: 0.428266 cumulative IPC: 0.425987 (Simulation time: 0 hr 23 min 45 sec) 
Heartbeat CPU 0 instructions: 670000002 cycles: 1231313115 heartbeat IPC: 0.429734 cumulative IPC: 0.426066 (Simulation time: 0 hr 24 min 10 sec) 
Heartbeat CPU 0 instructions: 680000000 cycles: 1254534450 heartbeat IPC: 0.430638 cumulative IPC: 0.42616 (Simulation time: 0 hr 24 min 35 sec) 
Heartbeat CPU 0 instructions: 690000001 cycles: 1277736799 heartbeat IPC: 0.430991 cumulative IPC: 0.426258 (Simulation time: 0 hr 25 min 0 sec) 
Heartbeat CPU 0 instructions: 700000000 cycles: 1300870523 heartbeat IPC: 0.432269 cumulative IPC: 0.426376 (Simulation time: 0 hr 25 min 24 sec) 
Heartbeat CPU 0 instructions: 710000000 cycles: 1323852980 heartbeat IPC: 0.435114 cumulative IPC: 0.426544 (Simulation time: 0 hr 25 min 49 sec) 
Heartbeat CPU 0 instructions: 720000000 cycles: 1346862952 heartbeat IPC: 0.434594 cumulative IPC: 0.426696 (Simulation time: 0 hr 26 min 14 sec) 
Heartbeat CPU 0 instructions: 730000002 cycles: 1369759743 heartbeat IPC: 0.436743 cumulative IPC: 0.426882 (Simulation time: 0 hr 26 min 39 sec) 
Heartbeat CPU 0 instructions: 740000000 cycles: 1392896276 heartbeat IPC: 0.432217 cumulative IPC: 0.426979 (Simulation time: 0 hr 27 min 3 sec) 
Heartbeat CPU 0 instructions: 750000000 cycles: 1415850657 heartbeat IPC: 0.435647 cumulative IPC: 0.427134 (Simulation time: 0 hr 27 min 28 sec) 
Heartbeat CPU 0 instructions: 760000000 cycles: 1438990585 heartbeat IPC: 0.432153 cumulative IPC: 0.427222 (Simulation time: 0 hr 27 min 53 sec) 
Heartbeat CPU 0 instructions: 770000001 cycles: 1462598950 heartbeat IPC: 0.423579 cumulative IPC: 0.427158 (Simulation time: 0 hr 28 min 18 sec) 
Heartbeat CPU 0 instructions: 780000000 cycles: 1485561757 heartbeat IPC: 0.435487 cumulative IPC: 0.427299 (Simulation time: 0 hr 28 min 43 sec) 
Heartbeat CPU 0 instructions: 790000000 cycles: 1508807086 heartbeat IPC: 0.430194 cumulative IPC: 0.427347 (Simulation time: 0 hr 29 min 7 sec) 
Heartbeat CPU 0 instructions: 800000000 cycles: 1531922984 heartbeat IPC: 0.432603 cumulative IPC: 0.427434 (Simulation time: 0 hr 29 min 32 sec) 
Heartbeat CPU 0 instructions: 810000000 cycles: 1555088209 heartbeat IPC: 0.431682 cumulative IPC: 0.427503 (Simulation time: 0 hr 29 min 57 sec) 
Heartbeat CPU 0 instructions: 820000000 cycles: 1578096530 heartbeat IPC: 0.434625 cumulative IPC: 0.427616 (Simulation time: 0 hr 30 min 22 sec) 
Heartbeat CPU 0 instructions: 830000001 cycles: 1602369003 heartbeat IPC: 0.411989 cumulative IPC: 0.427359 (Simulation time: 0 hr 30 min 48 sec) 
Heartbeat CPU 0 instructions: 840000000 cycles: 1625227384 heartbeat IPC: 0.437476 cumulative IPC: 0.427513 (Simulation time: 0 hr 31 min 13 sec) 
Heartbeat CPU 0 instructions: 850000001 cycles: 1648178642 heartbeat IPC: 0.435706 cumulative IPC: 0.427637 (Simulation time: 0 hr 31 min 38 sec) 
Heartbeat CPU 0 instructions: 860000000 cycles: 1670970527 heartbeat IPC: 0.438753 cumulative IPC: 0.427801 (Simulation time: 0 hr 32 min 3 sec) 
Heartbeat CPU 0 instructions: 870000001 cycles: 1693888259 heartbeat IPC: 0.436343 cumulative IPC: 0.427926 (Simulation time: 0 hr 32 min 28 sec) 
Heartbeat CPU 0 instructions: 880000000 cycles: 1716729122 heartbeat IPC: 0.437812 cumulative IPC: 0.428068 (Simulation time: 0 hr 32 min 53 sec) 
Heartbeat CPU 0 instructions: 890000002 cycles: 1739766899 heartbeat IPC: 0.43407 cumulative IPC: 0.428154 (Simulation time: 0 hr 33 min 18 sec) 
Heartbeat CPU 0 instructions: 900000000 cycles: 1762581623 heartbeat IPC: 0.438313 cumulative IPC: 0.428296 (Simulation time: 0 hr 33 min 42 sec) 
Heartbeat CPU 0 instructions: 910000002 cycles: 1785274380 heartbeat IPC: 0.440669 cumulative IPC: 0.428465 (Simulation time: 0 hr 34 min 7 sec) 
Heartbeat CPU 0 instructions: 920000000 cycles: 1808057961 heartbeat IPC: 0.438912 cumulative IPC: 0.428607 (Simulation time: 0 hr 34 min 32 sec) 
Heartbeat CPU 0 instructions: 930000000 cycles: 1830647479 heartbeat IPC: 0.442683 cumulative IPC: 0.428794 (Simulation time: 0 hr 34 min 57 sec) 
Heartbeat CPU 0 instructions: 940000000 cycles: 1853192187 heartbeat IPC: 0.443563 cumulative IPC: 0.428987 (Simulation time: 0 hr 35 min 22 sec) 
Heartbeat CPU 0 instructions: 950000002 cycles: 1875918233 heartbeat IPC: 0.440024 cumulative IPC: 0.42913 (Simulation time: 0 hr 35 min 47 sec) 
Heartbeat CPU 0 instructions: 960000000 cycles: 1898491100 heartbeat IPC: 0.44301 cumulative IPC: 0.429307 (Simulation time: 0 hr 36 min 11 sec) 
Heartbeat CPU 0 instructions: 970000000 cycles: 1921022872 heartbeat IPC: 0.443818 cumulative IPC: 0.42949 (Simulation time: 0 hr 36 min 36 sec) 
Heartbeat CPU 0 instructions: 980000000 cycles: 1943631839 heartbeat IPC: 0.442302 cumulative IPC: 0.429649 (Simulation time: 0 hr 37 min 1 sec) 
Heartbeat CPU 0 instructions: 990000000 cycles: 1966083068 heartbeat IPC: 0.44541 cumulative IPC: 0.429842 (Simulation time: 0 hr 37 min 26 sec) 
Heartbeat CPU 0 instructions: 1000000000 cycles: 1988306643 heartbeat IPC: 0.449973 cumulative IPC: 0.430082 (Simulation time: 0 hr 37 min 51 sec) 
Heartbeat CPU 0 instructions: 1010000000 cycles: 2010436287 heartbeat IPC: 0.451883 cumulative IPC: 0.430339 (Simulation time: 0 hr 38 min 15 sec) 
Heartbeat CPU 0 instructions: 1020000000 cycles: 2032764113 heartbeat IPC: 0.447872 cumulative IPC: 0.430544 (Simulation time: 0 hr 38 min 40 sec) 
Heartbeat CPU 0 instructions: 1030000001 cycles: 2055117722 heartbeat IPC: 0.447355 cumulative IPC: 0.430739 (Simulation time: 0 hr 39 min 5 sec) 
Heartbeat CPU 0 instructions: 1040000000 cycles: 2077608168 heartbeat IPC: 0.444633 cumulative IPC: 0.430899 (Simulation time: 0 hr 39 min 30 sec) 
Heartbeat CPU 0 instructions: 1050000002 cycles: 2099807639 heartbeat IPC: 0.450461 cumulative IPC: 0.43112 (Simulation time: 0 hr 39 min 54 sec) 
Heartbeat CPU 0 instructions: 1060000000 cycles: 2122098969 heartbeat IPC: 0.448605 cumulative IPC: 0.431315 (Simulation time: 0 hr 40 min 19 sec) 
Heartbeat CPU 0 instructions: 1070000002 cycles: 2144276512 heartbeat IPC: 0.450907 cumulative IPC: 0.431531 (Simulation time: 0 hr 40 min 44 sec) 
Heartbeat CPU 0 instructions: 1080000000 cycles: 2166803367 heartbeat IPC: 0.443915 cumulative IPC: 0.431668 (Simulation time: 0 hr 41 min 9 sec) 
Heartbeat CPU 0 instructions: 1090000003 cycles: 2189211787 heartbeat IPC: 0.446261 cumulative IPC: 0.431826 (Simulation time: 0 hr 41 min 33 sec) 
Heartbeat CPU 0 instructions: 1100000000 cycles: 2211652104 heartbeat IPC: 0.445626 cumulative IPC: 0.431975 (Simulation time: 0 hr 41 min 58 sec) 
Heartbeat CPU 0 instructions: 1110000002 cycles: 2233940802 heartbeat IPC: 0.448658 cumulative IPC: 0.432151 (Simulation time: 0 hr 42 min 23 sec) 
Heartbeat CPU 0 instructions: 1120000000 cycles: 2256563092 heartbeat IPC: 0.442042 cumulative IPC: 0.432257 (Simulation time: 0 hr 42 min 48 sec) 
Heartbeat CPU 0 instructions: 1130000003 cycles: 2279375397 heartbeat IPC: 0.43836 cumulative IPC: 0.432321 (Simulation time: 0 hr 43 min 13 sec) 
Heartbeat CPU 0 instructions: 1140000000 cycles: 2302124716 heartbeat IPC: 0.439573 cumulative IPC: 0.432397 (Simulation time: 0 hr 43 min 37 sec) 
Heartbeat CPU 0 instructions: 1150000003 cycles: 2325050302 heartbeat IPC: 0.436194 cumulative IPC: 0.432437 (Simulation time: 0 hr 44 min 2 sec) 
Heartbeat CPU 0 instructions: 1160000000 cycles: 2349113761 heartbeat IPC: 0.415568 cumulative IPC: 0.432254 (Simulation time: 0 hr 44 min 28 sec) 
Heartbeat CPU 0 instructions: 1170000003 cycles: 2372153011 heartbeat IPC: 0.434042 cumulative IPC: 0.432272 (Simulation time: 0 hr 44 min 53 sec) 
Heartbeat CPU 0 instructions: 1180000000 cycles: 2395417301 heartbeat IPC: 0.429843 cumulative IPC: 0.432247 (Simulation time: 0 hr 45 min 18 sec) 
Heartbeat CPU 0 instructions: 1190000003 cycles: 2418694899 heartbeat IPC: 0.429598 cumulative IPC: 0.432221 (Simulation time: 0 hr 45 min 43 sec) 
Heartbeat CPU 0 instructions: 1200000000 cycles: 2441355234 heartbeat IPC: 0.4413 cumulative IPC: 0.432309 (Simulation time: 0 hr 46 min 8 sec) 
Finished CPU 0 instructions: 1000000000 cycles: 2313157651 cumulative IPC: 0.432309 (Simulation time: 0 hr 46 min 8 sec) 

CPU 0 Branch Prediction Accuracy: 85.1768% MPKI: 16.3973

ChampSim completed all CPUs

Region of Interest Statistics

CPU 0 cumulative IPC: 0.432309 instructions: 1000000000 cycles: 2313157651
L1D TOTAL     ACCESS:  323961843  HIT:  320129700  MISS:    3832143
L1D LOAD      ACCESS:  205414110  HIT:  202465038  MISS:    2949072
L1D RFO       ACCESS:  118547733  HIT:  117664662  MISS:     883071
L1D PREFETCH  ACCESS:          0  HIT:          0  MISS:          0
L1D WRITEBACK ACCESS:          0  HIT:          0  MISS:          0
L1D PREFETCH  REQUESTED:          0  ISSUED:          0  USEFUL:          0  USELESS:          0
L1I TOTAL     ACCESS:  233823850  HIT:  233550795  MISS:     273055
L1I LOAD      ACCESS:  233823850  HIT:  233550795  MISS:     273055
L1I RFO       ACCESS:          0  HIT:          0  MISS:          0
L1I PREFETCH  ACCESS:          0  HIT:          0  MISS:          0
L1I WRITEBACK ACCESS:          0  HIT:          0  MISS:          0
L1I PREFETCH  REQUESTED:          0  ISSUED:          0  USEFUL:          0  USELESS:          0
L2C TOTAL     ACCESS:    5617101  HIT:    5472080  MISS:     145021
L2C LOAD      ACCESS:    3222114  HIT:    3176628  MISS:      45486
L2C RFO       ACCESS:     883040  HIT:     837095  MISS:      45945
L2C PREFETCH  ACCESS:      68873  HIT:      15581  MISS:      53292
L2C WRITEBACK ACCESS:    1443074  HIT:    1442776  MISS:        298
L2C PREFETCH  REQUESTED:     196339  ISSUED:     196339  USEFUL:     149601  USELESS:      19821
LLC TOTAL     ACCESS:     205067  HIT:     186294  MISS:      18773
LLC LOAD      ACCESS:      44917  HIT:      39537  MISS:       5380
LLC RFO       ACCESS:      45944  HIT:      36506  MISS:       9438
LLC PREFETCH  ACCESS:      53862  HIT:      49915  MISS:       3947
LLC WRITEBACK ACCESS:      60344  HIT:      60336  MISS:          8
LLC PREFETCH  REQUESTED:          0  ISSUED:          0  USEFUL:       5391  USELESS:       9372
Major fault: 0 Minor fault: 1620

L2C DA-AMPM prefetcher final stats

DRAM Statistics
 CHANNEL 0
 RQ ROW_BUFFER_HIT:       9557  ROW_BUFFER_MISS:       9150
 DBUS_CONGESTED:      13572
 WQ ROW_BUFFER_HIT:       4274  ROW_BUFFER_MISS:       9256  FULL:          0

 AVG_CONGESTED_CYCLE: 14
