
*** ChampSim Multicore Out-of-Order Simulator ***

Warmup Instructions: 200000000
Simulation Instructions: 1000000000
Number of CPUs: 1
LLC sets: 2048
LLC ways: 16
Off-chip DRAM Size: 4096 MB Channels: 1 Width: 64-bit Data Rate: 1600 MT/s

CPU 0 runs /scratch/user/djimenez/champsim-traces/speccpu2017/xz/641.leela_s/641.leela_s-1052B.champsimtrace.xz
L2C DA-AMPM prefetcher
Heartbeat CPU 0 instructions: 10000002 cycles: 6327597 heartbeat IPC: 1.58038 cumulative IPC: 1.58038 (Simulation time: 0 hr 0 min 14 sec) 
Heartbeat CPU 0 instructions: 20000000 cycles: 12640742 heartbeat IPC: 1.584 cumulative IPC: 1.58219 (Simulation time: 0 hr 0 min 27 sec) 
Heartbeat CPU 0 instructions: 30000002 cycles: 18949379 heartbeat IPC: 1.58513 cumulative IPC: 1.58317 (Simulation time: 0 hr 0 min 41 sec) 
Heartbeat CPU 0 instructions: 40000000 cycles: 25263531 heartbeat IPC: 1.58374 cumulative IPC: 1.58331 (Simulation time: 0 hr 0 min 55 sec) 
Heartbeat CPU 0 instructions: 50000000 cycles: 31579357 heartbeat IPC: 1.58332 cumulative IPC: 1.58331 (Simulation time: 0 hr 1 min 8 sec) 
Heartbeat CPU 0 instructions: 60000000 cycles: 37886483 heartbeat IPC: 1.58551 cumulative IPC: 1.58368 (Simulation time: 0 hr 1 min 22 sec) 
Heartbeat CPU 0 instructions: 70000001 cycles: 44187997 heartbeat IPC: 1.58692 cumulative IPC: 1.58414 (Simulation time: 0 hr 1 min 36 sec) 
Heartbeat CPU 0 instructions: 80000000 cycles: 50500266 heartbeat IPC: 1.58422 cumulative IPC: 1.58415 (Simulation time: 0 hr 1 min 50 sec) 
Heartbeat CPU 0 instructions: 90000002 cycles: 56827704 heartbeat IPC: 1.58042 cumulative IPC: 1.58373 (Simulation time: 0 hr 2 min 3 sec) 
Heartbeat CPU 0 instructions: 100000000 cycles: 63161800 heartbeat IPC: 1.57876 cumulative IPC: 1.58324 (Simulation time: 0 hr 2 min 17 sec) 
Heartbeat CPU 0 instructions: 110000000 cycles: 69453277 heartbeat IPC: 1.58945 cumulative IPC: 1.5838 (Simulation time: 0 hr 2 min 31 sec) 
Heartbeat CPU 0 instructions: 120000000 cycles: 75746396 heartbeat IPC: 1.58904 cumulative IPC: 1.58423 (Simulation time: 0 hr 2 min 45 sec) 
Heartbeat CPU 0 instructions: 130000001 cycles: 82070306 heartbeat IPC: 1.5813 cumulative IPC: 1.58401 (Simulation time: 0 hr 2 min 58 sec) 
Heartbeat CPU 0 instructions: 140000000 cycles: 88400867 heartbeat IPC: 1.57964 cumulative IPC: 1.58369 (Simulation time: 0 hr 3 min 12 sec) 
Heartbeat CPU 0 instructions: 150000001 cycles: 94735009 heartbeat IPC: 1.57875 cumulative IPC: 1.58336 (Simulation time: 0 hr 3 min 26 sec) 
Heartbeat CPU 0 instructions: 160000000 cycles: 101020378 heartbeat IPC: 1.591 cumulative IPC: 1.58384 (Simulation time: 0 hr 3 min 40 sec) 
Heartbeat CPU 0 instructions: 170000001 cycles: 107323951 heartbeat IPC: 1.5864 cumulative IPC: 1.58399 (Simulation time: 0 hr 3 min 53 sec) 
Heartbeat CPU 0 instructions: 180000000 cycles: 113614583 heartbeat IPC: 1.58967 cumulative IPC: 1.5843 (Simulation time: 0 hr 4 min 7 sec) 
Heartbeat CPU 0 instructions: 190000001 cycles: 119932951 heartbeat IPC: 1.58269 cumulative IPC: 1.58422 (Simulation time: 0 hr 4 min 21 sec) 
Heartbeat CPU 0 instructions: 200000000 cycles: 126242239 heartbeat IPC: 1.58496 cumulative IPC: 1.58426 (Simulation time: 0 hr 4 min 35 sec) 

Warmup complete CPU 0 instructions: 200000001 cycles: 126242240 (Simulation time: 0 hr 4 min 35 sec) 

Heartbeat CPU 0 instructions: 210000000 cycles: 148958985 heartbeat IPC: 0.440204 cumulative IPC: 0.440204 (Simulation time: 0 hr 4 min 59 sec) 
Heartbeat CPU 0 instructions: 220000000 cycles: 171733916 heartbeat IPC: 0.439079 cumulative IPC: 0.439641 (Simulation time: 0 hr 5 min 24 sec) 
Heartbeat CPU 0 instructions: 230000001 cycles: 194732016 heartbeat IPC: 0.434819 cumulative IPC: 0.438022 (Simulation time: 0 hr 5 min 49 sec) 
Heartbeat CPU 0 instructions: 240000000 cycles: 217742344 heartbeat IPC: 0.434587 cumulative IPC: 0.437158 (Simulation time: 0 hr 6 min 13 sec) 
Heartbeat CPU 0 instructions: 250000000 cycles: 240671521 heartbeat IPC: 0.436126 cumulative IPC: 0.436951 (Simulation time: 0 hr 6 min 38 sec) 
Heartbeat CPU 0 instructions: 260000000 cycles: 263852587 heartbeat IPC: 0.431387 cumulative IPC: 0.436014 (Simulation time: 0 hr 7 min 3 sec) 
Heartbeat CPU 0 instructions: 270000001 cycles: 287062857 heartbeat IPC: 0.430844 cumulative IPC: 0.435268 (Simulation time: 0 hr 7 min 28 sec) 
Heartbeat CPU 0 instructions: 280000000 cycles: 310191368 heartbeat IPC: 0.432367 cumulative IPC: 0.434903 (Simulation time: 0 hr 7 min 52 sec) 
Heartbeat CPU 0 instructions: 290000002 cycles: 333364495 heartbeat IPC: 0.431534 cumulative IPC: 0.434526 (Simulation time: 0 hr 8 min 17 sec) 
Heartbeat CPU 0 instructions: 300000000 cycles: 356548269 heartbeat IPC: 0.431336 cumulative IPC: 0.434205 (Simulation time: 0 hr 8 min 42 sec) 
Heartbeat CPU 0 instructions: 310000001 cycles: 379693243 heartbeat IPC: 0.432059 cumulative IPC: 0.434009 (Simulation time: 0 hr 9 min 7 sec) 
Heartbeat CPU 0 instructions: 320000000 cycles: 402701915 heartbeat IPC: 0.434619 cumulative IPC: 0.43406 (Simulation time: 0 hr 9 min 31 sec) 
Heartbeat CPU 0 instructions: 330000000 cycles: 425904018 heartbeat IPC: 0.430995 cumulative IPC: 0.433822 (Simulation time: 0 hr 9 min 56 sec) 
Heartbeat CPU 0 instructions: 340000000 cycles: 448972098 heartbeat IPC: 0.433499 cumulative IPC: 0.433799 (Simulation time: 0 hr 10 min 21 sec) 
Heartbeat CPU 0 instructions: 350000003 cycles: 472029047 heartbeat IPC: 0.433709 cumulative IPC: 0.433793 (Simulation time: 0 hr 10 min 46 sec) 
Heartbeat CPU 0 instructions: 360000000 cycles: 495099316 heartbeat IPC: 0.433458 cumulative IPC: 0.433772 (Simulation time: 0 hr 11 min 10 sec) 
Heartbeat CPU 0 instructions: 370000000 cycles: 517809342 heartbeat IPC: 0.440334 cumulative IPC: 0.434153 (Simulation time: 0 hr 11 min 35 sec) 
Heartbeat CPU 0 instructions: 380000000 cycles: 540381453 heartbeat IPC: 0.443025 cumulative IPC: 0.434636 (Simulation time: 0 hr 11 min 59 sec) 
Heartbeat CPU 0 instructions: 390000001 cycles: 563130123 heartbeat IPC: 0.439586 cumulative IPC: 0.434894 (Simulation time: 0 hr 12 min 24 sec) 
Heartbeat CPU 0 instructions: 400000000 cycles: 585673338 heartbeat IPC: 0.443592 cumulative IPC: 0.435321 (Simulation time: 0 hr 12 min 49 sec) 
Heartbeat CPU 0 instructions: 410000000 cycles: 608391823 heartbeat IPC: 0.44017 cumulative IPC: 0.435549 (Simulation time: 0 hr 13 min 13 sec) 
Heartbeat CPU 0 instructions: 420000000 cycles: 631139200 heartbeat IPC: 0.439611 cumulative IPC: 0.435732 (Simulation time: 0 hr 13 min 38 sec) 
Heartbeat CPU 0 instructions: 430000000 cycles: 654015661 heartbeat IPC: 0.437131 cumulative IPC: 0.435793 (Simulation time: 0 hr 14 min 3 sec) 
Heartbeat CPU 0 instructions: 440000000 cycles: 677031148 heartbeat IPC: 0.43449 cumulative IPC: 0.435739 (Simulation time: 0 hr 14 min 27 sec) 
Heartbeat CPU 0 instructions: 450000001 cycles: 699905077 heartbeat IPC: 0.437179 cumulative IPC: 0.435796 (Simulation time: 0 hr 14 min 52 sec) 
Heartbeat CPU 0 instructions: 460000000 cycles: 722979331 heartbeat IPC: 0.433383 cumulative IPC: 0.435703 (Simulation time: 0 hr 15 min 17 sec) 
Heartbeat CPU 0 instructions: 470000000 cycles: 746017397 heartbeat IPC: 0.434064 cumulative IPC: 0.435642 (Simulation time: 0 hr 15 min 41 sec) 
Heartbeat CPU 0 instructions: 480000000 cycles: 769155951 heartbeat IPC: 0.432179 cumulative IPC: 0.435517 (Simulation time: 0 hr 16 min 6 sec) 
Heartbeat CPU 0 instructions: 490000003 cycles: 792233182 heartbeat IPC: 0.433328 cumulative IPC: 0.435441 (Simulation time: 0 hr 16 min 31 sec) 
Heartbeat CPU 0 instructions: 500000000 cycles: 821436556 heartbeat IPC: 0.342426 cumulative IPC: 0.431534 (Simulation time: 0 hr 17 min 2 sec) 
Heartbeat CPU 0 instructions: 510000000 cycles: 844680448 heartbeat IPC: 0.430221 cumulative IPC: 0.431492 (Simulation time: 0 hr 17 min 27 sec) 
Heartbeat CPU 0 instructions: 520000000 cycles: 867622301 heartbeat IPC: 0.435885 cumulative IPC: 0.431627 (Simulation time: 0 hr 17 min 51 sec) 
Heartbeat CPU 0 instructions: 530000002 cycles: 890573388 heartbeat IPC: 0.435709 cumulative IPC: 0.43175 (Simulation time: 0 hr 18 min 16 sec) 
Heartbeat CPU 0 instructions: 540000000 cycles: 913585691 heartbeat IPC: 0.43455 cumulative IPC: 0.431832 (Simulation time: 0 hr 18 min 41 sec) 
Heartbeat CPU 0 instructions: 550000000 cycles: 936760234 heartbeat IPC: 0.431508 cumulative IPC: 0.431823 (Simulation time: 0 hr 19 min 6 sec) 
Heartbeat CPU 0 instructions: 560000000 cycles: 959861340 heartbeat IPC: 0.43288 cumulative IPC: 0.431852 (Simulation time: 0 hr 19 min 30 sec) 
Heartbeat CPU 0 instructions: 570000001 cycles: 983075174 heartbeat IPC: 0.430778 cumulative IPC: 0.431823 (Simulation time: 0 hr 19 min 55 sec) 
Heartbeat CPU 0 instructions: 580000000 cycles: 1006224802 heartbeat IPC: 0.431972 cumulative IPC: 0.431827 (Simulation time: 0 hr 20 min 20 sec) 
Heartbeat CPU 0 instructions: 590000001 cycles: 1029208191 heartbeat IPC: 0.435097 cumulative IPC: 0.43191 (Simulation time: 0 hr 20 min 45 sec) 
Heartbeat CPU 0 instructions: 600000000 cycles: 1052086381 heartbeat IPC: 0.437097 cumulative IPC: 0.432038 (Simulation time: 0 hr 21 min 10 sec) 
Heartbeat CPU 0 instructions: 610000002 cycles: 1075076541 heartbeat IPC: 0.434969 cumulative IPC: 0.432109 (Simulation time: 0 hr 21 min 35 sec) 
Heartbeat CPU 0 instructions: 620000000 cycles: 1098042986 heartbeat IPC: 0.435418 cumulative IPC: 0.432187 (Simulation time: 0 hr 21 min 59 sec) 
Heartbeat CPU 0 instructions: 630000001 cycles: 1120932266 heartbeat IPC: 0.436886 cumulative IPC: 0.432295 (Simulation time: 0 hr 22 min 24 sec) 
Heartbeat CPU 0 instructions: 640000000 cycles: 1143927039 heartbeat IPC: 0.434881 cumulative IPC: 0.432354 (Simulation time: 0 hr 22 min 49 sec) 
Heartbeat CPU 0 instructions: 650000001 cycles: 1166823773 heartbeat IPC: 0.436744 cumulative IPC: 0.432451 (Simulation time: 0 hr 23 min 14 sec) 
Heartbeat CPU 0 instructions: 660000000 cycles: 1189982782 heartbeat IPC: 0.431797 cumulative IPC: 0.432436 (Simulation time: 0 hr 23 min 39 sec) 
Heartbeat CPU 0 instructions: 670000000 cycles: 1213059640 heartbeat IPC: 0.433335 cumulative IPC: 0.432455 (Simulation time: 0 hr 24 min 4 sec) 
Heartbeat CPU 0 instructions: 680000000 cycles: 1236103936 heartbeat IPC: 0.433947 cumulative IPC: 0.432486 (Simulation time: 0 hr 24 min 28 sec) 
Heartbeat CPU 0 instructions: 690000000 cycles: 1258939036 heartbeat IPC: 0.437922 cumulative IPC: 0.432596 (Simulation time: 0 hr 24 min 53 sec) 
Heartbeat CPU 0 instructions: 700000000 cycles: 1281797616 heartbeat IPC: 0.437472 cumulative IPC: 0.432692 (Simulation time: 0 hr 25 min 18 sec) 
Heartbeat CPU 0 instructions: 710000000 cycles: 1304593350 heartbeat IPC: 0.438679 cumulative IPC: 0.432808 (Simulation time: 0 hr 25 min 43 sec) 
Heartbeat CPU 0 instructions: 720000000 cycles: 1327396621 heartbeat IPC: 0.438534 cumulative IPC: 0.432917 (Simulation time: 0 hr 26 min 7 sec) 
Heartbeat CPU 0 instructions: 730000003 cycles: 1350227298 heartbeat IPC: 0.438007 cumulative IPC: 0.433012 (Simulation time: 0 hr 26 min 32 sec) 
Heartbeat CPU 0 instructions: 740000000 cycles: 1373075064 heartbeat IPC: 0.437679 cumulative IPC: 0.433097 (Simulation time: 0 hr 26 min 57 sec) 
Heartbeat CPU 0 instructions: 750000002 cycles: 1396112970 heartbeat IPC: 0.434067 cumulative IPC: 0.433115 (Simulation time: 0 hr 27 min 22 sec) 
Heartbeat CPU 0 instructions: 760000000 cycles: 1419266098 heartbeat IPC: 0.431907 cumulative IPC: 0.433093 (Simulation time: 0 hr 27 min 47 sec) 
Heartbeat CPU 0 instructions: 770000002 cycles: 1442227015 heartbeat IPC: 0.435523 cumulative IPC: 0.433136 (Simulation time: 0 hr 28 min 11 sec) 
Heartbeat CPU 0 instructions: 780000000 cycles: 1465168361 heartbeat IPC: 0.435894 cumulative IPC: 0.433183 (Simulation time: 0 hr 28 min 36 sec) 
Heartbeat CPU 0 instructions: 790000002 cycles: 1488118288 heartbeat IPC: 0.435731 cumulative IPC: 0.433226 (Simulation time: 0 hr 29 min 1 sec) 
Heartbeat CPU 0 instructions: 800000000 cycles: 1511112374 heartbeat IPC: 0.434894 cumulative IPC: 0.433254 (Simulation time: 0 hr 29 min 26 sec) 
Heartbeat CPU 0 instructions: 810000001 cycles: 1534010898 heartbeat IPC: 0.436709 cumulative IPC: 0.43331 (Simulation time: 0 hr 29 min 50 sec) 
Heartbeat CPU 0 instructions: 820000000 cycles: 1556818897 heartbeat IPC: 0.438443 cumulative IPC: 0.433392 (Simulation time: 0 hr 30 min 15 sec) 
Heartbeat CPU 0 instructions: 830000000 cycles: 1579885364 heartbeat IPC: 0.43353 cumulative IPC: 0.433394 (Simulation time: 0 hr 30 min 40 sec) 
Heartbeat CPU 0 instructions: 840000000 cycles: 1602797928 heartbeat IPC: 0.436442 cumulative IPC: 0.433441 (Simulation time: 0 hr 31 min 5 sec) 
Heartbeat CPU 0 instructions: 850000000 cycles: 1625771603 heartbeat IPC: 0.435281 cumulative IPC: 0.433469 (Simulation time: 0 hr 31 min 29 sec) 
Heartbeat CPU 0 instructions: 860000000 cycles: 1648512048 heartbeat IPC: 0.439745 cumulative IPC: 0.433563 (Simulation time: 0 hr 31 min 54 sec) 
Heartbeat CPU 0 instructions: 870000000 cycles: 1671416033 heartbeat IPC: 0.436605 cumulative IPC: 0.433608 (Simulation time: 0 hr 32 min 19 sec) 
Heartbeat CPU 0 instructions: 880000000 cycles: 1694210779 heartbeat IPC: 0.438698 cumulative IPC: 0.433682 (Simulation time: 0 hr 32 min 44 sec) 
Heartbeat CPU 0 instructions: 890000001 cycles: 1717255656 heartbeat IPC: 0.433936 cumulative IPC: 0.433686 (Simulation time: 0 hr 33 min 8 sec) 
Heartbeat CPU 0 instructions: 900000000 cycles: 1740279492 heartbeat IPC: 0.434332 cumulative IPC: 0.433695 (Simulation time: 0 hr 33 min 33 sec) 
Heartbeat CPU 0 instructions: 910000000 cycles: 1763191472 heartbeat IPC: 0.436453 cumulative IPC: 0.433734 (Simulation time: 0 hr 33 min 58 sec) 
Heartbeat CPU 0 instructions: 920000000 cycles: 1786345801 heartbeat IPC: 0.431885 cumulative IPC: 0.433708 (Simulation time: 0 hr 34 min 23 sec) 
Heartbeat CPU 0 instructions: 930000000 cycles: 1809481383 heartbeat IPC: 0.432235 cumulative IPC: 0.433688 (Simulation time: 0 hr 34 min 47 sec) 
Heartbeat CPU 0 instructions: 940000000 cycles: 1832546428 heartbeat IPC: 0.433556 cumulative IPC: 0.433686 (Simulation time: 0 hr 35 min 12 sec) 
Heartbeat CPU 0 instructions: 950000000 cycles: 1855627598 heartbeat IPC: 0.433254 cumulative IPC: 0.43368 (Simulation time: 0 hr 35 min 37 sec) 
Heartbeat CPU 0 instructions: 960000000 cycles: 1878533348 heartbeat IPC: 0.436572 cumulative IPC: 0.433718 (Simulation time: 0 hr 36 min 2 sec) 
Heartbeat CPU 0 instructions: 970000001 cycles: 1901540202 heartbeat IPC: 0.434653 cumulative IPC: 0.43373 (Simulation time: 0 hr 36 min 27 sec) 
Heartbeat CPU 0 instructions: 980000000 cycles: 1924560664 heartbeat IPC: 0.434396 cumulative IPC: 0.433739 (Simulation time: 0 hr 36 min 51 sec) 
Heartbeat CPU 0 instructions: 990000002 cycles: 1947417823 heartbeat IPC: 0.4375 cumulative IPC: 0.433786 (Simulation time: 0 hr 37 min 16 sec) 
Heartbeat CPU 0 instructions: 1000000000 cycles: 1970530109 heartbeat IPC: 0.43267 cumulative IPC: 0.433772 (Simulation time: 0 hr 37 min 41 sec) 
Heartbeat CPU 0 instructions: 1010000000 cycles: 1993453722 heartbeat IPC: 0.436231 cumulative IPC: 0.433802 (Simulation time: 0 hr 38 min 6 sec) 
Heartbeat CPU 0 instructions: 1020000000 cycles: 2016419388 heartbeat IPC: 0.435433 cumulative IPC: 0.433822 (Simulation time: 0 hr 38 min 31 sec) 
Heartbeat CPU 0 instructions: 1030000001 cycles: 2039295184 heartbeat IPC: 0.437143 cumulative IPC: 0.433861 (Simulation time: 0 hr 38 min 55 sec) 
Heartbeat CPU 0 instructions: 1040000000 cycles: 2062300134 heartbeat IPC: 0.434689 cumulative IPC: 0.433871 (Simulation time: 0 hr 39 min 20 sec) 
Heartbeat CPU 0 instructions: 1050000001 cycles: 2085365040 heartbeat IPC: 0.433559 cumulative IPC: 0.433868 (Simulation time: 0 hr 39 min 45 sec) 
Heartbeat CPU 0 instructions: 1060000000 cycles: 2108346726 heartbeat IPC: 0.435129 cumulative IPC: 0.433882 (Simulation time: 0 hr 40 min 10 sec) 
Heartbeat CPU 0 instructions: 1070000000 cycles: 2131356721 heartbeat IPC: 0.434594 cumulative IPC: 0.43389 (Simulation time: 0 hr 40 min 34 sec) 
Heartbeat CPU 0 instructions: 1080000000 cycles: 2154309061 heartbeat IPC: 0.435685 cumulative IPC: 0.433911 (Simulation time: 0 hr 40 min 59 sec) 
Heartbeat CPU 0 instructions: 1090000001 cycles: 2177178819 heartbeat IPC: 0.437259 cumulative IPC: 0.433948 (Simulation time: 0 hr 41 min 24 sec) 
Heartbeat CPU 0 instructions: 1100000000 cycles: 2199956817 heartbeat IPC: 0.43902 cumulative IPC: 0.434004 (Simulation time: 0 hr 41 min 49 sec) 
Heartbeat CPU 0 instructions: 1110000001 cycles: 2222949182 heartbeat IPC: 0.434927 cumulative IPC: 0.434014 (Simulation time: 0 hr 42 min 14 sec) 
Heartbeat CPU 0 instructions: 1120000000 cycles: 2245731175 heartbeat IPC: 0.438943 cumulative IPC: 0.434067 (Simulation time: 0 hr 42 min 38 sec) 
Heartbeat CPU 0 instructions: 1130000001 cycles: 2268493417 heartbeat IPC: 0.439324 cumulative IPC: 0.434123 (Simulation time: 0 hr 43 min 3 sec) 
Heartbeat CPU 0 instructions: 1140000000 cycles: 2291012756 heartbeat IPC: 0.444063 cumulative IPC: 0.434226 (Simulation time: 0 hr 43 min 28 sec) 
Heartbeat CPU 0 instructions: 1150000000 cycles: 2313884901 heartbeat IPC: 0.437213 cumulative IPC: 0.434257 (Simulation time: 0 hr 43 min 52 sec) 
Heartbeat CPU 0 instructions: 1160000000 cycles: 2336702046 heartbeat IPC: 0.438267 cumulative IPC: 0.434299 (Simulation time: 0 hr 44 min 17 sec) 
Heartbeat CPU 0 instructions: 1170000003 cycles: 2359445686 heartbeat IPC: 0.439683 cumulative IPC: 0.434354 (Simulation time: 0 hr 44 min 42 sec) 
Heartbeat CPU 0 instructions: 1180000000 cycles: 2382264903 heartbeat IPC: 0.438227 cumulative IPC: 0.434393 (Simulation time: 0 hr 45 min 7 sec) 
Heartbeat CPU 0 instructions: 1190000001 cycles: 2452061322 heartbeat IPC: 0.143274 cumulative IPC: 0.425656 (Simulation time: 0 hr 46 min 22 sec) 
Heartbeat CPU 0 instructions: 1200000000 cycles: 2476271705 heartbeat IPC: 0.413046 cumulative IPC: 0.425527 (Simulation time: 0 hr 46 min 48 sec) 
Finished CPU 0 instructions: 1000000000 cycles: 2350029478 cumulative IPC: 0.425527 (Simulation time: 0 hr 46 min 48 sec) 

CPU 0 Branch Prediction Accuracy: 84.7597% MPKI: 16.5558

ChampSim completed all CPUs

Region of Interest Statistics

CPU 0 cumulative IPC: 0.425527 instructions: 1000000000 cycles: 2350029478
L1D TOTAL     ACCESS:  333340090  HIT:  329399962  MISS:    3940128
L1D LOAD      ACCESS:  218362268  HIT:  215347101  MISS:    3015167
L1D RFO       ACCESS:  114977822  HIT:  114052861  MISS:     924961
L1D PREFETCH  ACCESS:          0  HIT:          0  MISS:          0
L1D WRITEBACK ACCESS:          0  HIT:          0  MISS:          0
L1D PREFETCH  REQUESTED:          0  ISSUED:          0  USEFUL:          0  USELESS:          0
L1I TOTAL     ACCESS:  231044312  HIT:  230974386  MISS:      69926
L1I LOAD      ACCESS:  231044312  HIT:  230974386  MISS:      69926
L1I RFO       ACCESS:          0  HIT:          0  MISS:          0
L1I PREFETCH  ACCESS:          0  HIT:          0  MISS:          0
L1I WRITEBACK ACCESS:          0  HIT:          0  MISS:          0
L1I PREFETCH  REQUESTED:          0  ISSUED:          0  USEFUL:          0  USELESS:          0
L2C TOTAL     ACCESS:    5742093  HIT:    4536605  MISS:    1205488
L2C LOAD      ACCESS:    3084995  HIT:    2907061  MISS:     177934
L2C RFO       ACCESS:     924960  HIT:     385326  MISS:     539634
L2C PREFETCH  ACCESS:     509076  HIT:      21563  MISS:     487513
L2C WRITEBACK ACCESS:    1223062  HIT:    1222655  MISS:        407
L2C PREFETCH  REQUESTED:     570722  ISSUED:     570722  USEFUL:     461881  USELESS:      31328
LLC TOTAL     ACCESS:    1779316  HIT:     659526  MISS:    1119790
LLC LOAD      ACCESS:     148902  HIT:      61766  MISS:      87136
LLC RFO       ACCESS:     539628  HIT:       9648  MISS:     529980
LLC PREFETCH  ACCESS:     516550  HIT:      14027  MISS:     502523
LLC WRITEBACK ACCESS:     574236  HIT:     574085  MISS:        151
LLC PREFETCH  REQUESTED:          0  ISSUED:          0  USEFUL:       7263  USELESS:     483685
Major fault: 0 Minor fault: 2505

L2C DA-AMPM prefetcher final stats

DRAM Statistics
 CHANNEL 0
 RQ ROW_BUFFER_HIT:     870754  ROW_BUFFER_MISS:     248871
 DBUS_CONGESTED:     896178
 WQ ROW_BUFFER_HIT:     276264  ROW_BUFFER_MISS:     266124  FULL:          0

 AVG_CONGESTED_CYCLE: 14
