
*** ChampSim Multicore Out-of-Order Simulator ***

Warmup Instructions: 200000000
Simulation Instructions: 1000000000
Number of CPUs: 1
LLC sets: 2048
LLC ways: 16
Off-chip DRAM Size: 4096 MB Channels: 1 Width: 64-bit Data Rate: 1600 MT/s

CPU 0 runs /scratch/user/djimenez/champsim-traces/speccpu2017/xz/654.roms_s/654.roms_s-294B.champsimtrace.xz
L2C DA-AMPM prefetcher
Heartbeat CPU 0 instructions: 10000003 cycles: 4879881 heartbeat IPC: 2.04923 cumulative IPC: 2.04923 (Simulation time: 0 hr 0 min 22 sec) 
Heartbeat CPU 0 instructions: 20000000 cycles: 9759400 heartbeat IPC: 2.04938 cumulative IPC: 2.04931 (Simulation time: 0 hr 0 min 43 sec) 
Heartbeat CPU 0 instructions: 30000002 cycles: 14638892 heartbeat IPC: 2.04939 cumulative IPC: 2.04934 (Simulation time: 0 hr 1 min 5 sec) 
Heartbeat CPU 0 instructions: 40000000 cycles: 19518416 heartbeat IPC: 2.04938 cumulative IPC: 2.04935 (Simulation time: 0 hr 1 min 27 sec) 
Heartbeat CPU 0 instructions: 50000000 cycles: 24398167 heartbeat IPC: 2.04928 cumulative IPC: 2.04933 (Simulation time: 0 hr 1 min 49 sec) 
Heartbeat CPU 0 instructions: 60000000 cycles: 29277963 heartbeat IPC: 2.04927 cumulative IPC: 2.04932 (Simulation time: 0 hr 2 min 10 sec) 
Heartbeat CPU 0 instructions: 70000003 cycles: 34157587 heartbeat IPC: 2.04934 cumulative IPC: 2.04933 (Simulation time: 0 hr 2 min 32 sec) 
Heartbeat CPU 0 instructions: 80000000 cycles: 39037186 heartbeat IPC: 2.04935 cumulative IPC: 2.04933 (Simulation time: 0 hr 2 min 54 sec) 
Heartbeat CPU 0 instructions: 90000000 cycles: 43916794 heartbeat IPC: 2.04935 cumulative IPC: 2.04933 (Simulation time: 0 hr 3 min 15 sec) 
Heartbeat CPU 0 instructions: 100000000 cycles: 48796387 heartbeat IPC: 2.04935 cumulative IPC: 2.04933 (Simulation time: 0 hr 3 min 37 sec) 
Heartbeat CPU 0 instructions: 110000001 cycles: 53675384 heartbeat IPC: 2.0496 cumulative IPC: 2.04936 (Simulation time: 0 hr 3 min 59 sec) 
Heartbeat CPU 0 instructions: 120000000 cycles: 58554926 heartbeat IPC: 2.04937 cumulative IPC: 2.04936 (Simulation time: 0 hr 4 min 20 sec) 
Heartbeat CPU 0 instructions: 130000000 cycles: 63434516 heartbeat IPC: 2.04935 cumulative IPC: 2.04936 (Simulation time: 0 hr 4 min 42 sec) 
Heartbeat CPU 0 instructions: 140000000 cycles: 68313804 heartbeat IPC: 2.04948 cumulative IPC: 2.04937 (Simulation time: 0 hr 5 min 4 sec) 
Heartbeat CPU 0 instructions: 150000003 cycles: 73193578 heartbeat IPC: 2.04928 cumulative IPC: 2.04936 (Simulation time: 0 hr 5 min 25 sec) 
Heartbeat CPU 0 instructions: 160000000 cycles: 78072757 heartbeat IPC: 2.04952 cumulative IPC: 2.04937 (Simulation time: 0 hr 5 min 47 sec) 
Heartbeat CPU 0 instructions: 170000002 cycles: 82952389 heartbeat IPC: 2.04934 cumulative IPC: 2.04937 (Simulation time: 0 hr 6 min 9 sec) 
Heartbeat CPU 0 instructions: 180000000 cycles: 87831686 heartbeat IPC: 2.04948 cumulative IPC: 2.04937 (Simulation time: 0 hr 6 min 31 sec) 
Heartbeat CPU 0 instructions: 190000001 cycles: 92711375 heartbeat IPC: 2.04931 cumulative IPC: 2.04937 (Simulation time: 0 hr 6 min 52 sec) 
Heartbeat CPU 0 instructions: 200000000 cycles: 97590742 heartbeat IPC: 2.04945 cumulative IPC: 2.04937 (Simulation time: 0 hr 7 min 14 sec) 

Warmup complete CPU 0 instructions: 200000001 cycles: 97590743 (Simulation time: 0 hr 7 min 14 sec) 

Heartbeat CPU 0 instructions: 210000001 cycles: 107348446 heartbeat IPC: 1.02483 cumulative IPC: 1.02483 (Simulation time: 0 hr 7 min 42 sec) 
Heartbeat CPU 0 instructions: 220000000 cycles: 117102435 heartbeat IPC: 1.02522 cumulative IPC: 1.02503 (Simulation time: 0 hr 8 min 10 sec) 
Heartbeat CPU 0 instructions: 230000000 cycles: 126855517 heartbeat IPC: 1.02532 cumulative IPC: 1.02512 (Simulation time: 0 hr 8 min 38 sec) 
Heartbeat CPU 0 instructions: 240000000 cycles: 136598618 heartbeat IPC: 1.02637 cumulative IPC: 1.02543 (Simulation time: 0 hr 9 min 6 sec) 
Heartbeat CPU 0 instructions: 250000003 cycles: 146334162 heartbeat IPC: 1.02716 cumulative IPC: 1.02578 (Simulation time: 0 hr 9 min 34 sec) 
Heartbeat CPU 0 instructions: 260000000 cycles: 156080493 heartbeat IPC: 1.02603 cumulative IPC: 1.02582 (Simulation time: 0 hr 10 min 2 sec) 
Heartbeat CPU 0 instructions: 270000000 cycles: 165827444 heartbeat IPC: 1.02596 cumulative IPC: 1.02584 (Simulation time: 0 hr 10 min 30 sec) 
Heartbeat CPU 0 instructions: 280000000 cycles: 175581191 heartbeat IPC: 1.02525 cumulative IPC: 1.02577 (Simulation time: 0 hr 10 min 58 sec) 
Heartbeat CPU 0 instructions: 290000002 cycles: 185332741 heartbeat IPC: 1.02548 cumulative IPC: 1.02573 (Simulation time: 0 hr 11 min 26 sec) 
Heartbeat CPU 0 instructions: 300000000 cycles: 195087844 heartbeat IPC: 1.0251 cumulative IPC: 1.02567 (Simulation time: 0 hr 11 min 54 sec) 
Heartbeat CPU 0 instructions: 310000002 cycles: 204897323 heartbeat IPC: 1.01942 cumulative IPC: 1.0251 (Simulation time: 0 hr 12 min 22 sec) 
Heartbeat CPU 0 instructions: 320000000 cycles: 214645617 heartbeat IPC: 1.02582 cumulative IPC: 1.02516 (Simulation time: 0 hr 12 min 50 sec) 
Heartbeat CPU 0 instructions: 330000001 cycles: 224390050 heartbeat IPC: 1.02623 cumulative IPC: 1.02524 (Simulation time: 0 hr 13 min 18 sec) 
Heartbeat CPU 0 instructions: 340000000 cycles: 234137383 heartbeat IPC: 1.02592 cumulative IPC: 1.02529 (Simulation time: 0 hr 13 min 46 sec) 
Heartbeat CPU 0 instructions: 350000002 cycles: 243880937 heartbeat IPC: 1.02632 cumulative IPC: 1.02536 (Simulation time: 0 hr 14 min 14 sec) 
Heartbeat CPU 0 instructions: 360000000 cycles: 253623333 heartbeat IPC: 1.02644 cumulative IPC: 1.02543 (Simulation time: 0 hr 14 min 42 sec) 
Heartbeat CPU 0 instructions: 370000001 cycles: 263369326 heartbeat IPC: 1.02606 cumulative IPC: 1.02546 (Simulation time: 0 hr 15 min 10 sec) 
Heartbeat CPU 0 instructions: 380000000 cycles: 273112330 heartbeat IPC: 1.02638 cumulative IPC: 1.02551 (Simulation time: 0 hr 15 min 37 sec) 
Heartbeat CPU 0 instructions: 390000001 cycles: 282855214 heartbeat IPC: 1.02639 cumulative IPC: 1.02556 (Simulation time: 0 hr 16 min 5 sec) 
Heartbeat CPU 0 instructions: 400000000 cycles: 292600293 heartbeat IPC: 1.02616 cumulative IPC: 1.02559 (Simulation time: 0 hr 16 min 33 sec) 
Heartbeat CPU 0 instructions: 410000000 cycles: 302349839 heartbeat IPC: 1.02569 cumulative IPC: 1.0256 (Simulation time: 0 hr 17 min 1 sec) 
Heartbeat CPU 0 instructions: 420000000 cycles: 312097355 heartbeat IPC: 1.0259 cumulative IPC: 1.02561 (Simulation time: 0 hr 17 min 29 sec) 
Heartbeat CPU 0 instructions: 430000000 cycles: 321847334 heartbeat IPC: 1.02564 cumulative IPC: 1.02561 (Simulation time: 0 hr 17 min 57 sec) 
Heartbeat CPU 0 instructions: 440000000 cycles: 331593699 heartbeat IPC: 1.02602 cumulative IPC: 1.02563 (Simulation time: 0 hr 18 min 25 sec) 
Heartbeat CPU 0 instructions: 450000001 cycles: 341342617 heartbeat IPC: 1.02575 cumulative IPC: 1.02563 (Simulation time: 0 hr 18 min 53 sec) 
Heartbeat CPU 0 instructions: 460000000 cycles: 351087249 heartbeat IPC: 1.02621 cumulative IPC: 1.02566 (Simulation time: 0 hr 19 min 21 sec) 
Heartbeat CPU 0 instructions: 470000001 cycles: 360829124 heartbeat IPC: 1.0265 cumulative IPC: 1.02569 (Simulation time: 0 hr 19 min 49 sec) 
Heartbeat CPU 0 instructions: 480000000 cycles: 370569624 heartbeat IPC: 1.02664 cumulative IPC: 1.02572 (Simulation time: 0 hr 20 min 17 sec) 
Heartbeat CPU 0 instructions: 490000000 cycles: 380315439 heartbeat IPC: 1.02608 cumulative IPC: 1.02573 (Simulation time: 0 hr 20 min 45 sec) 
Heartbeat CPU 0 instructions: 500000000 cycles: 390058426 heartbeat IPC: 1.02638 cumulative IPC: 1.02575 (Simulation time: 0 hr 21 min 13 sec) 
Heartbeat CPU 0 instructions: 510000003 cycles: 399813189 heartbeat IPC: 1.02514 cumulative IPC: 1.02573 (Simulation time: 0 hr 21 min 41 sec) 
Heartbeat CPU 0 instructions: 520000000 cycles: 409560387 heartbeat IPC: 1.02594 cumulative IPC: 1.02574 (Simulation time: 0 hr 22 min 9 sec) 
Heartbeat CPU 0 instructions: 530000003 cycles: 419301355 heartbeat IPC: 1.02659 cumulative IPC: 1.02577 (Simulation time: 0 hr 22 min 37 sec) 
Heartbeat CPU 0 instructions: 540000000 cycles: 429040683 heartbeat IPC: 1.02676 cumulative IPC: 1.0258 (Simulation time: 0 hr 23 min 5 sec) 
Heartbeat CPU 0 instructions: 550000000 cycles: 438793261 heartbeat IPC: 1.02537 cumulative IPC: 1.02578 (Simulation time: 0 hr 23 min 33 sec) 
Heartbeat CPU 0 instructions: 560000000 cycles: 448538207 heartbeat IPC: 1.02617 cumulative IPC: 1.02579 (Simulation time: 0 hr 24 min 1 sec) 
Heartbeat CPU 0 instructions: 570000003 cycles: 458279826 heartbeat IPC: 1.02652 cumulative IPC: 1.02581 (Simulation time: 0 hr 24 min 28 sec) 
Heartbeat CPU 0 instructions: 580000000 cycles: 468013044 heartbeat IPC: 1.02741 cumulative IPC: 1.02586 (Simulation time: 0 hr 24 min 56 sec) 
Heartbeat CPU 0 instructions: 590000003 cycles: 477758908 heartbeat IPC: 1.02608 cumulative IPC: 1.02586 (Simulation time: 0 hr 25 min 24 sec) 
Heartbeat CPU 0 instructions: 600000000 cycles: 487503950 heartbeat IPC: 1.02616 cumulative IPC: 1.02587 (Simulation time: 0 hr 25 min 52 sec) 
Heartbeat CPU 0 instructions: 610000002 cycles: 497249284 heartbeat IPC: 1.02613 cumulative IPC: 1.02588 (Simulation time: 0 hr 26 min 20 sec) 
Heartbeat CPU 0 instructions: 620000000 cycles: 507001562 heartbeat IPC: 1.0254 cumulative IPC: 1.02586 (Simulation time: 0 hr 26 min 48 sec) 
Heartbeat CPU 0 instructions: 630000000 cycles: 520276776 heartbeat IPC: 0.753284 cumulative IPC: 1.0173 (Simulation time: 0 hr 27 min 20 sec) 
Heartbeat CPU 0 instructions: 640000000 cycles: 535827772 heartbeat IPC: 0.643046 cumulative IPC: 1.00402 (Simulation time: 0 hr 27 min 54 sec) 
Heartbeat CPU 0 instructions: 650000002 cycles: 551484297 heartbeat IPC: 0.638711 cumulative IPC: 0.991422 (Simulation time: 0 hr 28 min 28 sec) 
Heartbeat CPU 0 instructions: 660000000 cycles: 567071085 heartbeat IPC: 0.641569 cumulative IPC: 0.979807 (Simulation time: 0 hr 29 min 1 sec) 
Heartbeat CPU 0 instructions: 670000001 cycles: 582723435 heartbeat IPC: 0.638882 cumulative IPC: 0.968807 (Simulation time: 0 hr 29 min 35 sec) 
Heartbeat CPU 0 instructions: 680000000 cycles: 598403587 heartbeat IPC: 0.637749 cumulative IPC: 0.958442 (Simulation time: 0 hr 30 min 9 sec) 
Heartbeat CPU 0 instructions: 690000001 cycles: 613859591 heartbeat IPC: 0.646998 cumulative IPC: 0.949118 (Simulation time: 0 hr 30 min 43 sec) 
Heartbeat CPU 0 instructions: 700000000 cycles: 629515521 heartbeat IPC: 0.638736 cumulative IPC: 0.939983 (Simulation time: 0 hr 31 min 17 sec) 
Heartbeat CPU 0 instructions: 710000001 cycles: 645087312 heartbeat IPC: 0.642187 cumulative IPC: 0.931513 (Simulation time: 0 hr 31 min 51 sec) 
Heartbeat CPU 0 instructions: 720000000 cycles: 660725545 heartbeat IPC: 0.639458 cumulative IPC: 0.923402 (Simulation time: 0 hr 32 min 25 sec) 
Heartbeat CPU 0 instructions: 730000000 cycles: 676181193 heartbeat IPC: 0.647013 cumulative IPC: 0.916019 (Simulation time: 0 hr 32 min 58 sec) 
Heartbeat CPU 0 instructions: 740000000 cycles: 691820913 heartbeat IPC: 0.639398 cumulative IPC: 0.908739 (Simulation time: 0 hr 33 min 32 sec) 
Heartbeat CPU 0 instructions: 750000000 cycles: 707478048 heartbeat IPC: 0.638686 cumulative IPC: 0.901806 (Simulation time: 0 hr 34 min 6 sec) 
Heartbeat CPU 0 instructions: 760000000 cycles: 723071769 heartbeat IPC: 0.641284 cumulative IPC: 0.895311 (Simulation time: 0 hr 34 min 40 sec) 
Heartbeat CPU 0 instructions: 770000000 cycles: 738759825 heartbeat IPC: 0.637428 cumulative IPC: 0.889001 (Simulation time: 0 hr 35 min 14 sec) 
Heartbeat CPU 0 instructions: 780000000 cycles: 754349263 heartbeat IPC: 0.64146 cumulative IPC: 0.883125 (Simulation time: 0 hr 35 min 48 sec) 
Heartbeat CPU 0 instructions: 790000002 cycles: 770023747 heartbeat IPC: 0.63798 cumulative IPC: 0.877411 (Simulation time: 0 hr 36 min 22 sec) 
Heartbeat CPU 0 instructions: 800000000 cycles: 785578430 heartbeat IPC: 0.642893 cumulative IPC: 0.872109 (Simulation time: 0 hr 36 min 55 sec) 
Heartbeat CPU 0 instructions: 810000003 cycles: 801267986 heartbeat IPC: 0.637367 cumulative IPC: 0.866875 (Simulation time: 0 hr 37 min 29 sec) 
Heartbeat CPU 0 instructions: 820000000 cycles: 816943828 heartbeat IPC: 0.637924 cumulative IPC: 0.861885 (Simulation time: 0 hr 38 min 3 sec) 
Heartbeat CPU 0 instructions: 830000000 cycles: 832515296 heartbeat IPC: 0.6422 cumulative IPC: 0.857231 (Simulation time: 0 hr 38 min 37 sec) 
Heartbeat CPU 0 instructions: 840000000 cycles: 848170819 heartbeat IPC: 0.638752 cumulative IPC: 0.852674 (Simulation time: 0 hr 39 min 11 sec) 
Heartbeat CPU 0 instructions: 850000001 cycles: 863752714 heartbeat IPC: 0.641771 cumulative IPC: 0.848385 (Simulation time: 0 hr 39 min 45 sec) 
Heartbeat CPU 0 instructions: 860000000 cycles: 879432354 heartbeat IPC: 0.63777 cumulative IPC: 0.844161 (Simulation time: 0 hr 40 min 19 sec) 
Heartbeat CPU 0 instructions: 870000001 cycles: 895035655 heartbeat IPC: 0.64089 cumulative IPC: 0.840183 (Simulation time: 0 hr 40 min 53 sec) 
Heartbeat CPU 0 instructions: 880000000 cycles: 910693815 heartbeat IPC: 0.638645 cumulative IPC: 0.836302 (Simulation time: 0 hr 41 min 27 sec) 
Heartbeat CPU 0 instructions: 890000003 cycles: 926335582 heartbeat IPC: 0.639314 cumulative IPC: 0.832584 (Simulation time: 0 hr 42 min 1 sec) 
Heartbeat CPU 0 instructions: 900000000 cycles: 941940409 heartbeat IPC: 0.640827 cumulative IPC: 0.82904 (Simulation time: 0 hr 42 min 35 sec) 
Heartbeat CPU 0 instructions: 910000001 cycles: 957576092 heartbeat IPC: 0.639563 cumulative IPC: 0.825595 (Simulation time: 0 hr 43 min 9 sec) 
Heartbeat CPU 0 instructions: 920000000 cycles: 973121222 heartbeat IPC: 0.643288 cumulative IPC: 0.822359 (Simulation time: 0 hr 43 min 43 sec) 
Heartbeat CPU 0 instructions: 930000000 cycles: 988759764 heartbeat IPC: 0.639446 cumulative IPC: 0.819149 (Simulation time: 0 hr 44 min 17 sec) 
Heartbeat CPU 0 instructions: 940000000 cycles: 1004333274 heartbeat IPC: 0.642116 cumulative IPC: 0.816108 (Simulation time: 0 hr 44 min 50 sec) 
Heartbeat CPU 0 instructions: 950000002 cycles: 1020038745 heartbeat IPC: 0.636721 cumulative IPC: 0.813054 (Simulation time: 0 hr 45 min 24 sec) 
Heartbeat CPU 0 instructions: 960000000 cycles: 1035620964 heartbeat IPC: 0.641757 cumulative IPC: 0.810208 (Simulation time: 0 hr 45 min 58 sec) 
Heartbeat CPU 0 instructions: 970000000 cycles: 1051276699 heartbeat IPC: 0.638744 cumulative IPC: 0.807394 (Simulation time: 0 hr 46 min 32 sec) 
Heartbeat CPU 0 instructions: 980000000 cycles: 1066978793 heartbeat IPC: 0.636858 cumulative IPC: 0.804631 (Simulation time: 0 hr 47 min 6 sec) 
Heartbeat CPU 0 instructions: 990000000 cycles: 1082567138 heartbeat IPC: 0.641505 cumulative IPC: 0.80205 (Simulation time: 0 hr 47 min 39 sec) 
Heartbeat CPU 0 instructions: 1000000000 cycles: 1098273589 heartbeat IPC: 0.636681 cumulative IPC: 0.799454 (Simulation time: 0 hr 48 min 13 sec) 
Heartbeat CPU 0 instructions: 1010000001 cycles: 1113839618 heartbeat IPC: 0.642425 cumulative IPC: 0.797049 (Simulation time: 0 hr 48 min 47 sec) 
Heartbeat CPU 0 instructions: 1020000000 cycles: 1129189204 heartbeat IPC: 0.651483 cumulative IPC: 0.794883 (Simulation time: 0 hr 49 min 20 sec) 
Heartbeat CPU 0 instructions: 1030000001 cycles: 1144368841 heartbeat IPC: 0.658777 cumulative IPC: 0.792909 (Simulation time: 0 hr 49 min 54 sec) 
Heartbeat CPU 0 instructions: 1040000000 cycles: 1159640693 heartbeat IPC: 0.654799 cumulative IPC: 0.790923 (Simulation time: 0 hr 50 min 27 sec) 
Heartbeat CPU 0 instructions: 1050000000 cycles: 1174927381 heartbeat IPC: 0.654164 cumulative IPC: 0.788983 (Simulation time: 0 hr 51 min 1 sec) 
Heartbeat CPU 0 instructions: 1060000000 cycles: 1190135753 heartbeat IPC: 0.657533 cumulative IPC: 0.787153 (Simulation time: 0 hr 51 min 35 sec) 
Heartbeat CPU 0 instructions: 1070000001 cycles: 1205399456 heartbeat IPC: 0.655149 cumulative IPC: 0.785334 (Simulation time: 0 hr 52 min 8 sec) 
Heartbeat CPU 0 instructions: 1080000000 cycles: 1220591230 heartbeat IPC: 0.658251 cumulative IPC: 0.783615 (Simulation time: 0 hr 52 min 42 sec) 
Heartbeat CPU 0 instructions: 1090000000 cycles: 1235850774 heartbeat IPC: 0.655328 cumulative IPC: 0.781895 (Simulation time: 0 hr 53 min 15 sec) 
Heartbeat CPU 0 instructions: 1100000000 cycles: 1251122589 heartbeat IPC: 0.654801 cumulative IPC: 0.780213 (Simulation time: 0 hr 53 min 49 sec) 
Heartbeat CPU 0 instructions: 1110000000 cycles: 1266370755 heartbeat IPC: 0.655817 cumulative IPC: 0.77859 (Simulation time: 0 hr 54 min 22 sec) 
Heartbeat CPU 0 instructions: 1120000000 cycles: 1281707520 heartbeat IPC: 0.652028 cumulative IPC: 0.77695 (Simulation time: 0 hr 54 min 56 sec) 
Heartbeat CPU 0 instructions: 1130000000 cycles: 1296992316 heartbeat IPC: 0.654245 cumulative IPC: 0.775387 (Simulation time: 0 hr 55 min 29 sec) 
Heartbeat CPU 0 instructions: 1140000000 cycles: 1312314225 heartbeat IPC: 0.65266 cumulative IPC: 0.773839 (Simulation time: 0 hr 56 min 3 sec) 
Heartbeat CPU 0 instructions: 1150000003 cycles: 1327655684 heartbeat IPC: 0.651829 cumulative IPC: 0.772317 (Simulation time: 0 hr 56 min 37 sec) 
Heartbeat CPU 0 instructions: 1160000000 cycles: 1342937736 heartbeat IPC: 0.654362 cumulative IPC: 0.770869 (Simulation time: 0 hr 57 min 10 sec) 
Heartbeat CPU 0 instructions: 1170000002 cycles: 1358241279 heartbeat IPC: 0.653444 cumulative IPC: 0.769444 (Simulation time: 0 hr 57 min 44 sec) 
Heartbeat CPU 0 instructions: 1180000000 cycles: 1373376331 heartbeat IPC: 0.660718 cumulative IPC: 0.768154 (Simulation time: 0 hr 58 min 17 sec) 
Heartbeat CPU 0 instructions: 1190000001 cycles: 1388495213 heartbeat IPC: 0.661425 cumulative IPC: 0.766904 (Simulation time: 0 hr 58 min 51 sec) 
Heartbeat CPU 0 instructions: 1200000000 cycles: 1403599196 heartbeat IPC: 0.662077 cumulative IPC: 0.765692 (Simulation time: 0 hr 59 min 24 sec) 
Finished CPU 0 instructions: 1000000000 cycles: 1306008461 cumulative IPC: 0.765692 (Simulation time: 0 hr 59 min 24 sec) 

CPU 0 Branch Prediction Accuracy: 99.9486% MPKI: 0.039346

ChampSim completed all CPUs

Region of Interest Statistics

CPU 0 cumulative IPC: 0.765692 instructions: 1000000000 cycles: 1306008461
L1D TOTAL     ACCESS:  295722579  HIT:  286413018  MISS:    9309561
L1D LOAD      ACCESS:  219470576  HIT:  210548013  MISS:    8922563
L1D RFO       ACCESS:   76252003  HIT:   75865005  MISS:     386998
L1D PREFETCH  ACCESS:          0  HIT:          0  MISS:          0
L1D WRITEBACK ACCESS:          0  HIT:          0  MISS:          0
L1D PREFETCH  REQUESTED:          0  ISSUED:          0  USEFUL:          0  USELESS:          0
L1I TOTAL     ACCESS:  339697515  HIT:  339696075  MISS:       1440
L1I LOAD      ACCESS:  339697515  HIT:  339696075  MISS:       1440
L1I RFO       ACCESS:          0  HIT:          0  MISS:          0
L1I PREFETCH  ACCESS:          0  HIT:          0  MISS:          0
L1I WRITEBACK ACCESS:          0  HIT:          0  MISS:          0
L1I PREFETCH  REQUESTED:          0  ISSUED:          0  USEFUL:          0  USELESS:          0
L2C TOTAL     ACCESS:   17404728  HIT:   10768802  MISS:    6635926
L2C LOAD      ACCESS:    8923293  HIT:    8363986  MISS:     559307
L2C RFO       ACCESS:     386661  HIT:     249248  MISS:     137413
L2C PREFETCH  ACCESS:    5977462  HIT:      40781  MISS:    5936681
L2C WRITEBACK ACCESS:    2117312  HIT:    2114787  MISS:       2525
L2C PREFETCH  REQUESTED:    8703227  ISSUED:    8703227  USEFUL:    7415229  USELESS:    1216060
LLC TOTAL     ACCESS:    6789026  HIT:    1252445  MISS:    5536581
LLC LOAD      ACCESS:     546869  HIT:     113810  MISS:     433059
LLC RFO       ACCESS:     137411  HIT:      45809  MISS:      91602
LLC PREFETCH  ACCESS:    5949117  HIT:     938494  MISS:    5010623
LLC WRITEBACK ACCESS:     155629  HIT:     154332  MISS:       1297
LLC PREFETCH  REQUESTED:          0  ISSUED:          0  USEFUL:      12508  USELESS:    7232101
Major fault: 0 Minor fault: 209023

L2C DA-AMPM prefetcher final stats

DRAM Statistics
 CHANNEL 0
 RQ ROW_BUFFER_HIT:    5320234  ROW_BUFFER_MISS:     215050
 DBUS_CONGESTED:    1521316
 WQ ROW_BUFFER_HIT:      39633  ROW_BUFFER_MISS:      49963  FULL:          0

 AVG_CONGESTED_CYCLE: 12
