
*** ChampSim Multicore Out-of-Order Simulator ***

Warmup Instructions: 200000000
Simulation Instructions: 1000000000
Number of CPUs: 1
LLC sets: 2048
LLC ways: 16
Off-chip DRAM Size: 4096 MB Channels: 1 Width: 64-bit Data Rate: 1600 MT/s

CPU 0 runs /scratch/user/djimenez/champsim-traces/speccpu2006/xz/437.leslie3d-134B.champsimtrace.xz
L2C Best-offset prefetcher
Heartbeat CPU 0 instructions: 10000000 cycles: 5002983 heartbeat IPC: 1.99881 cumulative IPC: 1.99881 (Simulation time: 0 hr 0 min 20 sec) 
Heartbeat CPU 0 instructions: 20000000 cycles: 9996385 heartbeat IPC: 2.00264 cumulative IPC: 2.00072 (Simulation time: 0 hr 0 min 41 sec) 
Heartbeat CPU 0 instructions: 30000000 cycles: 14984566 heartbeat IPC: 2.00474 cumulative IPC: 2.00206 (Simulation time: 0 hr 1 min 2 sec) 
Heartbeat CPU 0 instructions: 40000000 cycles: 19984210 heartbeat IPC: 2.00014 cumulative IPC: 2.00158 (Simulation time: 0 hr 1 min 23 sec) 
Heartbeat CPU 0 instructions: 50000003 cycles: 24985601 heartbeat IPC: 1.99944 cumulative IPC: 2.00115 (Simulation time: 0 hr 1 min 43 sec) 
Heartbeat CPU 0 instructions: 60000000 cycles: 29985037 heartbeat IPC: 2.00023 cumulative IPC: 2.001 (Simulation time: 0 hr 2 min 4 sec) 
Heartbeat CPU 0 instructions: 70000000 cycles: 34980873 heartbeat IPC: 2.00167 cumulative IPC: 2.00109 (Simulation time: 0 hr 2 min 25 sec) 
Heartbeat CPU 0 instructions: 80000000 cycles: 39966774 heartbeat IPC: 2.00566 cumulative IPC: 2.00166 (Simulation time: 0 hr 2 min 46 sec) 
Heartbeat CPU 0 instructions: 90000002 cycles: 44969482 heartbeat IPC: 1.99892 cumulative IPC: 2.00136 (Simulation time: 0 hr 3 min 6 sec) 
Heartbeat CPU 0 instructions: 100000000 cycles: 49970845 heartbeat IPC: 1.99945 cumulative IPC: 2.00117 (Simulation time: 0 hr 3 min 27 sec) 
Heartbeat CPU 0 instructions: 110000001 cycles: 54972599 heartbeat IPC: 1.9993 cumulative IPC: 2.001 (Simulation time: 0 hr 3 min 48 sec) 
Heartbeat CPU 0 instructions: 120000000 cycles: 59970088 heartbeat IPC: 2.001 cumulative IPC: 2.001 (Simulation time: 0 hr 4 min 9 sec) 
Heartbeat CPU 0 instructions: 130000002 cycles: 64952071 heartbeat IPC: 2.00723 cumulative IPC: 2.00148 (Simulation time: 0 hr 4 min 29 sec) 
Heartbeat CPU 0 instructions: 140000000 cycles: 69952772 heartbeat IPC: 1.99972 cumulative IPC: 2.00135 (Simulation time: 0 hr 4 min 50 sec) 
Heartbeat CPU 0 instructions: 150000002 cycles: 74981520 heartbeat IPC: 1.98857 cumulative IPC: 2.00049 (Simulation time: 0 hr 5 min 10 sec) 
Heartbeat CPU 0 instructions: 160000000 cycles: 79987994 heartbeat IPC: 1.99741 cumulative IPC: 2.0003 (Simulation time: 0 hr 5 min 30 sec) 
Heartbeat CPU 0 instructions: 170000001 cycles: 84996535 heartbeat IPC: 1.99659 cumulative IPC: 2.00008 (Simulation time: 0 hr 5 min 49 sec) 
Heartbeat CPU 0 instructions: 180000000 cycles: 90009049 heartbeat IPC: 1.99501 cumulative IPC: 1.9998 (Simulation time: 0 hr 6 min 9 sec) 
Heartbeat CPU 0 instructions: 190000003 cycles: 95014584 heartbeat IPC: 1.99779 cumulative IPC: 1.99969 (Simulation time: 0 hr 6 min 28 sec) 
Heartbeat CPU 0 instructions: 200000000 cycles: 100388846 heartbeat IPC: 1.86072 cumulative IPC: 1.99225 (Simulation time: 0 hr 6 min 50 sec) 

Warmup complete CPU 0 instructions: 200000002 cycles: 100388848 (Simulation time: 0 hr 6 min 50 sec) 

Heartbeat CPU 0 instructions: 210000003 cycles: 110338583 heartbeat IPC: 1.00505 cumulative IPC: 1.00505 (Simulation time: 0 hr 7 min 17 sec) 
Heartbeat CPU 0 instructions: 220000000 cycles: 119959292 heartbeat IPC: 1.03942 cumulative IPC: 1.02195 (Simulation time: 0 hr 7 min 42 sec) 
Heartbeat CPU 0 instructions: 230000002 cycles: 129400823 heartbeat IPC: 1.05915 cumulative IPC: 1.03406 (Simulation time: 0 hr 8 min 8 sec) 
Heartbeat CPU 0 instructions: 240000000 cycles: 138783940 heartbeat IPC: 1.06574 cumulative IPC: 1.0418 (Simulation time: 0 hr 8 min 33 sec) 
Heartbeat CPU 0 instructions: 250000002 cycles: 148154305 heartbeat IPC: 1.06719 cumulative IPC: 1.04678 (Simulation time: 0 hr 8 min 59 sec) 
Heartbeat CPU 0 instructions: 260000000 cycles: 157627605 heartbeat IPC: 1.0556 cumulative IPC: 1.04824 (Simulation time: 0 hr 9 min 24 sec) 
Heartbeat CPU 0 instructions: 270000000 cycles: 167053508 heartbeat IPC: 1.06091 cumulative IPC: 1.05003 (Simulation time: 0 hr 9 min 49 sec) 
Heartbeat CPU 0 instructions: 280000000 cycles: 176402323 heartbeat IPC: 1.06965 cumulative IPC: 1.05244 (Simulation time: 0 hr 10 min 15 sec) 
Heartbeat CPU 0 instructions: 290000002 cycles: 185694921 heartbeat IPC: 1.07613 cumulative IPC: 1.05502 (Simulation time: 0 hr 10 min 40 sec) 
Heartbeat CPU 0 instructions: 300000000 cycles: 195201883 heartbeat IPC: 1.05186 cumulative IPC: 1.05471 (Simulation time: 0 hr 11 min 4 sec) 
Heartbeat CPU 0 instructions: 310000001 cycles: 205015127 heartbeat IPC: 1.01903 cumulative IPC: 1.05136 (Simulation time: 0 hr 11 min 30 sec) 
Heartbeat CPU 0 instructions: 320000000 cycles: 216095197 heartbeat IPC: 0.902521 cumulative IPC: 1.03711 (Simulation time: 0 hr 11 min 59 sec) 
Heartbeat CPU 0 instructions: 330000003 cycles: 227111231 heartbeat IPC: 0.907768 cumulative IPC: 1.02586 (Simulation time: 0 hr 12 min 28 sec) 
Heartbeat CPU 0 instructions: 340000000 cycles: 238203315 heartbeat IPC: 0.901544 cumulative IPC: 1.01586 (Simulation time: 0 hr 12 min 58 sec) 
Heartbeat CPU 0 instructions: 350000001 cycles: 248473037 heartbeat IPC: 0.973736 cumulative IPC: 1.01294 (Simulation time: 0 hr 13 min 26 sec) 
Heartbeat CPU 0 instructions: 360000000 cycles: 257534809 heartbeat IPC: 1.10354 cumulative IPC: 1.01816 (Simulation time: 0 hr 13 min 52 sec) 
Heartbeat CPU 0 instructions: 370000003 cycles: 266569544 heartbeat IPC: 1.10684 cumulative IPC: 1.02298 (Simulation time: 0 hr 14 min 18 sec) 
Heartbeat CPU 0 instructions: 380000000 cycles: 275601221 heartbeat IPC: 1.10721 cumulative IPC: 1.02732 (Simulation time: 0 hr 14 min 44 sec) 
Heartbeat CPU 0 instructions: 390000003 cycles: 284636424 heartbeat IPC: 1.10678 cumulative IPC: 1.03122 (Simulation time: 0 hr 15 min 11 sec) 
Heartbeat CPU 0 instructions: 400000000 cycles: 293679049 heartbeat IPC: 1.10587 cumulative IPC: 1.03471 (Simulation time: 0 hr 15 min 37 sec) 
Heartbeat CPU 0 instructions: 410000003 cycles: 302723036 heartbeat IPC: 1.10571 cumulative IPC: 1.03789 (Simulation time: 0 hr 16 min 3 sec) 
Heartbeat CPU 0 instructions: 420000000 cycles: 311773262 heartbeat IPC: 1.10494 cumulative IPC: 1.04076 (Simulation time: 0 hr 16 min 29 sec) 
Heartbeat CPU 0 instructions: 430000001 cycles: 320814514 heartbeat IPC: 1.10604 cumulative IPC: 1.04344 (Simulation time: 0 hr 16 min 56 sec) 
Heartbeat CPU 0 instructions: 440000000 cycles: 329849482 heartbeat IPC: 1.10681 cumulative IPC: 1.04593 (Simulation time: 0 hr 17 min 22 sec) 
Heartbeat CPU 0 instructions: 450000000 cycles: 338882052 heartbeat IPC: 1.1071 cumulative IPC: 1.04825 (Simulation time: 0 hr 17 min 48 sec) 
Heartbeat CPU 0 instructions: 460000000 cycles: 347901451 heartbeat IPC: 1.10872 cumulative IPC: 1.05045 (Simulation time: 0 hr 18 min 14 sec) 
Heartbeat CPU 0 instructions: 470000000 cycles: 356927068 heartbeat IPC: 1.10796 cumulative IPC: 1.05247 (Simulation time: 0 hr 18 min 41 sec) 
Heartbeat CPU 0 instructions: 480000000 cycles: 365961431 heartbeat IPC: 1.10688 cumulative IPC: 1.05433 (Simulation time: 0 hr 19 min 7 sec) 
Heartbeat CPU 0 instructions: 490000001 cycles: 374995846 heartbeat IPC: 1.10688 cumulative IPC: 1.05605 (Simulation time: 0 hr 19 min 33 sec) 
Heartbeat CPU 0 instructions: 500000000 cycles: 384311396 heartbeat IPC: 1.07347 cumulative IPC: 1.05663 (Simulation time: 0 hr 19 min 59 sec) 
Heartbeat CPU 0 instructions: 510000002 cycles: 394014145 heartbeat IPC: 1.03064 cumulative IPC: 1.05577 (Simulation time: 0 hr 20 min 25 sec) 
Heartbeat CPU 0 instructions: 520000000 cycles: 403798085 heartbeat IPC: 1.02208 cumulative IPC: 1.05468 (Simulation time: 0 hr 20 min 52 sec) 
Heartbeat CPU 0 instructions: 530000001 cycles: 413638278 heartbeat IPC: 1.01624 cumulative IPC: 1.05347 (Simulation time: 0 hr 21 min 18 sec) 
Heartbeat CPU 0 instructions: 540000000 cycles: 423451845 heartbeat IPC: 1.019 cumulative IPC: 1.05243 (Simulation time: 0 hr 21 min 45 sec) 
Heartbeat CPU 0 instructions: 550000000 cycles: 433298732 heartbeat IPC: 1.01555 cumulative IPC: 1.05134 (Simulation time: 0 hr 22 min 12 sec) 
Heartbeat CPU 0 instructions: 560000000 cycles: 442816147 heartbeat IPC: 1.05071 cumulative IPC: 1.05132 (Simulation time: 0 hr 22 min 37 sec) 
Heartbeat CPU 0 instructions: 570000003 cycles: 451913947 heartbeat IPC: 1.09917 cumulative IPC: 1.05256 (Simulation time: 0 hr 23 min 2 sec) 
Heartbeat CPU 0 instructions: 580000000 cycles: 461168935 heartbeat IPC: 1.0805 cumulative IPC: 1.05327 (Simulation time: 0 hr 23 min 27 sec) 
Heartbeat CPU 0 instructions: 590000003 cycles: 471879178 heartbeat IPC: 0.933686 cumulative IPC: 1.04983 (Simulation time: 0 hr 23 min 55 sec) 
Heartbeat CPU 0 instructions: 600000000 cycles: 482905548 heartbeat IPC: 0.906916 cumulative IPC: 1.04571 (Simulation time: 0 hr 24 min 24 sec) 
Heartbeat CPU 0 instructions: 610000000 cycles: 493765091 heartbeat IPC: 0.920849 cumulative IPC: 1.04226 (Simulation time: 0 hr 24 min 52 sec) 
Heartbeat CPU 0 instructions: 620000000 cycles: 504501374 heartbeat IPC: 0.931421 cumulative IPC: 1.03931 (Simulation time: 0 hr 25 min 20 sec) 
Heartbeat CPU 0 instructions: 630000002 cycles: 513757896 heartbeat IPC: 1.08032 cumulative IPC: 1.04023 (Simulation time: 0 hr 25 min 47 sec) 
Heartbeat CPU 0 instructions: 640000000 cycles: 523033942 heartbeat IPC: 1.07805 cumulative IPC: 1.04106 (Simulation time: 0 hr 26 min 13 sec) 
Heartbeat CPU 0 instructions: 650000000 cycles: 532338569 heartbeat IPC: 1.07473 cumulative IPC: 1.04179 (Simulation time: 0 hr 26 min 40 sec) 
Heartbeat CPU 0 instructions: 660000000 cycles: 541673175 heartbeat IPC: 1.07128 cumulative IPC: 1.04241 (Simulation time: 0 hr 27 min 6 sec) 
Heartbeat CPU 0 instructions: 670000000 cycles: 550985376 heartbeat IPC: 1.07386 cumulative IPC: 1.04306 (Simulation time: 0 hr 27 min 33 sec) 
Heartbeat CPU 0 instructions: 680000000 cycles: 560287219 heartbeat IPC: 1.07506 cumulative IPC: 1.04371 (Simulation time: 0 hr 27 min 59 sec) 
Heartbeat CPU 0 instructions: 690000002 cycles: 569551448 heartbeat IPC: 1.07942 cumulative IPC: 1.04441 (Simulation time: 0 hr 28 min 26 sec) 
Heartbeat CPU 0 instructions: 700000000 cycles: 578817536 heartbeat IPC: 1.0792 cumulative IPC: 1.04509 (Simulation time: 0 hr 28 min 52 sec) 
Heartbeat CPU 0 instructions: 710000001 cycles: 588090828 heartbeat IPC: 1.07837 cumulative IPC: 1.04572 (Simulation time: 0 hr 29 min 19 sec) 
Heartbeat CPU 0 instructions: 720000000 cycles: 597380661 heartbeat IPC: 1.07645 cumulative IPC: 1.04629 (Simulation time: 0 hr 29 min 45 sec) 
Heartbeat CPU 0 instructions: 730000001 cycles: 606670638 heartbeat IPC: 1.07643 cumulative IPC: 1.04685 (Simulation time: 0 hr 30 min 12 sec) 
Heartbeat CPU 0 instructions: 740000000 cycles: 615951056 heartbeat IPC: 1.07754 cumulative IPC: 1.0474 (Simulation time: 0 hr 30 min 38 sec) 
Heartbeat CPU 0 instructions: 750000000 cycles: 625244214 heartbeat IPC: 1.07606 cumulative IPC: 1.04791 (Simulation time: 0 hr 31 min 5 sec) 
Heartbeat CPU 0 instructions: 760000000 cycles: 634554757 heartbeat IPC: 1.07405 cumulative IPC: 1.04836 (Simulation time: 0 hr 31 min 31 sec) 
Heartbeat CPU 0 instructions: 770000003 cycles: 644051904 heartbeat IPC: 1.05295 cumulative IPC: 1.04844 (Simulation time: 0 hr 31 min 58 sec) 
Heartbeat CPU 0 instructions: 780000000 cycles: 653974034 heartbeat IPC: 1.00785 cumulative IPC: 1.04772 (Simulation time: 0 hr 32 min 25 sec) 
Heartbeat CPU 0 instructions: 790000001 cycles: 663917584 heartbeat IPC: 1.00568 cumulative IPC: 1.04697 (Simulation time: 0 hr 32 min 51 sec) 
Heartbeat CPU 0 instructions: 800000000 cycles: 673846241 heartbeat IPC: 1.00719 cumulative IPC: 1.04629 (Simulation time: 0 hr 33 min 18 sec) 
Heartbeat CPU 0 instructions: 810000000 cycles: 683779088 heartbeat IPC: 1.00676 cumulative IPC: 1.04561 (Simulation time: 0 hr 33 min 45 sec) 
Heartbeat CPU 0 instructions: 820000000 cycles: 693583455 heartbeat IPC: 1.01995 cumulative IPC: 1.04519 (Simulation time: 0 hr 34 min 12 sec) 
Heartbeat CPU 0 instructions: 830000000 cycles: 703071221 heartbeat IPC: 1.05399 cumulative IPC: 1.04533 (Simulation time: 0 hr 34 min 37 sec) 
Heartbeat CPU 0 instructions: 840000000 cycles: 712308147 heartbeat IPC: 1.08261 cumulative IPC: 1.04589 (Simulation time: 0 hr 35 min 2 sec) 
Heartbeat CPU 0 instructions: 850000003 cycles: 723247762 heartbeat IPC: 0.914109 cumulative IPC: 1.04358 (Simulation time: 0 hr 35 min 30 sec) 
Heartbeat CPU 0 instructions: 860000000 cycles: 734141288 heartbeat IPC: 0.917976 cumulative IPC: 1.04142 (Simulation time: 0 hr 35 min 59 sec) 
Heartbeat CPU 0 instructions: 870000003 cycles: 745093246 heartbeat IPC: 0.913079 cumulative IPC: 1.03924 (Simulation time: 0 hr 36 min 28 sec) 
Heartbeat CPU 0 instructions: 880000000 cycles: 754644146 heartbeat IPC: 1.04702 cumulative IPC: 1.03935 (Simulation time: 0 hr 36 min 54 sec) 
Heartbeat CPU 0 instructions: 890000000 cycles: 763799570 heartbeat IPC: 1.09225 cumulative IPC: 1.04008 (Simulation time: 0 hr 37 min 20 sec) 
Heartbeat CPU 0 instructions: 900000000 cycles: 772979642 heartbeat IPC: 1.08932 cumulative IPC: 1.04075 (Simulation time: 0 hr 37 min 46 sec) 
Heartbeat CPU 0 instructions: 910000002 cycles: 782141957 heartbeat IPC: 1.09143 cumulative IPC: 1.04143 (Simulation time: 0 hr 38 min 13 sec) 
Heartbeat CPU 0 instructions: 920000000 cycles: 791313105 heartbeat IPC: 1.09038 cumulative IPC: 1.04208 (Simulation time: 0 hr 38 min 39 sec) 
Heartbeat CPU 0 instructions: 930000001 cycles: 800481824 heartbeat IPC: 1.09066 cumulative IPC: 1.04272 (Simulation time: 0 hr 39 min 5 sec) 
Heartbeat CPU 0 instructions: 940000000 cycles: 809637287 heartbeat IPC: 1.09224 cumulative IPC: 1.04336 (Simulation time: 0 hr 39 min 31 sec) 
Heartbeat CPU 0 instructions: 950000002 cycles: 818744255 heartbeat IPC: 1.09806 cumulative IPC: 1.04405 (Simulation time: 0 hr 39 min 57 sec) 
Heartbeat CPU 0 instructions: 960000000 cycles: 827882453 heartbeat IPC: 1.09431 cumulative IPC: 1.04468 (Simulation time: 0 hr 40 min 23 sec) 
Heartbeat CPU 0 instructions: 970000000 cycles: 837010537 heartbeat IPC: 1.09552 cumulative IPC: 1.04531 (Simulation time: 0 hr 40 min 50 sec) 
Heartbeat CPU 0 instructions: 980000000 cycles: 846187935 heartbeat IPC: 1.08963 cumulative IPC: 1.04586 (Simulation time: 0 hr 41 min 16 sec) 
Heartbeat CPU 0 instructions: 990000002 cycles: 855345472 heartbeat IPC: 1.092 cumulative IPC: 1.04642 (Simulation time: 0 hr 41 min 42 sec) 
Heartbeat CPU 0 instructions: 1000000000 cycles: 864518510 heartbeat IPC: 1.09015 cumulative IPC: 1.04694 (Simulation time: 0 hr 42 min 8 sec) 
Heartbeat CPU 0 instructions: 1010000000 cycles: 873677532 heartbeat IPC: 1.09182 cumulative IPC: 1.04747 (Simulation time: 0 hr 42 min 34 sec) 
Heartbeat CPU 0 instructions: 1020000000 cycles: 882830181 heartbeat IPC: 1.09258 cumulative IPC: 1.048 (Simulation time: 0 hr 43 min 0 sec) 
Heartbeat CPU 0 instructions: 1030000000 cycles: 893189646 heartbeat IPC: 0.965301 cumulative IPC: 1.04692 (Simulation time: 0 hr 43 min 27 sec) 
Heartbeat CPU 0 instructions: 1040000000 cycles: 904802561 heartbeat IPC: 0.86111 cumulative IPC: 1.04424 (Simulation time: 0 hr 43 min 53 sec) 
Heartbeat CPU 0 instructions: 1050000003 cycles: 916355391 heartbeat IPC: 0.865589 cumulative IPC: 1.04171 (Simulation time: 0 hr 44 min 20 sec) 
Heartbeat CPU 0 instructions: 1060000000 cycles: 927923247 heartbeat IPC: 0.864464 cumulative IPC: 1.03923 (Simulation time: 0 hr 44 min 47 sec) 
Heartbeat CPU 0 instructions: 1070000002 cycles: 939444684 heartbeat IPC: 0.867947 cumulative IPC: 1.03688 (Simulation time: 0 hr 45 min 13 sec) 
Heartbeat CPU 0 instructions: 1080000000 cycles: 952110902 heartbeat IPC: 0.789501 cumulative IPC: 1.0332 (Simulation time: 0 hr 45 min 42 sec) 
Heartbeat CPU 0 instructions: 1090000003 cycles: 961300019 heartbeat IPC: 1.08824 cumulative IPC: 1.03379 (Simulation time: 0 hr 46 min 8 sec) 
Heartbeat CPU 0 instructions: 1100000000 cycles: 970753645 heartbeat IPC: 1.05779 cumulative IPC: 1.03405 (Simulation time: 0 hr 46 min 33 sec) 
Heartbeat CPU 0 instructions: 1110000000 cycles: 980175055 heartbeat IPC: 1.06141 cumulative IPC: 1.03434 (Simulation time: 0 hr 46 min 59 sec) 
Heartbeat CPU 0 instructions: 1120000000 cycles: 989615920 heartbeat IPC: 1.05922 cumulative IPC: 1.03461 (Simulation time: 0 hr 47 min 24 sec) 
Heartbeat CPU 0 instructions: 1130000002 cycles: 998998739 heartbeat IPC: 1.06578 cumulative IPC: 1.03493 (Simulation time: 0 hr 47 min 49 sec) 
Heartbeat CPU 0 instructions: 1140000000 cycles: 1008315389 heartbeat IPC: 1.07335 cumulative IPC: 1.03533 (Simulation time: 0 hr 48 min 15 sec) 
Heartbeat CPU 0 instructions: 1150000001 cycles: 1017665497 heartbeat IPC: 1.06951 cumulative IPC: 1.03567 (Simulation time: 0 hr 48 min 40 sec) 
Heartbeat CPU 0 instructions: 1160000000 cycles: 1027045891 heartbeat IPC: 1.06605 cumulative IPC: 1.03598 (Simulation time: 0 hr 49 min 5 sec) 
Heartbeat CPU 0 instructions: 1170000000 cycles: 1036450488 heartbeat IPC: 1.06331 cumulative IPC: 1.03626 (Simulation time: 0 hr 49 min 30 sec) 
Heartbeat CPU 0 instructions: 1180000000 cycles: 1045845222 heartbeat IPC: 1.06443 cumulative IPC: 1.03654 (Simulation time: 0 hr 49 min 55 sec) 
Heartbeat CPU 0 instructions: 1190000002 cycles: 1056478942 heartbeat IPC: 0.940405 cumulative IPC: 1.03547 (Simulation time: 0 hr 50 min 23 sec) 
Heartbeat CPU 0 instructions: 1200000000 cycles: 1067467709 heartbeat IPC: 0.91002 cumulative IPC: 1.03404 (Simulation time: 0 hr 50 min 52 sec) 
Finished CPU 0 instructions: 1000000001 cycles: 967078879 cumulative IPC: 1.03404 (Simulation time: 0 hr 50 min 52 sec) 

CPU 0 Branch Prediction Accuracy: 99.1478% MPKI: 0.209453

ChampSim completed all CPUs

Region of Interest Statistics

CPU 0 cumulative IPC: 1.03404 instructions: 1000000001 cycles: 967078879
L1D TOTAL     ACCESS:  302893303  HIT:  292221854  MISS:   10671449
L1D LOAD      ACCESS:  276793228  HIT:  268882647  MISS:    7910581
L1D RFO       ACCESS:   26100075  HIT:   23339207  MISS:    2760868
L1D PREFETCH  ACCESS:          0  HIT:          0  MISS:          0
L1D WRITEBACK ACCESS:          0  HIT:          0  MISS:          0
L1D PREFETCH  REQUESTED:          0  ISSUED:          0  USEFUL:          0  USELESS:          0
L1I TOTAL     ACCESS:  233117022  HIT:  233115927  MISS:       1095
L1I LOAD      ACCESS:  233117022  HIT:  233115927  MISS:       1095
L1I RFO       ACCESS:          0  HIT:          0  MISS:          0
L1I PREFETCH  ACCESS:          0  HIT:          0  MISS:          0
L1I WRITEBACK ACCESS:          0  HIT:          0  MISS:          0
L1I PREFETCH  REQUESTED:          0  ISSUED:          0  USEFUL:          0  USELESS:          0
L2C TOTAL     ACCESS:   19563801  HIT:   11577523  MISS:    7986278
L2C LOAD      ACCESS:    7911638  HIT:    7203400  MISS:     708238
L2C RFO       ACCESS:    2760162  HIT:     807971  MISS:    1952191
L2C PREFETCH  ACCESS:    5368082  HIT:      45181  MISS:    5322901
L2C WRITEBACK ACCESS:    3523919  HIT:    3520971  MISS:       2948
L2C PREFETCH  REQUESTED:    7158635  ISSUED:    7158635  USEFUL:    6635144  USELESS:      97497
LLC TOTAL     ACCESS:   10429671  HIT:    3374098  MISS:    7055573
LLC LOAD      ACCESS:     395033  HIT:     120469  MISS:     274564
LLC RFO       ACCESS:    1952185  HIT:     141211  MISS:    1810974
LLC PREFETCH  ACCESS:    5664598  HIT:     699035  MISS:    4965563
LLC WRITEBACK ACCESS:    2417855  HIT:    2413383  MISS:       4472
LLC PREFETCH  REQUESTED:          0  ISSUED:          0  USEFUL:     162899  USELESS:    5813069
Major fault: 0 Minor fault: 19885

L2C Best-offset prefetcher final stats

DRAM Statistics
 CHANNEL 0
 RQ ROW_BUFFER_HIT:    5200383  ROW_BUFFER_MISS:    1850101
 DBUS_CONGESTED:    3669993
 WQ ROW_BUFFER_HIT:    1184993  ROW_BUFFER_MISS:    1102946  FULL:          0

 AVG_CONGESTED_CYCLE: 13
