
*** ChampSim Multicore Out-of-Order Simulator ***

Warmup Instructions: 200000000
Simulation Instructions: 1000000000
Number of CPUs: 1
LLC sets: 2048
LLC ways: 16
Off-chip DRAM Size: 4096 MB Channels: 1 Width: 64-bit Data Rate: 1600 MT/s

CPU 0 runs /scratch/user/djimenez/champsim-traces/speccpu2006/xz/459.GemsFDTD-1320B.champsimtrace.xz
L2C Best-offset prefetcher
Heartbeat CPU 0 instructions: 10000000 cycles: 6695906 heartbeat IPC: 1.49345 cumulative IPC: 1.49345 (Simulation time: 0 hr 0 min 27 sec) 
Heartbeat CPU 0 instructions: 20000000 cycles: 13438651 heartbeat IPC: 1.48308 cumulative IPC: 1.48824 (Simulation time: 0 hr 0 min 53 sec) 
Heartbeat CPU 0 instructions: 30000000 cycles: 20187695 heartbeat IPC: 1.48169 cumulative IPC: 1.48605 (Simulation time: 0 hr 1 min 20 sec) 
Heartbeat CPU 0 instructions: 40000000 cycles: 26912480 heartbeat IPC: 1.48704 cumulative IPC: 1.4863 (Simulation time: 0 hr 1 min 47 sec) 
Heartbeat CPU 0 instructions: 50000003 cycles: 33561984 heartbeat IPC: 1.50387 cumulative IPC: 1.48978 (Simulation time: 0 hr 2 min 14 sec) 
Heartbeat CPU 0 instructions: 60000000 cycles: 40146751 heartbeat IPC: 1.51866 cumulative IPC: 1.49452 (Simulation time: 0 hr 2 min 41 sec) 
Heartbeat CPU 0 instructions: 70000003 cycles: 46731866 heartbeat IPC: 1.51858 cumulative IPC: 1.49791 (Simulation time: 0 hr 3 min 8 sec) 
Heartbeat CPU 0 instructions: 80000000 cycles: 53396516 heartbeat IPC: 1.50045 cumulative IPC: 1.49823 (Simulation time: 0 hr 3 min 35 sec) 
Heartbeat CPU 0 instructions: 90000001 cycles: 60098193 heartbeat IPC: 1.49216 cumulative IPC: 1.49755 (Simulation time: 0 hr 4 min 2 sec) 
Heartbeat CPU 0 instructions: 100000000 cycles: 66846156 heartbeat IPC: 1.48193 cumulative IPC: 1.49597 (Simulation time: 0 hr 4 min 28 sec) 
Heartbeat CPU 0 instructions: 110000001 cycles: 73592325 heartbeat IPC: 1.48232 cumulative IPC: 1.49472 (Simulation time: 0 hr 4 min 55 sec) 
Heartbeat CPU 0 instructions: 120000000 cycles: 80316427 heartbeat IPC: 1.48719 cumulative IPC: 1.49409 (Simulation time: 0 hr 5 min 22 sec) 
Heartbeat CPU 0 instructions: 130000002 cycles: 84677440 heartbeat IPC: 2.29305 cumulative IPC: 1.53524 (Simulation time: 0 hr 5 min 42 sec) 
Heartbeat CPU 0 instructions: 140000000 cycles: 88374022 heartbeat IPC: 2.7052 cumulative IPC: 1.58418 (Simulation time: 0 hr 6 min 0 sec) 
Heartbeat CPU 0 instructions: 150000001 cycles: 92066507 heartbeat IPC: 2.7082 cumulative IPC: 1.62926 (Simulation time: 0 hr 6 min 18 sec) 
Heartbeat CPU 0 instructions: 160000000 cycles: 95760772 heartbeat IPC: 2.7069 cumulative IPC: 1.67083 (Simulation time: 0 hr 6 min 36 sec) 
Heartbeat CPU 0 instructions: 170000003 cycles: 99457188 heartbeat IPC: 2.70532 cumulative IPC: 1.70928 (Simulation time: 0 hr 6 min 54 sec) 
Heartbeat CPU 0 instructions: 180000000 cycles: 103150521 heartbeat IPC: 2.70758 cumulative IPC: 1.74502 (Simulation time: 0 hr 7 min 12 sec) 
Heartbeat CPU 0 instructions: 190000001 cycles: 106843703 heartbeat IPC: 2.70769 cumulative IPC: 1.7783 (Simulation time: 0 hr 7 min 30 sec) 
Heartbeat CPU 0 instructions: 200000000 cycles: 110537489 heartbeat IPC: 2.70725 cumulative IPC: 1.80934 (Simulation time: 0 hr 7 min 48 sec) 

Warmup complete CPU 0 instructions: 200000002 cycles: 110537490 (Simulation time: 0 hr 7 min 48 sec) 

Heartbeat CPU 0 instructions: 210000003 cycles: 121198096 heartbeat IPC: 0.938033 cumulative IPC: 0.938033 (Simulation time: 0 hr 8 min 15 sec) 
Heartbeat CPU 0 instructions: 220000000 cycles: 131806647 heartbeat IPC: 0.942636 cumulative IPC: 0.940329 (Simulation time: 0 hr 8 min 42 sec) 
Heartbeat CPU 0 instructions: 230000002 cycles: 142396762 heartbeat IPC: 0.944277 cumulative IPC: 0.941641 (Simulation time: 0 hr 9 min 9 sec) 
Heartbeat CPU 0 instructions: 240000000 cycles: 153021853 heartbeat IPC: 0.941168 cumulative IPC: 0.941523 (Simulation time: 0 hr 9 min 35 sec) 
Heartbeat CPU 0 instructions: 250000000 cycles: 163683114 heartbeat IPC: 0.937975 cumulative IPC: 0.940811 (Simulation time: 0 hr 10 min 2 sec) 
Heartbeat CPU 0 instructions: 260000000 cycles: 174283624 heartbeat IPC: 0.943351 cumulative IPC: 0.941234 (Simulation time: 0 hr 10 min 29 sec) 
Heartbeat CPU 0 instructions: 270000002 cycles: 184835179 heartbeat IPC: 0.947728 cumulative IPC: 0.942156 (Simulation time: 0 hr 10 min 56 sec) 
Heartbeat CPU 0 instructions: 280000000 cycles: 195501551 heartbeat IPC: 0.937526 cumulative IPC: 0.941575 (Simulation time: 0 hr 11 min 22 sec) 
Heartbeat CPU 0 instructions: 290000001 cycles: 206114857 heartbeat IPC: 0.942214 cumulative IPC: 0.941646 (Simulation time: 0 hr 11 min 49 sec) 
Heartbeat CPU 0 instructions: 300000000 cycles: 216708145 heartbeat IPC: 0.943994 cumulative IPC: 0.94188 (Simulation time: 0 hr 12 min 16 sec) 
Heartbeat CPU 0 instructions: 310000003 cycles: 227473295 heartbeat IPC: 0.928924 cumulative IPC: 0.940687 (Simulation time: 0 hr 12 min 43 sec) 
Heartbeat CPU 0 instructions: 320000000 cycles: 237970249 heartbeat IPC: 0.952657 cumulative IPC: 0.941673 (Simulation time: 0 hr 13 min 10 sec) 
Heartbeat CPU 0 instructions: 330000002 cycles: 248606971 heartbeat IPC: 0.940139 cumulative IPC: 0.941555 (Simulation time: 0 hr 13 min 36 sec) 
Heartbeat CPU 0 instructions: 340000000 cycles: 259198973 heartbeat IPC: 0.944108 cumulative IPC: 0.941737 (Simulation time: 0 hr 14 min 3 sec) 
Heartbeat CPU 0 instructions: 350000003 cycles: 269805271 heartbeat IPC: 0.942836 cumulative IPC: 0.94181 (Simulation time: 0 hr 14 min 30 sec) 
Heartbeat CPU 0 instructions: 360000000 cycles: 280377134 heartbeat IPC: 0.945907 cumulative IPC: 0.942065 (Simulation time: 0 hr 14 min 57 sec) 
Heartbeat CPU 0 instructions: 370000001 cycles: 290965307 heartbeat IPC: 0.94445 cumulative IPC: 0.942205 (Simulation time: 0 hr 15 min 23 sec) 
Heartbeat CPU 0 instructions: 380000000 cycles: 301533002 heartbeat IPC: 0.94628 cumulative IPC: 0.94243 (Simulation time: 0 hr 15 min 50 sec) 
Heartbeat CPU 0 instructions: 390000000 cycles: 312109354 heartbeat IPC: 0.945506 cumulative IPC: 0.942592 (Simulation time: 0 hr 16 min 17 sec) 
Heartbeat CPU 0 instructions: 400000000 cycles: 322731437 heartbeat IPC: 0.941435 cumulative IPC: 0.942534 (Simulation time: 0 hr 16 min 44 sec) 
Heartbeat CPU 0 instructions: 410000002 cycles: 333461411 heartbeat IPC: 0.931969 cumulative IPC: 0.942025 (Simulation time: 0 hr 17 min 11 sec) 
Heartbeat CPU 0 instructions: 420000000 cycles: 344039012 heartbeat IPC: 0.945394 cumulative IPC: 0.942178 (Simulation time: 0 hr 17 min 38 sec) 
Heartbeat CPU 0 instructions: 430000002 cycles: 354635763 heartbeat IPC: 0.943686 cumulative IPC: 0.942243 (Simulation time: 0 hr 18 min 4 sec) 
Heartbeat CPU 0 instructions: 440000000 cycles: 365273153 heartbeat IPC: 0.94008 cumulative IPC: 0.942153 (Simulation time: 0 hr 18 min 31 sec) 
Heartbeat CPU 0 instructions: 450000002 cycles: 375869484 heartbeat IPC: 0.943723 cumulative IPC: 0.942216 (Simulation time: 0 hr 18 min 58 sec) 
Heartbeat CPU 0 instructions: 460000000 cycles: 386408105 heartbeat IPC: 0.948891 cumulative IPC: 0.942471 (Simulation time: 0 hr 19 min 25 sec) 
Heartbeat CPU 0 instructions: 470000001 cycles: 397013410 heartbeat IPC: 0.942924 cumulative IPC: 0.942488 (Simulation time: 0 hr 19 min 51 sec) 
Heartbeat CPU 0 instructions: 480000000 cycles: 407653639 heartbeat IPC: 0.939829 cumulative IPC: 0.942392 (Simulation time: 0 hr 20 min 18 sec) 
Heartbeat CPU 0 instructions: 490000000 cycles: 418305380 heartbeat IPC: 0.938814 cumulative IPC: 0.942269 (Simulation time: 0 hr 20 min 45 sec) 
Heartbeat CPU 0 instructions: 500000000 cycles: 428967790 heartbeat IPC: 0.937874 cumulative IPC: 0.942121 (Simulation time: 0 hr 21 min 12 sec) 
Heartbeat CPU 0 instructions: 510000002 cycles: 439459174 heartbeat IPC: 0.953163 cumulative IPC: 0.942474 (Simulation time: 0 hr 21 min 39 sec) 
Heartbeat CPU 0 instructions: 520000000 cycles: 449756021 heartbeat IPC: 0.971171 cumulative IPC: 0.943345 (Simulation time: 0 hr 22 min 6 sec) 
Heartbeat CPU 0 instructions: 530000000 cycles: 459908686 heartbeat IPC: 0.984963 cumulative IPC: 0.944554 (Simulation time: 0 hr 22 min 33 sec) 
Heartbeat CPU 0 instructions: 540000000 cycles: 475428503 heartbeat IPC: 0.644337 cumulative IPC: 0.931785 (Simulation time: 0 hr 23 min 8 sec) 
Heartbeat CPU 0 instructions: 550000000 cycles: 492159805 heartbeat IPC: 0.597682 cumulative IPC: 0.917137 (Simulation time: 0 hr 23 min 46 sec) 
Heartbeat CPU 0 instructions: 560000000 cycles: 509223735 heartbeat IPC: 0.586031 cumulative IPC: 0.902966 (Simulation time: 0 hr 24 min 25 sec) 
Heartbeat CPU 0 instructions: 570000002 cycles: 526300856 heartbeat IPC: 0.585579 cumulative IPC: 0.889929 (Simulation time: 0 hr 25 min 3 sec) 
Heartbeat CPU 0 instructions: 580000000 cycles: 543366720 heartbeat IPC: 0.585965 cumulative IPC: 0.877944 (Simulation time: 0 hr 25 min 41 sec) 
Heartbeat CPU 0 instructions: 590000000 cycles: 560398300 heartbeat IPC: 0.587145 cumulative IPC: 0.866935 (Simulation time: 0 hr 26 min 19 sec) 
Heartbeat CPU 0 instructions: 600000000 cycles: 577459877 heartbeat IPC: 0.586112 cumulative IPC: 0.856673 (Simulation time: 0 hr 26 min 57 sec) 
Heartbeat CPU 0 instructions: 610000002 cycles: 594522872 heartbeat IPC: 0.586064 cumulative IPC: 0.847133 (Simulation time: 0 hr 27 min 36 sec) 
Heartbeat CPU 0 instructions: 620000000 cycles: 611596988 heartbeat IPC: 0.585682 cumulative IPC: 0.838224 (Simulation time: 0 hr 28 min 14 sec) 
Heartbeat CPU 0 instructions: 630000000 cycles: 628670018 heartbeat IPC: 0.585719 cumulative IPC: 0.829903 (Simulation time: 0 hr 28 min 52 sec) 
Heartbeat CPU 0 instructions: 640000000 cycles: 645726333 heartbeat IPC: 0.586293 cumulative IPC: 0.82214 (Simulation time: 0 hr 29 min 30 sec) 
Heartbeat CPU 0 instructions: 650000000 cycles: 662784457 heartbeat IPC: 0.586231 cumulative IPC: 0.814853 (Simulation time: 0 hr 30 min 9 sec) 
Heartbeat CPU 0 instructions: 660000000 cycles: 679821396 heartbeat IPC: 0.58696 cumulative IPC: 0.808033 (Simulation time: 0 hr 30 min 47 sec) 
Heartbeat CPU 0 instructions: 670000001 cycles: 696465285 heartbeat IPC: 0.600821 cumulative IPC: 0.802147 (Simulation time: 0 hr 31 min 25 sec) 
Heartbeat CPU 0 instructions: 680000000 cycles: 725077955 heartbeat IPC: 0.349496 cumulative IPC: 0.781071 (Simulation time: 0 hr 32 min 8 sec) 
Heartbeat CPU 0 instructions: 690000000 cycles: 741601231 heartbeat IPC: 0.605207 cumulative IPC: 0.776467 (Simulation time: 0 hr 32 min 46 sec) 
Heartbeat CPU 0 instructions: 700000000 cycles: 758372264 heartbeat IPC: 0.596266 cumulative IPC: 0.771802 (Simulation time: 0 hr 33 min 24 sec) 
Heartbeat CPU 0 instructions: 710000000 cycles: 775305650 heartbeat IPC: 0.590549 cumulative IPC: 0.767185 (Simulation time: 0 hr 34 min 2 sec) 
Heartbeat CPU 0 instructions: 720000000 cycles: 792223008 heartbeat IPC: 0.591109 cumulative IPC: 0.762815 (Simulation time: 0 hr 34 min 40 sec) 
Heartbeat CPU 0 instructions: 730000003 cycles: 809152816 heartbeat IPC: 0.590674 cumulative IPC: 0.758644 (Simulation time: 0 hr 35 min 18 sec) 
Heartbeat CPU 0 instructions: 740000000 cycles: 826073386 heartbeat IPC: 0.590996 cumulative IPC: 0.754679 (Simulation time: 0 hr 35 min 56 sec) 
Heartbeat CPU 0 instructions: 750000003 cycles: 843014458 heartbeat IPC: 0.590282 cumulative IPC: 0.750877 (Simulation time: 0 hr 36 min 34 sec) 
Heartbeat CPU 0 instructions: 760000000 cycles: 859956988 heartbeat IPC: 0.59023 cumulative IPC: 0.747245 (Simulation time: 0 hr 37 min 13 sec) 
Heartbeat CPU 0 instructions: 770000000 cycles: 876890543 heartbeat IPC: 0.590543 cumulative IPC: 0.743783 (Simulation time: 0 hr 37 min 51 sec) 
Heartbeat CPU 0 instructions: 780000000 cycles: 893835154 heartbeat IPC: 0.590158 cumulative IPC: 0.740459 (Simulation time: 0 hr 38 min 29 sec) 
Heartbeat CPU 0 instructions: 790000000 cycles: 910774065 heartbeat IPC: 0.590357 cumulative IPC: 0.737282 (Simulation time: 0 hr 39 min 7 sec) 
Heartbeat CPU 0 instructions: 800000000 cycles: 927714309 heartbeat IPC: 0.59031 cumulative IPC: 0.734235 (Simulation time: 0 hr 39 min 45 sec) 
Heartbeat CPU 0 instructions: 810000002 cycles: 944534268 heartbeat IPC: 0.594532 cumulative IPC: 0.731418 (Simulation time: 0 hr 40 min 23 sec) 
Heartbeat CPU 0 instructions: 820000000 cycles: 961080661 heartbeat IPC: 0.604361 cumulative IPC: 0.728946 (Simulation time: 0 hr 41 min 1 sec) 
Heartbeat CPU 0 instructions: 830000001 cycles: 975643849 heartbeat IPC: 0.686663 cumulative IPC: 0.728234 (Simulation time: 0 hr 41 min 37 sec) 
Heartbeat CPU 0 instructions: 840000000 cycles: 989645140 heartbeat IPC: 0.71422 cumulative IPC: 0.728011 (Simulation time: 0 hr 42 min 14 sec) 
Heartbeat CPU 0 instructions: 850000000 cycles: 1003622545 heartbeat IPC: 0.71544 cumulative IPC: 0.727814 (Simulation time: 0 hr 42 min 50 sec) 
Heartbeat CPU 0 instructions: 860000000 cycles: 1017580517 heartbeat IPC: 0.716436 cumulative IPC: 0.727639 (Simulation time: 0 hr 43 min 26 sec) 
Heartbeat CPU 0 instructions: 870000003 cycles: 1031581598 heartbeat IPC: 0.714231 cumulative IPC: 0.727435 (Simulation time: 0 hr 44 min 2 sec) 
Heartbeat CPU 0 instructions: 880000000 cycles: 1045612972 heartbeat IPC: 0.712688 cumulative IPC: 0.727214 (Simulation time: 0 hr 44 min 38 sec) 
Heartbeat CPU 0 instructions: 890000000 cycles: 1059643293 heartbeat IPC: 0.712742 cumulative IPC: 0.727 (Simulation time: 0 hr 45 min 14 sec) 
Heartbeat CPU 0 instructions: 900000000 cycles: 1073652954 heartbeat IPC: 0.713793 cumulative IPC: 0.726808 (Simulation time: 0 hr 45 min 51 sec) 
Heartbeat CPU 0 instructions: 910000000 cycles: 1087596432 heartbeat IPC: 0.717181 cumulative IPC: 0.726671 (Simulation time: 0 hr 46 min 27 sec) 
Heartbeat CPU 0 instructions: 920000000 cycles: 1101648011 heartbeat IPC: 0.711664 cumulative IPC: 0.726458 (Simulation time: 0 hr 47 min 3 sec) 
Heartbeat CPU 0 instructions: 930000001 cycles: 1115640709 heartbeat IPC: 0.714659 cumulative IPC: 0.726294 (Simulation time: 0 hr 47 min 39 sec) 
Heartbeat CPU 0 instructions: 940000000 cycles: 1129639654 heartbeat IPC: 0.714339 cumulative IPC: 0.726129 (Simulation time: 0 hr 48 min 15 sec) 
Heartbeat CPU 0 instructions: 950000001 cycles: 1142816537 heartbeat IPC: 0.758905 cumulative IPC: 0.726548 (Simulation time: 0 hr 48 min 50 sec) 
Heartbeat CPU 0 instructions: 960000000 cycles: 1156803120 heartbeat IPC: 0.714971 cumulative IPC: 0.726393 (Simulation time: 0 hr 49 min 26 sec) 
Heartbeat CPU 0 instructions: 970000003 cycles: 1170766520 heartbeat IPC: 0.716158 cumulative IPC: 0.726258 (Simulation time: 0 hr 50 min 2 sec) 
Heartbeat CPU 0 instructions: 980000000 cycles: 1184712772 heartbeat IPC: 0.717038 cumulative IPC: 0.726138 (Simulation time: 0 hr 50 min 39 sec) 
Heartbeat CPU 0 instructions: 990000002 cycles: 1198775948 heartbeat IPC: 0.711077 cumulative IPC: 0.725944 (Simulation time: 0 hr 51 min 15 sec) 
Heartbeat CPU 0 instructions: 1000000000 cycles: 1212736509 heartbeat IPC: 0.716303 cumulative IPC: 0.725822 (Simulation time: 0 hr 51 min 51 sec) 
Heartbeat CPU 0 instructions: 1010000000 cycles: 1226731512 heartbeat IPC: 0.714541 cumulative IPC: 0.72568 (Simulation time: 0 hr 52 min 27 sec) 
Heartbeat CPU 0 instructions: 1020000000 cycles: 1240666589 heartbeat IPC: 0.717614 cumulative IPC: 0.725581 (Simulation time: 0 hr 53 min 3 sec) 
Heartbeat CPU 0 instructions: 1030000002 cycles: 1254655360 heartbeat IPC: 0.714859 cumulative IPC: 0.72545 (Simulation time: 0 hr 53 min 39 sec) 
Heartbeat CPU 0 instructions: 1040000000 cycles: 1268608291 heartbeat IPC: 0.716695 cumulative IPC: 0.725344 (Simulation time: 0 hr 54 min 15 sec) 
Heartbeat CPU 0 instructions: 1050000001 cycles: 1282532209 heartbeat IPC: 0.718189 cumulative IPC: 0.725259 (Simulation time: 0 hr 54 min 51 sec) 
Heartbeat CPU 0 instructions: 1060000000 cycles: 1296550020 heartbeat IPC: 0.713378 cumulative IPC: 0.725119 (Simulation time: 0 hr 55 min 27 sec) 
Heartbeat CPU 0 instructions: 1070000001 cycles: 1310602442 heartbeat IPC: 0.711621 cumulative IPC: 0.724961 (Simulation time: 0 hr 56 min 3 sec) 
Heartbeat CPU 0 instructions: 1080000000 cycles: 1324660359 heartbeat IPC: 0.711343 cumulative IPC: 0.724803 (Simulation time: 0 hr 56 min 40 sec) 
Heartbeat CPU 0 instructions: 1090000001 cycles: 1338614360 heartbeat IPC: 0.71664 cumulative IPC: 0.72471 (Simulation time: 0 hr 57 min 16 sec) 
Heartbeat CPU 0 instructions: 1100000000 cycles: 1352665870 heartbeat IPC: 0.711667 cumulative IPC: 0.724563 (Simulation time: 0 hr 57 min 52 sec) 
Heartbeat CPU 0 instructions: 1110000001 cycles: 1366672573 heartbeat IPC: 0.713944 cumulative IPC: 0.724444 (Simulation time: 0 hr 58 min 29 sec) 
Heartbeat CPU 0 instructions: 1120000000 cycles: 1380746651 heartbeat IPC: 0.710526 cumulative IPC: 0.72429 (Simulation time: 0 hr 59 min 5 sec) 
Heartbeat CPU 0 instructions: 1130000001 cycles: 1394877077 heartbeat IPC: 0.707693 cumulative IPC: 0.724108 (Simulation time: 0 hr 59 min 41 sec) 
Heartbeat CPU 0 instructions: 1140000000 cycles: 1408994042 heartbeat IPC: 0.708367 cumulative IPC: 0.723936 (Simulation time: 1 hr 0 min 18 sec) 
Heartbeat CPU 0 instructions: 1150000000 cycles: 1423097883 heartbeat IPC: 0.709027 cumulative IPC: 0.723776 (Simulation time: 1 hr 0 min 54 sec) 
Heartbeat CPU 0 instructions: 1160000000 cycles: 1437059592 heartbeat IPC: 0.716245 cumulative IPC: 0.723697 (Simulation time: 1 hr 1 min 30 sec) 
Heartbeat CPU 0 instructions: 1170000000 cycles: 1451220572 heartbeat IPC: 0.706166 cumulative IPC: 0.723512 (Simulation time: 1 hr 2 min 7 sec) 
Heartbeat CPU 0 instructions: 1180000000 cycles: 1464420908 heartbeat IPC: 0.757556 cumulative IPC: 0.723844 (Simulation time: 1 hr 2 min 42 sec) 
Heartbeat CPU 0 instructions: 1190000001 cycles: 1478494638 heartbeat IPC: 0.710544 cumulative IPC: 0.723707 (Simulation time: 1 hr 3 min 18 sec) 
Heartbeat CPU 0 instructions: 1200000000 cycles: 1492545193 heartbeat IPC: 0.711716 cumulative IPC: 0.723585 (Simulation time: 1 hr 3 min 54 sec) 
Finished CPU 0 instructions: 1000000000 cycles: 1382007732 cumulative IPC: 0.723585 (Simulation time: 1 hr 3 min 54 sec) 

CPU 0 Branch Prediction Accuracy: 99.5857% MPKI: 0.046273

ChampSim completed all CPUs

Region of Interest Statistics

CPU 0 cumulative IPC: 0.723585 instructions: 1000000000 cycles: 1382007732
L1D TOTAL     ACCESS:  488196024  HIT:  474337592  MISS:   13858432
L1D LOAD      ACCESS:  420949566  HIT:  407091679  MISS:   13857887
L1D RFO       ACCESS:   67246458  HIT:   67245913  MISS:        545
L1D PREFETCH  ACCESS:          0  HIT:          0  MISS:          0
L1D WRITEBACK ACCESS:          0  HIT:          0  MISS:          0
L1D PREFETCH  REQUESTED:          0  ISSUED:          0  USEFUL:          0  USELESS:          0
L1I TOTAL     ACCESS:  249865708  HIT:  249865421  MISS:        287
L1I LOAD      ACCESS:  249865708  HIT:  249865421  MISS:        287
L1I RFO       ACCESS:          0  HIT:          0  MISS:          0
L1I PREFETCH  ACCESS:          0  HIT:          0  MISS:          0
L1I WRITEBACK ACCESS:          0  HIT:          0  MISS:          0
L1I PREFETCH  REQUESTED:          0  ISSUED:          0  USEFUL:          0  USELESS:          0
L2C TOTAL     ACCESS:   31061237  HIT:   16629933  MISS:   14431304
L2C LOAD      ACCESS:   13857226  HIT:   10898656  MISS:    2958570
L2C RFO       ACCESS:        446  HIT:        410  MISS:         36
L2C PREFETCH  ACCESS:   11535938  HIT:      64097  MISS:   11471841
L2C WRITEBACK ACCESS:    5667627  HIT:    5666770  MISS:        857
L2C PREFETCH  REQUESTED:   14887344  ISSUED:   14887344  USEFUL:   11740823  USELESS:    1977914
LLC TOTAL     ACCESS:   20301111  HIT:    6762543  MISS:   13538568
LLC LOAD      ACCESS:    2203511  HIT:     463344  MISS:    1740167
LLC RFO       ACCESS:         36  HIT:          6  MISS:         30
LLC PREFETCH  ACCESS:   12456961  HIT:     659177  MISS:   11797784
LLC WRITEBACK ACCESS:    5640603  HIT:    5640016  MISS:        587
LLC PREFETCH  REQUESTED:          0  ISSUED:          0  USEFUL:     339318  USELESS:   13476131
Major fault: 0 Minor fault: 174019

L2C Best-offset prefetcher final stats

DRAM Statistics
 CHANNEL 0
 RQ ROW_BUFFER_HIT:    8835205  ROW_BUFFER_MISS:    4702776
 DBUS_CONGESTED:   10605951
 WQ ROW_BUFFER_HIT:    2048610  ROW_BUFFER_MISS:    3585942  FULL:          0

 AVG_CONGESTED_CYCLE: 13
