
*** ChampSim Multicore Out-of-Order Simulator ***

Warmup Instructions: 200000000
Simulation Instructions: 1000000000
Number of CPUs: 1
LLC sets: 2048
LLC ways: 16
Off-chip DRAM Size: 4096 MB Channels: 1 Width: 64-bit Data Rate: 1600 MT/s

CPU 0 runs /scratch/user/djimenez/champsim-traces/speccpu2006/xz/464.h264ref-30B.champsimtrace.xz
L2C Best-offset prefetcher
Heartbeat CPU 0 instructions: 10000001 cycles: 6203262 heartbeat IPC: 1.61206 cumulative IPC: 1.61206 (Simulation time: 0 hr 0 min 22 sec) 
Heartbeat CPU 0 instructions: 20000000 cycles: 12349394 heartbeat IPC: 1.62704 cumulative IPC: 1.61951 (Simulation time: 0 hr 0 min 45 sec) 
Heartbeat CPU 0 instructions: 30000001 cycles: 17559595 heartbeat IPC: 1.91931 cumulative IPC: 1.70847 (Simulation time: 0 hr 1 min 4 sec) 
Heartbeat CPU 0 instructions: 40000000 cycles: 22634656 heartbeat IPC: 1.97042 cumulative IPC: 1.7672 (Simulation time: 0 hr 1 min 22 sec) 
Heartbeat CPU 0 instructions: 50000002 cycles: 27666905 heartbeat IPC: 1.98718 cumulative IPC: 1.80721 (Simulation time: 0 hr 1 min 41 sec) 
Heartbeat CPU 0 instructions: 60000000 cycles: 32649409 heartbeat IPC: 2.00702 cumulative IPC: 1.83771 (Simulation time: 0 hr 2 min 0 sec) 
Heartbeat CPU 0 instructions: 70000003 cycles: 37634088 heartbeat IPC: 2.00615 cumulative IPC: 1.86002 (Simulation time: 0 hr 2 min 20 sec) 
Heartbeat CPU 0 instructions: 80000000 cycles: 42582495 heartbeat IPC: 2.02085 cumulative IPC: 1.87871 (Simulation time: 0 hr 2 min 39 sec) 
Heartbeat CPU 0 instructions: 90000002 cycles: 47613224 heartbeat IPC: 1.98778 cumulative IPC: 1.89023 (Simulation time: 0 hr 2 min 57 sec) 
Heartbeat CPU 0 instructions: 100000000 cycles: 52659641 heartbeat IPC: 1.9816 cumulative IPC: 1.89899 (Simulation time: 0 hr 3 min 15 sec) 
Heartbeat CPU 0 instructions: 110000001 cycles: 57602334 heartbeat IPC: 2.02319 cumulative IPC: 1.90964 (Simulation time: 0 hr 3 min 34 sec) 
Heartbeat CPU 0 instructions: 120000000 cycles: 62544707 heartbeat IPC: 2.02332 cumulative IPC: 1.91863 (Simulation time: 0 hr 3 min 53 sec) 
Heartbeat CPU 0 instructions: 130000001 cycles: 67189864 heartbeat IPC: 2.15278 cumulative IPC: 1.93482 (Simulation time: 0 hr 4 min 11 sec) 
Heartbeat CPU 0 instructions: 140000000 cycles: 71869615 heartbeat IPC: 2.13687 cumulative IPC: 1.94797 (Simulation time: 0 hr 4 min 29 sec) 
Heartbeat CPU 0 instructions: 150000000 cycles: 77942110 heartbeat IPC: 1.64677 cumulative IPC: 1.92451 (Simulation time: 0 hr 4 min 50 sec) 
Heartbeat CPU 0 instructions: 160000000 cycles: 84132538 heartbeat IPC: 1.6154 cumulative IPC: 1.90176 (Simulation time: 0 hr 5 min 12 sec) 
Heartbeat CPU 0 instructions: 170000002 cycles: 89710089 heartbeat IPC: 1.7929 cumulative IPC: 1.89499 (Simulation time: 0 hr 5 min 33 sec) 
Heartbeat CPU 0 instructions: 180000000 cycles: 94587310 heartbeat IPC: 2.05035 cumulative IPC: 1.903 (Simulation time: 0 hr 5 min 51 sec) 
Heartbeat CPU 0 instructions: 190000000 cycles: 100405708 heartbeat IPC: 1.71869 cumulative IPC: 1.89232 (Simulation time: 0 hr 6 min 11 sec) 
Heartbeat CPU 0 instructions: 200000000 cycles: 106623465 heartbeat IPC: 1.6083 cumulative IPC: 1.87576 (Simulation time: 0 hr 6 min 33 sec) 

Warmup complete CPU 0 instructions: 200000001 cycles: 106623466 (Simulation time: 0 hr 6 min 33 sec) 

Heartbeat CPU 0 instructions: 210000002 cycles: 118218977 heartbeat IPC: 0.862403 cumulative IPC: 0.862403 (Simulation time: 0 hr 7 min 0 sec) 
Heartbeat CPU 0 instructions: 220000000 cycles: 131891203 heartbeat IPC: 0.73141 cumulative IPC: 0.791523 (Simulation time: 0 hr 7 min 27 sec) 
Heartbeat CPU 0 instructions: 230000000 cycles: 144396569 heartbeat IPC: 0.799657 cumulative IPC: 0.794216 (Simulation time: 0 hr 7 min 53 sec) 
Heartbeat CPU 0 instructions: 240000000 cycles: 154647325 heartbeat IPC: 0.975538 cumulative IPC: 0.832919 (Simulation time: 0 hr 8 min 18 sec) 
Heartbeat CPU 0 instructions: 250000001 cycles: 165784233 heartbeat IPC: 0.897915 cumulative IPC: 0.845155 (Simulation time: 0 hr 8 min 44 sec) 
Heartbeat CPU 0 instructions: 260000000 cycles: 179613687 heartbeat IPC: 0.723094 cumulative IPC: 0.822028 (Simulation time: 0 hr 9 min 12 sec) 
Heartbeat CPU 0 instructions: 270000001 cycles: 192611195 heartbeat IPC: 0.769378 cumulative IPC: 0.81407 (Simulation time: 0 hr 9 min 38 sec) 
Heartbeat CPU 0 instructions: 280000000 cycles: 202773002 heartbeat IPC: 0.984077 cumulative IPC: 0.832037 (Simulation time: 0 hr 10 min 4 sec) 
Heartbeat CPU 0 instructions: 290000000 cycles: 213409412 heartbeat IPC: 0.940167 cumulative IPC: 0.842808 (Simulation time: 0 hr 10 min 29 sec) 
Heartbeat CPU 0 instructions: 300000000 cycles: 227421802 heartbeat IPC: 0.713654 cumulative IPC: 0.827826 (Simulation time: 0 hr 10 min 57 sec) 
Heartbeat CPU 0 instructions: 310000000 cycles: 241272449 heartbeat IPC: 0.721988 cumulative IPC: 0.816939 (Simulation time: 0 hr 11 min 23 sec) 
Heartbeat CPU 0 instructions: 320000000 cycles: 251465758 heartbeat IPC: 0.981036 cumulative IPC: 0.828487 (Simulation time: 0 hr 11 min 48 sec) 
Heartbeat CPU 0 instructions: 330000002 cycles: 261669029 heartbeat IPC: 0.980078 cumulative IPC: 0.838463 (Simulation time: 0 hr 12 min 14 sec) 
Heartbeat CPU 0 instructions: 340000000 cycles: 275530746 heartbeat IPC: 0.721411 cumulative IPC: 0.828857 (Simulation time: 0 hr 12 min 41 sec) 
Heartbeat CPU 0 instructions: 350000000 cycles: 289693668 heartbeat IPC: 0.706069 cumulative IPC: 0.819358 (Simulation time: 0 hr 13 min 7 sec) 
Heartbeat CPU 0 instructions: 360000000 cycles: 300348622 heartbeat IPC: 0.938531 cumulative IPC: 0.825912 (Simulation time: 0 hr 13 min 33 sec) 
Heartbeat CPU 0 instructions: 370000003 cycles: 310531584 heartbeat IPC: 0.982033 cumulative IPC: 0.833709 (Simulation time: 0 hr 13 min 59 sec) 
Heartbeat CPU 0 instructions: 380000000 cycles: 323639196 heartbeat IPC: 0.762915 cumulative IPC: 0.829433 (Simulation time: 0 hr 14 min 26 sec) 
Heartbeat CPU 0 instructions: 390000002 cycles: 337746619 heartbeat IPC: 0.708847 cumulative IPC: 0.822073 (Simulation time: 0 hr 14 min 53 sec) 
Heartbeat CPU 0 instructions: 400000000 cycles: 349328359 heartbeat IPC: 0.863428 cumulative IPC: 0.824046 (Simulation time: 0 hr 15 min 18 sec) 
Heartbeat CPU 0 instructions: 410000001 cycles: 359504665 heartbeat IPC: 0.982675 cumulative IPC: 0.830429 (Simulation time: 0 hr 15 min 44 sec) 
Heartbeat CPU 0 instructions: 420000000 cycles: 371903739 heartbeat IPC: 0.806512 cumulative IPC: 0.829312 (Simulation time: 0 hr 16 min 11 sec) 
Heartbeat CPU 0 instructions: 430000000 cycles: 386030651 heartbeat IPC: 0.707869 cumulative IPC: 0.823171 (Simulation time: 0 hr 16 min 38 sec) 
Heartbeat CPU 0 instructions: 440000000 cycles: 398641546 heartbeat IPC: 0.792965 cumulative IPC: 0.821867 (Simulation time: 0 hr 17 min 3 sec) 
Heartbeat CPU 0 instructions: 450000002 cycles: 408816095 heartbeat IPC: 0.982845 cumulative IPC: 0.827287 (Simulation time: 0 hr 17 min 29 sec) 
Heartbeat CPU 0 instructions: 460000000 cycles: 420023919 heartbeat IPC: 0.892234 cumulative IPC: 0.82961 (Simulation time: 0 hr 17 min 55 sec) 
Heartbeat CPU 0 instructions: 470000002 cycles: 433785426 heartbeat IPC: 0.726665 cumulative IPC: 0.825279 (Simulation time: 0 hr 18 min 22 sec) 
Heartbeat CPU 0 instructions: 480000000 cycles: 446559542 heartbeat IPC: 0.782833 cumulative IPC: 0.823684 (Simulation time: 0 hr 18 min 49 sec) 
Heartbeat CPU 0 instructions: 490000001 cycles: 456558961 heartbeat IPC: 1.00006 cumulative IPC: 0.828724 (Simulation time: 0 hr 19 min 14 sec) 
Heartbeat CPU 0 instructions: 500000000 cycles: 467238895 heartbeat IPC: 0.936335 cumulative IPC: 0.831911 (Simulation time: 0 hr 19 min 40 sec) 
Heartbeat CPU 0 instructions: 510000002 cycles: 480909841 heartbeat IPC: 0.731478 cumulative IPC: 0.828243 (Simulation time: 0 hr 20 min 8 sec) 
Heartbeat CPU 0 instructions: 520000000 cycles: 493142120 heartbeat IPC: 0.817509 cumulative IPC: 0.827903 (Simulation time: 0 hr 20 min 32 sec) 
Heartbeat CPU 0 instructions: 530000002 cycles: 501183443 heartbeat IPC: 1.24358 cumulative IPC: 0.836375 (Simulation time: 0 hr 20 min 55 sec) 
Heartbeat CPU 0 instructions: 540000000 cycles: 509233173 heartbeat IPC: 1.24228 cumulative IPC: 0.84449 (Simulation time: 0 hr 21 min 17 sec) 
Heartbeat CPU 0 instructions: 550000003 cycles: 517325711 heartbeat IPC: 1.23571 cumulative IPC: 0.852199 (Simulation time: 0 hr 21 min 39 sec) 
Heartbeat CPU 0 instructions: 560000000 cycles: 531029404 heartbeat IPC: 0.72973 cumulative IPC: 0.848244 (Simulation time: 0 hr 22 min 7 sec) 
Heartbeat CPU 0 instructions: 570000003 cycles: 544114439 heartbeat IPC: 0.764232 cumulative IPC: 0.845732 (Simulation time: 0 hr 22 min 33 sec) 
Heartbeat CPU 0 instructions: 580000000 cycles: 552139782 heartbeat IPC: 1.24605 cumulative IPC: 0.852943 (Simulation time: 0 hr 22 min 55 sec) 
Heartbeat CPU 0 instructions: 590000000 cycles: 560140651 heartbeat IPC: 1.24986 cumulative IPC: 0.859945 (Simulation time: 0 hr 23 min 18 sec) 
Heartbeat CPU 0 instructions: 600000000 cycles: 568127642 heartbeat IPC: 1.25204 cumulative IPC: 0.866731 (Simulation time: 0 hr 23 min 40 sec) 
Heartbeat CPU 0 instructions: 610000003 cycles: 579587295 heartbeat IPC: 0.872627 cumulative IPC: 0.866874 (Simulation time: 0 hr 24 min 5 sec) 
Heartbeat CPU 0 instructions: 620000000 cycles: 592272350 heartbeat IPC: 0.788329 cumulative IPC: 0.864822 (Simulation time: 0 hr 24 min 31 sec) 
Heartbeat CPU 0 instructions: 630000001 cycles: 602596711 heartbeat IPC: 0.968583 cumulative IPC: 0.866982 (Simulation time: 0 hr 24 min 56 sec) 
Heartbeat CPU 0 instructions: 640000000 cycles: 612687184 heartbeat IPC: 0.991034 cumulative IPC: 0.869456 (Simulation time: 0 hr 25 min 22 sec) 
Heartbeat CPU 0 instructions: 650000000 cycles: 625303293 heartbeat IPC: 0.792637 cumulative IPC: 0.867587 (Simulation time: 0 hr 25 min 49 sec) 
Heartbeat CPU 0 instructions: 660000000 cycles: 637848579 heartbeat IPC: 0.797112 cumulative IPC: 0.865923 (Simulation time: 0 hr 26 min 15 sec) 
Heartbeat CPU 0 instructions: 670000000 cycles: 649822961 heartbeat IPC: 0.835116 cumulative IPC: 0.865244 (Simulation time: 0 hr 26 min 41 sec) 
Heartbeat CPU 0 instructions: 680000000 cycles: 659910963 heartbeat IPC: 0.991277 cumulative IPC: 0.867542 (Simulation time: 0 hr 27 min 6 sec) 
Heartbeat CPU 0 instructions: 690000000 cycles: 671096886 heartbeat IPC: 0.893981 cumulative IPC: 0.868066 (Simulation time: 0 hr 27 min 33 sec) 
Heartbeat CPU 0 instructions: 700000000 cycles: 684619124 heartbeat IPC: 0.739523 cumulative IPC: 0.865058 (Simulation time: 0 hr 27 min 59 sec) 
Heartbeat CPU 0 instructions: 710000001 cycles: 697769998 heartbeat IPC: 0.760406 cumulative IPC: 0.86273 (Simulation time: 0 hr 28 min 26 sec) 
Heartbeat CPU 0 instructions: 720000000 cycles: 707928412 heartbeat IPC: 0.984406 cumulative IPC: 0.864786 (Simulation time: 0 hr 28 min 52 sec) 
Heartbeat CPU 0 instructions: 730000002 cycles: 717998138 heartbeat IPC: 0.993076 cumulative IPC: 0.866899 (Simulation time: 0 hr 29 min 17 sec) 
Heartbeat CPU 0 instructions: 740000000 cycles: 731929925 heartbeat IPC: 0.717783 cumulative IPC: 0.863577 (Simulation time: 0 hr 29 min 45 sec) 
Heartbeat CPU 0 instructions: 750000002 cycles: 745602322 heartbeat IPC: 0.731401 cumulative IPC: 0.860748 (Simulation time: 0 hr 30 min 12 sec) 
Heartbeat CPU 0 instructions: 760000000 cycles: 755724519 heartbeat IPC: 0.987928 cumulative IPC: 0.862732 (Simulation time: 0 hr 30 min 38 sec) 
Heartbeat CPU 0 instructions: 770000003 cycles: 765894747 heartbeat IPC: 0.983262 cumulative IPC: 0.864591 (Simulation time: 0 hr 31 min 4 sec) 
Heartbeat CPU 0 instructions: 780000000 cycles: 779533644 heartbeat IPC: 0.733197 cumulative IPC: 0.861928 (Simulation time: 0 hr 31 min 31 sec) 
Heartbeat CPU 0 instructions: 790000000 cycles: 793648769 heartbeat IPC: 0.70846 cumulative IPC: 0.858775 (Simulation time: 0 hr 31 min 58 sec) 
Heartbeat CPU 0 instructions: 800000000 cycles: 804200615 heartbeat IPC: 0.947701 cumulative IPC: 0.86012 (Simulation time: 0 hr 32 min 24 sec) 
Heartbeat CPU 0 instructions: 810000000 cycles: 814324698 heartbeat IPC: 0.987744 cumulative IPC: 0.861946 (Simulation time: 0 hr 32 min 49 sec) 
Heartbeat CPU 0 instructions: 820000000 cycles: 827398288 heartbeat IPC: 0.764901 cumulative IPC: 0.860185 (Simulation time: 0 hr 33 min 17 sec) 
Heartbeat CPU 0 instructions: 830000002 cycles: 841441668 heartbeat IPC: 0.712079 cumulative IPC: 0.857355 (Simulation time: 0 hr 33 min 43 sec) 
Heartbeat CPU 0 instructions: 840000000 cycles: 852904179 heartbeat IPC: 0.872409 cumulative IPC: 0.857586 (Simulation time: 0 hr 34 min 10 sec) 
Heartbeat CPU 0 instructions: 850000001 cycles: 863027001 heartbeat IPC: 0.987867 cumulative IPC: 0.85933 (Simulation time: 0 hr 34 min 35 sec) 
Heartbeat CPU 0 instructions: 860000000 cycles: 875291992 heartbeat IPC: 0.815329 cumulative IPC: 0.858628 (Simulation time: 0 hr 35 min 3 sec) 
Heartbeat CPU 0 instructions: 870000000 cycles: 889280152 heartbeat IPC: 0.71489 cumulative IPC: 0.856059 (Simulation time: 0 hr 35 min 30 sec) 
Heartbeat CPU 0 instructions: 880000000 cycles: 901369673 heartbeat IPC: 0.827163 cumulative IPC: 0.855619 (Simulation time: 0 hr 35 min 56 sec) 
Heartbeat CPU 0 instructions: 890000000 cycles: 911442354 heartbeat IPC: 0.992784 cumulative IPC: 0.857336 (Simulation time: 0 hr 36 min 22 sec) 
Heartbeat CPU 0 instructions: 900000000 cycles: 923009331 heartbeat IPC: 0.86453 cumulative IPC: 0.857438 (Simulation time: 0 hr 36 min 48 sec) 
Heartbeat CPU 0 instructions: 910000000 cycles: 936860486 heartbeat IPC: 0.721961 cumulative IPC: 0.855177 (Simulation time: 0 hr 37 min 16 sec) 
Heartbeat CPU 0 instructions: 920000000 cycles: 949656502 heartbeat IPC: 0.781493 cumulative IPC: 0.854059 (Simulation time: 0 hr 37 min 42 sec) 
Heartbeat CPU 0 instructions: 930000000 cycles: 959805128 heartbeat IPC: 0.985355 cumulative IPC: 0.855621 (Simulation time: 0 hr 38 min 8 sec) 
Heartbeat CPU 0 instructions: 940000000 cycles: 970535484 heartbeat IPC: 0.931936 cumulative IPC: 0.856569 (Simulation time: 0 hr 38 min 34 sec) 
Heartbeat CPU 0 instructions: 950000000 cycles: 984343816 heartbeat IPC: 0.7242 cumulative IPC: 0.854486 (Simulation time: 0 hr 39 min 1 sec) 
Heartbeat CPU 0 instructions: 960000000 cycles: 997595860 heartbeat IPC: 0.754601 cumulative IPC: 0.853001 (Simulation time: 0 hr 39 min 28 sec) 
Heartbeat CPU 0 instructions: 970000000 cycles: 1007665859 heartbeat IPC: 0.993049 cumulative IPC: 0.854566 (Simulation time: 0 hr 39 min 53 sec) 
Heartbeat CPU 0 instructions: 980000000 cycles: 1017697787 heartbeat IPC: 0.996817 cumulative IPC: 0.856132 (Simulation time: 0 hr 40 min 19 sec) 
Heartbeat CPU 0 instructions: 990000002 cycles: 1031715992 heartbeat IPC: 0.713358 cumulative IPC: 0.853969 (Simulation time: 0 hr 40 min 46 sec) 
Heartbeat CPU 0 instructions: 1000000000 cycles: 1045634972 heartbeat IPC: 0.718443 cumulative IPC: 0.85196 (Simulation time: 0 hr 41 min 13 sec) 
Heartbeat CPU 0 instructions: 1010000000 cycles: 1053721260 heartbeat IPC: 1.23666 cumulative IPC: 0.855244 (Simulation time: 0 hr 41 min 35 sec) 
Heartbeat CPU 0 instructions: 1020000000 cycles: 1061797393 heartbeat IPC: 1.23822 cumulative IPC: 0.858482 (Simulation time: 0 hr 41 min 57 sec) 
Heartbeat CPU 0 instructions: 1030000002 cycles: 1069879641 heartbeat IPC: 1.23728 cumulative IPC: 0.861661 (Simulation time: 0 hr 42 min 20 sec) 
Heartbeat CPU 0 instructions: 1040000000 cycles: 1081912241 heartbeat IPC: 0.831075 cumulative IPC: 0.861283 (Simulation time: 0 hr 42 min 46 sec) 
Heartbeat CPU 0 instructions: 1050000001 cycles: 1095767450 heartbeat IPC: 0.72175 cumulative IPC: 0.859329 (Simulation time: 0 hr 43 min 13 sec) 
Heartbeat CPU 0 instructions: 1060000000 cycles: 1105128744 heartbeat IPC: 1.06823 cumulative IPC: 0.861287 (Simulation time: 0 hr 43 min 36 sec) 
Heartbeat CPU 0 instructions: 1070000001 cycles: 1113139576 heartbeat IPC: 1.24831 cumulative IPC: 0.864368 (Simulation time: 0 hr 43 min 57 sec) 
Heartbeat CPU 0 instructions: 1080000000 cycles: 1121148864 heartbeat IPC: 1.24855 cumulative IPC: 0.867401 (Simulation time: 0 hr 44 min 19 sec) 
Heartbeat CPU 0 instructions: 1090000003 cycles: 1130417689 heartbeat IPC: 1.07889 cumulative IPC: 0.869315 (Simulation time: 0 hr 44 min 43 sec) 
Heartbeat CPU 0 instructions: 1100000000 cycles: 1142745526 heartbeat IPC: 0.811172 cumulative IPC: 0.868624 (Simulation time: 0 hr 45 min 8 sec) 
Heartbeat CPU 0 instructions: 1110000000 cycles: 1154075681 heartbeat IPC: 0.8826 cumulative IPC: 0.868775 (Simulation time: 0 hr 45 min 33 sec) 
Heartbeat CPU 0 instructions: 1120000000 cycles: 1163704244 heartbeat IPC: 1.03858 cumulative IPC: 0.870321 (Simulation time: 0 hr 45 min 58 sec) 
Heartbeat CPU 0 instructions: 1130000001 cycles: 1173758901 heartbeat IPC: 0.994564 cumulative IPC: 0.871492 (Simulation time: 0 hr 46 min 22 sec) 
Heartbeat CPU 0 instructions: 1140000000 cycles: 1186678653 heartbeat IPC: 0.774009 cumulative IPC: 0.870326 (Simulation time: 0 hr 46 min 49 sec) 
Heartbeat CPU 0 instructions: 1150000001 cycles: 1199462696 heartbeat IPC: 0.782225 cumulative IPC: 0.869295 (Simulation time: 0 hr 47 min 15 sec) 
Heartbeat CPU 0 instructions: 1160000000 cycles: 1209997968 heartbeat IPC: 0.949192 cumulative IPC: 0.870058 (Simulation time: 0 hr 47 min 40 sec) 
Heartbeat CPU 0 instructions: 1170000000 cycles: 1219558951 heartbeat IPC: 1.04592 cumulative IPC: 0.871569 (Simulation time: 0 hr 48 min 4 sec) 
Heartbeat CPU 0 instructions: 1180000000 cycles: 1230279541 heartbeat IPC: 0.932784 cumulative IPC: 0.872153 (Simulation time: 0 hr 48 min 29 sec) 
Heartbeat CPU 0 instructions: 1190000003 cycles: 1243087077 heartbeat IPC: 0.780791 cumulative IPC: 0.871123 (Simulation time: 0 hr 48 min 55 sec) 
Heartbeat CPU 0 instructions: 1200000000 cycles: 1255696447 heartbeat IPC: 0.793061 cumulative IPC: 0.870267 (Simulation time: 0 hr 49 min 21 sec) 
Finished CPU 0 instructions: 1000000001 cycles: 1149073009 cumulative IPC: 0.870267 (Simulation time: 0 hr 49 min 21 sec) 

CPU 0 Branch Prediction Accuracy: 97.8143% MPKI: 1.55838

ChampSim completed all CPUs

Region of Interest Statistics

CPU 0 cumulative IPC: 0.870267 instructions: 1000000001 cycles: 1149073009
L1D TOTAL     ACCESS:  288643092  HIT:  285769042  MISS:    2874050
L1D LOAD      ACCESS:  217458751  HIT:  215326827  MISS:    2131924
L1D RFO       ACCESS:   71184341  HIT:   70442215  MISS:     742126
L1D PREFETCH  ACCESS:          0  HIT:          0  MISS:          0
L1D WRITEBACK ACCESS:          0  HIT:          0  MISS:          0
L1D PREFETCH  REQUESTED:          0  ISSUED:          0  USEFUL:          0  USELESS:          0
L1I TOTAL     ACCESS:  245197969  HIT:  245127624  MISS:      70345
L1I LOAD      ACCESS:  245197969  HIT:  245127624  MISS:      70345
L1I RFO       ACCESS:          0  HIT:          0  MISS:          0
L1I PREFETCH  ACCESS:          0  HIT:          0  MISS:          0
L1I WRITEBACK ACCESS:          0  HIT:          0  MISS:          0
L1I PREFETCH  REQUESTED:          0  ISSUED:          0  USEFUL:          0  USELESS:          0
L2C TOTAL     ACCESS:    4639939  HIT:    2700782  MISS:    1939157
L2C LOAD      ACCESS:    2202254  HIT:    1825482  MISS:     376772
L2C RFO       ACCESS:     742111  HIT:      57485  MISS:     684626
L2C PREFETCH  ACCESS:     928461  HIT:      53169  MISS:     875292
L2C WRITEBACK ACCESS:     767113  HIT:     764646  MISS:       2467
L2C PREFETCH  REQUESTED:    1209222  ISSUED:    1209170  USEFUL:     820677  USELESS:     221793
LLC TOTAL     ACCESS:    2637114  HIT:    1895687  MISS:     741427
LLC LOAD      ACCESS:     292317  HIT:     214344  MISS:      77973
LLC RFO       ACCESS:     683796  HIT:     360043  MISS:     323753
LLC PREFETCH  ACCESS:     961437  HIT:     622497  MISS:     338940
LLC WRITEBACK ACCESS:     699564  HIT:     698803  MISS:        761
LLC PREFETCH  REQUESTED:          0  ISSUED:          0  USEFUL:     195903  USELESS:     189420
Major fault: 0 Minor fault: 1987

L2C Best-offset prefetcher final stats

DRAM Statistics
 CHANNEL 0
 RQ ROW_BUFFER_HIT:     505963  ROW_BUFFER_MISS:     233732
 DBUS_CONGESTED:     509220
 WQ ROW_BUFFER_HIT:     155400  ROW_BUFFER_MISS:     317638  FULL:          0

 AVG_CONGESTED_CYCLE: 14
