
*** ChampSim Multicore Out-of-Order Simulator ***

Warmup Instructions: 200000000
Simulation Instructions: 1000000000
Number of CPUs: 1
LLC sets: 8192
LLC ways: 16
Off-chip DRAM Size: 4096 MB Channels: 1 Width: 64-bit Data Rate: 1600 MT/s

CPU 0 runs /scratch/user/djimenez/champsim-traces/speccpu2017/xz/600.perlbench_s/600.perlbench_s-210B.champsimtrace.xz
Heartbeat CPU 0 instructions: 10000002 cycles: 5617605 heartbeat IPC: 1.78012 cumulative IPC: 1.78012 (Simulation time: 0 hr 0 min 19 sec) 
Heartbeat CPU 0 instructions: 20000000 cycles: 11504036 heartbeat IPC: 1.69882 cumulative IPC: 1.73852 (Simulation time: 0 hr 0 min 40 sec) 
Heartbeat CPU 0 instructions: 30000002 cycles: 17393536 heartbeat IPC: 1.69794 cumulative IPC: 1.72478 (Simulation time: 0 hr 1 min 1 sec) 
Heartbeat CPU 0 instructions: 40000000 cycles: 23282947 heartbeat IPC: 1.69796 cumulative IPC: 1.718 (Simulation time: 0 hr 1 min 21 sec) 
Heartbeat CPU 0 instructions: 50000002 cycles: 29195916 heartbeat IPC: 1.6912 cumulative IPC: 1.71257 (Simulation time: 0 hr 1 min 41 sec) 
Heartbeat CPU 0 instructions: 60000000 cycles: 35006661 heartbeat IPC: 1.72095 cumulative IPC: 1.71396 (Simulation time: 0 hr 2 min 2 sec) 
Heartbeat CPU 0 instructions: 70000001 cycles: 40868857 heartbeat IPC: 1.70585 cumulative IPC: 1.7128 (Simulation time: 0 hr 2 min 24 sec) 
Heartbeat CPU 0 instructions: 80000000 cycles: 46738846 heartbeat IPC: 1.70358 cumulative IPC: 1.71164 (Simulation time: 0 hr 2 min 47 sec) 
Heartbeat CPU 0 instructions: 90000000 cycles: 52394927 heartbeat IPC: 1.76801 cumulative IPC: 1.71772 (Simulation time: 0 hr 3 min 6 sec) 
Heartbeat CPU 0 instructions: 100000000 cycles: 58242550 heartbeat IPC: 1.7101 cumulative IPC: 1.71696 (Simulation time: 0 hr 3 min 27 sec) 
Heartbeat CPU 0 instructions: 110000003 cycles: 64091332 heartbeat IPC: 1.70976 cumulative IPC: 1.7163 (Simulation time: 0 hr 3 min 49 sec) 
Heartbeat CPU 0 instructions: 120000000 cycles: 70023042 heartbeat IPC: 1.68585 cumulative IPC: 1.71372 (Simulation time: 0 hr 4 min 13 sec) 
Heartbeat CPU 0 instructions: 130000003 cycles: 75853124 heartbeat IPC: 1.71524 cumulative IPC: 1.71384 (Simulation time: 0 hr 4 min 33 sec) 
Heartbeat CPU 0 instructions: 140000000 cycles: 81671957 heartbeat IPC: 1.71856 cumulative IPC: 1.71417 (Simulation time: 0 hr 4 min 53 sec) 
Heartbeat CPU 0 instructions: 150000002 cycles: 87450461 heartbeat IPC: 1.73055 cumulative IPC: 1.71526 (Simulation time: 0 hr 5 min 13 sec) 
Heartbeat CPU 0 instructions: 160000000 cycles: 93348135 heartbeat IPC: 1.69558 cumulative IPC: 1.71401 (Simulation time: 0 hr 5 min 34 sec) 
Heartbeat CPU 0 instructions: 170000001 cycles: 99187579 heartbeat IPC: 1.71249 cumulative IPC: 1.71392 (Simulation time: 0 hr 5 min 54 sec) 
Heartbeat CPU 0 instructions: 180000000 cycles: 105005430 heartbeat IPC: 1.71885 cumulative IPC: 1.7142 (Simulation time: 0 hr 6 min 16 sec) 
Heartbeat CPU 0 instructions: 190000002 cycles: 110904808 heartbeat IPC: 1.69509 cumulative IPC: 1.71318 (Simulation time: 0 hr 6 min 40 sec) 
Heartbeat CPU 0 instructions: 200000000 cycles: 116874727 heartbeat IPC: 1.67506 cumulative IPC: 1.71123 (Simulation time: 0 hr 7 min 0 sec) 

Warmup complete CPU 0 instructions: 200000001 cycles: 116874728 (Simulation time: 0 hr 7 min 0 sec) 

Heartbeat CPU 0 instructions: 210000000 cycles: 131645580 heartbeat IPC: 0.677009 cumulative IPC: 0.677009 (Simulation time: 0 hr 7 min 28 sec) 
Heartbeat CPU 0 instructions: 220000000 cycles: 146347459 heartbeat IPC: 0.680185 cumulative IPC: 0.678593 (Simulation time: 0 hr 7 min 57 sec) 
Heartbeat CPU 0 instructions: 230000000 cycles: 161243268 heartbeat IPC: 0.67133 cumulative IPC: 0.676155 (Simulation time: 0 hr 8 min 26 sec) 
Heartbeat CPU 0 instructions: 240000000 cycles: 175746795 heartbeat IPC: 0.689487 cumulative IPC: 0.679439 (Simulation time: 0 hr 8 min 54 sec) 
Heartbeat CPU 0 instructions: 250000002 cycles: 187079978 heartbeat IPC: 0.882365 cumulative IPC: 0.712197 (Simulation time: 0 hr 9 min 22 sec) 
Heartbeat CPU 0 instructions: 260000000 cycles: 201504276 heartbeat IPC: 0.693274 cumulative IPC: 0.708972 (Simulation time: 0 hr 9 min 50 sec) 
Heartbeat CPU 0 instructions: 270000000 cycles: 215260480 heartbeat IPC: 0.726945 cumulative IPC: 0.711485 (Simulation time: 0 hr 10 min 19 sec) 
Heartbeat CPU 0 instructions: 280000000 cycles: 228267259 heartbeat IPC: 0.76883 cumulative IPC: 0.718181 (Simulation time: 0 hr 10 min 47 sec) 
Heartbeat CPU 0 instructions: 290000000 cycles: 242687338 heartbeat IPC: 0.693477 cumulative IPC: 0.71535 (Simulation time: 0 hr 11 min 15 sec) 
Heartbeat CPU 0 instructions: 300000000 cycles: 257842126 heartbeat IPC: 0.659857 cumulative IPC: 0.709384 (Simulation time: 0 hr 11 min 44 sec) 
Heartbeat CPU 0 instructions: 310000001 cycles: 272419081 heartbeat IPC: 0.686014 cumulative IPC: 0.707194 (Simulation time: 0 hr 12 min 12 sec) 
Heartbeat CPU 0 instructions: 320000000 cycles: 286255067 heartbeat IPC: 0.722753 cumulative IPC: 0.708465 (Simulation time: 0 hr 12 min 41 sec) 
Heartbeat CPU 0 instructions: 330000002 cycles: 298074404 heartbeat IPC: 0.846071 cumulative IPC: 0.717441 (Simulation time: 0 hr 13 min 9 sec) 
Heartbeat CPU 0 instructions: 340000000 cycles: 310778889 heartbeat IPC: 0.787123 cumulative IPC: 0.722006 (Simulation time: 0 hr 13 min 37 sec) 
Heartbeat CPU 0 instructions: 350000003 cycles: 323316975 heartbeat IPC: 0.79757 cumulative IPC: 0.726595 (Simulation time: 0 hr 14 min 5 sec) 
Heartbeat CPU 0 instructions: 360000000 cycles: 337759985 heartbeat IPC: 0.692376 cumulative IPC: 0.724358 (Simulation time: 0 hr 14 min 33 sec) 
Heartbeat CPU 0 instructions: 370000002 cycles: 350654902 heartbeat IPC: 0.7755 cumulative IPC: 0.727179 (Simulation time: 0 hr 15 min 3 sec) 
Heartbeat CPU 0 instructions: 380000000 cycles: 364371961 heartbeat IPC: 0.729019 cumulative IPC: 0.727281 (Simulation time: 0 hr 15 min 32 sec) 
Heartbeat CPU 0 instructions: 390000003 cycles: 379279252 heartbeat IPC: 0.670813 cumulative IPC: 0.724073 (Simulation time: 0 hr 16 min 0 sec) 
Heartbeat CPU 0 instructions: 400000000 cycles: 394075658 heartbeat IPC: 0.67584 cumulative IPC: 0.721498 (Simulation time: 0 hr 16 min 29 sec) 
Heartbeat CPU 0 instructions: 410000000 cycles: 407895204 heartbeat IPC: 0.723613 cumulative IPC: 0.721599 (Simulation time: 0 hr 16 min 58 sec) 
Heartbeat CPU 0 instructions: 420000000 cycles: 421121868 heartbeat IPC: 0.756049 cumulative IPC: 0.723096 (Simulation time: 0 hr 17 min 25 sec) 
Heartbeat CPU 0 instructions: 430000001 cycles: 433257323 heartbeat IPC: 0.824032 cumulative IPC: 0.726968 (Simulation time: 0 hr 17 min 53 sec) 
Heartbeat CPU 0 instructions: 440000000 cycles: 447227290 heartbeat IPC: 0.715821 cumulative IPC: 0.726497 (Simulation time: 0 hr 18 min 22 sec) 
Heartbeat CPU 0 instructions: 450000001 cycles: 459059710 heartbeat IPC: 0.845136 cumulative IPC: 0.730599 (Simulation time: 0 hr 18 min 51 sec) 
Heartbeat CPU 0 instructions: 460000000 cycles: 473062691 heartbeat IPC: 0.714134 cumulative IPC: 0.729952 (Simulation time: 0 hr 19 min 20 sec) 
Heartbeat CPU 0 instructions: 470000000 cycles: 491529575 heartbeat IPC: 0.54151 cumulative IPC: 0.720663 (Simulation time: 0 hr 19 min 50 sec) 
Heartbeat CPU 0 instructions: 480000000 cycles: 510088266 heartbeat IPC: 0.538831 cumulative IPC: 0.712081 (Simulation time: 0 hr 20 min 21 sec) 
Heartbeat CPU 0 instructions: 490000000 cycles: 522879381 heartbeat IPC: 0.781793 cumulative IPC: 0.714278 (Simulation time: 0 hr 20 min 49 sec) 
Heartbeat CPU 0 instructions: 500000000 cycles: 538189428 heartbeat IPC: 0.653166 cumulative IPC: 0.712057 (Simulation time: 0 hr 21 min 20 sec) 
Heartbeat CPU 0 instructions: 510000001 cycles: 555518603 heartbeat IPC: 0.577062 cumulative IPC: 0.706724 (Simulation time: 0 hr 21 min 49 sec) 
Heartbeat CPU 0 instructions: 520000000 cycles: 580104353 heartbeat IPC: 0.40674 cumulative IPC: 0.690802 (Simulation time: 0 hr 22 min 21 sec) 
Heartbeat CPU 0 instructions: 530000001 cycles: 603353201 heartbeat IPC: 0.430129 cumulative IPC: 0.678344 (Simulation time: 0 hr 22 min 55 sec) 
Heartbeat CPU 0 instructions: 540000000 cycles: 625426687 heartbeat IPC: 0.453032 cumulative IPC: 0.668565 (Simulation time: 0 hr 23 min 25 sec) 
Heartbeat CPU 0 instructions: 550000002 cycles: 650225136 heartbeat IPC: 0.403251 cumulative IPC: 0.656229 (Simulation time: 0 hr 23 min 57 sec) 
Heartbeat CPU 0 instructions: 560000000 cycles: 664088936 heartbeat IPC: 0.721303 cumulative IPC: 0.657878 (Simulation time: 0 hr 24 min 25 sec) 
Heartbeat CPU 0 instructions: 570000000 cycles: 677079054 heartbeat IPC: 0.769816 cumulative IPC: 0.660473 (Simulation time: 0 hr 24 min 54 sec) 
Heartbeat CPU 0 instructions: 580000000 cycles: 691574929 heartbeat IPC: 0.689851 cumulative IPC: 0.661214 (Simulation time: 0 hr 25 min 23 sec) 
Heartbeat CPU 0 instructions: 590000002 cycles: 705765002 heartbeat IPC: 0.704718 cumulative IPC: 0.662263 (Simulation time: 0 hr 25 min 52 sec) 
Heartbeat CPU 0 instructions: 600000000 cycles: 724377166 heartbeat IPC: 0.537283 cumulative IPC: 0.658434 (Simulation time: 0 hr 26 min 21 sec) 
Heartbeat CPU 0 instructions: 610000000 cycles: 747703158 heartbeat IPC: 0.428706 cumulative IPC: 0.649939 (Simulation time: 0 hr 26 min 52 sec) 
Heartbeat CPU 0 instructions: 620000000 cycles: 771748829 heartbeat IPC: 0.415875 cumulative IPC: 0.641345 (Simulation time: 0 hr 27 min 22 sec) 
Heartbeat CPU 0 instructions: 630000001 cycles: 788658939 heartbeat IPC: 0.591362 cumulative IPC: 0.640086 (Simulation time: 0 hr 27 min 52 sec) 
Heartbeat CPU 0 instructions: 640000000 cycles: 806895823 heartbeat IPC: 0.548339 cumulative IPC: 0.637662 (Simulation time: 0 hr 28 min 22 sec) 
Heartbeat CPU 0 instructions: 650000000 cycles: 831187581 heartbeat IPC: 0.411662 cumulative IPC: 0.629976 (Simulation time: 0 hr 28 min 52 sec) 
Heartbeat CPU 0 instructions: 660000000 cycles: 851692873 heartbeat IPC: 0.487679 cumulative IPC: 0.626005 (Simulation time: 0 hr 29 min 22 sec) 
Heartbeat CPU 0 instructions: 670000000 cycles: 866756283 heartbeat IPC: 0.66386 cumulative IPC: 0.626766 (Simulation time: 0 hr 29 min 51 sec) 
Heartbeat CPU 0 instructions: 680000000 cycles: 889788118 heartbeat IPC: 0.434182 cumulative IPC: 0.621027 (Simulation time: 0 hr 30 min 21 sec) 
Heartbeat CPU 0 instructions: 690000002 cycles: 911789744 heartbeat IPC: 0.454512 cumulative IPC: 0.616418 (Simulation time: 0 hr 30 min 52 sec) 
Heartbeat CPU 0 instructions: 700000000 cycles: 926245373 heartbeat IPC: 0.691772 cumulative IPC: 0.617764 (Simulation time: 0 hr 31 min 20 sec) 
Heartbeat CPU 0 instructions: 710000001 cycles: 939257464 heartbeat IPC: 0.768516 cumulative IPC: 0.620149 (Simulation time: 0 hr 31 min 48 sec) 
Heartbeat CPU 0 instructions: 720000000 cycles: 951734851 heartbeat IPC: 0.80145 cumulative IPC: 0.622859 (Simulation time: 0 hr 32 min 15 sec) 
Heartbeat CPU 0 instructions: 730000000 cycles: 963375912 heartbeat IPC: 0.859028 cumulative IPC: 0.626107 (Simulation time: 0 hr 32 min 44 sec) 
Heartbeat CPU 0 instructions: 740000000 cycles: 975593526 heartbeat IPC: 0.81849 cumulative IPC: 0.628844 (Simulation time: 0 hr 33 min 12 sec) 
Heartbeat CPU 0 instructions: 750000001 cycles: 989370190 heartbeat IPC: 0.725865 cumulative IPC: 0.630376 (Simulation time: 0 hr 33 min 40 sec) 
Heartbeat CPU 0 instructions: 760000000 cycles: 1002942308 heartbeat IPC: 0.736805 cumulative IPC: 0.632006 (Simulation time: 0 hr 34 min 7 sec) 
Heartbeat CPU 0 instructions: 770000003 cycles: 1016551019 heartbeat IPC: 0.734824 cumulative IPC: 0.633561 (Simulation time: 0 hr 34 min 36 sec) 
Heartbeat CPU 0 instructions: 780000000 cycles: 1029112967 heartbeat IPC: 0.796055 cumulative IPC: 0.635799 (Simulation time: 0 hr 35 min 5 sec) 
Heartbeat CPU 0 instructions: 790000003 cycles: 1042416427 heartbeat IPC: 0.751684 cumulative IPC: 0.637465 (Simulation time: 0 hr 35 min 33 sec) 
Heartbeat CPU 0 instructions: 800000000 cycles: 1055359643 heartbeat IPC: 0.772605 cumulative IPC: 0.639328 (Simulation time: 0 hr 36 min 1 sec) 
Heartbeat CPU 0 instructions: 810000003 cycles: 1069143591 heartbeat IPC: 0.725482 cumulative IPC: 0.640575 (Simulation time: 0 hr 36 min 29 sec) 
Heartbeat CPU 0 instructions: 820000000 cycles: 1079341290 heartbeat IPC: 0.980613 cumulative IPC: 0.644178 (Simulation time: 0 hr 36 min 57 sec) 
Heartbeat CPU 0 instructions: 830000000 cycles: 1089159605 heartbeat IPC: 1.0185 cumulative IPC: 0.647958 (Simulation time: 0 hr 37 min 24 sec) 
Heartbeat CPU 0 instructions: 840000000 cycles: 1101915475 heartbeat IPC: 0.783953 cumulative IPC: 0.649719 (Simulation time: 0 hr 37 min 52 sec) 
Heartbeat CPU 0 instructions: 850000002 cycles: 1115274223 heartbeat IPC: 0.748573 cumulative IPC: 0.651042 (Simulation time: 0 hr 38 min 20 sec) 
Heartbeat CPU 0 instructions: 860000000 cycles: 1127534779 heartbeat IPC: 0.815624 cumulative IPC: 0.653039 (Simulation time: 0 hr 38 min 50 sec) 
Heartbeat CPU 0 instructions: 870000000 cycles: 1139745100 heartbeat IPC: 0.818979 cumulative IPC: 0.655019 (Simulation time: 0 hr 39 min 19 sec) 
Heartbeat CPU 0 instructions: 880000000 cycles: 1152966272 heartbeat IPC: 0.756363 cumulative IPC: 0.656313 (Simulation time: 0 hr 39 min 48 sec) 
Heartbeat CPU 0 instructions: 890000000 cycles: 1166877289 heartbeat IPC: 0.718855 cumulative IPC: 0.657141 (Simulation time: 0 hr 40 min 17 sec) 
Heartbeat CPU 0 instructions: 900000000 cycles: 1180290766 heartbeat IPC: 0.745519 cumulative IPC: 0.658256 (Simulation time: 0 hr 40 min 45 sec) 
Heartbeat CPU 0 instructions: 910000002 cycles: 1191490211 heartbeat IPC: 0.892902 cumulative IPC: 0.660701 (Simulation time: 0 hr 41 min 12 sec) 
Heartbeat CPU 0 instructions: 920000000 cycles: 1204204178 heartbeat IPC: 0.786536 cumulative IPC: 0.662173 (Simulation time: 0 hr 41 min 41 sec) 
Heartbeat CPU 0 instructions: 930000003 cycles: 1216335694 heartbeat IPC: 0.8243 cumulative IPC: 0.663962 (Simulation time: 0 hr 42 min 9 sec) 
Heartbeat CPU 0 instructions: 940000000 cycles: 1228639413 heartbeat IPC: 0.812762 cumulative IPC: 0.665608 (Simulation time: 0 hr 42 min 39 sec) 
Heartbeat CPU 0 instructions: 950000001 cycles: 1242542854 heartbeat IPC: 0.719247 cumulative IPC: 0.666271 (Simulation time: 0 hr 43 min 9 sec) 
Heartbeat CPU 0 instructions: 960000000 cycles: 1256847908 heartbeat IPC: 0.699054 cumulative IPC: 0.666682 (Simulation time: 0 hr 43 min 38 sec) 
Heartbeat CPU 0 instructions: 970000001 cycles: 1271157832 heartbeat IPC: 0.698816 cumulative IPC: 0.667081 (Simulation time: 0 hr 44 min 6 sec) 
Heartbeat CPU 0 instructions: 980000000 cycles: 1284721013 heartbeat IPC: 0.73729 cumulative IPC: 0.667896 (Simulation time: 0 hr 44 min 35 sec) 
Heartbeat CPU 0 instructions: 990000000 cycles: 1299133579 heartbeat IPC: 0.693839 cumulative IPC: 0.668212 (Simulation time: 0 hr 45 min 3 sec) 
Heartbeat CPU 0 instructions: 1000000000 cycles: 1312559748 heartbeat IPC: 0.744814 cumulative IPC: 0.669073 (Simulation time: 0 hr 45 min 32 sec) 
Heartbeat CPU 0 instructions: 1010000001 cycles: 1323979806 heartbeat IPC: 0.875652 cumulative IPC: 0.671027 (Simulation time: 0 hr 45 min 59 sec) 
Heartbeat CPU 0 instructions: 1020000000 cycles: 1337884131 heartbeat IPC: 0.719201 cumulative IPC: 0.671575 (Simulation time: 0 hr 46 min 27 sec) 
Heartbeat CPU 0 instructions: 1030000000 cycles: 1350723143 heartbeat IPC: 0.778876 cumulative IPC: 0.672692 (Simulation time: 0 hr 46 min 56 sec) 
Heartbeat CPU 0 instructions: 1040000000 cycles: 1364230301 heartbeat IPC: 0.740348 cumulative IPC: 0.673425 (Simulation time: 0 hr 47 min 24 sec) 
Heartbeat CPU 0 instructions: 1050000000 cycles: 1378289878 heartbeat IPC: 0.711259 cumulative IPC: 0.673846 (Simulation time: 0 hr 47 min 53 sec) 
Heartbeat CPU 0 instructions: 1060000000 cycles: 1393102386 heartbeat IPC: 0.675105 cumulative IPC: 0.673861 (Simulation time: 0 hr 48 min 22 sec) 
Heartbeat CPU 0 instructions: 1070000000 cycles: 1407212798 heartbeat IPC: 0.708697 cumulative IPC: 0.674242 (Simulation time: 0 hr 48 min 50 sec) 
Heartbeat CPU 0 instructions: 1080000000 cycles: 1420059610 heartbeat IPC: 0.778403 cumulative IPC: 0.675269 (Simulation time: 0 hr 49 min 18 sec) 
Heartbeat CPU 0 instructions: 1090000001 cycles: 1433132523 heartbeat IPC: 0.764941 cumulative IPC: 0.676159 (Simulation time: 0 hr 49 min 46 sec) 
Heartbeat CPU 0 instructions: 1100000000 cycles: 1444900253 heartbeat IPC: 0.849781 cumulative IPC: 0.677698 (Simulation time: 0 hr 50 min 14 sec) 
Heartbeat CPU 0 instructions: 1110000003 cycles: 1458111389 heartbeat IPC: 0.756937 cumulative IPC: 0.678478 (Simulation time: 0 hr 50 min 42 sec) 
Heartbeat CPU 0 instructions: 1120000000 cycles: 1472072079 heartbeat IPC: 0.716297 cumulative IPC: 0.678868 (Simulation time: 0 hr 51 min 11 sec) 
Heartbeat CPU 0 instructions: 1130000001 cycles: 1484123077 heartbeat IPC: 0.829807 cumulative IPC: 0.680198 (Simulation time: 0 hr 51 min 40 sec) 
Heartbeat CPU 0 instructions: 1140000000 cycles: 1498833016 heartbeat IPC: 0.679812 cumulative IPC: 0.680194 (Simulation time: 0 hr 52 min 9 sec) 
Heartbeat CPU 0 instructions: 1150000000 cycles: 1513343847 heartbeat IPC: 0.68914 cumulative IPC: 0.680287 (Simulation time: 0 hr 52 min 37 sec) 
Heartbeat CPU 0 instructions: 1160000000 cycles: 1527999778 heartbeat IPC: 0.682318 cumulative IPC: 0.680308 (Simulation time: 0 hr 53 min 6 sec) 
Heartbeat CPU 0 instructions: 1170000000 cycles: 1541297721 heartbeat IPC: 0.751996 cumulative IPC: 0.680977 (Simulation time: 0 hr 53 min 34 sec) 
Heartbeat CPU 0 instructions: 1180000000 cycles: 1553676717 heartbeat IPC: 0.80782 cumulative IPC: 0.68207 (Simulation time: 0 hr 54 min 2 sec) 
Heartbeat CPU 0 instructions: 1190000002 cycles: 1567121611 heartbeat IPC: 0.743777 cumulative IPC: 0.682642 (Simulation time: 0 hr 54 min 30 sec) 
Heartbeat CPU 0 instructions: 1200000000 cycles: 1578707415 heartbeat IPC: 0.863125 cumulative IPC: 0.684073 (Simulation time: 0 hr 54 min 59 sec) 
Finished CPU 0 instructions: 1000000000 cycles: 1461832695 cumulative IPC: 0.684073 (Simulation time: 0 hr 54 min 59 sec) 

CPU 0 Branch Prediction Accuracy: 97.8584% MPKI: 2.84518

ChampSim completed all CPUs

Region of Interest Statistics

CPU 0 cumulative IPC: 0.684073 instructions: 1000000000 cycles: 1461832695
L1D TOTAL     ACCESS:  374371998  HIT:  372973202  MISS:    1398796
L1D LOAD      ACCESS:  166139444  HIT:  164853189  MISS:    1286255
L1D RFO       ACCESS:  208232554  HIT:  208120013  MISS:     112541
L1D PREFETCH  ACCESS:          0  HIT:          0  MISS:          0
L1D WRITEBACK ACCESS:          0  HIT:          0  MISS:          0
L1D PREFETCH  REQUESTED:          0  ISSUED:          0  USEFUL:          0  USELESS:          0
L1I TOTAL     ACCESS:  271033103  HIT:  269385783  MISS:    1647320
L1I LOAD      ACCESS:  271033103  HIT:  269385783  MISS:    1647320
L1I RFO       ACCESS:          0  HIT:          0  MISS:          0
L1I PREFETCH  ACCESS:          0  HIT:          0  MISS:          0
L1I WRITEBACK ACCESS:          0  HIT:          0  MISS:          0
L1I PREFETCH  REQUESTED:          0  ISSUED:          0  USEFUL:          0  USELESS:          0
L2C TOTAL     ACCESS:    3413031  HIT:    2735141  MISS:     677890
L2C LOAD      ACCESS:    2933422  HIT:    2301284  MISS:     632138
L2C RFO       ACCESS:     112523  HIT:      71274  MISS:      41249
L2C PREFETCH  ACCESS:          0  HIT:          0  MISS:          0
L2C WRITEBACK ACCESS:     367086  HIT:     362583  MISS:       4503
L2C PREFETCH  REQUESTED:          0  ISSUED:          0  USEFUL:          0  USELESS:          0
LLC TOTAL     ACCESS:     809594  HIT:     718587  MISS:      91007
LLC LOAD      ACCESS:     632138  HIT:     551527  MISS:      80611
LLC RFO       ACCESS:      41249  HIT:      30853  MISS:      10396
LLC PREFETCH  ACCESS:          0  HIT:          0  MISS:          0
LLC WRITEBACK ACCESS:     136207  HIT:     136207  MISS:          0
LLC PREFETCH  REQUESTED:          0  ISSUED:          0  USEFUL:          0  USELESS:          0
Major fault: 0 Minor fault: 6011

DRAM Statistics
 CHANNEL 0
 RQ ROW_BUFFER_HIT:      55611  ROW_BUFFER_MISS:      35201
 DBUS_CONGESTED:       7240
 WQ ROW_BUFFER_HIT:        107  ROW_BUFFER_MISS:       1109  FULL:          0

 AVG_CONGESTED_CYCLE: 11
