
*** ChampSim Multicore Out-of-Order Simulator ***

Warmup Instructions: 200000000
Simulation Instructions: 1000000000
Number of CPUs: 1
LLC sets: 8192
LLC ways: 16
Off-chip DRAM Size: 4096 MB Channels: 1 Width: 64-bit Data Rate: 1600 MT/s

CPU 0 runs /scratch/user/djimenez/champsim-traces/speccpu2017/xz/603.bwaves_s/603.bwaves_s-1740B.champsimtrace.xz
Heartbeat CPU 0 instructions: 10000002 cycles: 5284650 heartbeat IPC: 1.89227 cumulative IPC: 1.89227 (Simulation time: 0 hr 0 min 23 sec) 
Heartbeat CPU 0 instructions: 20000000 cycles: 10571129 heartbeat IPC: 1.89162 cumulative IPC: 1.89195 (Simulation time: 0 hr 0 min 45 sec) 
Heartbeat CPU 0 instructions: 30000002 cycles: 15856210 heartbeat IPC: 1.89212 cumulative IPC: 1.892 (Simulation time: 0 hr 1 min 7 sec) 
Heartbeat CPU 0 instructions: 40000000 cycles: 21140519 heartbeat IPC: 1.89239 cumulative IPC: 1.8921 (Simulation time: 0 hr 1 min 30 sec) 
Heartbeat CPU 0 instructions: 50000003 cycles: 26426169 heartbeat IPC: 1.89192 cumulative IPC: 1.89206 (Simulation time: 0 hr 1 min 52 sec) 
Heartbeat CPU 0 instructions: 60000000 cycles: 31709319 heartbeat IPC: 1.89281 cumulative IPC: 1.89219 (Simulation time: 0 hr 2 min 15 sec) 
Heartbeat CPU 0 instructions: 70000000 cycles: 36994284 heartbeat IPC: 1.89216 cumulative IPC: 1.89218 (Simulation time: 0 hr 2 min 37 sec) 
Heartbeat CPU 0 instructions: 80000000 cycles: 42280441 heartbeat IPC: 1.89173 cumulative IPC: 1.89213 (Simulation time: 0 hr 3 min 0 sec) 
Heartbeat CPU 0 instructions: 90000000 cycles: 47566008 heartbeat IPC: 1.89194 cumulative IPC: 1.89211 (Simulation time: 0 hr 3 min 22 sec) 
Heartbeat CPU 0 instructions: 100000000 cycles: 52851124 heartbeat IPC: 1.89211 cumulative IPC: 1.89211 (Simulation time: 0 hr 3 min 44 sec) 
Heartbeat CPU 0 instructions: 110000001 cycles: 58135818 heartbeat IPC: 1.89226 cumulative IPC: 1.89212 (Simulation time: 0 hr 4 min 7 sec) 
Heartbeat CPU 0 instructions: 120000000 cycles: 63420554 heartbeat IPC: 1.89224 cumulative IPC: 1.89213 (Simulation time: 0 hr 4 min 29 sec) 
Heartbeat CPU 0 instructions: 130000003 cycles: 68704461 heartbeat IPC: 1.89254 cumulative IPC: 1.89216 (Simulation time: 0 hr 4 min 52 sec) 
Heartbeat CPU 0 instructions: 140000000 cycles: 73989619 heartbeat IPC: 1.89209 cumulative IPC: 1.89216 (Simulation time: 0 hr 5 min 14 sec) 
Heartbeat CPU 0 instructions: 150000002 cycles: 79275655 heartbeat IPC: 1.89178 cumulative IPC: 1.89213 (Simulation time: 0 hr 5 min 37 sec) 
Heartbeat CPU 0 instructions: 160000000 cycles: 84560569 heartbeat IPC: 1.89218 cumulative IPC: 1.89213 (Simulation time: 0 hr 5 min 59 sec) 
Heartbeat CPU 0 instructions: 170000000 cycles: 89845322 heartbeat IPC: 1.89224 cumulative IPC: 1.89214 (Simulation time: 0 hr 6 min 21 sec) 
Heartbeat CPU 0 instructions: 180000000 cycles: 95129275 heartbeat IPC: 1.89252 cumulative IPC: 1.89216 (Simulation time: 0 hr 6 min 44 sec) 
Heartbeat CPU 0 instructions: 190000002 cycles: 100413729 heartbeat IPC: 1.89234 cumulative IPC: 1.89217 (Simulation time: 0 hr 7 min 6 sec) 
Heartbeat CPU 0 instructions: 200000000 cycles: 105699636 heartbeat IPC: 1.89182 cumulative IPC: 1.89215 (Simulation time: 0 hr 7 min 29 sec) 

Warmup complete CPU 0 instructions: 200000001 cycles: 105699653 (Simulation time: 0 hr 7 min 29 sec) 

Heartbeat CPU 0 instructions: 210000002 cycles: 120423936 heartbeat IPC: 0.67915 cumulative IPC: 0.67915 (Simulation time: 0 hr 8 min 0 sec) 
Heartbeat CPU 0 instructions: 220000000 cycles: 135158564 heartbeat IPC: 0.678673 cumulative IPC: 0.678912 (Simulation time: 0 hr 8 min 31 sec) 
Heartbeat CPU 0 instructions: 230000002 cycles: 149971040 heartbeat IPC: 0.675107 cumulative IPC: 0.677639 (Simulation time: 0 hr 9 min 2 sec) 
Heartbeat CPU 0 instructions: 240000000 cycles: 164673680 heartbeat IPC: 0.68015 cumulative IPC: 0.678265 (Simulation time: 0 hr 9 min 33 sec) 
Heartbeat CPU 0 instructions: 250000003 cycles: 179407801 heartbeat IPC: 0.678697 cumulative IPC: 0.678351 (Simulation time: 0 hr 10 min 4 sec) 
Heartbeat CPU 0 instructions: 260000000 cycles: 194174726 heartbeat IPC: 0.677189 cumulative IPC: 0.678157 (Simulation time: 0 hr 10 min 35 sec) 
Heartbeat CPU 0 instructions: 270000001 cycles: 208900560 heartbeat IPC: 0.679079 cumulative IPC: 0.678289 (Simulation time: 0 hr 11 min 7 sec) 
Heartbeat CPU 0 instructions: 280000000 cycles: 223721675 heartbeat IPC: 0.674713 cumulative IPC: 0.67784 (Simulation time: 0 hr 11 min 38 sec) 
Heartbeat CPU 0 instructions: 290000002 cycles: 238426530 heartbeat IPC: 0.680048 cumulative IPC: 0.678084 (Simulation time: 0 hr 12 min 9 sec) 
Heartbeat CPU 0 instructions: 300000000 cycles: 253132206 heartbeat IPC: 0.680009 cumulative IPC: 0.678276 (Simulation time: 0 hr 12 min 40 sec) 
Heartbeat CPU 0 instructions: 310000001 cycles: 267922443 heartbeat IPC: 0.676122 cumulative IPC: 0.67808 (Simulation time: 0 hr 13 min 11 sec) 
Heartbeat CPU 0 instructions: 320000000 cycles: 282694196 heartbeat IPC: 0.676968 cumulative IPC: 0.677987 (Simulation time: 0 hr 13 min 42 sec) 
Heartbeat CPU 0 instructions: 330000003 cycles: 297408047 heartbeat IPC: 0.679632 cumulative IPC: 0.678113 (Simulation time: 0 hr 14 min 13 sec) 
Heartbeat CPU 0 instructions: 340000000 cycles: 312111757 heartbeat IPC: 0.6801 cumulative IPC: 0.678255 (Simulation time: 0 hr 14 min 44 sec) 
Heartbeat CPU 0 instructions: 350000002 cycles: 326845159 heartbeat IPC: 0.67873 cumulative IPC: 0.678286 (Simulation time: 0 hr 15 min 15 sec) 
Heartbeat CPU 0 instructions: 360000000 cycles: 341678219 heartbeat IPC: 0.67417 cumulative IPC: 0.678028 (Simulation time: 0 hr 15 min 47 sec) 
Heartbeat CPU 0 instructions: 370000000 cycles: 356389317 heartbeat IPC: 0.679759 cumulative IPC: 0.678129 (Simulation time: 0 hr 16 min 18 sec) 
Heartbeat CPU 0 instructions: 380000000 cycles: 371082401 heartbeat IPC: 0.680592 cumulative IPC: 0.678266 (Simulation time: 0 hr 16 min 49 sec) 
Heartbeat CPU 0 instructions: 390000001 cycles: 385883585 heartbeat IPC: 0.675622 cumulative IPC: 0.678126 (Simulation time: 0 hr 17 min 20 sec) 
Heartbeat CPU 0 instructions: 400000000 cycles: 400656563 heartbeat IPC: 0.676912 cumulative IPC: 0.678065 (Simulation time: 0 hr 17 min 51 sec) 
Heartbeat CPU 0 instructions: 410000000 cycles: 415354062 heartbeat IPC: 0.680388 cumulative IPC: 0.678175 (Simulation time: 0 hr 18 min 22 sec) 
Heartbeat CPU 0 instructions: 420000000 cycles: 430103670 heartbeat IPC: 0.677984 cumulative IPC: 0.678167 (Simulation time: 0 hr 18 min 53 sec) 
Heartbeat CPU 0 instructions: 430000000 cycles: 444825659 heartbeat IPC: 0.679256 cumulative IPC: 0.678214 (Simulation time: 0 hr 19 min 24 sec) 
Heartbeat CPU 0 instructions: 440000000 cycles: 459663413 heartbeat IPC: 0.673956 cumulative IPC: 0.678035 (Simulation time: 0 hr 19 min 55 sec) 
Heartbeat CPU 0 instructions: 450000000 cycles: 474466963 heartbeat IPC: 0.675514 cumulative IPC: 0.677934 (Simulation time: 0 hr 20 min 27 sec) 
Heartbeat CPU 0 instructions: 460000000 cycles: 489199095 heartbeat IPC: 0.678788 cumulative IPC: 0.677967 (Simulation time: 0 hr 20 min 58 sec) 
Heartbeat CPU 0 instructions: 470000000 cycles: 503925648 heartbeat IPC: 0.679046 cumulative IPC: 0.678007 (Simulation time: 0 hr 21 min 29 sec) 
Heartbeat CPU 0 instructions: 480000000 cycles: 518717355 heartbeat IPC: 0.676054 cumulative IPC: 0.677937 (Simulation time: 0 hr 22 min 0 sec) 
Heartbeat CPU 0 instructions: 490000003 cycles: 533466626 heartbeat IPC: 0.678 cumulative IPC: 0.677939 (Simulation time: 0 hr 22 min 31 sec) 
Heartbeat CPU 0 instructions: 500000000 cycles: 548254879 heartbeat IPC: 0.676212 cumulative IPC: 0.677881 (Simulation time: 0 hr 23 min 2 sec) 
Heartbeat CPU 0 instructions: 510000002 cycles: 562988634 heartbeat IPC: 0.678714 cumulative IPC: 0.677908 (Simulation time: 0 hr 23 min 33 sec) 
Heartbeat CPU 0 instructions: 520000000 cycles: 577684432 heartbeat IPC: 0.680466 cumulative IPC: 0.677988 (Simulation time: 0 hr 24 min 4 sec) 
Heartbeat CPU 0 instructions: 530000003 cycles: 592450496 heartbeat IPC: 0.677229 cumulative IPC: 0.677965 (Simulation time: 0 hr 24 min 35 sec) 
Heartbeat CPU 0 instructions: 540000000 cycles: 607235470 heartbeat IPC: 0.676362 cumulative IPC: 0.677918 (Simulation time: 0 hr 25 min 7 sec) 
Heartbeat CPU 0 instructions: 550000001 cycles: 621898979 heartbeat IPC: 0.681965 cumulative IPC: 0.678033 (Simulation time: 0 hr 25 min 38 sec) 
Heartbeat CPU 0 instructions: 560000000 cycles: 636678334 heartbeat IPC: 0.676619 cumulative IPC: 0.677993 (Simulation time: 0 hr 26 min 9 sec) 
Heartbeat CPU 0 instructions: 570000003 cycles: 651459649 heartbeat IPC: 0.67653 cumulative IPC: 0.677954 (Simulation time: 0 hr 26 min 40 sec) 
Heartbeat CPU 0 instructions: 580000000 cycles: 666124557 heartbeat IPC: 0.6819 cumulative IPC: 0.678057 (Simulation time: 0 hr 27 min 11 sec) 
Heartbeat CPU 0 instructions: 590000001 cycles: 680804401 heartbeat IPC: 0.681206 cumulative IPC: 0.678137 (Simulation time: 0 hr 27 min 42 sec) 
Heartbeat CPU 0 instructions: 600000000 cycles: 695532296 heartbeat IPC: 0.678984 cumulative IPC: 0.678158 (Simulation time: 0 hr 28 min 13 sec) 
Heartbeat CPU 0 instructions: 610000000 cycles: 710284712 heartbeat IPC: 0.677855 cumulative IPC: 0.678151 (Simulation time: 0 hr 28 min 44 sec) 
Heartbeat CPU 0 instructions: 620000000 cycles: 725031576 heartbeat IPC: 0.67811 cumulative IPC: 0.67815 (Simulation time: 0 hr 29 min 15 sec) 
Heartbeat CPU 0 instructions: 630000002 cycles: 739786114 heartbeat IPC: 0.677758 cumulative IPC: 0.678141 (Simulation time: 0 hr 29 min 46 sec) 
Heartbeat CPU 0 instructions: 640000000 cycles: 754574092 heartbeat IPC: 0.676225 cumulative IPC: 0.678097 (Simulation time: 0 hr 30 min 17 sec) 
Heartbeat CPU 0 instructions: 650000000 cycles: 769320786 heartbeat IPC: 0.678118 cumulative IPC: 0.678098 (Simulation time: 0 hr 30 min 48 sec) 
Heartbeat CPU 0 instructions: 660000000 cycles: 784085074 heartbeat IPC: 0.67731 cumulative IPC: 0.678081 (Simulation time: 0 hr 31 min 19 sec) 
Heartbeat CPU 0 instructions: 670000001 cycles: 798850590 heartbeat IPC: 0.677254 cumulative IPC: 0.678063 (Simulation time: 0 hr 31 min 50 sec) 
Heartbeat CPU 0 instructions: 680000000 cycles: 813515503 heartbeat IPC: 0.6819 cumulative IPC: 0.678142 (Simulation time: 0 hr 32 min 21 sec) 
Heartbeat CPU 0 instructions: 690000003 cycles: 828255956 heartbeat IPC: 0.678405 cumulative IPC: 0.678148 (Simulation time: 0 hr 32 min 53 sec) 
Heartbeat CPU 0 instructions: 700000000 cycles: 842994247 heartbeat IPC: 0.678505 cumulative IPC: 0.678155 (Simulation time: 0 hr 33 min 24 sec) 
Heartbeat CPU 0 instructions: 710000002 cycles: 857752356 heartbeat IPC: 0.677594 cumulative IPC: 0.678144 (Simulation time: 0 hr 33 min 55 sec) 
Heartbeat CPU 0 instructions: 720000000 cycles: 872522105 heartbeat IPC: 0.677059 cumulative IPC: 0.678123 (Simulation time: 0 hr 34 min 26 sec) 
Heartbeat CPU 0 instructions: 730000000 cycles: 887213513 heartbeat IPC: 0.68067 cumulative IPC: 0.678171 (Simulation time: 0 hr 34 min 57 sec) 
Heartbeat CPU 0 instructions: 740000000 cycles: 901988927 heartbeat IPC: 0.6768 cumulative IPC: 0.678146 (Simulation time: 0 hr 35 min 28 sec) 
Heartbeat CPU 0 instructions: 750000001 cycles: 916795358 heartbeat IPC: 0.675382 cumulative IPC: 0.678095 (Simulation time: 0 hr 35 min 59 sec) 
Heartbeat CPU 0 instructions: 760000000 cycles: 931598928 heartbeat IPC: 0.675513 cumulative IPC: 0.678049 (Simulation time: 0 hr 36 min 30 sec) 
Heartbeat CPU 0 instructions: 770000003 cycles: 946367496 heartbeat IPC: 0.677114 cumulative IPC: 0.678032 (Simulation time: 0 hr 37 min 1 sec) 
Heartbeat CPU 0 instructions: 780000000 cycles: 961107003 heartbeat IPC: 0.678449 cumulative IPC: 0.67804 (Simulation time: 0 hr 37 min 32 sec) 
Heartbeat CPU 0 instructions: 790000002 cycles: 975817974 heartbeat IPC: 0.679765 cumulative IPC: 0.678069 (Simulation time: 0 hr 38 min 4 sec) 
Heartbeat CPU 0 instructions: 800000000 cycles: 990549957 heartbeat IPC: 0.678795 cumulative IPC: 0.678081 (Simulation time: 0 hr 38 min 35 sec) 
Heartbeat CPU 0 instructions: 810000000 cycles: 1005257566 heartbeat IPC: 0.67992 cumulative IPC: 0.678111 (Simulation time: 0 hr 39 min 6 sec) 
Heartbeat CPU 0 instructions: 820000000 cycles: 1019969077 heartbeat IPC: 0.67974 cumulative IPC: 0.678137 (Simulation time: 0 hr 39 min 37 sec) 
Heartbeat CPU 0 instructions: 830000002 cycles: 1034653919 heartbeat IPC: 0.680974 cumulative IPC: 0.678182 (Simulation time: 0 hr 40 min 8 sec) 
Heartbeat CPU 0 instructions: 840000000 cycles: 1049418547 heartbeat IPC: 0.677294 cumulative IPC: 0.678168 (Simulation time: 0 hr 40 min 39 sec) 
Heartbeat CPU 0 instructions: 850000001 cycles: 1064157504 heartbeat IPC: 0.678474 cumulative IPC: 0.678173 (Simulation time: 0 hr 41 min 10 sec) 
Heartbeat CPU 0 instructions: 860000000 cycles: 1078904394 heartbeat IPC: 0.678109 cumulative IPC: 0.678172 (Simulation time: 0 hr 41 min 41 sec) 
Heartbeat CPU 0 instructions: 870000001 cycles: 1093616067 heartbeat IPC: 0.679732 cumulative IPC: 0.678195 (Simulation time: 0 hr 42 min 12 sec) 
Heartbeat CPU 0 instructions: 880000000 cycles: 1108349821 heartbeat IPC: 0.678714 cumulative IPC: 0.678203 (Simulation time: 0 hr 42 min 43 sec) 
Heartbeat CPU 0 instructions: 890000003 cycles: 1123128893 heartbeat IPC: 0.676633 cumulative IPC: 0.67818 (Simulation time: 0 hr 43 min 14 sec) 
Heartbeat CPU 0 instructions: 900000000 cycles: 1137928918 heartbeat IPC: 0.675674 cumulative IPC: 0.678144 (Simulation time: 0 hr 43 min 45 sec) 
Heartbeat CPU 0 instructions: 910000002 cycles: 1152612093 heartbeat IPC: 0.681052 cumulative IPC: 0.678185 (Simulation time: 0 hr 44 min 16 sec) 
Heartbeat CPU 0 instructions: 920000000 cycles: 1167333762 heartbeat IPC: 0.679271 cumulative IPC: 0.6782 (Simulation time: 0 hr 44 min 47 sec) 
Heartbeat CPU 0 instructions: 930000000 cycles: 1182097857 heartbeat IPC: 0.677319 cumulative IPC: 0.678188 (Simulation time: 0 hr 45 min 19 sec) 
Heartbeat CPU 0 instructions: 940000000 cycles: 1196826810 heartbeat IPC: 0.678935 cumulative IPC: 0.678198 (Simulation time: 0 hr 45 min 50 sec) 
Heartbeat CPU 0 instructions: 950000002 cycles: 1211599109 heartbeat IPC: 0.676943 cumulative IPC: 0.678181 (Simulation time: 0 hr 46 min 21 sec) 
Heartbeat CPU 0 instructions: 960000000 cycles: 1226348739 heartbeat IPC: 0.677983 cumulative IPC: 0.678178 (Simulation time: 0 hr 46 min 52 sec) 
Heartbeat CPU 0 instructions: 970000000 cycles: 1241102854 heartbeat IPC: 0.677777 cumulative IPC: 0.678173 (Simulation time: 0 hr 47 min 23 sec) 
Heartbeat CPU 0 instructions: 980000000 cycles: 1255818582 heartbeat IPC: 0.679545 cumulative IPC: 0.678191 (Simulation time: 0 hr 47 min 54 sec) 
Heartbeat CPU 0 instructions: 990000003 cycles: 1270545288 heartbeat IPC: 0.679039 cumulative IPC: 0.678201 (Simulation time: 0 hr 48 min 25 sec) 
Heartbeat CPU 0 instructions: 1000000000 cycles: 1285291829 heartbeat IPC: 0.678125 cumulative IPC: 0.6782 (Simulation time: 0 hr 48 min 56 sec) 
Heartbeat CPU 0 instructions: 1010000000 cycles: 1300071730 heartbeat IPC: 0.676594 cumulative IPC: 0.678181 (Simulation time: 0 hr 49 min 27 sec) 
Heartbeat CPU 0 instructions: 1020000000 cycles: 1314765536 heartbeat IPC: 0.680559 cumulative IPC: 0.67821 (Simulation time: 0 hr 49 min 58 sec) 
Heartbeat CPU 0 instructions: 1030000002 cycles: 1329514694 heartbeat IPC: 0.678005 cumulative IPC: 0.678207 (Simulation time: 0 hr 50 min 29 sec) 
Heartbeat CPU 0 instructions: 1040000000 cycles: 1344329584 heartbeat IPC: 0.674996 cumulative IPC: 0.678169 (Simulation time: 0 hr 51 min 1 sec) 
Heartbeat CPU 0 instructions: 1050000002 cycles: 1359026040 heartbeat IPC: 0.680436 cumulative IPC: 0.678195 (Simulation time: 0 hr 51 min 32 sec) 
Heartbeat CPU 0 instructions: 1060000000 cycles: 1373714934 heartbeat IPC: 0.680786 cumulative IPC: 0.678225 (Simulation time: 0 hr 52 min 3 sec) 
Heartbeat CPU 0 instructions: 1070000000 cycles: 1388473497 heartbeat IPC: 0.677573 cumulative IPC: 0.678218 (Simulation time: 0 hr 52 min 34 sec) 
Heartbeat CPU 0 instructions: 1080000000 cycles: 1403206465 heartbeat IPC: 0.67875 cumulative IPC: 0.678224 (Simulation time: 0 hr 53 min 5 sec) 
Heartbeat CPU 0 instructions: 1090000000 cycles: 1417898995 heartbeat IPC: 0.680618 cumulative IPC: 0.678251 (Simulation time: 0 hr 53 min 36 sec) 
Heartbeat CPU 0 instructions: 1100000000 cycles: 1432619102 heartbeat IPC: 0.679343 cumulative IPC: 0.678263 (Simulation time: 0 hr 54 min 7 sec) 
Heartbeat CPU 0 instructions: 1110000000 cycles: 1447332176 heartbeat IPC: 0.679668 cumulative IPC: 0.678278 (Simulation time: 0 hr 54 min 38 sec) 
Heartbeat CPU 0 instructions: 1120000000 cycles: 1462063218 heartbeat IPC: 0.678839 cumulative IPC: 0.678284 (Simulation time: 0 hr 55 min 9 sec) 
Heartbeat CPU 0 instructions: 1130000000 cycles: 1476804412 heartbeat IPC: 0.678371 cumulative IPC: 0.678285 (Simulation time: 0 hr 55 min 40 sec) 
Heartbeat CPU 0 instructions: 1140000000 cycles: 1491554156 heartbeat IPC: 0.677978 cumulative IPC: 0.678282 (Simulation time: 0 hr 56 min 11 sec) 
Heartbeat CPU 0 instructions: 1150000001 cycles: 1506283768 heartbeat IPC: 0.678905 cumulative IPC: 0.678288 (Simulation time: 0 hr 56 min 42 sec) 
Heartbeat CPU 0 instructions: 1160000000 cycles: 1520983748 heartbeat IPC: 0.680273 cumulative IPC: 0.678309 (Simulation time: 0 hr 57 min 14 sec) 
Heartbeat CPU 0 instructions: 1170000000 cycles: 1535754072 heartbeat IPC: 0.677033 cumulative IPC: 0.678296 (Simulation time: 0 hr 57 min 45 sec) 
Heartbeat CPU 0 instructions: 1180000000 cycles: 1550398444 heartbeat IPC: 0.682856 cumulative IPC: 0.678342 (Simulation time: 0 hr 58 min 16 sec) 
Heartbeat CPU 0 instructions: 1190000003 cycles: 1565141815 heartbeat IPC: 0.678271 cumulative IPC: 0.678341 (Simulation time: 0 hr 58 min 47 sec) 
Heartbeat CPU 0 instructions: 1200000000 cycles: 1579860944 heartbeat IPC: 0.679388 cumulative IPC: 0.678352 (Simulation time: 0 hr 59 min 18 sec) 
Finished CPU 0 instructions: 1000000000 cycles: 1474161306 cumulative IPC: 0.678352 (Simulation time: 0 hr 59 min 18 sec) 

CPU 0 Branch Prediction Accuracy: 99.9709% MPKI: 0.007273

ChampSim completed all CPUs

Region of Interest Statistics

CPU 0 cumulative IPC: 0.678352 instructions: 1000000000 cycles: 1474161306
L1D TOTAL     ACCESS:  378451981  HIT:  357656304  MISS:   20795677
L1D LOAD      ACCESS:  322187417  HIT:  302049698  MISS:   20137719
L1D RFO       ACCESS:   56264564  HIT:   55606606  MISS:     657958
L1D PREFETCH  ACCESS:          0  HIT:          0  MISS:          0
L1D WRITEBACK ACCESS:          0  HIT:          0  MISS:          0
L1D PREFETCH  REQUESTED:          0  ISSUED:          0  USEFUL:          0  USELESS:          0
L1I TOTAL     ACCESS:  256252252  HIT:  256252252  MISS:          0
L1I LOAD      ACCESS:  256252252  HIT:  256252252  MISS:          0
L1I RFO       ACCESS:          0  HIT:          0  MISS:          0
L1I PREFETCH  ACCESS:          0  HIT:          0  MISS:          0
L1I WRITEBACK ACCESS:          0  HIT:          0  MISS:          0
L1I PREFETCH  REQUESTED:          0  ISSUED:          0  USEFUL:          0  USELESS:          0
L2C TOTAL     ACCESS:   21493861  HIT:    2478072  MISS:   19015789
L2C LOAD      ACCESS:   20133195  HIT:    1608909  MISS:   18524286
L2C RFO       ACCESS:     646649  HIT:     159406  MISS:     487243
L2C PREFETCH  ACCESS:          0  HIT:          0  MISS:          0
L2C WRITEBACK ACCESS:     714017  HIT:     709757  MISS:       4260
L2C PREFETCH  REQUESTED:          0  ISSUED:          0  USEFUL:          0  USELESS:          0
LLC TOTAL     ACCESS:   19503276  HIT:     500093  MISS:   19003183
LLC LOAD      ACCESS:   18524286  HIT:       8855  MISS:   18515431
LLC RFO       ACCESS:     487243  HIT:          0  MISS:     487243
LLC PREFETCH  ACCESS:          0  HIT:          0  MISS:          0
LLC WRITEBACK ACCESS:     491747  HIT:     491238  MISS:        509
LLC PREFETCH  REQUESTED:          0  ISSUED:          0  USEFUL:          0  USELESS:          0
Major fault: 0 Minor fault: 338319

DRAM Statistics
 CHANNEL 0
 RQ ROW_BUFFER_HIT:   17939682  ROW_BUFFER_MISS:    1062991
 DBUS_CONGESTED:    3524929
 WQ ROW_BUFFER_HIT:     273525  ROW_BUFFER_MISS:     214496  FULL:          0

 AVG_CONGESTED_CYCLE: 11
