
*** ChampSim Multicore Out-of-Order Simulator ***

Warmup Instructions: 200000000
Simulation Instructions: 1000000000
Number of CPUs: 1
LLC sets: 8192
LLC ways: 16
Off-chip DRAM Size: 4096 MB Channels: 1 Width: 64-bit Data Rate: 1600 MT/s

CPU 0 runs /scratch/user/djimenez/champsim-traces/speccpu2017/xz/623.xalancbmk_s/623.xalancbmk_s-700B.champsimtrace.xz
Heartbeat CPU 0 instructions: 10000001 cycles: 5947033 heartbeat IPC: 1.68151 cumulative IPC: 1.68151 (Simulation time: 0 hr 0 min 19 sec) 
Heartbeat CPU 0 instructions: 20000000 cycles: 10798822 heartbeat IPC: 2.0611 cumulative IPC: 1.85205 (Simulation time: 0 hr 0 min 36 sec) 
Heartbeat CPU 0 instructions: 30000001 cycles: 16836097 heartbeat IPC: 1.65638 cumulative IPC: 1.78189 (Simulation time: 0 hr 0 min 57 sec) 
Heartbeat CPU 0 instructions: 40000000 cycles: 23102328 heartbeat IPC: 1.59586 cumulative IPC: 1.73143 (Simulation time: 0 hr 1 min 17 sec) 
Heartbeat CPU 0 instructions: 50000001 cycles: 29242529 heartbeat IPC: 1.62861 cumulative IPC: 1.70984 (Simulation time: 0 hr 1 min 36 sec) 
Heartbeat CPU 0 instructions: 60000000 cycles: 34349909 heartbeat IPC: 1.95795 cumulative IPC: 1.74673 (Simulation time: 0 hr 1 min 53 sec) 
Heartbeat CPU 0 instructions: 70000001 cycles: 39266606 heartbeat IPC: 2.03389 cumulative IPC: 1.78269 (Simulation time: 0 hr 2 min 11 sec) 
Heartbeat CPU 0 instructions: 80000000 cycles: 45401218 heartbeat IPC: 1.63009 cumulative IPC: 1.76207 (Simulation time: 0 hr 2 min 31 sec) 
Heartbeat CPU 0 instructions: 90000001 cycles: 51244365 heartbeat IPC: 1.71141 cumulative IPC: 1.75629 (Simulation time: 0 hr 2 min 51 sec) 
Heartbeat CPU 0 instructions: 100000000 cycles: 57488847 heartbeat IPC: 1.60141 cumulative IPC: 1.73947 (Simulation time: 0 hr 3 min 12 sec) 
Heartbeat CPU 0 instructions: 110000002 cycles: 63808397 heartbeat IPC: 1.58239 cumulative IPC: 1.72391 (Simulation time: 0 hr 3 min 33 sec) 
Heartbeat CPU 0 instructions: 120000000 cycles: 69959851 heartbeat IPC: 1.62563 cumulative IPC: 1.71527 (Simulation time: 0 hr 3 min 52 sec) 
Heartbeat CPU 0 instructions: 130000001 cycles: 75216912 heartbeat IPC: 1.9022 cumulative IPC: 1.72833 (Simulation time: 0 hr 4 min 9 sec) 
Heartbeat CPU 0 instructions: 140000000 cycles: 80132041 heartbeat IPC: 2.03453 cumulative IPC: 1.74712 (Simulation time: 0 hr 4 min 27 sec) 
Heartbeat CPU 0 instructions: 150000001 cycles: 86454457 heartbeat IPC: 1.58167 cumulative IPC: 1.73502 (Simulation time: 0 hr 4 min 48 sec) 
Heartbeat CPU 0 instructions: 160000000 cycles: 91921797 heartbeat IPC: 1.82904 cumulative IPC: 1.74061 (Simulation time: 0 hr 5 min 7 sec) 
Heartbeat CPU 0 instructions: 170000000 cycles: 98011296 heartbeat IPC: 1.64217 cumulative IPC: 1.73449 (Simulation time: 0 hr 5 min 28 sec) 
Heartbeat CPU 0 instructions: 180000000 cycles: 104396323 heartbeat IPC: 1.56616 cumulative IPC: 1.7242 (Simulation time: 0 hr 5 min 49 sec) 
Heartbeat CPU 0 instructions: 190000001 cycles: 110580959 heartbeat IPC: 1.61691 cumulative IPC: 1.7182 (Simulation time: 0 hr 6 min 8 sec) 
Heartbeat CPU 0 instructions: 200000000 cycles: 116245207 heartbeat IPC: 1.76546 cumulative IPC: 1.7205 (Simulation time: 0 hr 6 min 26 sec) 

Warmup complete CPU 0 instructions: 200000001 cycles: 116245209 (Simulation time: 0 hr 6 min 26 sec) 

Heartbeat CPU 0 instructions: 210000000 cycles: 135246060 heartbeat IPC: 0.526292 cumulative IPC: 0.526292 (Simulation time: 0 hr 6 min 56 sec) 
Heartbeat CPU 0 instructions: 220000000 cycles: 163932821 heartbeat IPC: 0.348593 cumulative IPC: 0.419396 (Simulation time: 0 hr 7 min 31 sec) 
Heartbeat CPU 0 instructions: 230000000 cycles: 192798593 heartbeat IPC: 0.346431 cumulative IPC: 0.391883 (Simulation time: 0 hr 8 min 9 sec) 
Heartbeat CPU 0 instructions: 240000000 cycles: 219508121 heartbeat IPC: 0.374398 cumulative IPC: 0.387361 (Simulation time: 0 hr 8 min 45 sec) 
Heartbeat CPU 0 instructions: 250000001 cycles: 244843700 heartbeat IPC: 0.394702 cumulative IPC: 0.388807 (Simulation time: 0 hr 9 min 20 sec) 
Heartbeat CPU 0 instructions: 260000000 cycles: 268277711 heartbeat IPC: 0.42673 cumulative IPC: 0.394652 (Simulation time: 0 hr 9 min 54 sec) 
Heartbeat CPU 0 instructions: 270000000 cycles: 284260622 heartbeat IPC: 0.625668 cumulative IPC: 0.416628 (Simulation time: 0 hr 10 min 23 sec) 
Heartbeat CPU 0 instructions: 280000000 cycles: 301768503 heartbeat IPC: 0.571171 cumulative IPC: 0.431213 (Simulation time: 0 hr 10 min 52 sec) 
Heartbeat CPU 0 instructions: 290000000 cycles: 322907582 heartbeat IPC: 0.473058 cumulative IPC: 0.435493 (Simulation time: 0 hr 11 min 22 sec) 
Heartbeat CPU 0 instructions: 300000000 cycles: 353926475 heartbeat IPC: 0.322384 cumulative IPC: 0.420732 (Simulation time: 0 hr 11 min 58 sec) 
Heartbeat CPU 0 instructions: 310000001 cycles: 382163206 heartbeat IPC: 0.354149 cumulative IPC: 0.413661 (Simulation time: 0 hr 12 min 35 sec) 
Heartbeat CPU 0 instructions: 320000000 cycles: 409653416 heartbeat IPC: 0.363766 cumulative IPC: 0.408987 (Simulation time: 0 hr 13 min 10 sec) 
Heartbeat CPU 0 instructions: 330000000 cycles: 438949941 heartbeat IPC: 0.341337 cumulative IPC: 0.402845 (Simulation time: 0 hr 13 min 48 sec) 
Heartbeat CPU 0 instructions: 340000000 cycles: 465907209 heartbeat IPC: 0.370957 cumulative IPC: 0.400387 (Simulation time: 0 hr 14 min 25 sec) 
Heartbeat CPU 0 instructions: 350000000 cycles: 491320801 heartbeat IPC: 0.39349 cumulative IPC: 0.399919 (Simulation time: 0 hr 15 min 0 sec) 
Heartbeat CPU 0 instructions: 360000000 cycles: 515907380 heartbeat IPC: 0.406726 cumulative IPC: 0.400338 (Simulation time: 0 hr 15 min 35 sec) 
Heartbeat CPU 0 instructions: 370000000 cycles: 539777698 heartbeat IPC: 0.41893 cumulative IPC: 0.401386 (Simulation time: 0 hr 16 min 10 sec) 
Heartbeat CPU 0 instructions: 380000000 cycles: 555992929 heartbeat IPC: 0.616704 cumulative IPC: 0.409326 (Simulation time: 0 hr 16 min 39 sec) 
Heartbeat CPU 0 instructions: 390000000 cycles: 571663315 heartbeat IPC: 0.638146 cumulative IPC: 0.417199 (Simulation time: 0 hr 17 min 7 sec) 
Heartbeat CPU 0 instructions: 400000000 cycles: 588837882 heartbeat IPC: 0.582256 cumulative IPC: 0.423197 (Simulation time: 0 hr 17 min 35 sec) 
Heartbeat CPU 0 instructions: 410000001 cycles: 608336138 heartbeat IPC: 0.512866 cumulative IPC: 0.42675 (Simulation time: 0 hr 18 min 4 sec) 
Heartbeat CPU 0 instructions: 420000000 cycles: 635222267 heartbeat IPC: 0.371939 cumulative IPC: 0.423911 (Simulation time: 0 hr 18 min 35 sec) 
Heartbeat CPU 0 instructions: 430000002 cycles: 666064903 heartbeat IPC: 0.324227 cumulative IPC: 0.418319 (Simulation time: 0 hr 19 min 14 sec) 
Heartbeat CPU 0 instructions: 440000000 cycles: 693800881 heartbeat IPC: 0.360542 cumulative IPC: 0.415544 (Simulation time: 0 hr 19 min 50 sec) 
Heartbeat CPU 0 instructions: 450000000 cycles: 717959970 heartbeat IPC: 0.413923 cumulative IPC: 0.415479 (Simulation time: 0 hr 20 min 24 sec) 
Heartbeat CPU 0 instructions: 460000000 cycles: 736101028 heartbeat IPC: 0.551236 cumulative IPC: 0.419452 (Simulation time: 0 hr 20 min 53 sec) 
Heartbeat CPU 0 instructions: 470000000 cycles: 763181563 heartbeat IPC: 0.369269 cumulative IPC: 0.417352 (Simulation time: 0 hr 21 min 26 sec) 
Heartbeat CPU 0 instructions: 480000000 cycles: 792640120 heartbeat IPC: 0.33946 cumulative IPC: 0.413959 (Simulation time: 0 hr 22 min 3 sec) 
Heartbeat CPU 0 instructions: 490000001 cycles: 816825231 heartbeat IPC: 0.413478 cumulative IPC: 0.413943 (Simulation time: 0 hr 22 min 37 sec) 
Heartbeat CPU 0 instructions: 500000000 cycles: 842199209 heartbeat IPC: 0.394105 cumulative IPC: 0.413249 (Simulation time: 0 hr 23 min 9 sec) 
Heartbeat CPU 0 instructions: 510000001 cycles: 872407723 heartbeat IPC: 0.331033 cumulative IPC: 0.409965 (Simulation time: 0 hr 23 min 47 sec) 
Heartbeat CPU 0 instructions: 520000000 cycles: 900344362 heartbeat IPC: 0.357953 cumulative IPC: 0.408112 (Simulation time: 0 hr 24 min 24 sec) 
Heartbeat CPU 0 instructions: 530000001 cycles: 926769022 heartbeat IPC: 0.378434 cumulative IPC: 0.407144 (Simulation time: 0 hr 25 min 0 sec) 
Heartbeat CPU 0 instructions: 540000000 cycles: 951933183 heartbeat IPC: 0.397391 cumulative IPC: 0.40685 (Simulation time: 0 hr 25 min 34 sec) 
Heartbeat CPU 0 instructions: 550000003 cycles: 976177062 heartbeat IPC: 0.412475 cumulative IPC: 0.407009 (Simulation time: 0 hr 26 min 9 sec) 
Heartbeat CPU 0 instructions: 560000000 cycles: 999628126 heartbeat IPC: 0.42642 cumulative IPC: 0.407524 (Simulation time: 0 hr 26 min 43 sec) 
Heartbeat CPU 0 instructions: 570000003 cycles: 1015048615 heartbeat IPC: 0.648488 cumulative IPC: 0.411658 (Simulation time: 0 hr 27 min 11 sec) 
Heartbeat CPU 0 instructions: 580000000 cycles: 1030266703 heartbeat IPC: 0.657113 cumulative IPC: 0.415745 (Simulation time: 0 hr 27 min 39 sec) 
Heartbeat CPU 0 instructions: 590000000 cycles: 1046779413 heartbeat IPC: 0.605594 cumulative IPC: 0.419114 (Simulation time: 0 hr 28 min 7 sec) 
Heartbeat CPU 0 instructions: 600000000 cycles: 1064888613 heartbeat IPC: 0.552206 cumulative IPC: 0.421655 (Simulation time: 0 hr 28 min 36 sec) 
Heartbeat CPU 0 instructions: 610000000 cycles: 1086609016 heartbeat IPC: 0.460397 cumulative IPC: 0.422522 (Simulation time: 0 hr 29 min 5 sec) 
Heartbeat CPU 0 instructions: 620000000 cycles: 1116269310 heartbeat IPC: 0.337151 cumulative IPC: 0.41999 (Simulation time: 0 hr 29 min 39 sec) 
Heartbeat CPU 0 instructions: 630000002 cycles: 1146456624 heartbeat IPC: 0.331265 cumulative IPC: 0.41739 (Simulation time: 0 hr 30 min 16 sec) 
Heartbeat CPU 0 instructions: 640000000 cycles: 1177654611 heartbeat IPC: 0.320533 cumulative IPC: 0.414543 (Simulation time: 0 hr 30 min 54 sec) 
Heartbeat CPU 0 instructions: 650000000 cycles: 1206612440 heartbeat IPC: 0.34533 cumulative IPC: 0.412705 (Simulation time: 0 hr 31 min 32 sec) 
Heartbeat CPU 0 instructions: 660000000 cycles: 1233529805 heartbeat IPC: 0.371507 cumulative IPC: 0.411712 (Simulation time: 0 hr 32 min 8 sec) 
Heartbeat CPU 0 instructions: 670000003 cycles: 1258947488 heartbeat IPC: 0.393427 cumulative IPC: 0.411306 (Simulation time: 0 hr 32 min 43 sec) 
Heartbeat CPU 0 instructions: 680000000 cycles: 1281859124 heartbeat IPC: 0.436459 cumulative IPC: 0.4118 (Simulation time: 0 hr 33 min 16 sec) 
Heartbeat CPU 0 instructions: 690000000 cycles: 1297443476 heartbeat IPC: 0.641669 cumulative IPC: 0.414833 (Simulation time: 0 hr 33 min 44 sec) 
Heartbeat CPU 0 instructions: 700000000 cycles: 1314625738 heartbeat IPC: 0.581996 cumulative IPC: 0.41723 (Simulation time: 0 hr 34 min 13 sec) 
Heartbeat CPU 0 instructions: 710000001 cycles: 1335391359 heartbeat IPC: 0.481565 cumulative IPC: 0.418326 (Simulation time: 0 hr 34 min 43 sec) 
Heartbeat CPU 0 instructions: 720000000 cycles: 1365361798 heartbeat IPC: 0.333662 cumulative IPC: 0.416294 (Simulation time: 0 hr 35 min 18 sec) 
Heartbeat CPU 0 instructions: 730000000 cycles: 1393298164 heartbeat IPC: 0.357956 cumulative IPC: 0.415018 (Simulation time: 0 hr 35 min 53 sec) 
Heartbeat CPU 0 instructions: 740000000 cycles: 1424259654 heartbeat IPC: 0.322982 cumulative IPC: 0.412839 (Simulation time: 0 hr 36 min 31 sec) 
Heartbeat CPU 0 instructions: 750000002 cycles: 1455758830 heartbeat IPC: 0.317469 cumulative IPC: 0.410597 (Simulation time: 0 hr 37 min 8 sec) 
Heartbeat CPU 0 instructions: 760000000 cycles: 1487453352 heartbeat IPC: 0.315512 cumulative IPC: 0.408399 (Simulation time: 0 hr 37 min 46 sec) 
Heartbeat CPU 0 instructions: 770000001 cycles: 1517151802 heartbeat IPC: 0.336718 cumulative IPC: 0.406879 (Simulation time: 0 hr 38 min 24 sec) 
Heartbeat CPU 0 instructions: 780000000 cycles: 1544333164 heartbeat IPC: 0.367899 cumulative IPC: 0.406137 (Simulation time: 0 hr 38 min 59 sec) 
Heartbeat CPU 0 instructions: 790000000 cycles: 1569656828 heartbeat IPC: 0.394888 cumulative IPC: 0.405941 (Simulation time: 0 hr 39 min 34 sec) 
Heartbeat CPU 0 instructions: 800000000 cycles: 1586709560 heartbeat IPC: 0.586416 cumulative IPC: 0.408034 (Simulation time: 0 hr 40 min 3 sec) 
Heartbeat CPU 0 instructions: 810000000 cycles: 1607311401 heartbeat IPC: 0.485394 cumulative IPC: 0.409103 (Simulation time: 0 hr 40 min 33 sec) 
Heartbeat CPU 0 instructions: 820000000 cycles: 1637768211 heartbeat IPC: 0.328334 cumulative IPC: 0.407486 (Simulation time: 0 hr 41 min 10 sec) 
Heartbeat CPU 0 instructions: 830000000 cycles: 1664522830 heartbeat IPC: 0.373767 cumulative IPC: 0.406904 (Simulation time: 0 hr 41 min 44 sec) 
Heartbeat CPU 0 instructions: 840000000 cycles: 1696243964 heartbeat IPC: 0.315247 cumulative IPC: 0.405064 (Simulation time: 0 hr 42 min 22 sec) 
Heartbeat CPU 0 instructions: 850000000 cycles: 1724952067 heartbeat IPC: 0.348334 cumulative IPC: 0.404051 (Simulation time: 0 hr 42 min 59 sec) 
Heartbeat CPU 0 instructions: 860000000 cycles: 1747996769 heartbeat IPC: 0.433939 cumulative IPC: 0.404473 (Simulation time: 0 hr 43 min 31 sec) 
Heartbeat CPU 0 instructions: 870000000 cycles: 1778501209 heartbeat IPC: 0.327821 cumulative IPC: 0.403067 (Simulation time: 0 hr 44 min 9 sec) 
Heartbeat CPU 0 instructions: 880000000 cycles: 1805953793 heartbeat IPC: 0.364264 cumulative IPC: 0.402436 (Simulation time: 0 hr 44 min 45 sec) 
Heartbeat CPU 0 instructions: 890000000 cycles: 1826377786 heartbeat IPC: 0.48962 cumulative IPC: 0.403477 (Simulation time: 0 hr 45 min 15 sec) 
Heartbeat CPU 0 instructions: 900000000 cycles: 1857313565 heartbeat IPC: 0.32325 cumulative IPC: 0.402052 (Simulation time: 0 hr 45 min 52 sec) 
Heartbeat CPU 0 instructions: 910000000 cycles: 1887213044 heartbeat IPC: 0.334454 cumulative IPC: 0.400911 (Simulation time: 0 hr 46 min 29 sec) 
Heartbeat CPU 0 instructions: 920000000 cycles: 1914388575 heartbeat IPC: 0.367978 cumulative IPC: 0.400413 (Simulation time: 0 hr 47 min 5 sec) 
Heartbeat CPU 0 instructions: 930000003 cycles: 1935045262 heartbeat IPC: 0.484105 cumulative IPC: 0.401364 (Simulation time: 0 hr 47 min 37 sec) 
Heartbeat CPU 0 instructions: 940000000 cycles: 1958365963 heartbeat IPC: 0.428803 cumulative IPC: 0.401711 (Simulation time: 0 hr 48 min 8 sec) 
Heartbeat CPU 0 instructions: 950000002 cycles: 1988926827 heartbeat IPC: 0.327216 cumulative IPC: 0.400495 (Simulation time: 0 hr 48 min 46 sec) 
Heartbeat CPU 0 instructions: 960000000 cycles: 2016585865 heartbeat IPC: 0.361545 cumulative IPC: 0.399928 (Simulation time: 0 hr 49 min 21 sec) 
Heartbeat CPU 0 instructions: 970000000 cycles: 2045626813 heartbeat IPC: 0.344341 cumulative IPC: 0.399092 (Simulation time: 0 hr 49 min 58 sec) 
Heartbeat CPU 0 instructions: 980000000 cycles: 2072328290 heartbeat IPC: 0.374511 cumulative IPC: 0.398756 (Simulation time: 0 hr 50 min 33 sec) 
Heartbeat CPU 0 instructions: 990000000 cycles: 2097648292 heartbeat IPC: 0.394945 cumulative IPC: 0.398707 (Simulation time: 0 hr 51 min 8 sec) 
Heartbeat CPU 0 instructions: 1000000000 cycles: 2115698229 heartbeat IPC: 0.554019 cumulative IPC: 0.400109 (Simulation time: 0 hr 51 min 38 sec) 
Heartbeat CPU 0 instructions: 1010000000 cycles: 2133809041 heartbeat IPC: 0.552156 cumulative IPC: 0.401474 (Simulation time: 0 hr 52 min 7 sec) 
Heartbeat CPU 0 instructions: 1020000000 cycles: 2158659991 heartbeat IPC: 0.402399 cumulative IPC: 0.401486 (Simulation time: 0 hr 52 min 38 sec) 
Heartbeat CPU 0 instructions: 1030000003 cycles: 2189107654 heartbeat IPC: 0.328433 cumulative IPC: 0.400412 (Simulation time: 0 hr 53 min 16 sec) 
Heartbeat CPU 0 instructions: 1040000000 cycles: 2215460552 heartbeat IPC: 0.379465 cumulative IPC: 0.40015 (Simulation time: 0 hr 53 min 51 sec) 
Heartbeat CPU 0 instructions: 1050000000 cycles: 2237742915 heartbeat IPC: 0.448785 cumulative IPC: 0.40066 (Simulation time: 0 hr 54 min 22 sec) 
Heartbeat CPU 0 instructions: 1060000000 cycles: 2268286839 heartbeat IPC: 0.327397 cumulative IPC: 0.399621 (Simulation time: 0 hr 55 min 0 sec) 
Heartbeat CPU 0 instructions: 1070000002 cycles: 2295768290 heartbeat IPC: 0.363882 cumulative IPC: 0.39917 (Simulation time: 0 hr 55 min 36 sec) 
Heartbeat CPU 0 instructions: 1080000000 cycles: 2316082719 heartbeat IPC: 0.492261 cumulative IPC: 0.40003 (Simulation time: 0 hr 56 min 7 sec) 
Heartbeat CPU 0 instructions: 1090000000 cycles: 2344288620 heartbeat IPC: 0.354536 cumulative IPC: 0.399454 (Simulation time: 0 hr 56 min 42 sec) 
Heartbeat CPU 0 instructions: 1100000000 cycles: 2373094727 heartbeat IPC: 0.347149 cumulative IPC: 0.398786 (Simulation time: 0 hr 57 min 19 sec) 
Heartbeat CPU 0 instructions: 1110000002 cycles: 2397659761 heartbeat IPC: 0.407083 cumulative IPC: 0.398875 (Simulation time: 0 hr 57 min 52 sec) 
Heartbeat CPU 0 instructions: 1120000000 cycles: 2418531723 heartbeat IPC: 0.479112 cumulative IPC: 0.399603 (Simulation time: 0 hr 58 min 23 sec) 
Heartbeat CPU 0 instructions: 1130000002 cycles: 2449069877 heartbeat IPC: 0.327459 cumulative IPC: 0.398658 (Simulation time: 0 hr 59 min 0 sec) 
Heartbeat CPU 0 instructions: 1140000000 cycles: 2476845717 heartbeat IPC: 0.360025 cumulative IPC: 0.398204 (Simulation time: 0 hr 59 min 37 sec) 
Heartbeat CPU 0 instructions: 1150000000 cycles: 2502719444 heartbeat IPC: 0.386492 cumulative IPC: 0.398077 (Simulation time: 1 hr 0 min 12 sec) 
Heartbeat CPU 0 instructions: 1160000000 cycles: 2521316415 heartbeat IPC: 0.537722 cumulative IPC: 0.399157 (Simulation time: 1 hr 0 min 42 sec) 
Heartbeat CPU 0 instructions: 1170000000 cycles: 2541483329 heartbeat IPC: 0.495862 cumulative IPC: 0.399961 (Simulation time: 1 hr 1 min 12 sec) 
Heartbeat CPU 0 instructions: 1180000000 cycles: 2571277893 heartbeat IPC: 0.335632 cumulative IPC: 0.39918 (Simulation time: 1 hr 1 min 47 sec) 
Heartbeat CPU 0 instructions: 1190000000 cycles: 2599349881 heartbeat IPC: 0.356227 cumulative IPC: 0.398694 (Simulation time: 1 hr 2 min 23 sec) 
Heartbeat CPU 0 instructions: 1200000000 cycles: 2629168200 heartbeat IPC: 0.335364 cumulative IPC: 0.397943 (Simulation time: 1 hr 3 min 1 sec) 
Finished CPU 0 instructions: 1000000001 cycles: 2512922999 cumulative IPC: 0.397943 (Simulation time: 1 hr 3 min 1 sec) 

CPU 0 Branch Prediction Accuracy: 99.2733% MPKI: 1.86122

ChampSim completed all CPUs

Region of Interest Statistics

CPU 0 cumulative IPC: 0.397943 instructions: 1000000001 cycles: 2512922999
L1D TOTAL     ACCESS:  242986737  HIT:  190220909  MISS:   52765828
L1D LOAD      ACCESS:  175753526  HIT:  124654447  MISS:   51099079
L1D RFO       ACCESS:   67233211  HIT:   65566462  MISS:    1666749
L1D PREFETCH  ACCESS:          0  HIT:          0  MISS:          0
L1D WRITEBACK ACCESS:          0  HIT:          0  MISS:          0
L1D PREFETCH  REQUESTED:          0  ISSUED:          0  USEFUL:          0  USELESS:          0
L1I TOTAL     ACCESS:  436412761  HIT:  434017771  MISS:    2394990
L1I LOAD      ACCESS:  436412761  HIT:  434017771  MISS:    2394990
L1I RFO       ACCESS:          0  HIT:          0  MISS:          0
L1I PREFETCH  ACCESS:          0  HIT:          0  MISS:          0
L1I WRITEBACK ACCESS:          0  HIT:          0  MISS:          0
L1I PREFETCH  REQUESTED:          0  ISSUED:          0  USEFUL:          0  USELESS:          0
L2C TOTAL     ACCESS:   57902255  HIT:   38369499  MISS:   19532756
L2C LOAD      ACCESS:   53493436  HIT:   35348432  MISS:   18145004
L2C RFO       ACCESS:    1666706  HIT:     279164  MISS:    1387542
L2C PREFETCH  ACCESS:          0  HIT:          0  MISS:          0
L2C WRITEBACK ACCESS:    2742113  HIT:    2741903  MISS:        210
L2C PREFETCH  REQUESTED:          0  ISSUED:          0  USEFUL:          0  USELESS:          0
LLC TOTAL     ACCESS:   21411134  HIT:   20889029  MISS:     522105
LLC LOAD      ACCESS:   18144958  HIT:   18092045  MISS:      52913
LLC RFO       ACCESS:    1387527  HIT:     918807  MISS:     468720
LLC PREFETCH  ACCESS:          0  HIT:          0  MISS:          0
LLC WRITEBACK ACCESS:    1878649  HIT:    1878177  MISS:        472
LLC PREFETCH  REQUESTED:          0  ISSUED:          0  USEFUL:          0  USELESS:          0
Major fault: 0 Minor fault: 6230

DRAM Statistics
 CHANNEL 0
 RQ ROW_BUFFER_HIT:     332663  ROW_BUFFER_MISS:     188892
 DBUS_CONGESTED:     628788
 WQ ROW_BUFFER_HIT:     139702  ROW_BUFFER_MISS:     315047  FULL:          0

 AVG_CONGESTED_CYCLE: 12
