Initialize SIGNATURE TABLE
ST_SET: 1
ST_WAY: 256
ST_TAG_BIT: 16
ST_TAG_MASK: ffff

Initialize PATTERN TABLE
PT_SET: 512
PT_WAY: 4
SIG_DELTA_BIT: 7
C_SIG_BIT: 4
C_DELTA_BIT: 4

Initialize PREFETCH FILTER
FILTER_SET: 1024

*** ChampSim Multicore Out-of-Order Simulator ***

Warmup Instructions: 200000000
Simulation Instructions: 1000000000
Number of CPUs: 4
LLC sets: 8192
LLC ways: 16
Off-chip DRAM Size: 8192 MB Channels: 2 Width: 64-bit Data Rate: 1600 MT/s

CPU 0 runs /scratch/user/djimenez/champsim-traces/speccpu2006/xz//459.GemsFDTD-1211B.champsimtrace.xz
CPU 1 runs /scratch/user/djimenez/champsim-traces/speccpu2006/xz//437.leslie3d-232B.champsimtrace.xz
CPU 2 runs /scratch/user/djimenez/champsim-traces/speccpu2006/xz//433.milc-337B.champsimtrace.xz
CPU 3 runs /scratch/user/djimenez/champsim-traces/speccpu2006/xz//481.wrf-196B.champsimtrace.xz
Heartbeat CPU 3 instructions: 10000001 cycles: 4107725 heartbeat IPC: 2.43444 cumulative IPC: 2.43444 (Simulation time: 0 hr 1 min 39 sec) 
Heartbeat CPU 2 instructions: 10000000 cycles: 4280343 heartbeat IPC: 2.33626 cumulative IPC: 2.33626 (Simulation time: 0 hr 1 min 43 sec) 
Heartbeat CPU 1 instructions: 10000003 cycles: 5041391 heartbeat IPC: 1.98358 cumulative IPC: 1.98358 (Simulation time: 0 hr 2 min 1 sec) 
Heartbeat CPU 0 instructions: 10000000 cycles: 8097405 heartbeat IPC: 1.23496 cumulative IPC: 1.23496 (Simulation time: 0 hr 3 min 14 sec) 
Heartbeat CPU 3 instructions: 20000000 cycles: 8225444 heartbeat IPC: 2.42853 cumulative IPC: 2.43148 (Simulation time: 0 hr 3 min 17 sec) 
Heartbeat CPU 2 instructions: 20000000 cycles: 8587724 heartbeat IPC: 2.3216 cumulative IPC: 2.32891 (Simulation time: 0 hr 3 min 25 sec) 
Heartbeat CPU 1 instructions: 20000000 cycles: 10083489 heartbeat IPC: 1.9833 cumulative IPC: 1.98344 (Simulation time: 0 hr 3 min 59 sec) 
Heartbeat CPU 3 instructions: 30000000 cycles: 12502466 heartbeat IPC: 2.33808 cumulative IPC: 2.39953 (Simulation time: 0 hr 4 min 53 sec) 
Heartbeat CPU 2 instructions: 30000002 cycles: 12891887 heartbeat IPC: 2.32333 cumulative IPC: 2.32704 (Simulation time: 0 hr 5 min 2 sec) 
Heartbeat CPU 1 instructions: 30000000 cycles: 15125563 heartbeat IPC: 1.98331 cumulative IPC: 1.9834 (Simulation time: 0 hr 5 min 53 sec) 
Heartbeat CPU 0 instructions: 20000000 cycles: 16194922 heartbeat IPC: 1.23495 cumulative IPC: 1.23495 (Simulation time: 0 hr 6 min 17 sec) 
Heartbeat CPU 3 instructions: 40000000 cycles: 16778259 heartbeat IPC: 2.33875 cumulative IPC: 2.38404 (Simulation time: 0 hr 6 min 30 sec) 
Heartbeat CPU 2 instructions: 40000000 cycles: 17193476 heartbeat IPC: 2.32472 cumulative IPC: 2.32646 (Simulation time: 0 hr 6 min 39 sec) 
Heartbeat CPU 1 instructions: 40000000 cycles: 20167127 heartbeat IPC: 1.98351 cumulative IPC: 1.98343 (Simulation time: 0 hr 7 min 49 sec) 
Heartbeat CPU 3 instructions: 50000001 cycles: 20778365 heartbeat IPC: 2.49993 cumulative IPC: 2.40635 (Simulation time: 0 hr 8 min 3 sec) 
Heartbeat CPU 2 instructions: 50000001 cycles: 21489724 heartbeat IPC: 2.32761 cumulative IPC: 2.32669 (Simulation time: 0 hr 8 min 21 sec) 
Heartbeat CPU 0 instructions: 30000001 cycles: 24292102 heartbeat IPC: 1.235 cumulative IPC: 1.23497 (Simulation time: 0 hr 9 min 33 sec) 
Heartbeat CPU 3 instructions: 60000000 cycles: 24752407 heartbeat IPC: 2.51633 cumulative IPC: 2.42401 (Simulation time: 0 hr 9 min 46 sec) 
Heartbeat CPU 1 instructions: 50000000 cycles: 25208348 heartbeat IPC: 1.98365 cumulative IPC: 1.98347 (Simulation time: 0 hr 9 min 58 sec) 
Heartbeat CPU 2 instructions: 60000000 cycles: 25265798 heartbeat IPC: 2.64825 cumulative IPC: 2.37475 (Simulation time: 0 hr 10 min 0 sec) 
Heartbeat CPU 2 instructions: 70000003 cycles: 28592813 heartbeat IPC: 3.0057 cumulative IPC: 2.44817 (Simulation time: 0 hr 11 min 50 sec) 
Heartbeat CPU 3 instructions: 70000002 cycles: 28731912 heartbeat IPC: 2.51288 cumulative IPC: 2.43632 (Simulation time: 0 hr 11 min 57 sec) 
Heartbeat CPU 1 instructions: 60000000 cycles: 30249252 heartbeat IPC: 1.98377 cumulative IPC: 1.98352 (Simulation time: 0 hr 12 min 41 sec) 
Heartbeat CPU 2 instructions: 80000000 cycles: 31920280 heartbeat IPC: 3.00529 cumulative IPC: 2.50624 (Simulation time: 0 hr 13 min 34 sec) 
Heartbeat CPU 0 instructions: 40000000 cycles: 32374046 heartbeat IPC: 1.23733 cumulative IPC: 1.23556 (Simulation time: 0 hr 13 min 47 sec) 
Heartbeat CPU 3 instructions: 80000000 cycles: 32739147 heartbeat IPC: 2.49549 cumulative IPC: 2.44356 (Simulation time: 0 hr 13 min 57 sec) 
Heartbeat CPU 2 instructions: 90000002 cycles: 35251295 heartbeat IPC: 3.00209 cumulative IPC: 2.5531 (Simulation time: 0 hr 15 min 28 sec) 
Heartbeat CPU 1 instructions: 70000001 cycles: 35290426 heartbeat IPC: 1.98367 cumulative IPC: 1.98354 (Simulation time: 0 hr 15 min 30 sec) 
Heartbeat CPU 3 instructions: 90000003 cycles: 36738174 heartbeat IPC: 2.50061 cumulative IPC: 2.44977 (Simulation time: 0 hr 16 min 52 sec) 
Heartbeat CPU 2 instructions: 100000000 cycles: 38576850 heartbeat IPC: 3.00702 cumulative IPC: 2.59223 (Simulation time: 0 hr 18 min 34 sec) 
Heartbeat CPU 1 instructions: 80000000 cycles: 40332829 heartbeat IPC: 1.98318 cumulative IPC: 1.9835 (Simulation time: 0 hr 20 min 11 sec) 
Heartbeat CPU 0 instructions: 50000001 cycles: 40372668 heartbeat IPC: 1.25022 cumulative IPC: 1.23846 (Simulation time: 0 hr 20 min 13 sec) 
Heartbeat CPU 3 instructions: 100000000 cycles: 40808184 heartbeat IPC: 2.457 cumulative IPC: 2.45049 (Simulation time: 0 hr 20 min 37 sec) 
Heartbeat CPU 2 instructions: 110000000 cycles: 41904765 heartbeat IPC: 3.00488 cumulative IPC: 2.625 (Simulation time: 0 hr 21 min 23 sec) 
Heartbeat CPU 3 instructions: 110000001 cycles: 44973232 heartbeat IPC: 2.40093 cumulative IPC: 2.4459 (Simulation time: 0 hr 22 min 56 sec) 
Heartbeat CPU 2 instructions: 120000000 cycles: 45236686 heartbeat IPC: 3.00127 cumulative IPC: 2.65271 (Simulation time: 0 hr 23 min 5 sec) 
Heartbeat CPU 1 instructions: 90000002 cycles: 45418243 heartbeat IPC: 1.96641 cumulative IPC: 1.98158 (Simulation time: 0 hr 23 min 9 sec) 
Heartbeat CPU 0 instructions: 60000000 cycles: 48459167 heartbeat IPC: 1.23663 cumulative IPC: 1.23816 (Simulation time: 0 hr 24 min 42 sec) 
Heartbeat CPU 3 instructions: 120000000 cycles: 49085373 heartbeat IPC: 2.43182 cumulative IPC: 2.44472 (Simulation time: 0 hr 24 min 59 sec) 
Heartbeat CPU 2 instructions: 130000002 cycles: 49302370 heartbeat IPC: 2.45961 cumulative IPC: 2.63679 (Simulation time: 0 hr 25 min 4 sec) 
Heartbeat CPU 1 instructions: 100000000 cycles: 50459590 heartbeat IPC: 1.9836 cumulative IPC: 1.98178 (Simulation time: 0 hr 25 min 39 sec) 
Heartbeat CPU 3 instructions: 130000000 cycles: 53062482 heartbeat IPC: 2.51439 cumulative IPC: 2.44994 (Simulation time: 0 hr 26 min 54 sec) 
Heartbeat CPU 2 instructions: 140000000 cycles: 53620868 heartbeat IPC: 2.31562 cumulative IPC: 2.61092 (Simulation time: 0 hr 27 min 10 sec) 
Heartbeat CPU 1 instructions: 110000000 cycles: 55501105 heartbeat IPC: 1.98353 cumulative IPC: 1.98194 (Simulation time: 0 hr 28 min 0 sec) 
Heartbeat CPU 0 instructions: 70000002 cycles: 56546045 heartbeat IPC: 1.23657 cumulative IPC: 1.23793 (Simulation time: 0 hr 28 min 29 sec) 
Heartbeat CPU 3 instructions: 140000000 cycles: 57039751 heartbeat IPC: 2.51429 cumulative IPC: 2.45443 (Simulation time: 0 hr 28 min 43 sec) 
Heartbeat CPU 2 instructions: 150000003 cycles: 57937791 heartbeat IPC: 2.31647 cumulative IPC: 2.58898 (Simulation time: 0 hr 29 min 9 sec) 
Heartbeat CPU 1 instructions: 120000000 cycles: 60543000 heartbeat IPC: 1.98338 cumulative IPC: 1.98206 (Simulation time: 0 hr 30 min 21 sec) 
Heartbeat CPU 3 instructions: 150000002 cycles: 61033850 heartbeat IPC: 2.50369 cumulative IPC: 2.45765 (Simulation time: 0 hr 30 min 41 sec) 
Heartbeat CPU 2 instructions: 160000000 cycles: 62259627 heartbeat IPC: 2.31383 cumulative IPC: 2.56988 (Simulation time: 0 hr 31 min 15 sec) 
Heartbeat CPU 0 instructions: 80000000 cycles: 64632542 heartbeat IPC: 1.23663 cumulative IPC: 1.23777 (Simulation time: 0 hr 32 min 12 sec) 
Heartbeat CPU 3 instructions: 160000000 cycles: 65021371 heartbeat IPC: 2.50782 cumulative IPC: 2.46073 (Simulation time: 0 hr 32 min 21 sec) 
Heartbeat CPU 1 instructions: 130000001 cycles: 65585473 heartbeat IPC: 1.98315 cumulative IPC: 1.98215 (Simulation time: 0 hr 32 min 35 sec) 
Heartbeat CPU 2 instructions: 170000003 cycles: 66584011 heartbeat IPC: 2.31247 cumulative IPC: 2.55317 (Simulation time: 0 hr 32 min 59 sec) 
Heartbeat CPU 3 instructions: 170000003 cycles: 69006157 heartbeat IPC: 2.50955 cumulative IPC: 2.46355 (Simulation time: 0 hr 33 min 57 sec) 
Heartbeat CPU 1 instructions: 140000000 cycles: 70682782 heartbeat IPC: 1.96182 cumulative IPC: 1.98068 (Simulation time: 0 hr 34 min 37 sec) 
Heartbeat CPU 2 instructions: 180000000 cycles: 70906613 heartbeat IPC: 2.31342 cumulative IPC: 2.53855 (Simulation time: 0 hr 34 min 42 sec) 
Heartbeat CPU 0 instructions: 90000003 cycles: 72719114 heartbeat IPC: 1.23662 cumulative IPC: 1.23764 (Simulation time: 0 hr 35 min 24 sec) 
Heartbeat CPU 3 instructions: 180000000 cycles: 72796474 heartbeat IPC: 2.6383 cumulative IPC: 2.47265 (Simulation time: 0 hr 35 min 26 sec) 
Heartbeat CPU 2 instructions: 190000000 cycles: 75224850 heartbeat IPC: 2.31576 cumulative IPC: 2.52576 (Simulation time: 0 hr 36 min 23 sec) 
Heartbeat CPU 1 instructions: 150000000 cycles: 76397781 heartbeat IPC: 1.74978 cumulative IPC: 1.96341 (Simulation time: 0 hr 36 min 50 sec) 
Heartbeat CPU 3 instructions: 190000003 cycles: 76538578 heartbeat IPC: 2.67229 cumulative IPC: 2.48241 (Simulation time: 0 hr 36 min 53 sec) 
Heartbeat CPU 2 instructions: 200000000 cycles: 79662683 heartbeat IPC: 2.25335 cumulative IPC: 2.51059 (Simulation time: 0 hr 38 min 8 sec) 
Heartbeat CPU 3 instructions: 200000000 cycles: 80278359 heartbeat IPC: 2.67395 cumulative IPC: 2.49133 (Simulation time: 0 hr 38 min 24 sec) 
Heartbeat CPU 0 instructions: 100000000 cycles: 80805833 heartbeat IPC: 1.2366 cumulative IPC: 1.23753 (Simulation time: 0 hr 38 min 37 sec) 
Heartbeat CPU 1 instructions: 160000000 cycles: 81832279 heartbeat IPC: 1.8401 cumulative IPC: 1.95522 (Simulation time: 0 hr 39 min 2 sec) 
Heartbeat CPU 3 instructions: 210000003 cycles: 84014025 heartbeat IPC: 2.6769 cumulative IPC: 0.119028 (Simulation time: 0 hr 39 min 56 sec) 
Heartbeat CPU 2 instructions: 210000000 cycles: 84451217 heartbeat IPC: 2.08832 cumulative IPC: 0.118412 (Simulation time: 0 hr 40 min 7 sec) 
Heartbeat CPU 3 instructions: 220000000 cycles: 87782310 heartbeat IPC: 2.65373 cumulative IPC: 0.227836 (Simulation time: 0 hr 41 min 29 sec) 
Heartbeat CPU 1 instructions: 170000002 cycles: 87929009 heartbeat IPC: 1.64022 cumulative IPC: 1.93338 (Simulation time: 0 hr 41 min 33 sec) 
Heartbeat CPU 0 instructions: 110000003 cycles: 88892944 heartbeat IPC: 1.23654 cumulative IPC: 1.23744 (Simulation time: 0 hr 41 min 56 sec) 
Heartbeat CPU 2 instructions: 220000000 cycles: 89240694 heartbeat IPC: 2.08791 cumulative IPC: 0.224113 (Simulation time: 0 hr 42 min 5 sec) 
Heartbeat CPU 3 instructions: 230000001 cycles: 91733555 heartbeat IPC: 2.53085 cumulative IPC: 0.327034 (Simulation time: 0 hr 43 min 6 sec) 
Heartbeat CPU 2 instructions: 230000000 cycles: 94031283 heartbeat IPC: 2.08743 cumulative IPC: 0.319043 (Simulation time: 0 hr 44 min 2 sec) 
Heartbeat CPU 1 instructions: 180000000 cycles: 94117536 heartbeat IPC: 1.61589 cumulative IPC: 1.9125 (Simulation time: 0 hr 44 min 4 sec) 
Heartbeat CPU 3 instructions: 240000000 cycles: 95694477 heartbeat IPC: 2.52466 cumulative IPC: 0.417997 (Simulation time: 0 hr 44 min 43 sec) 
Heartbeat CPU 0 instructions: 120000000 cycles: 96979763 heartbeat IPC: 1.23658 cumulative IPC: 1.23737 (Simulation time: 0 hr 45 min 14 sec) 
Heartbeat CPU 3 instructions: 250000003 cycles: 99421834 heartbeat IPC: 2.68287 cumulative IPC: 0.502908 (Simulation time: 0 hr 46 min 14 sec) 
Heartbeat CPU 2 instructions: 240000000 cycles: 99586604 heartbeat IPC: 1.80008 cumulative IPC: 0.40166 (Simulation time: 0 hr 46 min 18 sec) 
Heartbeat CPU 1 instructions: 190000002 cycles: 100300733 heartbeat IPC: 1.61729 cumulative IPC: 1.8943 (Simulation time: 0 hr 46 min 36 sec) 
Heartbeat CPU 3 instructions: 260000000 cycles: 102900491 heartbeat IPC: 2.87467 cumulative IPC: 0.583088 (Simulation time: 0 hr 47 min 41 sec) 
Heartbeat CPU 0 instructions: 130000003 cycles: 105066574 heartbeat IPC: 1.23658 cumulative IPC: 1.23731 (Simulation time: 0 hr 48 min 36 sec) 
Heartbeat CPU 2 instructions: 250000001 cycles: 105145525 heartbeat IPC: 1.79891 cumulative IPC: 0.475531 (Simulation time: 0 hr 48 min 38 sec) 
Heartbeat CPU 1 instructions: 200000000 cycles: 105656932 heartbeat IPC: 1.867 cumulative IPC: 1.89292 (Simulation time: 0 hr 48 min 51 sec) 
Heartbeat CPU 3 instructions: 270000003 cycles: 106699341 heartbeat IPC: 2.63238 cumulative IPC: 0.656049 (Simulation time: 0 hr 49 min 31 sec) 
Heartbeat CPU 2 instructions: 260000000 cycles: 108470327 heartbeat IPC: 3.0077 cumulative IPC: 0.553147 (Simulation time: 0 hr 51 min 9 sec) 
Heartbeat CPU 1 instructions: 210000003 cycles: 110653479 heartbeat IPC: 2.00138 cumulative IPC: 0.0903722 (Simulation time: 0 hr 53 min 5 sec) 
Heartbeat CPU 3 instructions: 280000000 cycles: 110779449 heartbeat IPC: 2.45091 cumulative IPC: 0.722156 (Simulation time: 0 hr 53 min 8 sec) 
Heartbeat CPU 2 instructions: 270000002 cycles: 111795078 heartbeat IPC: 3.00774 cumulative IPC: 0.626146 (Simulation time: 0 hr 53 min 35 sec) 
Heartbeat CPU 0 instructions: 140000000 cycles: 113153003 heartbeat IPC: 1.23664 cumulative IPC: 1.23726 (Simulation time: 0 hr 54 min 12 sec) 
Heartbeat CPU 2 instructions: 280000000 cycles: 115120007 heartbeat IPC: 3.00758 cumulative IPC: 0.694927 (Simulation time: 0 hr 55 min 3 sec) 
Heartbeat CPU 3 instructions: 290000002 cycles: 115616926 heartbeat IPC: 2.06719 cumulative IPC: 0.778433 (Simulation time: 0 hr 55 min 15 sec) 
Heartbeat CPU 1 instructions: 220000000 cycles: 115648597 heartbeat IPC: 2.00195 cumulative IPC: 0.172938 (Simulation time: 0 hr 55 min 16 sec) 
Heartbeat CPU 2 instructions: 290000002 cycles: 118445457 heartbeat IPC: 3.00711 cumulative IPC: 0.759843 (Simulation time: 0 hr 56 min 29 sec) 
Heartbeat CPU 1 instructions: 230000002 cycles: 120632052 heartbeat IPC: 2.00664 cumulative IPC: 0.24869 (Simulation time: 0 hr 57 min 25 sec) 
Heartbeat CPU 0 instructions: 150000002 cycles: 121239373 heartbeat IPC: 1.23665 cumulative IPC: 1.23722 (Simulation time: 0 hr 57 min 41 sec) 
Heartbeat CPU 3 instructions: 300000000 cycles: 121444016 heartbeat IPC: 1.71612 cumulative IPC: 0.823425 (Simulation time: 0 hr 57 min 46 sec) 
Heartbeat CPU 2 instructions: 300000000 cycles: 121769672 heartbeat IPC: 3.00823 cumulative IPC: 0.821223 (Simulation time: 0 hr 57 min 54 sec) 
Heartbeat CPU 2 instructions: 310000003 cycles: 125095023 heartbeat IPC: 3.0072 cumulative IPC: 0.879332 (Simulation time: 0 hr 59 min 20 sec) 
Heartbeat CPU 1 instructions: 240000000 cycles: 125617258 heartbeat IPC: 2.00593 cumulative IPC: 0.318428 (Simulation time: 0 hr 59 min 34 sec) 
Heartbeat CPU 3 instructions: 310000000 cycles: 127271457 heartbeat IPC: 1.71602 cumulative IPC: 0.864294 (Simulation time: 1 hr 0 min 22 sec) 
Heartbeat CPU 2 instructions: 320000000 cycles: 128419308 heartbeat IPC: 3.00816 cumulative IPC: 0.934439 (Simulation time: 1 hr 0 min 52 sec) 
Heartbeat CPU 0 instructions: 160000000 cycles: 129325812 heartbeat IPC: 1.23664 cumulative IPC: 1.23719 (Simulation time: 1 hr 1 min 14 sec) 
Heartbeat CPU 1 instructions: 250000001 cycles: 130613290 heartbeat IPC: 2.00159 cumulative IPC: 0.382809 (Simulation time: 1 hr 1 min 44 sec) 
Heartbeat CPU 2 instructions: 330000001 cycles: 132821264 heartbeat IPC: 2.27172 cumulative IPC: 0.978759 (Simulation time: 1 hr 2 min 34 sec) 
Heartbeat CPU 3 instructions: 320000000 cycles: 133112055 heartbeat IPC: 1.71215 cumulative IPC: 0.901496 (Simulation time: 1 hr 2 min 41 sec) 
Heartbeat CPU 1 instructions: 260000000 cycles: 135607715 heartbeat IPC: 2.00223 cumulative IPC: 0.442453 (Simulation time: 1 hr 3 min 38 sec) 
Heartbeat CPU 2 instructions: 340000000 cycles: 137120433 heartbeat IPC: 2.32603 cumulative IPC: 1.021 (Simulation time: 1 hr 4 min 13 sec) 
Heartbeat CPU 0 instructions: 170000002 cycles: 137412469 heartbeat IPC: 1.23661 cumulative IPC: 1.23715 (Simulation time: 1 hr 4 min 20 sec) 
Heartbeat CPU 3 instructions: 330000003 cycles: 138955611 heartbeat IPC: 1.71129 cumulative IPC: 0.935551 (Simulation time: 1 hr 4 min 55 sec) 
Heartbeat CPU 1 instructions: 270000002 cycles: 140603913 heartbeat IPC: 2.00152 cumulative IPC: 0.497852 (Simulation time: 1 hr 5 min 33 sec) 
Heartbeat CPU 2 instructions: 350000003 cycles: 141418457 heartbeat IPC: 2.32665 cumulative IPC: 1.06068 (Simulation time: 1 hr 5 min 52 sec) 
Heartbeat CPU 3 instructions: 340000000 cycles: 144799345 heartbeat IPC: 1.71123 cumulative IPC: 0.966855 (Simulation time: 1 hr 7 min 9 sec) 
Heartbeat CPU 0 instructions: 180000000 cycles: 145499160 heartbeat IPC: 1.2366 cumulative IPC: 1.23712 (Simulation time: 1 hr 7 min 25 sec) 
Heartbeat CPU 1 instructions: 280000000 cycles: 145590709 heartbeat IPC: 2.0053 cumulative IPC: 0.549486 (Simulation time: 1 hr 7 min 27 sec) 
Heartbeat CPU 2 instructions: 360000000 cycles: 145717010 heartbeat IPC: 2.32636 cumulative IPC: 1.09802 (Simulation time: 1 hr 7 min 30 sec) 
Heartbeat CPU 2 instructions: 370000000 cycles: 150015842 heartbeat IPC: 2.32621 cumulative IPC: 1.13321 (Simulation time: 1 hr 9 min 8 sec) 
Heartbeat CPU 1 instructions: 290000000 cycles: 150575080 heartbeat IPC: 2.00627 cumulative IPC: 0.597708 (Simulation time: 1 hr 9 min 21 sec) 
Heartbeat CPU 3 instructions: 350000001 cycles: 150642927 heartbeat IPC: 1.71128 cumulative IPC: 0.995732 (Simulation time: 1 hr 9 min 22 sec) 
Heartbeat CPU 0 instructions: 190000003 cycles: 153472130 heartbeat IPC: 1.25424 cumulative IPC: 1.23801 (Simulation time: 1 hr 10 min 28 sec) 
Heartbeat CPU 2 instructions: 380000000 cycles: 154326290 heartbeat IPC: 2.31994 cumulative IPC: 1.16636 (Simulation time: 1 hr 10 min 47 sec) 
Heartbeat CPU 1 instructions: 300000000 cycles: 155570236 heartbeat IPC: 2.00194 cumulative IPC: 0.642796 (Simulation time: 1 hr 11 min 16 sec) 
Heartbeat CPU 3 instructions: 360000000 cycles: 156460265 heartbeat IPC: 1.719 cumulative IPC: 1.02262 (Simulation time: 1 hr 11 min 36 sec) 
Heartbeat CPU 2 instructions: 390000001 cycles: 158639121 heartbeat IPC: 2.31866 cumulative IPC: 1.19769 (Simulation time: 1 hr 12 min 26 sec) 
Heartbeat CPU 1 instructions: 310000003 cycles: 160566412 heartbeat IPC: 2.00153 cumulative IPC: 0.685075 (Simulation time: 1 hr 13 min 10 sec) 
Heartbeat CPU 0 instructions: 200000000 cycles: 161241452 heartbeat IPC: 1.28711 cumulative IPC: 1.24038 (Simulation time: 1 hr 13 min 25 sec) 

Warmup complete CPU 0 instructions: 200000001 cycles: 161241469 (Simulation time: 1 hr 13 min 25 sec) 
Warmup complete CPU 1 instructions: 311355140 cycles: 161241468 (Simulation time: 1 hr 13 min 25 sec) 
Warmup complete CPU 2 instructions: 396182205 cycles: 161241468 (Simulation time: 1 hr 13 min 25 sec) 
Warmup complete CPU 3 instructions: 368256513 cycles: 161241468 (Simulation time: 1 hr 13 min 25 sec) 

Heartbeat CPU 3 instructions: 370000003 cycles: 163424376 heartbeat IPC: 1.43593 cumulative IPC: 0.798701 (Simulation time: 1 hr 13 min 56 sec) 
Heartbeat CPU 2 instructions: 400000000 cycles: 164881420 heartbeat IPC: 1.60197 cumulative IPC: 1.04886 (Simulation time: 1 hr 14 min 17 sec) 
Heartbeat CPU 1 instructions: 320000000 cycles: 169300574 heartbeat IPC: 1.14493 cumulative IPC: 1.07268 (Simulation time: 1 hr 15 min 18 sec) 
Heartbeat CPU 2 instructions: 410000002 cycles: 175038534 heartbeat IPC: 0.984532 cumulative IPC: 1.0015 (Simulation time: 1 hr 16 min 39 sec) 
Heartbeat CPU 0 instructions: 210000000 cycles: 175331942 heartbeat IPC: 0.709698 cumulative IPC: 0.709699 (Simulation time: 1 hr 16 min 43 sec) 
Heartbeat CPU 3 instructions: 380000000 cycles: 176076296 heartbeat IPC: 0.790394 cumulative IPC: 0.791616 (Simulation time: 1 hr 16 min 53 sec) 
Heartbeat CPU 1 instructions: 330000000 cycles: 178599174 heartbeat IPC: 1.07543 cumulative IPC: 1.07415 (Simulation time: 1 hr 17 min 28 sec) 
Heartbeat CPU 2 instructions: 420000000 cycles: 185330468 heartbeat IPC: 0.971635 cumulative IPC: 0.988742 (Simulation time: 1 hr 19 min 2 sec) 
Heartbeat CPU 1 instructions: 340000000 cycles: 187921886 heartbeat IPC: 1.07265 cumulative IPC: 1.07363 (Simulation time: 1 hr 19 min 38 sec) 
Heartbeat CPU 3 instructions: 390000003 cycles: 188795126 heartbeat IPC: 0.786236 cumulative IPC: 0.789133 (Simulation time: 1 hr 19 min 50 sec) 
Heartbeat CPU 0 instructions: 220000000 cycles: 189427265 heartbeat IPC: 0.709455 cumulative IPC: 0.709577 (Simulation time: 1 hr 19 min 59 sec) 
Heartbeat CPU 2 instructions: 430000003 cycles: 195744879 heartbeat IPC: 0.960208 cumulative IPC: 0.980129 (Simulation time: 1 hr 21 min 28 sec) 
Heartbeat CPU 1 instructions: 350000000 cycles: 197929336 heartbeat IPC: 0.999256 cumulative IPC: 1.05334 (Simulation time: 1 hr 21 min 57 sec) 
Heartbeat CPU 3 instructions: 400000000 cycles: 199512913 heartbeat IPC: 0.933028 cumulative IPC: 0.82943 (Simulation time: 1 hr 22 min 19 sec) 
Heartbeat CPU 0 instructions: 230000003 cycles: 203523803 heartbeat IPC: 0.709394 cumulative IPC: 0.709516 (Simulation time: 1 hr 23 min 13 sec) 
Heartbeat CPU 2 instructions: 440000000 cycles: 206853211 heartbeat IPC: 0.900225 cumulative IPC: 0.960669 (Simulation time: 1 hr 23 min 59 sec) 
Heartbeat CPU 3 instructions: 410000003 cycles: 209329063 heartbeat IPC: 1.01873 cumulative IPC: 0.868072 (Simulation time: 1 hr 24 min 32 sec) 
Heartbeat CPU 1 instructions: 360000000 cycles: 209388711 heartbeat IPC: 0.872648 cumulative IPC: 1.01034 (Simulation time: 1 hr 24 min 33 sec) 
Heartbeat CPU 0 instructions: 240000000 cycles: 217631296 heartbeat IPC: 0.708843 cumulative IPC: 0.709348 (Simulation time: 1 hr 27 min 5 sec) 
Heartbeat CPU 2 instructions: 450000002 cycles: 217938830 heartbeat IPC: 0.90207 cumulative IPC: 0.949212 (Simulation time: 1 hr 27 min 14 sec) 
Heartbeat CPU 3 instructions: 420000000 cycles: 219153381 heartbeat IPC: 1.01788 cumulative IPC: 0.893486 (Simulation time: 1 hr 27 min 49 sec) 
Heartbeat CPU 1 instructions: 370000002 cycles: 220838081 heartbeat IPC: 0.873411 cumulative IPC: 0.98403 (Simulation time: 1 hr 28 min 37 sec) 
Heartbeat CPU 3 instructions: 430000000 cycles: 228992395 heartbeat IPC: 1.01636 cumulative IPC: 0.911331 (Simulation time: 1 hr 31 min 35 sec) 
Heartbeat CPU 2 instructions: 460000000 cycles: 229096284 heartbeat IPC: 0.896262 cumulative IPC: 0.940505 (Simulation time: 1 hr 31 min 36 sec) 
Heartbeat CPU 0 instructions: 250000003 cycles: 231685656 heartbeat IPC: 0.711523 cumulative IPC: 0.709782 (Simulation time: 1 hr 32 min 12 sec) 
Heartbeat CPU 1 instructions: 380000000 cycles: 232326709 heartbeat IPC: 0.870426 cumulative IPC: 0.96567 (Simulation time: 1 hr 32 min 21 sec) 
Heartbeat CPU 3 instructions: 440000000 cycles: 238411578 heartbeat IPC: 1.06166 cumulative IPC: 0.92968 (Simulation time: 1 hr 33 min 45 sec) 
Heartbeat CPU 2 instructions: 470000002 cycles: 241487291 heartbeat IPC: 0.807037 cumulative IPC: 0.919896 (Simulation time: 1 hr 34 min 26 sec) 
Heartbeat CPU 1 instructions: 390000000 cycles: 243998661 heartbeat IPC: 0.856755 cumulative IPC: 0.950308 (Simulation time: 1 hr 34 min 59 sec) 
Heartbeat CPU 0 instructions: 260000000 cycles: 245761053 heartbeat IPC: 0.710459 cumulative IPC: 0.709895 (Simulation time: 1 hr 35 min 23 sec) 
Heartbeat CPU 3 instructions: 450000003 cycles: 247297030 heartbeat IPC: 1.12544 cumulative IPC: 0.949892 (Simulation time: 1 hr 35 min 44 sec) 
Heartbeat CPU 2 instructions: 480000000 cycles: 253350409 heartbeat IPC: 0.842949 cumulative IPC: 0.909985 (Simulation time: 1 hr 37 min 1 sec) 
Heartbeat CPU 1 instructions: 400000000 cycles: 256653542 heartbeat IPC: 0.790209 cumulative IPC: 0.929074 (Simulation time: 1 hr 37 min 49 sec) 
Heartbeat CPU 3 instructions: 460000000 cycles: 257391303 heartbeat IPC: 0.99066 cumulative IPC: 0.954172 (Simulation time: 1 hr 38 min 0 sec) 
Heartbeat CPU 0 instructions: 270000000 cycles: 259924518 heartbeat IPC: 0.706042 cumulative IPC: 0.709342 (Simulation time: 1 hr 38 min 37 sec) 
Heartbeat CPU 2 instructions: 490000003 cycles: 265022475 heartbeat IPC: 0.856747 cumulative IPC: 0.903998 (Simulation time: 1 hr 39 min 51 sec) 
Heartbeat CPU 1 instructions: 410000003 cycles: 265998679 heartbeat IPC: 1.07008 cumulative IPC: 0.941652 (Simulation time: 1 hr 40 min 5 sec) 
Heartbeat CPU 3 instructions: 470000002 cycles: 267466937 heartbeat IPC: 0.992494 cumulative IPC: 0.957807 (Simulation time: 1 hr 40 min 25 sec) 
Heartbeat CPU 0 instructions: 280000000 cycles: 273988817 heartbeat IPC: 0.71102 cumulative IPC: 0.709551 (Simulation time: 1 hr 42 min 0 sec) 
Heartbeat CPU 1 instructions: 420000000 cycles: 275452991 heartbeat IPC: 1.05772 cumulative IPC: 0.95126 (Simulation time: 1 hr 42 min 21 sec) 
Heartbeat CPU 2 instructions: 500000000 cycles: 275682763 heartbeat IPC: 0.938061 cumulative IPC: 0.907171 (Simulation time: 1 hr 42 min 24 sec) 
Heartbeat CPU 3 instructions: 480000000 cycles: 277397036 heartbeat IPC: 1.00704 cumulative IPC: 0.962016 (Simulation time: 1 hr 42 min 49 sec) 
Heartbeat CPU 1 instructions: 430000002 cycles: 284816193 heartbeat IPC: 1.06801 cumulative IPC: 0.960106 (Simulation time: 1 hr 44 min 50 sec) 
Heartbeat CPU 3 instructions: 490000001 cycles: 285212487 heartbeat IPC: 1.27952 cumulative IPC: 0.982032 (Simulation time: 1 hr 44 min 55 sec) 
Heartbeat CPU 2 instructions: 510000000 cycles: 286590469 heartbeat IPC: 0.916783 cumulative IPC: 0.908007 (Simulation time: 1 hr 45 min 17 sec) 
Heartbeat CPU 0 instructions: 290000000 cycles: 288070604 heartbeat IPC: 0.710137 cumulative IPC: 0.709616 (Simulation time: 1 hr 45 min 42 sec) 
Heartbeat CPU 3 instructions: 500000000 cycles: 293316200 heartbeat IPC: 1.234 cumulative IPC: 0.997492 (Simulation time: 1 hr 47 min 3 sec) 
Heartbeat CPU 1 instructions: 440000000 cycles: 294200037 heartbeat IPC: 1.06566 cumulative IPC: 0.967556 (Simulation time: 1 hr 47 min 15 sec) 
Heartbeat CPU 2 instructions: 520000000 cycles: 297527242 heartbeat IPC: 0.914347 cumulative IPC: 0.908516 (Simulation time: 1 hr 48 min 2 sec) 
Heartbeat CPU 0 instructions: 300000000 cycles: 302177091 heartbeat IPC: 0.708894 cumulative IPC: 0.709544 (Simulation time: 1 hr 49 min 7 sec) 
Heartbeat CPU 3 instructions: 510000002 cycles: 302884830 heartbeat IPC: 1.04508 cumulative IPC: 1.00071 (Simulation time: 1 hr 49 min 17 sec) 
Heartbeat CPU 1 instructions: 450000001 cycles: 303577576 heartbeat IPC: 1.06638 cumulative IPC: 0.974067 (Simulation time: 1 hr 49 min 27 sec) 
Heartbeat CPU 2 instructions: 530000002 cycles: 308447134 heartbeat IPC: 0.91576 cumulative IPC: 0.909053 (Simulation time: 1 hr 50 min 36 sec) 
Heartbeat CPU 3 instructions: 520000000 cycles: 311068556 heartbeat IPC: 1.22194 cumulative IPC: 1.01279 (Simulation time: 1 hr 51 min 15 sec) 
Heartbeat CPU 1 instructions: 460000000 cycles: 312954319 heartbeat IPC: 1.06647 cumulative IPC: 0.979778 (Simulation time: 1 hr 51 min 43 sec) 
Heartbeat CPU 0 instructions: 310000002 cycles: 315679621 heartbeat IPC: 0.740602 cumulative IPC: 0.712259 (Simulation time: 1 hr 52 min 24 sec) 
Heartbeat CPU 3 instructions: 530000000 cycles: 318386422 heartbeat IPC: 1.36652 cumulative IPC: 1.02926 (Simulation time: 1 hr 53 min 2 sec) 
Heartbeat CPU 2 instructions: 540000000 cycles: 320557679 heartbeat IPC: 0.825727 cumulative IPC: 0.902719 (Simulation time: 1 hr 53 min 34 sec) 
Heartbeat CPU 1 instructions: 470000003 cycles: 322332730 heartbeat IPC: 1.06628 cumulative IPC: 0.984814 (Simulation time: 1 hr 53 min 58 sec) 
Heartbeat CPU 3 instructions: 540000000 cycles: 327900955 heartbeat IPC: 1.05102 cumulative IPC: 1.03051 (Simulation time: 1 hr 55 min 9 sec) 
Heartbeat CPU 0 instructions: 320000000 cycles: 329845899 heartbeat IPC: 0.705902 cumulative IPC: 0.711725 (Simulation time: 1 hr 55 min 34 sec) 
Heartbeat CPU 1 instructions: 480000000 cycles: 331729970 heartbeat IPC: 1.06414 cumulative IPC: 0.989186 (Simulation time: 1 hr 55 min 58 sec) 
Heartbeat CPU 3 instructions: 550000000 cycles: 336974613 heartbeat IPC: 1.10209 cumulative IPC: 1.0342 (Simulation time: 1 hr 57 min 5 sec) 
Heartbeat CPU 1 instructions: 490000001 cycles: 341101981 heartbeat IPC: 1.06701 cumulative IPC: 0.993241 (Simulation time: 1 hr 57 min 58 sec) 
Heartbeat CPU 0 instructions: 330000003 cycles: 344082868 heartbeat IPC: 0.702397 cumulative IPC: 0.710999 (Simulation time: 1 hr 58 min 36 sec) 
Heartbeat CPU 3 instructions: 560000000 cycles: 345615314 heartbeat IPC: 1.15731 cumulative IPC: 1.03997 (Simulation time: 1 hr 58 min 55 sec) 
Heartbeat CPU 1 instructions: 500000000 cycles: 350510215 heartbeat IPC: 1.0629 cumulative IPC: 0.996704 (Simulation time: 1 hr 59 min 58 sec) 
Heartbeat CPU 3 instructions: 570000000 cycles: 353547033 heartbeat IPC: 1.26076 cumulative IPC: 1.04908 (Simulation time: 2 hr 0 min 38 sec) 
Heartbeat CPU 0 instructions: 340000000 cycles: 358266898 heartbeat IPC: 0.705018 cumulative IPC: 0.710568 (Simulation time: 2 hr 1 min 39 sec) 
Heartbeat CPU 1 instructions: 510000002 cycles: 360517799 heartbeat IPC: 0.999242 cumulative IPC: 0.996831 (Simulation time: 2 hr 2 min 7 sec) 
Heartbeat CPU 3 instructions: 580000000 cycles: 361464349 heartbeat IPC: 1.26305 cumulative IPC: 1.05754 (Simulation time: 2 hr 2 min 19 sec) 
Heartbeat CPU 2 instructions: 550000000 cycles: 367768535 heartbeat IPC: 0.211816 cumulative IPC: 0.744783 (Simulation time: 2 hr 3 min 39 sec) 
Heartbeat CPU 3 instructions: 590000001 cycles: 369231974 heartbeat IPC: 1.28739 cumulative IPC: 1.06612 (Simulation time: 2 hr 3 min 57 sec) 
Heartbeat CPU 0 instructions: 350000003 cycles: 372414731 heartbeat IPC: 0.706822 cumulative IPC: 0.710317 (Simulation time: 2 hr 4 min 38 sec) 
Heartbeat CPU 1 instructions: 520000000 cycles: 373344835 heartbeat IPC: 0.779603 cumulative IPC: 0.983694 (Simulation time: 2 hr 4 min 50 sec) 
Heartbeat CPU 3 instructions: 600000000 cycles: 376751735 heartbeat IPC: 1.32983 cumulative IPC: 1.07532 (Simulation time: 2 hr 5 min 33 sec) 
Heartbeat CPU 3 instructions: 610000001 cycles: 384984201 heartbeat IPC: 1.2147 cumulative IPC: 1.08045 (Simulation time: 2 hr 7 min 18 sec) 
Heartbeat CPU 1 instructions: 530000003 cycles: 386431265 heartbeat IPC: 0.764151 cumulative IPC: 0.970936 (Simulation time: 2 hr 7 min 36 sec) 
Heartbeat CPU 0 instructions: 360000000 cycles: 386612975 heartbeat IPC: 0.704312 cumulative IPC: 0.709939 (Simulation time: 2 hr 7 min 38 sec) 
Heartbeat CPU 3 instructions: 620000000 cycles: 393618294 heartbeat IPC: 1.1582 cumulative IPC: 1.08334 (Simulation time: 2 hr 9 min 7 sec) 
Heartbeat CPU 1 instructions: 540000000 cycles: 399338448 heartbeat IPC: 0.774762 cumulative IPC: 0.960301 (Simulation time: 2 hr 10 min 22 sec) 
Heartbeat CPU 0 instructions: 370000000 cycles: 400761973 heartbeat IPC: 0.706764 cumulative IPC: 0.709751 (Simulation time: 2 hr 10 min 41 sec) 
Heartbeat CPU 3 instructions: 630000002 cycles: 401963781 heartbeat IPC: 1.19825 cumulative IPC: 1.08733 (Simulation time: 2 hr 10 min 57 sec) 
Heartbeat CPU 2 instructions: 560000000 cycles: 402154634 heartbeat IPC: 0.290815 cumulative IPC: 0.679987 (Simulation time: 2 hr 11 min 0 sec) 
Heartbeat CPU 1 instructions: 550000000 cycles: 410238316 heartbeat IPC: 0.917442 cumulative IPC: 0.958425 (Simulation time: 2 hr 12 min 38 sec) 
Heartbeat CPU 3 instructions: 640000000 cycles: 412598484 heartbeat IPC: 0.940318 cumulative IPC: 1.08111 (Simulation time: 2 hr 13 min 10 sec) 
Heartbeat CPU 0 instructions: 380000000 cycles: 415030945 heartbeat IPC: 0.700821 cumulative IPC: 0.709249 (Simulation time: 2 hr 13 min 43 sec) 
Heartbeat CPU 1 instructions: 560000000 cycles: 419500792 heartbeat IPC: 1.07962 cumulative IPC: 0.962772 (Simulation time: 2 hr 14 min 44 sec) 
Heartbeat CPU 3 instructions: 650000003 cycles: 421199807 heartbeat IPC: 1.16261 cumulative IPC: 1.0838 (Simulation time: 2 hr 15 min 7 sec) 
Heartbeat CPU 2 instructions: 570000000 cycles: 425561791 heartbeat IPC: 0.42722 cumulative IPC: 0.657603 (Simulation time: 2 hr 16 min 7 sec) 
Heartbeat CPU 1 instructions: 570000001 cycles: 428762372 heartbeat IPC: 1.07973 cumulative IPC: 0.966821 (Simulation time: 2 hr 17 min 11 sec) 
Heartbeat CPU 0 instructions: 390000000 cycles: 429365530 heartbeat IPC: 0.697613 cumulative IPC: 0.708627 (Simulation time: 2 hr 17 min 21 sec) 
Heartbeat CPU 3 instructions: 660000000 cycles: 429444994 heartbeat IPC: 1.21283 cumulative IPC: 1.08777 (Simulation time: 2 hr 17 min 22 sec) 
Heartbeat CPU 1 instructions: 580000000 cycles: 438046309 heartbeat IPC: 1.07713 cumulative IPC: 0.970521 (Simulation time: 2 hr 19 min 26 sec) 
Heartbeat CPU 3 instructions: 670000003 cycles: 438317554 heartbeat IPC: 1.12707 cumulative IPC: 1.08903 (Simulation time: 2 hr 19 min 29 sec) 
Heartbeat CPU 0 instructions: 400000000 cycles: 443720919 heartbeat IPC: 0.696603 cumulative IPC: 0.708016 (Simulation time: 2 hr 20 min 39 sec) 
Heartbeat CPU 3 instructions: 680000000 cycles: 446897897 heartbeat IPC: 1.16545 cumulative IPC: 1.09132 (Simulation time: 2 hr 21 min 22 sec) 
Heartbeat CPU 1 instructions: 590000001 cycles: 447303633 heartbeat IPC: 1.08023 cumulative IPC: 0.974071 (Simulation time: 2 hr 21 min 28 sec) 
Heartbeat CPU 2 instructions: 580000000 cycles: 449889244 heartbeat IPC: 0.411058 cumulative IPC: 0.636824 (Simulation time: 2 hr 22 min 3 sec) 
Heartbeat CPU 3 instructions: 690000000 cycles: 454712896 heartbeat IPC: 1.27959 cumulative IPC: 1.09634 (Simulation time: 2 hr 23 min 10 sec) 
Heartbeat CPU 1 instructions: 600000000 cycles: 456544658 heartbeat IPC: 1.08213 cumulative IPC: 0.977453 (Simulation time: 2 hr 23 min 34 sec) 
Heartbeat CPU 0 instructions: 410000000 cycles: 458045348 heartbeat IPC: 0.698108 cumulative IPC: 0.707538 (Simulation time: 2 hr 23 min 53 sec) 
Heartbeat CPU 3 instructions: 700000000 cycles: 462499955 heartbeat IPC: 1.28418 cumulative IPC: 1.10119 (Simulation time: 2 hr 24 min 55 sec) 
Heartbeat CPU 1 instructions: 610000002 cycles: 465774086 heartbeat IPC: 1.08349 cumulative IPC: 0.980666 (Simulation time: 2 hr 25 min 41 sec) 
Heartbeat CPU 3 instructions: 710000003 cycles: 469428467 heartbeat IPC: 1.44331 cumulative IPC: 1.10888 (Simulation time: 2 hr 26 min 33 sec) 
Heartbeat CPU 2 instructions: 590000002 cycles: 472049649 heartbeat IPC: 0.451255 cumulative IPC: 0.623593 (Simulation time: 2 hr 27 min 10 sec) 
Heartbeat CPU 0 instructions: 420000000 cycles: 472334151 heartbeat IPC: 0.699849 cumulative IPC: 0.707185 (Simulation time: 2 hr 27 min 14 sec) 
Heartbeat CPU 1 instructions: 620000000 cycles: 475068046 heartbeat IPC: 1.07597 cumulative IPC: 0.983489 (Simulation time: 2 hr 27 min 47 sec) 
Heartbeat CPU 3 instructions: 720000000 cycles: 478472605 heartbeat IPC: 1.10569 cumulative IPC: 1.10879 (Simulation time: 2 hr 28 min 34 sec) 
Heartbeat CPU 1 instructions: 630000001 cycles: 484253824 heartbeat IPC: 1.08864 cumulative IPC: 0.986479 (Simulation time: 2 hr 29 min 54 sec) 
Heartbeat CPU 0 instructions: 430000000 cycles: 486584906 heartbeat IPC: 0.701717 cumulative IPC: 0.706945 (Simulation time: 2 hr 30 min 29 sec) 
Heartbeat CPU 3 instructions: 730000000 cycles: 487497251 heartbeat IPC: 1.10808 cumulative IPC: 1.10877 (Simulation time: 2 hr 30 min 42 sec) 
Heartbeat CPU 2 instructions: 600000000 cycles: 489960738 heartbeat IPC: 0.558313 cumulative IPC: 0.620036 (Simulation time: 2 hr 31 min 16 sec) 
Heartbeat CPU 1 instructions: 640000000 cycles: 493348396 heartbeat IPC: 1.09956 cumulative IPC: 0.989575 (Simulation time: 2 hr 32 min 2 sec) 
Heartbeat CPU 3 instructions: 740000000 cycles: 496499713 heartbeat IPC: 1.11081 cumulative IPC: 1.10883 (Simulation time: 2 hr 32 min 45 sec) 
Heartbeat CPU 0 instructions: 440000000 cycles: 500765267 heartbeat IPC: 0.705201 cumulative IPC: 0.706872 (Simulation time: 2 hr 33 min 42 sec) 
Heartbeat CPU 2 instructions: 610000000 cycles: 502049219 heartbeat IPC: 0.827234 cumulative IPC: 0.627385 (Simulation time: 2 hr 34 min 0 sec) 
Heartbeat CPU 1 instructions: 650000003 cycles: 502434368 heartbeat IPC: 1.1006 cumulative IPC: 0.992532 (Simulation time: 2 hr 34 min 5 sec) 
Heartbeat CPU 3 instructions: 750000002 cycles: 505447361 heartbeat IPC: 1.11761 cumulative IPC: 1.10906 (Simulation time: 2 hr 34 min 46 sec) 
Heartbeat CPU 1 instructions: 660000000 cycles: 511535290 heartbeat IPC: 1.09879 cumulative IPC: 0.995293 (Simulation time: 2 hr 36 min 11 sec) 
Heartbeat CPU 2 instructions: 620000000 cycles: 514068912 heartbeat IPC: 0.831968 cumulative IPC: 0.634355 (Simulation time: 2 hr 36 min 47 sec) 
Heartbeat CPU 3 instructions: 760000000 cycles: 514434415 heartbeat IPC: 1.11271 cumulative IPC: 1.10915 (Simulation time: 2 hr 36 min 52 sec) 
Heartbeat CPU 0 instructions: 450000003 cycles: 514984567 heartbeat IPC: 0.70327 cumulative IPC: 0.706728 (Simulation time: 2 hr 37 min 0 sec) 
Heartbeat CPU 1 instructions: 670000002 cycles: 520624492 heartbeat IPC: 1.10021 cumulative IPC: 0.997946 (Simulation time: 2 hr 38 min 33 sec) 
Heartbeat CPU 3 instructions: 770000002 cycles: 523445683 heartbeat IPC: 1.10972 cumulative IPC: 1.10916 (Simulation time: 2 hr 39 min 14 sec) 
Heartbeat CPU 2 instructions: 630000001 cycles: 526302484 heartbeat IPC: 0.817423 cumulative IPC: 0.64049 (Simulation time: 2 hr 39 min 55 sec) 
Heartbeat CPU 0 instructions: 460000000 cycles: 529192648 heartbeat IPC: 0.703825 cumulative IPC: 0.706616 (Simulation time: 2 hr 40 min 36 sec) 
Heartbeat CPU 1 instructions: 680000000 cycles: 529711804 heartbeat IPC: 1.10044 cumulative IPC: 1.00047 (Simulation time: 2 hr 40 min 43 sec) 
Heartbeat CPU 3 instructions: 780000000 cycles: 532067740 heartbeat IPC: 1.15982 cumulative IPC: 1.11034 (Simulation time: 2 hr 41 min 17 sec) 
Heartbeat CPU 2 instructions: 640000000 cycles: 538713046 heartbeat IPC: 0.805765 cumulative IPC: 0.645924 (Simulation time: 2 hr 42 min 52 sec) 
Heartbeat CPU 1 instructions: 690000002 cycles: 538819117 heartbeat IPC: 1.09802 cumulative IPC: 1.00283 (Simulation time: 2 hr 42 min 53 sec) 
Heartbeat CPU 3 instructions: 790000002 cycles: 540257025 heartbeat IPC: 1.22111 cumulative IPC: 1.11273 (Simulation time: 2 hr 43 min 13 sec) 
Heartbeat CPU 0 instructions: 470000001 cycles: 543386744 heartbeat IPC: 0.704518 cumulative IPC: 0.706538 (Simulation time: 2 hr 43 min 56 sec) 
Heartbeat CPU 1 instructions: 700000000 cycles: 548309867 heartbeat IPC: 1.05366 cumulative IPC: 1.00407 (Simulation time: 2 hr 45 min 5 sec) 
Heartbeat CPU 3 instructions: 800000000 cycles: 548425323 heartbeat IPC: 1.22424 cumulative IPC: 1.11509 (Simulation time: 2 hr 45 min 6 sec) 
Heartbeat CPU 2 instructions: 650000002 cycles: 551338993 heartbeat IPC: 0.79202 cumulative IPC: 0.650652 (Simulation time: 2 hr 45 min 47 sec) 
Heartbeat CPU 3 instructions: 810000003 cycles: 556564157 heartbeat IPC: 1.22868 cumulative IPC: 1.11743 (Simulation time: 2 hr 47 min 0 sec) 
Heartbeat CPU 0 instructions: 480000000 cycles: 557566190 heartbeat IPC: 0.705246 cumulative IPC: 0.706491 (Simulation time: 2 hr 47 min 14 sec) 
Heartbeat CPU 1 instructions: 710000003 cycles: 558069296 heartbeat IPC: 1.02465 cumulative IPC: 1.00458 (Simulation time: 2 hr 47 min 21 sec) 
Heartbeat CPU 2 instructions: 660000000 cycles: 563790957 heartbeat IPC: 0.803086 cumulative IPC: 0.655367 (Simulation time: 2 hr 48 min 47 sec) 
Heartbeat CPU 3 instructions: 820000000 cycles: 564707217 heartbeat IPC: 1.22804 cumulative IPC: 1.11966 (Simulation time: 2 hr 49 min 2 sec) 
Heartbeat CPU 1 instructions: 720000000 cycles: 567866765 heartbeat IPC: 1.02067 cumulative IPC: 1.00497 (Simulation time: 2 hr 49 min 42 sec) 
Heartbeat CPU 0 instructions: 490000001 cycles: 571757743 heartbeat IPC: 0.704645 cumulative IPC: 0.706428 (Simulation time: 2 hr 50 min 34 sec) 
Heartbeat CPU 2 instructions: 670000000 cycles: 576856185 heartbeat IPC: 0.76539 cumulative IPC: 0.658826 (Simulation time: 2 hr 51 min 45 sec) 
Heartbeat CPU 3 instructions: 830000000 cycles: 577073958 heartbeat IPC: 0.80862 cumulative IPC: 1.11041 (Simulation time: 2 hr 51 min 48 sec) 
Heartbeat CPU 1 instructions: 730000002 cycles: 577609351 heartbeat IPC: 1.02642 cumulative IPC: 1.00547 (Simulation time: 2 hr 51 min 55 sec) 
Heartbeat CPU 0 instructions: 500000000 cycles: 585992043 heartbeat IPC: 0.702528 cumulative IPC: 0.706297 (Simulation time: 2 hr 53 min 47 sec) 
Heartbeat CPU 1 instructions: 740000000 cycles: 587409600 heartbeat IPC: 1.02038 cumulative IPC: 1.00581 (Simulation time: 2 hr 54 min 6 sec) 
Heartbeat CPU 3 instructions: 840000000 cycles: 588656633 heartbeat IPC: 0.863358 cumulative IPC: 1.10371 (Simulation time: 2 hr 54 min 23 sec) 
Heartbeat CPU 1 instructions: 750000001 cycles: 597194323 heartbeat IPC: 1.022 cumulative IPC: 1.00618 (Simulation time: 2 hr 56 min 17 sec) 
Heartbeat CPU 0 instructions: 510000003 cycles: 600183727 heartbeat IPC: 0.704638 cumulative IPC: 0.706243 (Simulation time: 2 hr 56 min 57 sec) 
Heartbeat CPU 3 instructions: 850000000 cycles: 600245563 heartbeat IPC: 0.862892 cumulative IPC: 1.09736 (Simulation time: 2 hr 56 min 58 sec) 
Heartbeat CPU 2 instructions: 680000000 cycles: 601372458 heartbeat IPC: 0.407892 cumulative IPC: 0.644848 (Simulation time: 2 hr 57 min 14 sec) 
Heartbeat CPU 1 instructions: 760000000 cycles: 606680155 heartbeat IPC: 1.0542 cumulative IPC: 1.0072 (Simulation time: 2 hr 58 min 27 sec) 
Heartbeat CPU 3 instructions: 860000000 cycles: 610648896 heartbeat IPC: 0.96123 cumulative IPC: 1.0942 (Simulation time: 2 hr 59 min 22 sec) 
Heartbeat CPU 0 instructions: 520000000 cycles: 614457737 heartbeat IPC: 0.700574 cumulative IPC: 0.706065 (Simulation time: 3 hr 0 min 16 sec) 
Heartbeat CPU 2 instructions: 690000003 cycles: 614645127 heartbeat IPC: 0.753428 cumulative IPC: 0.648027 (Simulation time: 3 hr 0 min 18 sec) 
Heartbeat CPU 1 instructions: 770000002 cycles: 616072534 heartbeat IPC: 1.06469 cumulative IPC: 1.00839 (Simulation time: 3 hr 0 min 39 sec) 
Heartbeat CPU 3 instructions: 870000003 cycles: 618261470 heartbeat IPC: 1.31362 cumulative IPC: 1.09786 (Simulation time: 3 hr 1 min 10 sec) 
Heartbeat CPU 1 instructions: 780000000 cycles: 625382598 heartbeat IPC: 1.07411 cumulative IPC: 1.0097 (Simulation time: 3 hr 2 min 54 sec) 
Heartbeat CPU 3 instructions: 880000000 cycles: 625622482 heartbeat IPC: 1.35851 cumulative IPC: 1.10199 (Simulation time: 3 hr 2 min 58 sec) 
Heartbeat CPU 2 instructions: 700000000 cycles: 626787448 heartbeat IPC: 0.823566 cumulative IPC: 0.652605 (Simulation time: 3 hr 3 min 14 sec) 
Heartbeat CPU 0 instructions: 530000000 cycles: 628672882 heartbeat IPC: 0.703475 cumulative IPC: 0.705986 (Simulation time: 3 hr 3 min 41 sec) 
Heartbeat CPU 3 instructions: 890000002 cycles: 633704458 heartbeat IPC: 1.23732 cumulative IPC: 1.10431 (Simulation time: 3 hr 4 min 59 sec) 
Heartbeat CPU 1 instructions: 790000001 cycles: 637352251 heartbeat IPC: 0.835446 cumulative IPC: 1.00532 (Simulation time: 3 hr 5 min 46 sec) 
Heartbeat CPU 2 instructions: 710000001 cycles: 639255481 heartbeat IPC: 0.802051 cumulative IPC: 0.656503 (Simulation time: 3 hr 6 min 9 sec) 
Heartbeat CPU 0 instructions: 540000000 cycles: 642481259 heartbeat IPC: 0.724198 cumulative IPC: 0.706509 (Simulation time: 3 hr 6 min 48 sec) 
Heartbeat CPU 3 instructions: 900000000 cycles: 644309874 heartbeat IPC: 0.942914 cumulative IPC: 1.10076 (Simulation time: 3 hr 7 min 12 sec) 
Heartbeat CPU 1 instructions: 800000000 cycles: 649738458 heartbeat IPC: 0.80735 cumulative IPC: 1.0003 (Simulation time: 3 hr 8 min 21 sec) 
Heartbeat CPU 2 instructions: 720000000 cycles: 651515657 heartbeat IPC: 0.815649 cumulative IPC: 0.660483 (Simulation time: 3 hr 8 min 46 sec) 
Heartbeat CPU 3 instructions: 910000000 cycles: 654014743 heartbeat IPC: 1.03041 cumulative IPC: 1.09938 (Simulation time: 3 hr 9 min 20 sec) 
Heartbeat CPU 0 instructions: 550000000 cycles: 656052613 heartbeat IPC: 0.736846 cumulative IPC: 0.707341 (Simulation time: 3 hr 9 min 48 sec) 
Heartbeat CPU 1 instructions: 810000000 cycles: 661644866 heartbeat IPC: 0.839884 cumulative IPC: 0.996486 (Simulation time: 3 hr 11 min 7 sec) 
Heartbeat CPU 2 instructions: 730000003 cycles: 662764339 heartbeat IPC: 0.888993 cumulative IPC: 0.665608 (Simulation time: 3 hr 11 min 23 sec) 
Heartbeat CPU 3 instructions: 920000000 cycles: 663308177 heartbeat IPC: 1.07603 cumulative IPC: 1.09894 (Simulation time: 3 hr 11 min 30 sec) 
Heartbeat CPU 0 instructions: 560000000 cycles: 670142253 heartbeat IPC: 0.709741 cumulative IPC: 0.707407 (Simulation time: 3 hr 13 min 5 sec) 
Heartbeat CPU 3 instructions: 930000001 cycles: 672671478 heartbeat IPC: 1.068 cumulative IPC: 1.09838 (Simulation time: 3 hr 13 min 40 sec) 
Heartbeat CPU 1 instructions: 820000000 cycles: 673163011 heartbeat IPC: 0.868195 cumulative IPC: 0.993599 (Simulation time: 3 hr 13 min 47 sec) 
Heartbeat CPU 2 instructions: 740000000 cycles: 673887200 heartbeat IPC: 0.899049 cumulative IPC: 0.670673 (Simulation time: 3 hr 13 min 58 sec) 
Heartbeat CPU 3 instructions: 940000000 cycles: 682057213 heartbeat IPC: 1.06545 cumulative IPC: 1.09778 (Simulation time: 3 hr 15 min 56 sec) 
Heartbeat CPU 1 instructions: 830000002 cycles: 682518449 heartbeat IPC: 1.0689 cumulative IPC: 0.994951 (Simulation time: 3 hr 16 min 3 sec) 
Heartbeat CPU 0 instructions: 570000000 cycles: 684169269 heartbeat IPC: 0.71291 cumulative IPC: 0.707555 (Simulation time: 3 hr 16 min 27 sec) 
Heartbeat CPU 2 instructions: 750000002 cycles: 684958999 heartbeat IPC: 0.903196 cumulative IPC: 0.675589 (Simulation time: 3 hr 16 min 38 sec) 
Heartbeat CPU 3 instructions: 950000003 cycles: 691323093 heartbeat IPC: 1.07923 cumulative IPC: 1.09746 (Simulation time: 3 hr 18 min 11 sec) 
Heartbeat CPU 1 instructions: 840000000 cycles: 691779105 heartbeat IPC: 1.07984 cumulative IPC: 0.996432 (Simulation time: 3 hr 18 min 18 sec) 
Heartbeat CPU 2 instructions: 760000000 cycles: 697705227 heartbeat IPC: 0.784546 cumulative IPC: 0.678178 (Simulation time: 3 hr 19 min 42 sec) 
Heartbeat CPU 0 instructions: 580000000 cycles: 698273421 heartbeat IPC: 0.709011 cumulative IPC: 0.707593 (Simulation time: 3 hr 19 min 50 sec) 
Heartbeat CPU 3 instructions: 960000000 cycles: 700672189 heartbeat IPC: 1.06962 cumulative IPC: 1.09698 (Simulation time: 3 hr 20 min 24 sec) 
Heartbeat CPU 1 instructions: 850000001 cycles: 701030456 heartbeat IPC: 1.08092 cumulative IPC: 0.99788 (Simulation time: 3 hr 20 min 29 sec) 
Heartbeat CPU 2 instructions: 770000000 cycles: 709757097 heartbeat IPC: 0.829747 cumulative IPC: 0.681508 (Simulation time: 3 hr 22 min 29 sec) 
Heartbeat CPU 3 instructions: 970000002 cycles: 710090986 heartbeat IPC: 1.06171 cumulative IPC: 1.09637 (Simulation time: 3 hr 22 min 33 sec) 
Heartbeat CPU 1 instructions: 860000000 cycles: 710285610 heartbeat IPC: 1.08048 cumulative IPC: 0.999273 (Simulation time: 3 hr 22 min 36 sec) 
Heartbeat CPU 0 instructions: 590000003 cycles: 712356590 heartbeat IPC: 0.710068 cumulative IPC: 0.707656 (Simulation time: 3 hr 23 min 4 sec) 
Heartbeat CPU 3 instructions: 980000000 cycles: 719412936 heartbeat IPC: 1.07274 cumulative IPC: 1.09598 (Simulation time: 3 hr 24 min 41 sec) 
Heartbeat CPU 1 instructions: 870000002 cycles: 719529518 heartbeat IPC: 1.08179 cumulative IPC: 1.00064 (Simulation time: 3 hr 24 min 43 sec) 
Heartbeat CPU 2 instructions: 780000000 cycles: 721703438 heartbeat IPC: 0.837076 cumulative IPC: 0.684824 (Simulation time: 3 hr 25 min 14 sec) 
Heartbeat CPU 0 instructions: 600000000 cycles: 726439750 heartbeat IPC: 0.710068 cumulative IPC: 0.707716 (Simulation time: 3 hr 26 min 21 sec) 
Heartbeat CPU 3 instructions: 990000001 cycles: 728756838 heartbeat IPC: 1.07022 cumulative IPC: 1.09555 (Simulation time: 3 hr 26 min 54 sec) 
Heartbeat CPU 1 instructions: 880000000 cycles: 728804062 heartbeat IPC: 1.07822 cumulative IPC: 1.00191 (Simulation time: 3 hr 26 min 55 sec) 
Heartbeat CPU 2 instructions: 790000003 cycles: 734064549 heartbeat IPC: 0.808989 cumulative IPC: 0.687503 (Simulation time: 3 hr 28 min 4 sec) 
Heartbeat CPU 1 instructions: 890000001 cycles: 738153380 heartbeat IPC: 1.0696 cumulative IPC: 1.003 (Simulation time: 3 hr 29 min 3 sec) 
Heartbeat CPU 3 instructions: 1000000000 cycles: 738261800 heartbeat IPC: 1.05208 cumulative IPC: 1.09484 (Simulation time: 3 hr 29 min 5 sec) 
Heartbeat CPU 0 instructions: 610000003 cycles: 740540617 heartbeat IPC: 0.709176 cumulative IPC: 0.707752 (Simulation time: 3 hr 29 min 37 sec) 
Heartbeat CPU 3 instructions: 1010000000 cycles: 746004568 heartbeat IPC: 1.29153 cumulative IPC: 1.09744 (Simulation time: 3 hr 30 min 56 sec) 
Heartbeat CPU 2 instructions: 800000000 cycles: 746875408 heartbeat IPC: 0.780588 cumulative IPC: 0.68954 (Simulation time: 3 hr 31 min 7 sec) 
Heartbeat CPU 1 instructions: 900000000 cycles: 747470680 heartbeat IPC: 1.07327 cumulative IPC: 1.00412 (Simulation time: 3 hr 31 min 16 sec) 
Heartbeat CPU 0 instructions: 620000000 cycles: 754678138 heartbeat IPC: 0.707337 cumulative IPC: 0.707742 (Simulation time: 3 hr 32 min 54 sec) 
Heartbeat CPU 3 instructions: 1020000000 cycles: 755627294 heartbeat IPC: 1.03921 cumulative IPC: 1.0965 (Simulation time: 3 hr 33 min 8 sec) 
Heartbeat CPU 1 instructions: 910000002 cycles: 756785231 heartbeat IPC: 1.07359 cumulative IPC: 1.00521 (Simulation time: 3 hr 33 min 24 sec) 
Heartbeat CPU 2 instructions: 810000002 cycles: 759544225 heartbeat IPC: 0.78934 cumulative IPC: 0.691653 (Simulation time: 3 hr 34 min 4 sec) 
Heartbeat CPU 3 instructions: 1030000002 cycles: 764581581 heartbeat IPC: 1.11678 cumulative IPC: 1.0968 (Simulation time: 3 hr 35 min 16 sec) 
Heartbeat CPU 1 instructions: 920000000 cycles: 766028817 heartbeat IPC: 1.08183 cumulative IPC: 1.00638 (Simulation time: 3 hr 35 min 37 sec) 
Heartbeat CPU 0 instructions: 630000003 cycles: 768758594 heartbeat IPC: 0.710204 cumulative IPC: 0.707799 (Simulation time: 3 hr 36 min 16 sec) 
Heartbeat CPU 2 instructions: 820000000 cycles: 771382278 heartbeat IPC: 0.844733 cumulative IPC: 0.694623 (Simulation time: 3 hr 36 min 53 sec) 
Heartbeat CPU 3 instructions: 1040000000 cycles: 773616799 heartbeat IPC: 1.10678 cumulative IPC: 1.09695 (Simulation time: 3 hr 37 min 25 sec) 
Heartbeat CPU 1 instructions: 930000002 cycles: 775262370 heartbeat IPC: 1.08301 cumulative IPC: 1.00753 (Simulation time: 3 hr 37 min 49 sec) 
Heartbeat CPU 3 instructions: 1050000001 cycles: 782601156 heartbeat IPC: 1.11305 cumulative IPC: 1.09718 (Simulation time: 3 hr 39 min 36 sec) 
Heartbeat CPU 0 instructions: 640000000 cycles: 782851667 heartbeat IPC: 0.709568 cumulative IPC: 0.707839 (Simulation time: 3 hr 39 min 39 sec) 
Heartbeat CPU 2 instructions: 830000001 cycles: 784039743 heartbeat IPC: 0.790048 cumulative IPC: 0.696562 (Simulation time: 3 hr 39 min 56 sec) 
Heartbeat CPU 1 instructions: 940000000 cycles: 784490030 heartbeat IPC: 1.0837 cumulative IPC: 1.00866 (Simulation time: 3 hr 40 min 2 sec) 
Heartbeat CPU 3 instructions: 1060000000 cycles: 791595332 heartbeat IPC: 1.11183 cumulative IPC: 1.09739 (Simulation time: 3 hr 41 min 41 sec) 
Heartbeat CPU 1 instructions: 950000003 cycles: 793753031 heartbeat IPC: 1.07956 cumulative IPC: 1.0097 (Simulation time: 3 hr 42 min 11 sec) 
Heartbeat CPU 2 instructions: 840000000 cycles: 794900474 heartbeat IPC: 0.920748 cumulative IPC: 0.700405 (Simulation time: 3 hr 42 min 27 sec) 
Heartbeat CPU 0 instructions: 650000000 cycles: 796931200 heartbeat IPC: 0.710251 cumulative IPC: 0.707893 (Simulation time: 3 hr 42 min 56 sec) 
Heartbeat CPU 3 instructions: 1070000000 cycles: 800595215 heartbeat IPC: 1.11113 cumulative IPC: 1.09758 (Simulation time: 3 hr 43 min 45 sec) 
Heartbeat CPU 1 instructions: 960000000 cycles: 803003680 heartbeat IPC: 1.081 cumulative IPC: 1.01072 (Simulation time: 3 hr 44 min 18 sec) 
Heartbeat CPU 2 instructions: 850000003 cycles: 805706562 heartbeat IPC: 0.925405 cumulative IPC: 0.704177 (Simulation time: 3 hr 44 min 52 sec) 
Heartbeat CPU 3 instructions: 1080000000 cycles: 809252956 heartbeat IPC: 1.15504 cumulative IPC: 1.09835 (Simulation time: 3 hr 45 min 36 sec) 
Heartbeat CPU 1 instructions: 970000003 cycles: 812812245 heartbeat IPC: 1.01952 cumulative IPC: 1.01086 (Simulation time: 3 hr 46 min 23 sec) 
Heartbeat CPU 0 instructions: 660000000 cycles: 813812996 heartbeat IPC: 0.592354 cumulative IPC: 0.704904 (Simulation time: 3 hr 46 min 36 sec) 
Heartbeat CPU 2 instructions: 860000000 cycles: 816920806 heartbeat IPC: 0.891723 cumulative IPC: 0.707385 (Simulation time: 3 hr 47 min 17 sec) 
Heartbeat CPU 3 instructions: 1090000002 cycles: 817379428 heartbeat IPC: 1.23055 cumulative IPC: 1.09999 (Simulation time: 3 hr 47 min 23 sec) 
Heartbeat CPU 1 instructions: 980000000 cycles: 823081575 heartbeat IPC: 0.973773 cumulative IPC: 1.01028 (Simulation time: 3 hr 48 min 42 sec) 
Heartbeat CPU 3 instructions: 1100000000 cycles: 825530785 heartbeat IPC: 1.22679 cumulative IPC: 1.10154 (Simulation time: 3 hr 49 min 10 sec) 
Heartbeat CPU 2 instructions: 870000002 cycles: 828171850 heartbeat IPC: 0.888807 cumulative IPC: 0.710446 (Simulation time: 3 hr 49 min 42 sec) 
Heartbeat CPU 0 instructions: 670000001 cycles: 831082666 heartbeat IPC: 0.57905 cumulative IPC: 0.701659 (Simulation time: 3 hr 50 min 22 sec) 
Heartbeat CPU 1 instructions: 990000000 cycles: 833384534 heartbeat IPC: 0.970595 cumulative IPC: 1.00967 (Simulation time: 3 hr 50 min 54 sec) 
Heartbeat CPU 3 instructions: 1110000003 cycles: 833700470 heartbeat IPC: 1.22404 cumulative IPC: 1.10303 (Simulation time: 3 hr 50 min 58 sec) 
Heartbeat CPU 2 instructions: 880000000 cycles: 839637783 heartbeat IPC: 0.872149 cumulative IPC: 0.713179 (Simulation time: 3 hr 52 min 29 sec) 
Heartbeat CPU 3 instructions: 1120000000 cycles: 841933454 heartbeat IPC: 1.21463 cumulative IPC: 1.10438 (Simulation time: 3 hr 53 min 1 sec) 
Heartbeat CPU 1 instructions: 1000000000 cycles: 843744036 heartbeat IPC: 0.965297 cumulative IPC: 1.009 (Simulation time: 3 hr 53 min 21 sec) 
Heartbeat CPU 0 instructions: 680000000 cycles: 847917895 heartbeat IPC: 0.593992 cumulative IPC: 0.699019 (Simulation time: 3 hr 54 min 16 sec) 
Heartbeat CPU 2 instructions: 890000001 cycles: 850424401 heartbeat IPC: 0.927075 cumulative IPC: 0.716526 (Simulation time: 3 hr 54 min 49 sec) 
Heartbeat CPU 1 instructions: 1010000002 cycles: 853991259 heartbeat IPC: 0.975874 cumulative IPC: 1.00851 (Simulation time: 3 hr 55 min 35 sec) 
Heartbeat CPU 3 instructions: 1130000000 cycles: 854295655 heartbeat IPC: 0.808917 cumulative IPC: 1.09911 (Simulation time: 3 hr 55 min 38 sec) 
Heartbeat CPU 2 instructions: 900000000 cycles: 861611174 heartbeat IPC: 0.893913 cumulative IPC: 0.71936 (Simulation time: 3 hr 57 min 13 sec) 
Heartbeat CPU 1 instructions: 1020000000 cycles: 864069944 heartbeat IPC: 0.992193 cumulative IPC: 1.00828 (Simulation time: 3 hr 57 min 44 sec) 
Heartbeat CPU 0 instructions: 690000003 cycles: 864966935 heartbeat IPC: 0.586543 cumulative IPC: 0.696294 (Simulation time: 3 hr 57 min 55 sec) 
Heartbeat CPU 3 instructions: 1140000000 cycles: 865797669 heartbeat IPC: 0.869413 cumulative IPC: 1.09536 (Simulation time: 3 hr 58 min 5 sec) 
Heartbeat CPU 1 instructions: 1030000002 cycles: 873583001 heartbeat IPC: 1.05119 cumulative IPC: 1.00885 (Simulation time: 3 hr 59 min 36 sec) 
Heartbeat CPU 3 instructions: 1150000002 cycles: 877266034 heartbeat IPC: 0.871964 cumulative IPC: 1.09178 (Simulation time: 4 hr 0 min 26 sec) 
Heartbeat CPU 0 instructions: 700000000 cycles: 878949136 heartbeat IPC: 0.715195 cumulative IPC: 0.696662 (Simulation time: 4 hr 0 min 47 sec) 
Heartbeat CPU 2 instructions: 910000003 cycles: 881565522 heartbeat IPC: 0.501144 cumulative IPC: 0.713315 (Simulation time: 4 hr 1 min 19 sec) 
Heartbeat CPU 1 instructions: 1040000000 cycles: 883124912 heartbeat IPC: 1.04801 cumulative IPC: 1.00937 (Simulation time: 4 hr 1 min 37 sec) 
Heartbeat CPU 3 instructions: 1160000000 cycles: 887486655 heartbeat IPC: 0.978414 cumulative IPC: 1.09019 (Simulation time: 4 hr 2 min 30 sec) 
Heartbeat CPU 0 instructions: 710000001 cycles: 892981497 heartbeat IPC: 0.712638 cumulative IPC: 0.696969 (Simulation time: 4 hr 3 min 36 sec) 
Heartbeat CPU 3 instructions: 1170000001 cycles: 895122458 heartbeat IPC: 1.30962 cumulative IPC: 1.09247 (Simulation time: 4 hr 4 min 2 sec) 
Heartbeat CPU 1 instructions: 1050000002 cycles: 895390208 heartbeat IPC: 0.815309 cumulative IPC: 1.00612 (Simulation time: 4 hr 4 min 5 sec) 
Heartbeat CPU 2 instructions: 920000000 cycles: 902152405 heartbeat IPC: 0.485746 cumulative IPC: 0.706992 (Simulation time: 4 hr 5 min 29 sec) 
Heartbeat CPU 3 instructions: 1180000000 cycles: 902525479 heartbeat IPC: 1.3508 cumulative IPC: 1.09505 (Simulation time: 4 hr 5 min 34 sec) 
Heartbeat CPU 0 instructions: 720000000 cycles: 907067102 heartbeat IPC: 0.709945 cumulative IPC: 0.697214 (Simulation time: 4 hr 6 min 32 sec) 
Heartbeat CPU 1 instructions: 1060000000 cycles: 907408718 heartbeat IPC: 0.83205 cumulative IPC: 1.00332 (Simulation time: 4 hr 6 min 36 sec) 
Heartbeat CPU 3 instructions: 1190000001 cycles: 911153331 heartbeat IPC: 1.15904 cumulative IPC: 1.09579 (Simulation time: 4 hr 7 min 18 sec) 
Heartbeat CPU 1 instructions: 1070000003 cycles: 919633937 heartbeat IPC: 0.817981 cumulative IPC: 1.00033 (Simulation time: 4 hr 8 min 48 sec) 
Heartbeat CPU 3 instructions: 1200000000 cycles: 921622749 heartbeat IPC: 0.955163 cumulative IPC: 1.09385 (Simulation time: 4 hr 9 min 10 sec) 
Heartbeat CPU 0 instructions: 730000000 cycles: 922658567 heartbeat IPC: 0.641377 cumulative IPC: 0.696071 (Simulation time: 4 hr 9 min 23 sec) 
Heartbeat CPU 2 instructions: 930000002 cycles: 923195619 heartbeat IPC: 0.475213 cumulative IPC: 0.70059 (Simulation time: 4 hr 9 min 30 sec) 
Heartbeat CPU 1 instructions: 1080000000 cycles: 929431657 heartbeat IPC: 1.02065 cumulative IPC: 1.00059 (Simulation time: 4 hr 10 min 46 sec) 
Heartbeat CPU 3 instructions: 1210000002 cycles: 931051155 heartbeat IPC: 1.06062 cumulative IPC: 1.09344 (Simulation time: 4 hr 11 min 6 sec) 
Heartbeat CPU 1 instructions: 1090000000 cycles: 938948357 heartbeat IPC: 1.05078 cumulative IPC: 1.00121 (Simulation time: 4 hr 12 min 29 sec) 
Heartbeat CPU 3 instructions: 1220000000 cycles: 940585405 heartbeat IPC: 1.04885 cumulative IPC: 1.0929 (Simulation time: 4 hr 12 min 44 sec) 
Heartbeat CPU 0 instructions: 740000000 cycles: 946297558 heartbeat IPC: 0.42303 cumulative IPC: 0.687849 (Simulation time: 4 hr 13 min 40 sec) 
Heartbeat CPU 1 instructions: 1100000000 cycles: 948787666 heartbeat IPC: 1.01633 cumulative IPC: 1.00139 (Simulation time: 4 hr 14 min 12 sec) 
Heartbeat CPU 2 instructions: 940000000 cycles: 949449533 heartbeat IPC: 0.380896 cumulative IPC: 0.689942 (Simulation time: 4 hr 14 min 20 sec) 
Heartbeat CPU 3 instructions: 1230000000 cycles: 950184849 heartbeat IPC: 1.04173 cumulative IPC: 1.09228 (Simulation time: 4 hr 14 min 29 sec) 
Heartbeat CPU 0 instructions: 750000000 cycles: 955795855 heartbeat IPC: 1.05282 cumulative IPC: 0.692212 (Simulation time: 4 hr 15 min 41 sec) 
Heartbeat CPU 1 instructions: 1110000002 cycles: 958684365 heartbeat IPC: 1.01044 cumulative IPC: 1.00151 (Simulation time: 4 hr 16 min 17 sec) 
Heartbeat CPU 3 instructions: 1240000000 cycles: 959888810 heartbeat IPC: 1.03051 cumulative IPC: 1.09152 (Simulation time: 4 hr 16 min 32 sec) 
Heartbeat CPU 0 instructions: 760000000 cycles: 965301519 heartbeat IPC: 1.052 cumulative IPC: 0.696465 (Simulation time: 4 hr 17 min 41 sec) 
Heartbeat CPU 1 instructions: 1120000000 cycles: 968572368 heartbeat IPC: 1.01133 cumulative IPC: 1.00163 (Simulation time: 4 hr 18 min 22 sec) 
Heartbeat CPU 3 instructions: 1250000000 cycles: 969597403 heartbeat IPC: 1.03002 cumulative IPC: 1.09079 (Simulation time: 4 hr 18 min 35 sec) 
Heartbeat CPU 0 instructions: 770000003 cycles: 974797860 heartbeat IPC: 1.05304 cumulative IPC: 0.700628 (Simulation time: 4 hr 19 min 41 sec) 
Heartbeat CPU 1 instructions: 1130000003 cycles: 978457562 heartbeat IPC: 1.01161 cumulative IPC: 1.00175 (Simulation time: 4 hr 20 min 29 sec) 
Heartbeat CPU 3 instructions: 1260000000 cycles: 979270236 heartbeat IPC: 1.03382 cumulative IPC: 1.09011 (Simulation time: 4 hr 20 min 39 sec) 
Heartbeat CPU 0 instructions: 780000000 cycles: 984273080 heartbeat IPC: 1.05538 cumulative IPC: 0.704712 (Simulation time: 4 hr 21 min 46 sec) 
Heartbeat CPU 1 instructions: 1140000000 cycles: 988322932 heartbeat IPC: 1.01365 cumulative IPC: 1.00189 (Simulation time: 4 hr 22 min 40 sec) 
Heartbeat CPU 3 instructions: 1270000003 cycles: 988962978 heartbeat IPC: 1.0317 cumulative IPC: 1.08943 (Simulation time: 4 hr 22 min 49 sec) 
Heartbeat CPU 2 instructions: 950000000 cycles: 991682195 heartbeat IPC: 0.236784 cumulative IPC: 0.666896 (Simulation time: 4 hr 23 min 27 sec) 
Heartbeat CPU 0 instructions: 790000003 cycles: 993642675 heartbeat IPC: 1.06728 cumulative IPC: 0.708793 (Simulation time: 4 hr 23 min 57 sec) 
Heartbeat CPU 1 instructions: 1150000003 cycles: 997903045 heartbeat IPC: 1.04383 cumulative IPC: 1.00237 (Simulation time: 4 hr 24 min 57 sec) 
Heartbeat CPU 3 instructions: 1280000000 cycles: 998532019 heartbeat IPC: 1.04504 cumulative IPC: 1.08892 (Simulation time: 4 hr 25 min 6 sec) 
Heartbeat CPU 0 instructions: 800000000 cycles: 1002851689 heartbeat IPC: 1.08589 cumulative IPC: 0.712919 (Simulation time: 4 hr 26 min 8 sec) 
Heartbeat CPU 1 instructions: 1160000000 cycles: 1007586796 heartbeat IPC: 1.03266 cumulative IPC: 1.00272 (Simulation time: 4 hr 27 min 9 sec) 
Heartbeat CPU 2 instructions: 960000000 cycles: 1007631061 heartbeat IPC: 0.627004 cumulative IPC: 0.666145 (Simulation time: 4 hr 27 min 10 sec) 
Heartbeat CPU 3 instructions: 1290000001 cycles: 1009298512 heartbeat IPC: 0.928808 cumulative IPC: 1.08689 (Simulation time: 4 hr 27 min 32 sec) 
Heartbeat CPU 0 instructions: 810000000 cycles: 1012404548 heartbeat IPC: 1.04681 cumulative IPC: 0.716666 (Simulation time: 4 hr 28 min 16 sec) 
Heartbeat CPU 3 instructions: 1300000000 cycles: 1017112364 heartbeat IPC: 1.27978 cumulative IPC: 1.08865 (Simulation time: 4 hr 29 min 22 sec) 
Heartbeat CPU 1 instructions: 1170000001 cycles: 1017320004 heartbeat IPC: 1.02741 cumulative IPC: 1.003 (Simulation time: 4 hr 29 min 25 sec) 
Heartbeat CPU 0 instructions: 820000000 cycles: 1021765799 heartbeat IPC: 1.06823 cumulative IPC: 0.720491 (Simulation time: 4 hr 30 min 24 sec) 
Heartbeat CPU 2 instructions: 970000003 cycles: 1024353005 heartbeat IPC: 0.598017 cumulative IPC: 0.664825 (Simulation time: 4 hr 30 min 57 sec) 
Heartbeat CPU 3 instructions: 1310000000 cycles: 1026090041 heartbeat IPC: 1.11387 cumulative IPC: 1.08891 (Simulation time: 4 hr 31 min 19 sec) 
Heartbeat CPU 1 instructions: 1180000000 cycles: 1027015808 heartbeat IPC: 1.03137 cumulative IPC: 1.00332 (Simulation time: 4 hr 31 min 30 sec) 
Heartbeat CPU 0 instructions: 830000003 cycles: 1031153658 heartbeat IPC: 1.06521 cumulative IPC: 0.724211 (Simulation time: 4 hr 32 min 25 sec) 
Heartbeat CPU 3 instructions: 1320000000 cycles: 1035653322 heartbeat IPC: 1.04567 cumulative IPC: 1.08844 (Simulation time: 4 hr 33 min 28 sec) 
Heartbeat CPU 1 instructions: 1190000003 cycles: 1036565421 heartbeat IPC: 1.04716 cumulative IPC: 1.00379 (Simulation time: 4 hr 33 min 41 sec) 
Heartbeat CPU 2 instructions: 980000000 cycles: 1040180126 heartbeat IPC: 0.631827 cumulative IPC: 0.66423 (Simulation time: 4 hr 34 min 33 sec) 
Heartbeat CPU 0 instructions: 840000000 cycles: 1040306435 heartbeat IPC: 1.09256 cumulative IPC: 0.728046 (Simulation time: 4 hr 34 min 35 sec) 
Heartbeat CPU 3 instructions: 1330000002 cycles: 1044762184 heartbeat IPC: 1.09783 cumulative IPC: 1.08854 (Simulation time: 4 hr 35 min 38 sec) 
Heartbeat CPU 1 instructions: 1200000000 cycles: 1046112696 heartbeat IPC: 1.04742 cumulative IPC: 1.00426 (Simulation time: 4 hr 35 min 58 sec) 
Heartbeat CPU 0 instructions: 850000000 cycles: 1049456306 heartbeat IPC: 1.09291 cumulative IPC: 0.731805 (Simulation time: 4 hr 36 min 46 sec) 
Heartbeat CPU 3 instructions: 1340000000 cycles: 1053887475 heartbeat IPC: 1.09586 cumulative IPC: 1.08861 (Simulation time: 4 hr 37 min 50 sec) 
Heartbeat CPU 2 instructions: 990000003 cycles: 1055382534 heartbeat IPC: 0.657791 cumulative IPC: 0.664121 (Simulation time: 4 hr 38 min 11 sec) 
Heartbeat CPU 1 instructions: 1210000003 cycles: 1055659821 heartbeat IPC: 1.04744 cumulative IPC: 1.00473 (Simulation time: 4 hr 38 min 15 sec) 
Heartbeat CPU 0 instructions: 860000000 cycles: 1058699990 heartbeat IPC: 1.08182 cumulative IPC: 0.73541 (Simulation time: 4 hr 38 min 59 sec) 
Heartbeat CPU 3 instructions: 1350000001 cycles: 1062944797 heartbeat IPC: 1.10408 cumulative IPC: 1.08877 (Simulation time: 4 hr 40 min 0 sec) 
Heartbeat CPU 1 instructions: 1220000000 cycles: 1065164478 heartbeat IPC: 1.05212 cumulative IPC: 1.00522 (Simulation time: 4 hr 40 min 32 sec) 
Heartbeat CPU 0 instructions: 870000002 cycles: 1067793503 heartbeat IPC: 1.09969 cumulative IPC: 0.739064 (Simulation time: 4 hr 41 min 11 sec) 
Heartbeat CPU 2 instructions: 1000000000 cycles: 1070635950 heartbeat IPC: 0.655591 cumulative IPC: 0.663978 (Simulation time: 4 hr 41 min 53 sec) 
Heartbeat CPU 3 instructions: 1360000000 cycles: 1072082436 heartbeat IPC: 1.09437 cumulative IPC: 1.08882 (Simulation time: 4 hr 42 min 14 sec) 
Heartbeat CPU 1 instructions: 1230000000 cycles: 1076194494 heartbeat IPC: 0.906617 cumulative IPC: 1.00403 (Simulation time: 4 hr 43 min 14 sec) 
Heartbeat CPU 0 instructions: 880000000 cycles: 1077103707 heartbeat IPC: 1.07409 cumulative IPC: 0.74247 (Simulation time: 4 hr 43 min 27 sec) 
Finished CPU 3 instructions: 1000000000 cycles: 918433088 cumulative IPC: 1.08881 (Simulation time: 4 hr 44 min 11 sec) 
Heartbeat CPU 3 instructions: 1370000003 cycles: 1081306510 heartbeat IPC: 1.08412 cumulative IPC: 1.08877 (Simulation time: 4 hr 44 min 33 sec) 
Heartbeat CPU 0 instructions: 890000001 cycles: 1086445387 heartbeat IPC: 1.07047 cumulative IPC: 0.745782 (Simulation time: 4 hr 45 min 45 sec) 
Heartbeat CPU 2 instructions: 1010000003 cycles: 1086944150 heartbeat IPC: 0.613189 cumulative IPC: 0.663083 (Simulation time: 4 hr 45 min 52 sec) 
Heartbeat CPU 1 instructions: 1240000000 cycles: 1088358262 heartbeat IPC: 0.822114 cumulative IPC: 1.00165 (Simulation time: 4 hr 46 min 12 sec) 
Heartbeat CPU 3 instructions: 1380000000 cycles: 1089873134 heartbeat IPC: 1.16732 cumulative IPC: 1.0895 (Simulation time: 4 hr 46 min 34 sec) 
Heartbeat CPU 0 instructions: 900000000 cycles: 1095757854 heartbeat IPC: 1.07383 cumulative IPC: 0.749051 (Simulation time: 4 hr 48 min 2 sec) 
Heartbeat CPU 3 instructions: 1390000001 cycles: 1098356407 heartbeat IPC: 1.17879 cumulative IPC: 1.09031 (Simulation time: 4 hr 48 min 40 sec) 
Heartbeat CPU 1 instructions: 1250000003 cycles: 1100495612 heartbeat IPC: 0.823903 cumulative IPC: 0.999351 (Simulation time: 4 hr 49 min 10 sec) 
Heartbeat CPU 2 instructions: 1020000000 cycles: 1103579957 heartbeat IPC: 0.601113 cumulative IPC: 0.661989 (Simulation time: 4 hr 49 min 54 sec) 
Heartbeat CPU 0 instructions: 910000000 cycles: 1105071325 heartbeat IPC: 1.07371 cumulative IPC: 0.752254 (Simulation time: 4 hr 50 min 15 sec) 
Heartbeat CPU 3 instructions: 1400000000 cycles: 1106853322 heartbeat IPC: 1.1769 cumulative IPC: 1.09109 (Simulation time: 4 hr 50 min 40 sec) 
Heartbeat CPU 1 instructions: 1260000000 cycles: 1112654950 heartbeat IPC: 0.822413 cumulative IPC: 0.99709 (Simulation time: 4 hr 52 min 8 sec) 
Heartbeat CPU 0 instructions: 920000000 cycles: 1114355047 heartbeat IPC: 1.07715 cumulative IPC: 0.755419 (Simulation time: 4 hr 52 min 35 sec) 
Heartbeat CPU 3 instructions: 1410000000 cycles: 1115383946 heartbeat IPC: 1.17225 cumulative IPC: 1.09181 (Simulation time: 4 hr 52 min 51 sec) 
Heartbeat CPU 2 instructions: 1030000002 cycles: 1119064386 heartbeat IPC: 0.64581 cumulative IPC: 0.661728 (Simulation time: 4 hr 53 min 46 sec) 
Heartbeat CPU 0 instructions: 930000001 cycles: 1124255948 heartbeat IPC: 1.01001 cumulative IPC: 0.758036 (Simulation time: 4 hr 54 min 55 sec) 
Heartbeat CPU 1 instructions: 1270000000 cycles: 1125437095 heartbeat IPC: 0.782341 cumulative IPC: 0.994243 (Simulation time: 4 hr 55 min 11 sec) 
Heartbeat CPU 3 instructions: 1420000000 cycles: 1126745175 heartbeat IPC: 0.880186 cumulative IPC: 1.08932 (Simulation time: 4 hr 55 min 28 sec) 
Heartbeat CPU 2 instructions: 1040000000 cycles: 1133389141 heartbeat IPC: 0.698092 cumulative IPC: 0.662263 (Simulation time: 4 hr 56 min 56 sec) 
Heartbeat CPU 0 instructions: 940000000 cycles: 1133913192 heartbeat IPC: 1.03549 cumulative IPC: 0.760791 (Simulation time: 4 hr 57 min 3 sec) 
Heartbeat CPU 3 instructions: 1430000002 cycles: 1138632355 heartbeat IPC: 0.841243 cumulative IPC: 1.0863 (Simulation time: 4 hr 58 min 11 sec) 
Heartbeat CPU 1 instructions: 1280000000 cycles: 1139170466 heartbeat IPC: 0.728153 cumulative IPC: 0.990506 (Simulation time: 4 hr 58 min 18 sec) 
Heartbeat CPU 0 instructions: 950000003 cycles: 1143344271 heartbeat IPC: 1.06032 cumulative IPC: 0.763668 (Simulation time: 4 hr 59 min 17 sec) 
Heartbeat CPU 2 instructions: 1050000003 cycles: 1147369047 heartbeat IPC: 0.715313 cumulative IPC: 0.663015 (Simulation time: 5 hr 0 min 13 sec) 
Heartbeat CPU 1 instructions: 1290000000 cycles: 1148555004 heartbeat IPC: 1.06558 cumulative IPC: 0.99122 (Simulation time: 5 hr 0 min 30 sec) 
Heartbeat CPU 3 instructions: 1440000000 cycles: 1150367089 heartbeat IPC: 0.852171 cumulative IPC: 1.08353 (Simulation time: 5 hr 0 min 56 sec) 
Heartbeat CPU 0 instructions: 960000000 cycles: 1152513286 heartbeat IPC: 1.09063 cumulative IPC: 0.766692 (Simulation time: 5 hr 1 min 27 sec) 
Heartbeat CPU 1 instructions: 1300000000 cycles: 1157990832 heartbeat IPC: 1.05979 cumulative IPC: 0.991869 (Simulation time: 5 hr 2 min 44 sec) 
Heartbeat CPU 2 instructions: 1060000000 cycles: 1160261633 heartbeat IPC: 0.775639 cumulative IPC: 0.664469 (Simulation time: 5 hr 3 min 16 sec) 
Heartbeat CPU 0 instructions: 970000000 cycles: 1161658648 heartbeat IPC: 1.09345 cumulative IPC: 0.769679 (Simulation time: 5 hr 3 min 36 sec) 
Heartbeat CPU 3 instructions: 1450000003 cycles: 1162035973 heartbeat IPC: 0.85698 cumulative IPC: 1.08088 (Simulation time: 5 hr 3 min 41 sec) 
Heartbeat CPU 1 instructions: 1310000002 cycles: 1167454511 heartbeat IPC: 1.05667 cumulative IPC: 0.992479 (Simulation time: 5 hr 4 min 58 sec) 
Finished CPU 1 instructions: 1000000001 cycles: 1007508163 cumulative IPC: 0.992548 (Simulation time: 5 hr 5 min 16 sec) 
Heartbeat CPU 0 instructions: 980000000 cycles: 1171034436 heartbeat IPC: 1.06658 cumulative IPC: 0.772436 (Simulation time: 5 hr 5 min 49 sec) 
Heartbeat CPU 3 instructions: 1460000000 cycles: 1171156813 heartbeat IPC: 1.09639 cumulative IPC: 1.08102 (Simulation time: 5 hr 5 min 51 sec) 
Heartbeat CPU 2 instructions: 1070000003 cycles: 1174137833 heartbeat IPC: 0.720659 cumulative IPC: 0.665239 (Simulation time: 5 hr 6 min 36 sec) 
Heartbeat CPU 1 instructions: 1320000000 cycles: 1176927726 heartbeat IPC: 1.05561 cumulative IPC: 0.993067 (Simulation time: 5 hr 7 min 18 sec) 
Heartbeat CPU 3 instructions: 1470000003 cycles: 1178684772 heartbeat IPC: 1.32838 cumulative IPC: 1.08285 (Simulation time: 5 hr 7 min 44 sec) 
Heartbeat CPU 0 instructions: 990000001 cycles: 1180215967 heartbeat IPC: 1.08914 cumulative IPC: 0.775289 (Simulation time: 5 hr 8 min 7 sec) 
Heartbeat CPU 3 instructions: 1480000000 cycles: 1186199071 heartbeat IPC: 1.3308 cumulative IPC: 1.08467 (Simulation time: 5 hr 9 min 37 sec) 
Heartbeat CPU 1 instructions: 1330000001 cycles: 1186373255 heartbeat IPC: 1.0587 cumulative IPC: 0.993672 (Simulation time: 5 hr 9 min 40 sec) 
Heartbeat CPU 2 instructions: 1080000000 cycles: 1187427991 heartbeat IPC: 0.752436 cumulative IPC: 0.666368 (Simulation time: 5 hr 9 min 55 sec) 
Heartbeat CPU 0 instructions: 1000000000 cycles: 1189547966 heartbeat IPC: 1.07158 cumulative IPC: 0.777978 (Simulation time: 5 hr 10 min 24 sec) 
Heartbeat CPU 1 instructions: 1340000000 cycles: 1195902830 heartbeat IPC: 1.04936 cumulative IPC: 0.994185 (Simulation time: 5 hr 11 min 46 sec) 
Heartbeat CPU 3 instructions: 1490000001 cycles: 1197499186 heartbeat IPC: 0.884947 cumulative IPC: 1.08249 (Simulation time: 5 hr 12 min 6 sec) 
Heartbeat CPU 0 instructions: 1010000002 cycles: 1198936344 heartbeat IPC: 1.06515 cumulative IPC: 0.780576 (Simulation time: 5 hr 12 min 25 sec) 
Heartbeat CPU 2 instructions: 1090000003 cycles: 1201724234 heartbeat IPC: 0.699485 cumulative IPC: 0.666823 (Simulation time: 5 hr 13 min 2 sec) 
Heartbeat CPU 1 instructions: 1350000000 cycles: 1205389978 heartbeat IPC: 1.05406 cumulative IPC: 0.994729 (Simulation time: 5 hr 13 min 51 sec) 
Heartbeat CPU 3 instructions: 1500000000 cycles: 1207991453 heartbeat IPC: 0.953083 cumulative IPC: 1.0812 (Simulation time: 5 hr 14 min 26 sec) 
Heartbeat CPU 0 instructions: 1020000000 cycles: 1208246348 heartbeat IPC: 1.07411 cumulative IPC: 0.783186 (Simulation time: 5 hr 14 min 30 sec) 
Heartbeat CPU 1 instructions: 1360000000 cycles: 1214908266 heartbeat IPC: 1.05061 cumulative IPC: 0.995234 (Simulation time: 5 hr 16 min 0 sec) 
Heartbeat CPU 2 instructions: 1100000000 cycles: 1215141154 heartbeat IPC: 0.745327 cumulative IPC: 0.667822 (Simulation time: 5 hr 16 min 3 sec) 
Heartbeat CPU 0 instructions: 1030000002 cycles: 1217498505 heartbeat IPC: 1.08083 cumulative IPC: 0.785794 (Simulation time: 5 hr 16 min 35 sec) 
Heartbeat CPU 3 instructions: 1510000002 cycles: 1217624658 heartbeat IPC: 1.03808 cumulative IPC: 1.0808 (Simulation time: 5 hr 16 min 37 sec) 
Heartbeat CPU 1 instructions: 1370000001 cycles: 1224627756 heartbeat IPC: 1.02886 cumulative IPC: 0.995541 (Simulation time: 5 hr 18 min 10 sec) 
Heartbeat CPU 0 instructions: 1040000000 cycles: 1226858339 heartbeat IPC: 1.06839 cumulative IPC: 0.788276 (Simulation time: 5 hr 18 min 40 sec) 
Heartbeat CPU 3 instructions: 1520000000 cycles: 1227275318 heartbeat IPC: 1.0362 cumulative IPC: 1.0804 (Simulation time: 5 hr 18 min 46 sec) 
Heartbeat CPU 2 instructions: 1110000001 cycles: 1228565857 heartbeat IPC: 0.744896 cumulative IPC: 0.668792 (Simulation time: 5 hr 19 min 3 sec) 
Heartbeat CPU 1 instructions: 1380000000 cycles: 1234339616 heartbeat IPC: 1.02967 cumulative IPC: 0.99585 (Simulation time: 5 hr 20 min 21 sec) 
Heartbeat CPU 0 instructions: 1050000003 cycles: 1236233078 heartbeat IPC: 1.0667 cumulative IPC: 0.790704 (Simulation time: 5 hr 20 min 46 sec) 
Heartbeat CPU 3 instructions: 1530000000 cycles: 1236882084 heartbeat IPC: 1.04093 cumulative IPC: 1.08005 (Simulation time: 5 hr 20 min 55 sec) 
Heartbeat CPU 2 instructions: 1120000000 cycles: 1241703534 heartbeat IPC: 0.761169 cumulative IPC: 0.669915 (Simulation time: 5 hr 21 min 59 sec) 
Heartbeat CPU 0 instructions: 1060000000 cycles: 1245487742 heartbeat IPC: 1.08054 cumulative IPC: 0.793178 (Simulation time: 5 hr 22 min 49 sec) 
Heartbeat CPU 1 instructions: 1390000001 cycles: 1246177713 heartbeat IPC: 0.84473 cumulative IPC: 0.994201 (Simulation time: 5 hr 22 min 58 sec) 
Heartbeat CPU 3 instructions: 1540000000 cycles: 1246413662 heartbeat IPC: 1.04914 cumulative IPC: 1.07978 (Simulation time: 5 hr 23 min 2 sec) 
Heartbeat CPU 2 instructions: 1130000002 cycles: 1254624313 heartbeat IPC: 0.773947 cumulative IPC: 0.671144 (Simulation time: 5 hr 24 min 51 sec) 
Heartbeat CPU 0 instructions: 1070000000 cycles: 1254783057 heartbeat IPC: 1.07581 cumulative IPC: 0.79558 (Simulation time: 5 hr 24 min 53 sec) 
Heartbeat CPU 3 instructions: 1550000003 cycles: 1255979116 heartbeat IPC: 1.04543 cumulative IPC: 1.07948 (Simulation time: 5 hr 25 min 9 sec) 
Heartbeat CPU 1 instructions: 1400000000 cycles: 1258614729 heartbeat IPC: 0.804051 cumulative IPC: 0.992046 (Simulation time: 5 hr 25 min 44 sec) 
Heartbeat CPU 0 instructions: 1080000000 cycles: 1264066861 heartbeat IPC: 1.07714 cumulative IPC: 0.79795 (Simulation time: 5 hr 26 min 56 sec) 
Heartbeat CPU 3 instructions: 1560000000 cycles: 1265520736 heartbeat IPC: 1.04804 cumulative IPC: 1.0792 (Simulation time: 5 hr 27 min 15 sec) 
Heartbeat CPU 2 instructions: 1140000000 cycles: 1267547524 heartbeat IPC: 0.773801 cumulative IPC: 0.672344 (Simulation time: 5 hr 27 min 42 sec) 
Heartbeat CPU 1 instructions: 1410000003 cycles: 1271090495 heartbeat IPC: 0.801554 cumulative IPC: 0.989905 (Simulation time: 5 hr 28 min 29 sec) 
Heartbeat CPU 0 instructions: 1090000001 cycles: 1273314215 heartbeat IPC: 1.08139 cumulative IPC: 0.800307 (Simulation time: 5 hr 28 min 59 sec) 
Heartbeat CPU 3 instructions: 1570000002 cycles: 1275066244 heartbeat IPC: 1.04761 cumulative IPC: 1.07893 (Simulation time: 5 hr 29 min 22 sec) 
Heartbeat CPU 2 instructions: 1150000003 cycles: 1280508343 heartbeat IPC: 0.771556 cumulative IPC: 0.673492 (Simulation time: 5 hr 30 min 34 sec) 
Heartbeat CPU 0 instructions: 1100000000 cycles: 1282605605 heartbeat IPC: 1.07627 cumulative IPC: 0.802594 (Simulation time: 5 hr 31 min 2 sec) 
Heartbeat CPU 1 instructions: 1420000000 cycles: 1283526494 heartbeat IPC: 0.804117 cumulative IPC: 0.987846 (Simulation time: 5 hr 31 min 14 sec) 
Heartbeat CPU 3 instructions: 1580000000 cycles: 1284621358 heartbeat IPC: 1.04656 cumulative IPC: 1.07866 (Simulation time: 5 hr 31 min 29 sec) 
Heartbeat CPU 0 instructions: 1110000001 cycles: 1292172559 heartbeat IPC: 1.04526 cumulative IPC: 0.804647 (Simulation time: 5 hr 33 min 8 sec) 
Heartbeat CPU 1 instructions: 1430000002 cycles: 1292956436 heartbeat IPC: 1.06045 cumulative IPC: 0.988451 (Simulation time: 5 hr 33 min 19 sec) 
Heartbeat CPU 2 instructions: 1160000000 cycles: 1294045730 heartbeat IPC: 0.738695 cumulative IPC: 0.674272 (Simulation time: 5 hr 33 min 34 sec) 
Heartbeat CPU 3 instructions: 1590000003 cycles: 1294653748 heartbeat IPC: 0.996772 cumulative IPC: 1.07793 (Simulation time: 5 hr 33 min 43 sec) 
Heartbeat CPU 0 instructions: 1120000000 cycles: 1301711600 heartbeat IPC: 1.04832 cumulative IPC: 0.806685 (Simulation time: 5 hr 35 min 21 sec) 
Heartbeat CPU 1 instructions: 1440000000 cycles: 1302275351 heartbeat IPC: 1.07309 cumulative IPC: 0.989142 (Simulation time: 5 hr 35 min 29 sec) 
Heartbeat CPU 3 instructions: 1600000000 cycles: 1302565352 heartbeat IPC: 1.26397 cumulative IPC: 1.07922 (Simulation time: 5 hr 35 min 33 sec) 
Heartbeat CPU 2 instructions: 1170000003 cycles: 1308504132 heartbeat IPC: 0.69164 cumulative IPC: 0.674491 (Simulation time: 5 hr 36 min 53 sec) 
Heartbeat CPU 1 instructions: 1450000000 cycles: 1311485583 heartbeat IPC: 1.08575 cumulative IPC: 0.989916 (Simulation time: 5 hr 37 min 32 sec) 
Heartbeat CPU 3 instructions: 1610000003 cycles: 1312401695 heartbeat IPC: 1.01664 cumulative IPC: 1.07869 (Simulation time: 5 hr 37 min 45 sec) 
Heartbeat CPU 0 instructions: 1130000003 cycles: 1315284381 heartbeat IPC: 0.736769 cumulative IPC: 0.805863 (Simulation time: 5 hr 38 min 24 sec) 
Heartbeat CPU 2 instructions: 1180000000 cycles: 1320391832 heartbeat IPC: 0.841205 cumulative IPC: 0.6762 (Simulation time: 5 hr 39 min 35 sec) 
Heartbeat CPU 1 instructions: 1460000000 cycles: 1320649089 heartbeat IPC: 1.09129 cumulative IPC: 0.990717 (Simulation time: 5 hr 39 min 38 sec) 
Heartbeat CPU 3 instructions: 1620000000 cycles: 1321505696 heartbeat IPC: 1.09842 cumulative IPC: 1.07884 (Simulation time: 5 hr 39 min 50 sec) 
Heartbeat CPU 1 instructions: 1470000000 cycles: 1329802028 heartbeat IPC: 1.09255 cumulative IPC: 0.991515 (Simulation time: 5 hr 41 min 45 sec) 
Heartbeat CPU 3 instructions: 1630000003 cycles: 1330616320 heartbeat IPC: 1.09762 cumulative IPC: 1.07899 (Simulation time: 5 hr 41 min 56 sec) 
Heartbeat CPU 2 instructions: 1190000002 cycles: 1331641193 heartbeat IPC: 0.88894 cumulative IPC: 0.678245 (Simulation time: 5 hr 42 min 10 sec) 
[...]
Heartbeat CPU 0 instructions: 1270000002 cycles: 1603646358 heartbeat IPC: 0.232338 cumulative IPC: 0.741817 (Simulation time: 6 hr 34 min 40 sec) 
Heartbeat CPU 1 instructions: 1750000001 cycles: 1604717259 heartbeat IPC: 1.06777 cumulative IPC: 0.996653 (Simulation time: 6 hr 34 min 52 sec) 
Heartbeat CPU 3 instructions: 1930000000 cycles: 1610405273 heartbeat IPC: 1.17784 cumulative IPC: 1.07769 (Simulation time: 6 hr 36 min 1 sec) 
Heartbeat CPU 1 instructions: 1760000000 cycles: 1614045895 heartbeat IPC: 1.07197 cumulative IPC: 0.997137 (Simulation time: 6 hr 36 min 44 sec) 
Heartbeat CPU 2 instructions: 1340000000 cycles: 1616092529 heartbeat IPC: 0.644951 cumulative IPC: 0.648738 (Simulation time: 6 hr 37 min 9 sec) 
Heartbeat CPU 3 instructions: 1940000000 cycles: 1619873733 heartbeat IPC: 1.05614 cumulative IPC: 1.07755 (Simulation time: 6 hr 37 min 54 sec) 
Heartbeat CPU 0 instructions: 1280000000 cycles: 1621303942 heartbeat IPC: 0.566329 cumulative IPC: 0.739694 (Simulation time: 6 hr 38 min 11 sec) 
Heartbeat CPU 1 instructions: 1770000002 cycles: 1623388205 heartbeat IPC: 1.0704 cumulative IPC: 0.997605 (Simulation time: 6 hr 38 min 35 sec) 
Heartbeat CPU 3 instructions: 1950000003 cycles: 1629546383 heartbeat IPC: 1.03384 cumulative IPC: 1.07726 (Simulation time: 6 hr 39 min 45 sec) 
Heartbeat CPU 2 instructions: 1350000000 cycles: 1631800631 heartbeat IPC: 0.636614 cumulative IPC: 0.648609 (Simulation time: 6 hr 40 min 13 sec) 
Heartbeat CPU 1 instructions: 1780000000 cycles: 1632724202 heartbeat IPC: 1.07112 cumulative IPC: 0.998071 (Simulation time: 6 hr 40 min 25 sec) 
Heartbeat CPU 3 instructions: 1960000000 cycles: 1635556745 heartbeat IPC: 1.66379 cumulative IPC: 1.07965 (Simulation time: 6 hr 41 min 2 sec) 
Heartbeat CPU 0 instructions: 1290000000 cycles: 1638900867 heartbeat IPC: 0.568281 cumulative IPC: 0.737653 (Simulation time: 6 hr 41 min 45 sec) 
Heartbeat CPU 3 instructions: 1970000003 cycles: 1641642675 heartbeat IPC: 1.64313 cumulative IPC: 1.08197 (Simulation time: 6 hr 42 min 21 sec) 
Heartbeat CPU 1 instructions: 1790000001 cycles: 1642016008 heartbeat IPC: 1.07622 cumulative IPC: 0.998562 (Simulation time: 6 hr 42 min 26 sec) 
Heartbeat CPU 2 instructions: 1360000000 cycles: 1646291803 heartbeat IPC: 0.690075 cumulative IPC: 0.649014 (Simulation time: 6 hr 43 min 21 sec) 
Heartbeat CPU 3 instructions: 1980000000 cycles: 1647732912 heartbeat IPC: 1.64197 cumulative IPC: 1.08426 (Simulation time: 6 hr 43 min 39 sec) 
Heartbeat CPU 1 instructions: 1800000000 cycles: 1651307292 heartbeat IPC: 1.07628 cumulative IPC: 0.999046 (Simulation time: 6 hr 44 min 25 sec) 
Heartbeat CPU 3 instructions: 1990000002 cycles: 1653765847 heartbeat IPC: 1.65757 cumulative IPC: 1.08658 (Simulation time: 6 hr 44 min 56 sec) 
Heartbeat CPU 0 instructions: 1300000000 cycles: 1656126401 heartbeat IPC: 0.580534 cumulative IPC: 0.735843 (Simulation time: 6 hr 45 min 27 sec) 
*** Reached end of trace for Core: 3 Repeating trace: /scratch/user/djimenez/champsim-traces/speccpu2006/xz//481.wrf-196B.champsimtrace.xz
Heartbeat CPU 3 instructions: 2000000000 cycles: 1659813033 heartbeat IPC: 1.65366 cumulative IPC: 1.08887 (Simulation time: 6 hr 46 min 14 sec) 
Heartbeat CPU 2 instructions: 1370000000 cycles: 1660250695 heartbeat IPC: 0.716389 cumulative IPC: 0.649641 (Simulation time: 6 hr 46 min 19 sec) 
Heartbeat CPU 1 instructions: 1810000000 cycles: 1660614692 heartbeat IPC: 1.07441 cumulative IPC: 0.999514 (Simulation time: 6 hr 46 min 24 sec) 
Heartbeat CPU 3 instructions: 2010000001 cycles: 1666512756 heartbeat IPC: 1.4926 cumulative IPC: 1.09066 (Simulation time: 6 hr 47 min 41 sec) 
Heartbeat CPU 1 instructions: 1820000000 cycles: 1669993352 heartbeat IPC: 1.06625 cumulative IPC: 0.999929 (Simulation time: 6 hr 48 min 25 sec) 
Heartbeat CPU 3 instructions: 2020000000 cycles: 1673264191 heartbeat IPC: 1.48117 cumulative IPC: 1.09241 (Simulation time: 6 hr 49 min 6 sec) 
Heartbeat CPU 0 instructions: 1310000000 cycles: 1673569134 heartbeat IPC: 0.573305 cumulative IPC: 0.733968 (Simulation time: 6 hr 49 min 10 sec) 
Heartbeat CPU 1 instructions: 1830000001 cycles: 1679435484 heartbeat IPC: 1.05908 cumulative IPC: 1.0003 (Simulation time: 6 hr 50 min 22 sec) 
Heartbeat CPU 3 instructions: 2030000000 cycles: 1680164272 heartbeat IPC: 1.44926 cumulative IPC: 1.09403 (Simulation time: 6 hr 50 min 31 sec) 
Heartbeat CPU 2 instructions: 1380000000 cycles: 1685282952 heartbeat IPC: 0.399485 cumulative IPC: 0.645532 (Simulation time: 6 hr 51 min 33 sec) 
Heartbeat CPU 3 instructions: 2040000000 cycles: 1687068803 heartbeat IPC: 1.44832 cumulative IPC: 1.09563 (Simulation time: 6 hr 51 min 55 sec) 
Heartbeat CPU 1 instructions: 1840000000 cycles: 1688883683 heartbeat IPC: 1.0584 cumulative IPC: 1.00066 (Simulation time: 6 hr 52 min 18 sec) 
Heartbeat CPU 0 instructions: 1320000000 cycles: 1691413118 heartbeat IPC: 0.560413 cumulative IPC: 0.731944 (Simulation time: 6 hr 52 min 49 sec) 
Heartbeat CPU 3 instructions: 2050000001 cycles: 1693873794 heartbeat IPC: 1.46951 cumulative IPC: 1.09729 (Simulation time: 6 hr 53 min 22 sec) 
Heartbeat CPU 1 instructions: 1850000001 cycles: 1699233796 heartbeat IPC: 0.966173 cumulative IPC: 1.00042 (Simulation time: 6 hr 54 min 30 sec) 
Heartbeat CPU 3 instructions: 2060000000 cycles: 1700622561 heartbeat IPC: 1.48175 cumulative IPC: 1.09898 (Simulation time: 6 hr 54 min 48 sec) 
Heartbeat CPU 2 instructions: 1390000000 cycles: 1701956827 heartbeat IPC: 0.599741 cumulative IPC: 0.645037 (Simulation time: 6 hr 55 min 5 sec) 
Heartbeat CPU 3 instructions: 2070000001 cycles: 1707349625 heartbeat IPC: 1.48653 cumulative IPC: 1.10066 (Simulation time: 6 hr 56 min 15 sec) 
Heartbeat CPU 0 instructions: 1330000003 cycles: 1708944118 heartbeat IPC: 0.570418 cumulative IPC: 0.730114 (Simulation time: 6 hr 56 min 35 sec) 
Finished CPU 2 instructions: 1000000002 cycles: 1548014216 cumulative IPC: 0.645989 (Simulation time: 6 hr 56 min 39 sec) 

CPU 0 Branch Prediction Accuracy: 98.8922% MPKI: 0.222479

CPU 1 Branch Prediction Accuracy: 99.1453% MPKI: 0.203082

CPU 2 Branch Prediction Accuracy: 99.9996% MPKI: 0.000117039

CPU 3 Branch Prediction Accuracy: 99.2268% MPKI: 0.301854

ChampSim completed all CPUs

Total Simulation Statistics (not including warmup)

CPU 0 cumulative IPC: 0.730084 instructions: 1130180754 cycles: 1548014215
L1D TOTAL     ACCESS:  530328818  HIT:  513726347  MISS:   16602471
L1D LOAD      ACCESS:  452283164  HIT:  435846892  MISS:   16436272
L1D RFO       ACCESS:   78045654  HIT:   77879455  MISS:     166199
L1D PREFETCH  ACCESS:          0  HIT:          0  MISS:          0
L1D WRITEBACK ACCESS:          0  HIT:          0  MISS:          0
L1I TOTAL     ACCESS:  296255901  HIT:  296255098  MISS:        803
L1I LOAD      ACCESS:  296255901  HIT:  296255098  MISS:        803
L1I RFO       ACCESS:          0  HIT:          0  MISS:          0
L1I PREFETCH  ACCESS:          0  HIT:          0  MISS:          0
L1I WRITEBACK ACCESS:          0  HIT:          0  MISS:          0
L2C TOTAL     ACCESS:   36373151  HIT:   20580273  MISS:   15792878
L2C LOAD      ACCESS:   16436185  HIT:    9596833  MISS:    6839352
L2C RFO       ACCESS:     166084  HIT:       5716  MISS:     160368
L2C PREFETCH  ACCESS:   12907811  HIT:    4115561  MISS:    8792250
L2C WRITEBACK ACCESS:    6863071  HIT:    6862163  MISS:        908
LLC TOTAL     ACCESS:   85145427  HIT:   69796507  MISS:   15348920
LLC LOAD      ACCESS:    6694884  HIT:    5359076  MISS:    1335808
LLC RFO       ACCESS:     160368  HIT:     100000  MISS:      60368
LLC PREFETCH  ACCESS:   71466193  HIT:   57574541  MISS:   13891652
LLC WRITEBACK ACCESS:    6823982  HIT:    6762890  MISS:      61092

CPU 1 cumulative IPC: 1.00021 instructions: 1548345603 cycles: 1548014216
L1D TOTAL     ACCESS:  469428117  HIT:  452582789  MISS:   16845328
L1D LOAD      ACCESS:  429109391  HIT:  416514000  MISS:   12595391
L1D RFO       ACCESS:   40318726  HIT:   36068789  MISS:    4249937
L1D PREFETCH  ACCESS:          0  HIT:          0  MISS:          0
L1D WRITEBACK ACCESS:          0  HIT:          0  MISS:          0
L1I TOTAL     ACCESS:  363153447  HIT:  363151920  MISS:       1527
L1I LOAD      ACCESS:  363153447  HIT:  363151920  MISS:       1527
L1I RFO       ACCESS:          0  HIT:          0  MISS:          0
L1I PREFETCH  ACCESS:          0  HIT:          0  MISS:          0
L1I WRITEBACK ACCESS:          0  HIT:          0  MISS:          0
L2C TOTAL     ACCESS:   39283355  HIT:   26993643  MISS:   12289712
L2C LOAD      ACCESS:   12596857  HIT:    8964559  MISS:    3632298
L2C RFO       ACCESS:    4249181  HIT:    1360960  MISS:    2888221
L2C PREFETCH  ACCESS:   16850793  HIT:   11083923  MISS:    5766870
L2C WRITEBACK ACCESS:    5586524  HIT:    5584201  MISS:       2323
LLC TOTAL     ACCESS:   60977788  HIT:   49809937  MISS:   11167851
LLC LOAD      ACCESS:    3515287  HIT:    3256512  MISS:     258775
LLC RFO       ACCESS:    2888199  HIT:     259133  MISS:    2629066
LLC PREFETCH  ACCESS:   50902681  HIT:   42658125  MISS:    8244556
LLC WRITEBACK ACCESS:    3671621  HIT:    3636167  MISS:      35454

CPU 2 cumulative IPC: 0.645989 instructions: 1000000002 cycles: 1548014216
L1D TOTAL     ACCESS:  124361845  HIT:  100321204  MISS:   24040641
L1D LOAD      ACCESS:   92489540  HIT:   76251749  MISS:   16237791
L1D RFO       ACCESS:   31872305  HIT:   24069455  MISS:    7802850
L1D PREFETCH  ACCESS:          0  HIT:          0  MISS:          0
L1D WRITEBACK ACCESS:          0  HIT:          0  MISS:          0
L1I TOTAL     ACCESS:  237617927  HIT:  237617915  MISS:         12
L1I LOAD      ACCESS:  237617927  HIT:  237617915  MISS:         12
L1I RFO       ACCESS:          0  HIT:          0  MISS:          0
L1I PREFETCH  ACCESS:          0  HIT:          0  MISS:          0
L1I WRITEBACK ACCESS:          0  HIT:          0  MISS:          0
L2C TOTAL     ACCESS:   37612430  HIT:   13458174  MISS:   24154256
L2C LOAD      ACCESS:   16237803  HIT:    4003599  MISS:   12234204
L2C RFO       ACCESS:    7802851  HIT:          5  MISS:    7802846
L2C PREFETCH  ACCESS:    4328483  HIT:     212087  MISS:    4116396
L2C WRITEBACK ACCESS:    9243293  HIT:    9242483  MISS:        810
LLC TOTAL     ACCESS:   58250864  HIT:   32181944  MISS:   26068920
LLC LOAD      ACCESS:   11284513  HIT:    5385018  MISS:    5899495
LLC RFO       ACCESS:    7802845  HIT:      10405  MISS:    7792440
LLC PREFETCH  ACCESS:   29917585  HIT:   17554156  MISS:   12363429
LLC WRITEBACK ACCESS:    9245921  HIT:    9232365  MISS:      13556

CPU 3 cumulative IPC: 1.10116 instructions: 1704610910 cycles: 1548014216
L1D TOTAL     ACCESS:  507013906  HIT:  489029933  MISS:   17983973
L1D LOAD      ACCESS:  413139679  HIT:  397393867  MISS:   15745812
L1D RFO       ACCESS:   93874227  HIT:   91636066  MISS:    2238161
L1D PREFETCH  ACCESS:          0  HIT:          0  MISS:          0
L1D WRITEBACK ACCESS:          0  HIT:          0  MISS:          0
L1I TOTAL     ACCESS:  406091197  HIT:  406086063  MISS:       5134
L1I LOAD      ACCESS:  406091197  HIT:  406086063  MISS:       5134
L1I RFO       ACCESS:          0  HIT:          0  MISS:          0
L1I PREFETCH  ACCESS:          0  HIT:          0  MISS:          0
L1I WRITEBACK ACCESS:          0  HIT:          0  MISS:          0
L2C TOTAL     ACCESS:   56219293  HIT:   43788828  MISS:   12430465
L2C LOAD      ACCESS:   15750916  HIT:   11319518  MISS:    4431398
L2C RFO       ACCESS:    2238160  HIT:    1028520  MISS:    1209640
L2C PREFETCH  ACCESS:   32735096  HIT:   25948129  MISS:    6786967
L2C WRITEBACK ACCESS:    5495121  HIT:    5492661  MISS:       2460
LLC TOTAL     ACCESS:   68660944  HIT:   56576381  MISS:   12084563
LLC LOAD      ACCESS:    4312020  HIT:    3709342  MISS:     602678
LLC RFO       ACCESS:    1209613  HIT:     167579  MISS:    1042034
LLC PREFETCH  ACCESS:   59297214  HIT:   48905213  MISS:   10392001
LLC WRITEBACK ACCESS:    3842097  HIT:    3794247  MISS:      47850

Region of Interest Statistics

CPU 0 cumulative IPC: 0.781858 instructions: 1000000001 cycles: 1279004336
L1D TOTAL     ACCESS:  453831019  HIT:  439058498  MISS:   14772521
L1D LOAD      ACCESS:  385345929  HIT:  370739540  MISS:   14606389
L1D RFO       ACCESS:   68485090  HIT:   68318958  MISS:     166132
L1D PREFETCH  ACCESS:          0  HIT:          0  MISS:          0
L1D WRITEBACK ACCESS:          0  HIT:          0  MISS:          0
L1D PREFETCH  REQUESTED:          0  ISSUED:          0  USEFUL:          0  USELESS:          0
L1I TOTAL     ACCESS:  259209333  HIT:  259208639  MISS:        694
L1I LOAD      ACCESS:  259209333  HIT:  259208639  MISS:        694
L1I RFO       ACCESS:          0  HIT:          0  MISS:          0
L1I PREFETCH  ACCESS:          0  HIT:          0  MISS:          0
L1I WRITEBACK ACCESS:          0  HIT:          0  MISS:          0
L1I PREFETCH  REQUESTED:          0  ISSUED:          0  USEFUL:          0  USELESS:          0
L2C TOTAL     ACCESS:   32992761  HIT:   18917048  MISS:   14075713
L2C LOAD      ACCESS:   14606338  HIT:    9042408  MISS:    5563930
L2C RFO       ACCESS:     166032  HIT:       5675  MISS:     160357
L2C PREFETCH  ACCESS:   12208539  HIT:    3857951  MISS:    8350588
L2C WRITEBACK ACCESS:    6011852  HIT:    6011014  MISS:        838
L2C PREFETCH  REQUESTED:   87533174  ISSUED:   86935399  USEFUL:    8998018  USELESS:     424853
LLC TOTAL     ACCESS:   78324394  HIT:   65379687  MISS:   12944707
LLC LOAD      ACCESS:    5424916  HIT:    4671552  MISS:     753364
LLC RFO       ACCESS:     160357  HIT:      99998  MISS:      60359
LLC PREFETCH  ACCESS:   66764826  HIT:   54687591  MISS:   12077235
LLC WRITEBACK ACCESS:    5974295  HIT:    5920546  MISS:      53749
LLC PREFETCH  REQUESTED:          0  ISSUED:          0  USEFUL:   20322828  USELESS:   35032770
Major fault: 0 Minor fault: 177571

CPU 1 cumulative IPC: 0.992548 instructions: 1000000001 cycles: 1007508163
L1D TOTAL     ACCESS:  301652900  HIT:  290375752  MISS:   11277148
L1D LOAD      ACCESS:  273997648  HIT:  265545873  MISS:    8451775
L1D RFO       ACCESS:   27655252  HIT:   24829879  MISS:    2825373
L1D PREFETCH  ACCESS:          0  HIT:          0  MISS:          0
L1D WRITEBACK ACCESS:          0  HIT:          0  MISS:          0
L1D PREFETCH  REQUESTED:          0  ISSUED:          0  USEFUL:          0  USELESS:          0
L1I TOTAL     ACCESS:  233070506  HIT:  233069256  MISS:       1250
L1I LOAD      ACCESS:  233070506  HIT:  233069256  MISS:       1250
L1I RFO       ACCESS:          0  HIT:          0  MISS:          0
L1I PREFETCH  ACCESS:          0  HIT:          0  MISS:          0
L1I WRITEBACK ACCESS:          0  HIT:          0  MISS:          0
L1I PREFETCH  REQUESTED:          0  ISSUED:          0  USEFUL:          0  USELESS:          0
L2C TOTAL     ACCESS:   26528498  HIT:   18259016  MISS:    8269482
L2C LOAD      ACCESS:    8452987  HIT:    5998199  MISS:    2454788
L2C RFO       ACCESS:    2824650  HIT:     895125  MISS:    1929525
L2C PREFETCH  ACCESS:   11458717  HIT:    7575820  MISS:    3882897
L2C WRITEBACK ACCESS:    3792144  HIT:    3789872  MISS:       2272
L2C PREFETCH  REQUESTED:   81898102  ISSUED:   81765294  USEFUL:    6997804  USELESS:      56654
LLC TOTAL     ACCESS:   41376251  HIT:   34064428  MISS:    7311823
LLC LOAD      ACCESS:    2355918  HIT:    2174456  MISS:     181462
LLC RFO       ACCESS:    1929504  HIT:     200341  MISS:    1729163
LLC PREFETCH  ACCESS:   34513784  HIT:   29135695  MISS:    5378089
LLC WRITEBACK ACCESS:    2577045  HIT:    2553936  MISS:      23109
LLC PREFETCH  REQUESTED:          0  ISSUED:          0  USEFUL:   20322828  USELESS:   35032770
Major fault: 0 Minor fault: 19885

CPU 2 cumulative IPC: 0.645989 instructions: 1000000002 cycles: 1548014216
L1D TOTAL     ACCESS:  124361845  HIT:  100321204  MISS:   24040641
L1D LOAD      ACCESS:   92489540  HIT:   76251749  MISS:   16237791
L1D RFO       ACCESS:   31872305  HIT:   24069455  MISS:    7802850
L1D PREFETCH  ACCESS:          0  HIT:          0  MISS:          0
L1D WRITEBACK ACCESS:          0  HIT:          0  MISS:          0
L1D PREFETCH  REQUESTED:          0  ISSUED:          0  USEFUL:          0  USELESS:          0
L1I TOTAL     ACCESS:  237617927  HIT:  237617915  MISS:         12
L1I LOAD      ACCESS:  237617927  HIT:  237617915  MISS:         12
L1I RFO       ACCESS:          0  HIT:          0  MISS:          0
L1I PREFETCH  ACCESS:          0  HIT:          0  MISS:          0
L1I WRITEBACK ACCESS:          0  HIT:          0  MISS:          0
L1I PREFETCH  REQUESTED:          0  ISSUED:          0  USEFUL:          0  USELESS:          0
L2C TOTAL     ACCESS:   37612430  HIT:   13458174  MISS:   24154256
L2C LOAD      ACCESS:   16237803  HIT:    4003599  MISS:   12234204
L2C RFO       ACCESS:    7802851  HIT:          5  MISS:    7802846
L2C PREFETCH  ACCESS:    4328483  HIT:     212087  MISS:    4116396
L2C WRITEBACK ACCESS:    9243293  HIT:    9242483  MISS:        810
L2C PREFETCH  REQUESTED:   79001139  ISSUED:   79001139  USEFUL:    6461135  USELESS:     146220
LLC TOTAL     ACCESS:   58250864  HIT:   32181944  MISS:   26068920
LLC LOAD      ACCESS:   11284513  HIT:    5385018  MISS:    5899495
LLC RFO       ACCESS:    7802845  HIT:      10405  MISS:    7792440
LLC PREFETCH  ACCESS:   29917585  HIT:   17554156  MISS:   12363429
LLC WRITEBACK ACCESS:    9245921  HIT:    9232365  MISS:      13556
LLC PREFETCH  REQUESTED:          0  ISSUED:          0  USEFUL:   20322828  USELESS:   35032770
Major fault: 0 Minor fault: 92532

CPU 3 cumulative IPC: 1.08881 instructions: 1000000000 cycles: 918433088
L1D TOTAL     ACCESS:  307066958  HIT:  296696146  MISS:   10370812
L1D LOAD      ACCESS:  254965389  HIT:  245990224  MISS:    8975165
L1D RFO       ACCESS:   52101569  HIT:   50705922  MISS:    1395647
L1D PREFETCH  ACCESS:          0  HIT:          0  MISS:          0
L1D WRITEBACK ACCESS:          0  HIT:          0  MISS:          0
L1D PREFETCH  REQUESTED:          0  ISSUED:          0  USEFUL:          0  USELESS:          0
L1I TOTAL     ACCESS:  238432210  HIT:  238429361  MISS:       2849
L1I LOAD      ACCESS:  238432210  HIT:  238429361  MISS:       2849
L1I RFO       ACCESS:          0  HIT:          0  MISS:          0
L1I PREFETCH  ACCESS:          0  HIT:          0  MISS:          0
L1I WRITEBACK ACCESS:          0  HIT:          0  MISS:          0
L1I PREFETCH  REQUESTED:          0  ISSUED:          0  USEFUL:          0  USELESS:          0
L2C TOTAL     ACCESS:   32114992  HIT:   24722503  MISS:    7392489
L2C LOAD      ACCESS:    8977996  HIT:    6492422  MISS:    2485574
L2C RFO       ACCESS:    1395647  HIT:     534071  MISS:     861576
L2C PREFETCH  ACCESS:   18541086  HIT:   14497216  MISS:    4043870
L2C WRITEBACK ACCESS:    3200263  HIT:    3198794  MISS:       1469
L2C PREFETCH  REQUESTED:  106026133  ISSUED:  105913195  USEFUL:    7741522  USELESS:      57188
LLC TOTAL     ACCESS:   41347007  HIT:   34137334  MISS:    7209673
LLC LOAD      ACCESS:    2429018  HIT:    2092792  MISS:     336226
LLC RFO       ACCESS:     861563  HIT:      90341  MISS:     771222
LLC PREFETCH  ACCESS:   35752096  HIT:   29676072  MISS:    6076024
LLC WRITEBACK ACCESS:    2304330  HIT:    2278129  MISS:      26201
LLC PREFETCH  REQUESTED:          0  ISSUED:          0  USEFUL:   20322828  USELESS:   35032770
Major fault: 0 Minor fault: 25567

DRAM Statistics
 CHANNEL 0
 RQ ROW_BUFFER_HIT:   13323134  ROW_BUFFER_MISS:   18873910
 DBUS_CONGESTED:   55753085
 WQ ROW_BUFFER_HIT:    1373899  ROW_BUFFER_MISS:    9737655  FULL:          0

 CHANNEL 1
 RQ ROW_BUFFER_HIT:   13227342  ROW_BUFFER_MISS:   19087379
 DBUS_CONGESTED:   55753085
 WQ ROW_BUFFER_HIT:    1556227  ROW_BUFFER_MISS:   10380936  FULL:          0

 AVG_CONGESTED_CYCLE: 13
