Initialize SIGNATURE TABLE
ST_SET: 1
ST_WAY: 256
ST_TAG_BIT: 16
ST_TAG_MASK: ffff

Initialize PATTERN TABLE
PT_SET: 512
PT_WAY: 4
SIG_DELTA_BIT: 7
C_SIG_BIT: 4
C_DELTA_BIT: 4

Initialize PREFETCH FILTER
FILTER_SET: 1024

*** ChampSim Multicore Out-of-Order Simulator ***

Warmup Instructions: 200000000
Simulation Instructions: 1000000000
Number of CPUs: 4
LLC sets: 8192
LLC ways: 16
Off-chip DRAM Size: 8192 MB Channels: 2 Width: 64-bit Data Rate: 1600 MT/s

CPU 0 runs /scratch/user/djimenez/champsim-traces/speccpu2006/xz//459.GemsFDTD-1169B.champsimtrace.xz
CPU 1 runs /scratch/user/djimenez/champsim-traces/speccpu2006/xz//482.sphinx3-417B.champsimtrace.xz
CPU 2 runs /scratch/user/djimenez/champsim-traces/speccpu2006/xz//437.leslie3d-273B.champsimtrace.xz
CPU 3 runs /scratch/user/djimenez/champsim-traces/speccpu2006/xz//482.sphinx3-1395B.champsimtrace.xz
Heartbeat CPU 3 instructions: 10000001 cycles: 3877643 heartbeat IPC: 2.57889 cumulative IPC: 2.57889 (Simulation time: 0 hr 1 min 35 sec) 
Heartbeat CPU 1 instructions: 10000000 cycles: 4108469 heartbeat IPC: 2.434 cumulative IPC: 2.434 (Simulation time: 0 hr 1 min 41 sec) 
Heartbeat CPU 0 instructions: 10000000 cycles: 4472534 heartbeat IPC: 2.23587 cumulative IPC: 2.23587 (Simulation time: 0 hr 1 min 49 sec) 
Heartbeat CPU 2 instructions: 10000002 cycles: 4932770 heartbeat IPC: 2.02726 cumulative IPC: 2.02726 (Simulation time: 0 hr 2 min 1 sec) 
Heartbeat CPU 3 instructions: 20000000 cycles: 7845028 heartbeat IPC: 2.52055 cumulative IPC: 2.54939 (Simulation time: 0 hr 3 min 12 sec) 
Heartbeat CPU 1 instructions: 20000000 cycles: 8140102 heartbeat IPC: 2.48038 cumulative IPC: 2.45697 (Simulation time: 0 hr 3 min 19 sec) 
Heartbeat CPU 2 instructions: 20000000 cycles: 9809332 heartbeat IPC: 2.05062 cumulative IPC: 2.03887 (Simulation time: 0 hr 3 min 59 sec) 
Heartbeat CPU 0 instructions: 20000000 cycles: 10301512 heartbeat IPC: 1.71557 cumulative IPC: 1.94146 (Simulation time: 0 hr 4 min 12 sec) 
Heartbeat CPU 3 instructions: 30000000 cycles: 11682620 heartbeat IPC: 2.6058 cumulative IPC: 2.56792 (Simulation time: 0 hr 4 min 46 sec) 
Heartbeat CPU 1 instructions: 30000001 cycles: 12006694 heartbeat IPC: 2.58626 cumulative IPC: 2.49861 (Simulation time: 0 hr 4 min 54 sec) 
Heartbeat CPU 2 instructions: 30000002 cycles: 14845745 heartbeat IPC: 1.98554 cumulative IPC: 2.02078 (Simulation time: 0 hr 6 min 5 sec) 
Heartbeat CPU 3 instructions: 40000000 cycles: 15522497 heartbeat IPC: 2.60425 cumulative IPC: 2.57691 (Simulation time: 0 hr 6 min 22 sec) 
Heartbeat CPU 1 instructions: 40000000 cycles: 15856744 heartbeat IPC: 2.59737 cumulative IPC: 2.52259 (Simulation time: 0 hr 6 min 31 sec) 
Heartbeat CPU 0 instructions: 30000003 cycles: 16881066 heartbeat IPC: 1.51986 cumulative IPC: 1.77714 (Simulation time: 0 hr 6 min 57 sec) 
Heartbeat CPU 3 instructions: 50000000 cycles: 19268440 heartbeat IPC: 2.66955 cumulative IPC: 2.59492 (Simulation time: 0 hr 8 min 3 sec) 
Heartbeat CPU 1 instructions: 50000002 cycles: 19640923 heartbeat IPC: 2.64258 cumulative IPC: 2.54571 (Simulation time: 0 hr 8 min 13 sec) 
Heartbeat CPU 2 instructions: 40000000 cycles: 19882718 heartbeat IPC: 1.98532 cumulative IPC: 2.0118 (Simulation time: 0 hr 8 min 20 sec) 
Heartbeat CPU 3 instructions: 60000000 cycles: 23146273 heartbeat IPC: 2.57876 cumulative IPC: 2.59221 (Simulation time: 0 hr 9 min 40 sec) 
Heartbeat CPU 0 instructions: 40000000 cycles: 23457780 heartbeat IPC: 1.52052 cumulative IPC: 1.70519 (Simulation time: 0 hr 9 min 48 sec) 
Heartbeat CPU 1 instructions: 60000000 cycles: 23559215 heartbeat IPC: 2.55213 cumulative IPC: 2.54677 (Simulation time: 0 hr 9 min 50 sec) 
Heartbeat CPU 2 instructions: 50000001 cycles: 24918225 heartbeat IPC: 1.9859 cumulative IPC: 2.00656 (Simulation time: 0 hr 10 min 22 sec) 
Heartbeat CPU 3 instructions: 70000003 cycles: 26920712 heartbeat IPC: 2.6494 cumulative IPC: 2.60023 (Simulation time: 0 hr 11 min 9 sec) 
Heartbeat CPU 1 instructions: 70000001 cycles: 27617336 heartbeat IPC: 2.46419 cumulative IPC: 2.53464 (Simulation time: 0 hr 11 min 26 sec) 
Heartbeat CPU 2 instructions: 60000000 cycles: 29955337 heartbeat IPC: 1.98526 cumulative IPC: 2.00298 (Simulation time: 0 hr 12 min 20 sec) 
Heartbeat CPU 0 instructions: 50000001 cycles: 30119659 heartbeat IPC: 1.50108 cumulative IPC: 1.66005 (Simulation time: 0 hr 12 min 24 sec) 
Heartbeat CPU 3 instructions: 80000000 cycles: 30719177 heartbeat IPC: 2.63264 cumulative IPC: 2.60424 (Simulation time: 0 hr 12 min 36 sec) 
Heartbeat CPU 1 instructions: 80000000 cycles: 31619344 heartbeat IPC: 2.49875 cumulative IPC: 2.5301 (Simulation time: 0 hr 12 min 59 sec) 
Heartbeat CPU 3 instructions: 90000000 cycles: 34419993 heartbeat IPC: 2.70211 cumulative IPC: 2.61476 (Simulation time: 0 hr 14 min 4 sec) 
Heartbeat CPU 2 instructions: 70000000 cycles: 34991642 heartbeat IPC: 1.98558 cumulative IPC: 2.00048 (Simulation time: 0 hr 14 min 18 sec) 
Heartbeat CPU 1 instructions: 90000001 cycles: 35739293 heartbeat IPC: 2.42721 cumulative IPC: 2.51824 (Simulation time: 0 hr 14 min 34 sec) 
Heartbeat CPU 0 instructions: 60000000 cycles: 36810955 heartbeat IPC: 1.49448 cumulative IPC: 1.62995 (Simulation time: 0 hr 15 min 0 sec) 
Heartbeat CPU 3 instructions: 100000000 cycles: 38076433 heartbeat IPC: 2.7349 cumulative IPC: 2.6263 (Simulation time: 0 hr 15 min 29 sec) 
Heartbeat CPU 1 instructions: 100000000 cycles: 39684120 heartbeat IPC: 2.53497 cumulative IPC: 2.5199 (Simulation time: 0 hr 16 min 6 sec) 
Heartbeat CPU 2 instructions: 80000000 cycles: 40028716 heartbeat IPC: 1.98528 cumulative IPC: 1.99857 (Simulation time: 0 hr 16 min 15 sec) 
Heartbeat CPU 3 instructions: 110000000 cycles: 41934134 heartbeat IPC: 2.59222 cumulative IPC: 2.62316 (Simulation time: 0 hr 16 min 58 sec) 
Heartbeat CPU 0 instructions: 70000002 cycles: 43553118 heartbeat IPC: 1.4832 cumulative IPC: 1.60723 (Simulation time: 0 hr 17 min 34 sec) 
Heartbeat CPU 1 instructions: 110000002 cycles: 43723150 heartbeat IPC: 2.47584 cumulative IPC: 2.51583 (Simulation time: 0 hr 17 min 38 sec) 
Heartbeat CPU 2 instructions: 90000002 cycles: 45482131 heartbeat IPC: 1.83371 cumulative IPC: 1.9788 (Simulation time: 0 hr 18 min 17 sec) 
Heartbeat CPU 3 instructions: 120000000 cycles: 45657675 heartbeat IPC: 2.68562 cumulative IPC: 2.62825 (Simulation time: 0 hr 18 min 21 sec) 
Heartbeat CPU 1 instructions: 120000000 cycles: 47813343 heartbeat IPC: 2.44487 cumulative IPC: 2.50976 (Simulation time: 0 hr 19 min 11 sec) 
Heartbeat CPU 3 instructions: 130000003 cycles: 49359695 heartbeat IPC: 2.70123 cumulative IPC: 2.63373 (Simulation time: 0 hr 19 min 46 sec) 
Heartbeat CPU 0 instructions: 80000000 cycles: 50301811 heartbeat IPC: 1.48177 cumulative IPC: 1.5904 (Simulation time: 0 hr 20 min 8 sec) 
Heartbeat CPU 2 instructions: 100000000 cycles: 50749645 heartbeat IPC: 1.89843 cumulative IPC: 1.97046 (Simulation time: 0 hr 20 min 18 sec) 
Heartbeat CPU 1 instructions: 130000001 cycles: 51997950 heartbeat IPC: 2.38971 cumulative IPC: 2.5001 (Simulation time: 0 hr 20 min 46 sec) 
Heartbeat CPU 3 instructions: 140000000 cycles: 52995545 heartbeat IPC: 2.75039 cumulative IPC: 2.64173 (Simulation time: 0 hr 21 min 10 sec) 
Heartbeat CPU 1 instructions: 140000000 cycles: 56061264 heartbeat IPC: 2.46105 cumulative IPC: 2.49727 (Simulation time: 0 hr 22 min 19 sec) 
Heartbeat CPU 2 instructions: 110000002 cycles: 56416472 heartbeat IPC: 1.76466 cumulative IPC: 1.94979 (Simulation time: 0 hr 22 min 27 sec) 
Heartbeat CPU 3 instructions: 150000000 cycles: 56777908 heartbeat IPC: 2.64385 cumulative IPC: 2.64187 (Simulation time: 0 hr 22 min 36 sec) 
Heartbeat CPU 0 instructions: 90000002 cycles: 57032686 heartbeat IPC: 1.48569 cumulative IPC: 1.57804 (Simulation time: 0 hr 22 min 42 sec) 
Heartbeat CPU 1 instructions: 150000001 cycles: 60063127 heartbeat IPC: 2.49884 cumulative IPC: 2.49737 (Simulation time: 0 hr 23 min 51 sec) 
Heartbeat CPU 3 instructions: 160000000 cycles: 60406363 heartbeat IPC: 2.75599 cumulative IPC: 2.64873 (Simulation time: 0 hr 24 min 0 sec) 
Heartbeat CPU 2 instructions: 120000000 cycles: 62596789 heartbeat IPC: 1.61804 cumulative IPC: 1.91703 (Simulation time: 0 hr 24 min 51 sec) 
Heartbeat CPU 0 instructions: 100000000 cycles: 63670911 heartbeat IPC: 1.50643 cumulative IPC: 1.57058 (Simulation time: 0 hr 25 min 16 sec) 
Heartbeat CPU 3 instructions: 170000003 cycles: 64076460 heartbeat IPC: 2.72472 cumulative IPC: 2.65308 (Simulation time: 0 hr 25 min 25 sec) 
Heartbeat CPU 1 instructions: 160000000 cycles: 64109499 heartbeat IPC: 2.47135 cumulative IPC: 2.49573 (Simulation time: 0 hr 25 min 25 sec) 
Heartbeat CPU 3 instructions: 180000000 cycles: 67783884 heartbeat IPC: 2.69729 cumulative IPC: 2.6555 (Simulation time: 0 hr 26 min 51 sec) 
Heartbeat CPU 1 instructions: 170000001 cycles: 68131402 heartbeat IPC: 2.48639 cumulative IPC: 2.49518 (Simulation time: 0 hr 26 min 59 sec) 
Heartbeat CPU 2 instructions: 130000003 cycles: 68777197 heartbeat IPC: 1.61802 cumulative IPC: 1.89016 (Simulation time: 0 hr 27 min 14 sec) 
Heartbeat CPU 0 instructions: 110000003 cycles: 70251782 heartbeat IPC: 1.51956 cumulative IPC: 1.5658 (Simulation time: 0 hr 27 min 47 sec) 
Heartbeat CPU 3 instructions: 190000003 cycles: 71599406 heartbeat IPC: 2.62087 cumulative IPC: 2.65365 (Simulation time: 0 hr 28 min 19 sec) 
Heartbeat CPU 1 instructions: 180000000 cycles: 72125131 heartbeat IPC: 2.50393 cumulative IPC: 2.49566 (Simulation time: 0 hr 28 min 30 sec) 
Heartbeat CPU 2 instructions: 140000000 cycles: 74957801 heartbeat IPC: 1.61796 cumulative IPC: 1.86772 (Simulation time: 0 hr 29 min 36 sec) 
Heartbeat CPU 3 instructions: 200000000 cycles: 75371576 heartbeat IPC: 2.65099 cumulative IPC: 2.65352 (Simulation time: 0 hr 29 min 45 sec) 
Heartbeat CPU 1 instructions: 190000000 cycles: 76111300 heartbeat IPC: 2.50867 cumulative IPC: 2.49634 (Simulation time: 0 hr 30 min 1 sec) 
Heartbeat CPU 0 instructions: 120000000 cycles: 76842701 heartbeat IPC: 1.51724 cumulative IPC: 1.56163 (Simulation time: 0 hr 30 min 19 sec) 
Heartbeat CPU 3 instructions: 210000003 cycles: 79189913 heartbeat IPC: 2.61894 cumulative IPC: 0.126279 (Simulation time: 0 hr 31 min 12 sec) 
Heartbeat CPU 1 instructions: 200000000 cycles: 80188535 heartbeat IPC: 2.45264 cumulative IPC: 2.49412 (Simulation time: 0 hr 31 min 37 sec) 
Heartbeat CPU 2 instructions: 150000001 cycles: 80575518 heartbeat IPC: 1.78008 cumulative IPC: 1.86161 (Simulation time: 0 hr 31 min 46 sec) 
Heartbeat CPU 3 instructions: 220000000 cycles: 82957093 heartbeat IPC: 2.6545 cumulative IPC: 0.241088 (Simulation time: 0 hr 32 min 46 sec) 
Heartbeat CPU 0 instructions: 130000003 cycles: 83503912 heartbeat IPC: 1.50123 cumulative IPC: 1.55681 (Simulation time: 0 hr 33 min 1 sec) 
Heartbeat CPU 1 instructions: 210000000 cycles: 84176075 heartbeat IPC: 2.50781 cumulative IPC: 0.118799 (Simulation time: 0 hr 33 min 17 sec) 
Heartbeat CPU 2 instructions: 160000000 cycles: 85607941 heartbeat IPC: 1.98711 cumulative IPC: 1.86899 (Simulation time: 0 hr 33 min 53 sec) 
Heartbeat CPU 3 instructions: 230000003 cycles: 86900301 heartbeat IPC: 2.53601 cumulative IPC: 0.345223 (Simulation time: 0 hr 34 min 25 sec) 
Heartbeat CPU 1 instructions: 220000000 cycles: 88052693 heartbeat IPC: 2.57957 cumulative IPC: 0.227137 (Simulation time: 0 hr 34 min 54 sec) 
Heartbeat CPU 0 instructions: 140000000 cycles: 90186936 heartbeat IPC: 1.49633 cumulative IPC: 1.55233 (Simulation time: 0 hr 35 min 48 sec) 
Heartbeat CPU 2 instructions: 170000001 cycles: 90640307 heartbeat IPC: 1.98714 cumulative IPC: 1.87555 (Simulation time: 0 hr 35 min 59 sec) 
Heartbeat CPU 3 instructions: 240000000 cycles: 90712511 heartbeat IPC: 2.62315 cumulative IPC: 0.440954 (Simulation time: 0 hr 36 min 0 sec) 
Heartbeat CPU 1 instructions: 230000002 cycles: 91877874 heartbeat IPC: 2.61426 cumulative IPC: 0.32652 (Simulation time: 0 hr 36 min 30 sec) 
Heartbeat CPU 3 instructions: 250000002 cycles: 94550041 heartbeat IPC: 2.60584 cumulative IPC: 0.528821 (Simulation time: 0 hr 37 min 35 sec) 
Heartbeat CPU 2 instructions: 180000000 cycles: 95671769 heartbeat IPC: 1.98749 cumulative IPC: 1.88143 (Simulation time: 0 hr 38 min 2 sec) 
Heartbeat CPU 1 instructions: 240000000 cycles: 95801262 heartbeat IPC: 2.54882 cumulative IPC: 0.417531 (Simulation time: 0 hr 38 min 5 sec) 
Heartbeat CPU 0 instructions: 150000001 cycles: 96933691 heartbeat IPC: 1.48219 cumulative IPC: 1.54745 (Simulation time: 0 hr 38 min 35 sec) 
Heartbeat CPU 3 instructions: 260000000 cycles: 98378333 heartbeat IPC: 2.61213 cumulative IPC: 0.60989 (Simulation time: 0 hr 39 min 11 sec) 
Heartbeat CPU 1 instructions: 250000003 cycles: 99836296 heartbeat IPC: 2.47829 cumulative IPC: 0.50082 (Simulation time: 0 hr 39 min 45 sec) 
Heartbeat CPU 2 instructions: 190000002 cycles: 100703808 heartbeat IPC: 1.98727 cumulative IPC: 1.88672 (Simulation time: 0 hr 40 min 6 sec) 
Heartbeat CPU 3 instructions: 270000002 cycles: 102192217 heartbeat IPC: 2.622 cumulative IPC: 0.684984 (Simulation time: 0 hr 40 min 41 sec) 
Heartbeat CPU 0 instructions: 160000000 cycles: 103680721 heartbeat IPC: 1.48213 cumulative IPC: 1.5432 (Simulation time: 0 hr 41 min 15 sec) 
Heartbeat CPU 1 instructions: 260000000 cycles: 103812198 heartbeat IPC: 2.51515 cumulative IPC: 0.577967 (Simulation time: 0 hr 41 min 18 sec) 
Heartbeat CPU 2 instructions: 200000000 cycles: 105736341 heartbeat IPC: 1.98707 cumulative IPC: 1.8915 (Simulation time: 0 hr 42 min 3 sec) 
Heartbeat CPU 3 instructions: 280000000 cycles: 105990628 heartbeat IPC: 2.63268 cumulative IPC: 0.754784 (Simulation time: 0 hr 42 min 9 sec) 
Heartbeat CPU 1 instructions: 270000000 cycles: 107664085 heartbeat IPC: 2.59613 cumulative IPC: 0.65017 (Simulation time: 0 hr 42 min 48 sec) 
Heartbeat CPU 3 instructions: 290000001 cycles: 109756865 heartbeat IPC: 2.65517 cumulative IPC: 0.819994 (Simulation time: 0 hr 43 min 37 sec) 
Heartbeat CPU 0 instructions: 170000000 cycles: 110411196 heartbeat IPC: 1.48578 cumulative IPC: 1.5397 (Simulation time: 0 hr 43 min 51 sec) 
Heartbeat CPU 2 instructions: 210000002 cycles: 110768778 heartbeat IPC: 1.98711 cumulative IPC: 0.0902782 (Simulation time: 0 hr 43 min 59 sec) 
Heartbeat CPU 1 instructions: 280000000 cycles: 111591004 heartbeat IPC: 2.54653 cumulative IPC: 0.716904 (Simulation time: 0 hr 44 min 19 sec) 
Heartbeat CPU 3 instructions: 300000000 cycles: 113657025 heartbeat IPC: 2.564 cumulative IPC: 0.87984 (Simulation time: 0 hr 45 min 8 sec) 
Heartbeat CPU 1 instructions: 290000001 cycles: 115489473 heartbeat IPC: 2.56511 cumulative IPC: 0.779292 (Simulation time: 0 hr 45 min 51 sec) 
Heartbeat CPU 2 instructions: 220000000 cycles: 115801368 heartbeat IPC: 1.98705 cumulative IPC: 0.17271 (Simulation time: 0 hr 45 min 59 sec) 
Heartbeat CPU 0 instructions: 180000000 cycles: 117040057 heartbeat IPC: 1.50855 cumulative IPC: 1.53794 (Simulation time: 0 hr 46 min 28 sec) 
Heartbeat CPU 3 instructions: 310000002 cycles: 117392120 heartbeat IPC: 2.67731 cumulative IPC: 0.937031 (Simulation time: 0 hr 46 min 37 sec) 
Heartbeat CPU 1 instructions: 300000000 cycles: 119333012 heartbeat IPC: 2.60177 cumulative IPC: 0.837991 (Simulation time: 0 hr 47 min 23 sec) 
Heartbeat CPU 2 instructions: 230000002 cycles: 120833129 heartbeat IPC: 1.98738 cumulative IPC: 0.248276 (Simulation time: 0 hr 47 min 58 sec) 
Heartbeat CPU 3 instructions: 320000000 cycles: 121214520 heartbeat IPC: 2.61616 cumulative IPC: 0.98998 (Simulation time: 0 hr 48 min 6 sec) 
Heartbeat CPU 1 instructions: 310000003 cycles: 123360419 heartbeat IPC: 2.48299 cumulative IPC: 0.891696 (Simulation time: 0 hr 48 min 57 sec) 
Heartbeat CPU 0 instructions: 190000003 cycles: 123617222 heartbeat IPC: 1.52041 cumulative IPC: 1.537 (Simulation time: 0 hr 49 min 3 sec) 
Heartbeat CPU 3 instructions: 330000001 cycles: 125166672 heartbeat IPC: 2.53027 cumulative IPC: 1.03862 (Simulation time: 0 hr 49 min 38 sec) 
Heartbeat CPU 2 instructions: 240000000 cycles: 125865408 heartbeat IPC: 1.98717 cumulative IPC: 0.3178 (Simulation time: 0 hr 49 min 55 sec) 
Heartbeat CPU 1 instructions: 320000000 cycles: 127301345 heartbeat IPC: 2.53747 cumulative IPC: 0.942645 (Simulation time: 0 hr 50 min 28 sec) 
Heartbeat CPU 3 instructions: 340000000 cycles: 128999066 heartbeat IPC: 2.60933 cumulative IPC: 1.08528 (Simulation time: 0 hr 51 min 8 sec) 
Heartbeat CPU 0 instructions: 200000000 cycles: 130215208 heartbeat IPC: 1.51561 cumulative IPC: 1.53592 (Simulation time: 0 hr 51 min 37 sec) 

Warmup complete CPU 0 instructions: 200000002 cycles: 130215226 (Simulation time: 0 hr 51 min 37 sec) 
Warmup complete CPU 1 instructions: 327524825 cycles: 130215225 (Simulation time: 0 hr 51 min 37 sec) 
Warmup complete CPU 2 instructions: 248869124 cycles: 130215225 (Simulation time: 0 hr 51 min 37 sec) 
Warmup complete CPU 3 instructions: 343254885 cycles: 130215225 (Simulation time: 0 hr 51 min 37 sec) 

Heartbeat CPU 2 instructions: 250000000 cycles: 131247405 heartbeat IPC: 1.85805 cumulative IPC: 1.09562 (Simulation time: 0 hr 51 min 48 sec) 
Heartbeat CPU 1 instructions: 330000002 cycles: 133994179 heartbeat IPC: 1.49414 cumulative IPC: 0.65499 (Simulation time: 0 hr 52 min 22 sec) 
Heartbeat CPU 3 instructions: 350000003 cycles: 137764747 heartbeat IPC: 1.14081 cumulative IPC: 0.89345 (Simulation time: 0 hr 53 min 8 sec) 
Heartbeat CPU 2 instructions: 260000000 cycles: 140715221 heartbeat IPC: 1.05621 cumulative IPC: 1.06008 (Simulation time: 0 hr 53 min 43 sec) 
Heartbeat CPU 0 instructions: 210000003 cycles: 145703438 heartbeat IPC: 0.645652 cumulative IPC: 0.645652 (Simulation time: 0 hr 54 min 40 sec) 
Heartbeat CPU 1 instructions: 340000000 cycles: 146587684 heartbeat IPC: 0.79406 cumulative IPC: 0.761961 (Simulation time: 0 hr 54 min 53 sec) 
Heartbeat CPU 2 instructions: 270000002 cycles: 150295823 heartbeat IPC: 1.04378 cumulative IPC: 1.0523 (Simulation time: 0 hr 55 min 34 sec) 
Heartbeat CPU 3 instructions: 360000000 cycles: 150608071 heartbeat IPC: 0.778614 cumulative IPC: 0.821127 (Simulation time: 0 hr 55 min 38 sec) 
Heartbeat CPU 2 instructions: 280000000 cycles: 159854571 heartbeat IPC: 1.04616 cumulative IPC: 1.05032 (Simulation time: 0 hr 57 min 29 sec) 
Heartbeat CPU 1 instructions: 350000003 cycles: 160070677 heartbeat IPC: 0.741675 cumulative IPC: 0.7528 (Simulation time: 0 hr 57 min 32 sec) 
Heartbeat CPU 0 instructions: 220000000 cycles: 160987920 heartbeat IPC: 0.654258 cumulative IPC: 0.649927 (Simulation time: 0 hr 57 min 42 sec) 
Heartbeat CPU 3 instructions: 370000000 cycles: 162212083 heartbeat IPC: 0.861771 cumulative IPC: 0.835867 (Simulation time: 0 hr 57 min 57 sec) 
Heartbeat CPU 2 instructions: 290000003 cycles: 169255264 heartbeat IPC: 1.06375 cumulative IPC: 1.05356 (Simulation time: 0 hr 59 min 23 sec) 
Heartbeat CPU 1 instructions: 360000000 cycles: 173934260 heartbeat IPC: 0.721314 cumulative IPC: 0.742815 (Simulation time: 1 hr 0 min 18 sec) 
Heartbeat CPU 3 instructions: 380000000 cycles: 174720544 heartbeat IPC: 0.799459 cumulative IPC: 0.825634 (Simulation time: 1 hr 0 min 26 sec) 
Heartbeat CPU 0 instructions: 230000002 cycles: 175018153 heartbeat IPC: 0.712747 cumulative IPC: 0.669599 (Simulation time: 1 hr 0 min 29 sec) 
Heartbeat CPU 2 instructions: 300000000 cycles: 179419093 heartbeat IPC: 0.983881 cumulative IPC: 1.03916 (Simulation time: 1 hr 1 min 28 sec) 
Heartbeat CPU 3 instructions: 390000003 cycles: 186202933 heartbeat IPC: 0.870899 cumulative IPC: 0.834917 (Simulation time: 1 hr 2 min 50 sec) 
Heartbeat CPU 1 instructions: 370000003 cycles: 187100729 heartbeat IPC: 0.759505 cumulative IPC: 0.746678 (Simulation time: 1 hr 3 min 3 sec) 
Heartbeat CPU 0 instructions: 240000000 cycles: 189156047 heartbeat IPC: 0.707319 cumulative IPC: 0.678647 (Simulation time: 1 hr 3 min 26 sec) 
Heartbeat CPU 2 instructions: 310000000 cycles: 189896350 heartbeat IPC: 0.954448 cumulative IPC: 1.02429 (Simulation time: 1 hr 3 min 34 sec) 
Heartbeat CPU 3 instructions: 400000000 cycles: 197292796 heartbeat IPC: 0.901724 cumulative IPC: 0.845963 (Simulation time: 1 hr 5 min 7 sec) 
Heartbeat CPU 2 instructions: 320000000 cycles: 200346206 heartbeat IPC: 0.956951 cumulative IPC: 1.01426 (Simulation time: 1 hr 5 min 42 sec) 
Heartbeat CPU 1 instructions: 380000000 cycles: 201814992 heartbeat IPC: 0.679613 cumulative IPC: 0.732896 (Simulation time: 1 hr 6 min 3 sec) 
Heartbeat CPU 0 instructions: 250000000 cycles: 203100005 heartbeat IPC: 0.717156 cumulative IPC: 0.686014 (Simulation time: 1 hr 6 min 18 sec) 
Heartbeat CPU 3 instructions: 410000003 cycles: 209826218 heartbeat IPC: 0.797867 cumulative IPC: 0.838391 (Simulation time: 1 hr 7 min 29 sec) 
Heartbeat CPU 2 instructions: 330000001 cycles: 210773877 heartbeat IPC: 0.958987 cumulative IPC: 1.0071 (Simulation time: 1 hr 7 min 42 sec) 
Heartbeat CPU 1 instructions: 390000003 cycles: 218295207 heartbeat IPC: 0.606788 cumulative IPC: 0.709301 (Simulation time: 1 hr 8 min 58 sec) 
Heartbeat CPU 2 instructions: 340000000 cycles: 221230212 heartbeat IPC: 0.956358 cumulative IPC: 1.00127 (Simulation time: 1 hr 9 min 33 sec) 
Heartbeat CPU 3 instructions: 420000000 cycles: 221585025 heartbeat IPC: 0.850426 cumulative IPC: 0.83994 (Simulation time: 1 hr 9 min 37 sec) 
Heartbeat CPU 0 instructions: 260000000 cycles: 230604197 heartbeat IPC: 0.363581 cumulative IPC: 0.597675 (Simulation time: 1 hr 11 min 12 sec) 
Heartbeat CPU 2 instructions: 350000002 cycles: 231241885 heartbeat IPC: 0.998834 cumulative IPC: 1.00103 (Simulation time: 1 hr 11 min 19 sec) 
Heartbeat CPU 1 instructions: 400000000 cycles: 232745433 heartbeat IPC: 0.69203 cumulative IPC: 0.706867 (Simulation time: 1 hr 11 min 33 sec) 
Heartbeat CPU 3 instructions: 430000000 cycles: 234633414 heartbeat IPC: 0.766378 cumulative IPC: 0.830747 (Simulation time: 1 hr 11 min 52 sec) 
Heartbeat CPU 2 instructions: 360000000 cycles: 240642059 heartbeat IPC: 1.06381 cumulative IPC: 1.00638 (Simulation time: 1 hr 12 min 59 sec) 
Heartbeat CPU 3 instructions: 440000000 cycles: 245170904 heartbeat IPC: 0.948993 cumulative IPC: 0.841586 (Simulation time: 1 hr 13 min 46 sec) 
Heartbeat CPU 1 instructions: 410000000 cycles: 247977493 heartbeat IPC: 0.65651 cumulative IPC: 0.700353 (Simulation time: 1 hr 14 min 19 sec) 
Heartbeat CPU 2 instructions: 370000001 cycles: 250698437 heartbeat IPC: 0.994394 cumulative IPC: 1.00538 (Simulation time: 1 hr 14 min 47 sec) 
Heartbeat CPU 3 instructions: 450000002 cycles: 255369414 heartbeat IPC: 0.980536 cumulative IPC: 0.852909 (Simulation time: 1 hr 15 min 38 sec) 
Heartbeat CPU 0 instructions: 270000003 cycles: 260386106 heartbeat IPC: 0.335774 cumulative IPC: 0.537755 (Simulation time: 1 hr 16 min 34 sec) 
Heartbeat CPU 2 instructions: 380000000 cycles: 261933997 heartbeat IPC: 0.890031 cumulative IPC: 0.995537 (Simulation time: 1 hr 16 min 52 sec) 
Heartbeat CPU 1 instructions: 420000000 cycles: 264493878 heartbeat IPC: 0.605459 cumulative IPC: 0.688681 (Simulation time: 1 hr 17 min 17 sec) 
Heartbeat CPU 3 instructions: 460000000 cycles: 265338011 heartbeat IPC: 1.00315 cumulative IPC: 0.863993 (Simulation time: 1 hr 17 min 28 sec) 
Heartbeat CPU 2 instructions: 390000003 cycles: 273169790 heartbeat IPC: 0.890013 cumulative IPC: 0.987243 (Simulation time: 1 hr 18 min 55 sec) 
Heartbeat CPU 3 instructions: 470000000 cycles: 275778712 heartbeat IPC: 0.95779 cumulative IPC: 0.870721 (Simulation time: 1 hr 19 min 23 sec) 
Heartbeat CPU 1 instructions: 430000002 cycles: 278258742 heartbeat IPC: 0.726488 cumulative IPC: 0.692196 (Simulation time: 1 hr 19 min 53 sec) 
Heartbeat CPU 0 instructions: 280000000 cycles: 283825417 heartbeat IPC: 0.426634 cumulative IPC: 0.520799 (Simulation time: 1 hr 21 min 0 sec) 
Heartbeat CPU 2 instructions: 400000000 cycles: 284179043 heartbeat IPC: 0.908327 cumulative IPC: 0.9816 (Simulation time: 1 hr 21 min 4 sec) 
Heartbeat CPU 3 instructions: 480000000 cycles: 285881060 heartbeat IPC: 0.989869 cumulative IPC: 0.878453 (Simulation time: 1 hr 21 min 24 sec) 
Heartbeat CPU 2 instructions: 410000001 cycles: 293703208 heartbeat IPC: 1.04996 cumulative IPC: 0.985582 (Simulation time: 1 hr 23 min 1 sec) 
Heartbeat CPU 1 instructions: 440000000 cycles: 294442732 heartbeat IPC: 0.617894 cumulative IPC: 0.684874 (Simulation time: 1 hr 23 min 10 sec) 
Heartbeat CPU 3 instructions: 490000001 cycles: 295481117 heartbeat IPC: 1.04166 cumulative IPC: 0.887933 (Simulation time: 1 hr 23 min 25 sec) 
Heartbeat CPU 0 instructions: 290000000 cycles: 300243769 heartbeat IPC: 0.609075 cumulative IPC: 0.529323 (Simulation time: 1 hr 24 min 25 sec) 
Heartbeat CPU 2 instructions: 420000000 cycles: 303195521 heartbeat IPC: 1.05348 cumulative IPC: 0.989308 (Simulation time: 1 hr 25 min 2 sec) 
Heartbeat CPU 3 instructions: 500000000 cycles: 305327964 heartbeat IPC: 1.01555 cumulative IPC: 0.89511 (Simulation time: 1 hr 25 min 26 sec) 
Heartbeat CPU 1 instructions: 450000002 cycles: 307087926 heartbeat IPC: 0.790814 cumulative IPC: 0.692448 (Simulation time: 1 hr 25 min 49 sec) 
Heartbeat CPU 2 instructions: 430000001 cycles: 312652279 heartbeat IPC: 1.05744 cumulative IPC: 0.99284 (Simulation time: 1 hr 26 min 55 sec) 
Heartbeat CPU 3 instructions: 510000001 cycles: 314983115 heartbeat IPC: 1.03572 cumulative IPC: 0.902457 (Simulation time: 1 hr 27 min 21 sec) 
Heartbeat CPU 0 instructions: 300000000 cycles: 316798436 heartbeat IPC: 0.604059 cumulative IPC: 0.535954 (Simulation time: 1 hr 27 min 45 sec) 
Heartbeat CPU 2 instructions: 440000000 cycles: 322065959 heartbeat IPC: 1.06228 cumulative IPC: 0.996248 (Simulation time: 1 hr 28 min 50 sec) 
Heartbeat CPU 1 instructions: 460000000 cycles: 322672907 heartbeat IPC: 0.641643 cumulative IPC: 0.688334 (Simulation time: 1 hr 28 min 58 sec) 
Heartbeat CPU 3 instructions: 520000000 cycles: 324597592 heartbeat IPC: 1.0401 cumulative IPC: 0.909265 (Simulation time: 1 hr 29 min 19 sec) 
Heartbeat CPU 0 instructions: 310000001 cycles: 330327759 heartbeat IPC: 0.739135 cumulative IPC: 0.549691 (Simulation time: 1 hr 30 min 34 sec) 
Heartbeat CPU 2 instructions: 450000000 cycles: 331467121 heartbeat IPC: 1.0637 cumulative IPC: 0.999399 (Simulation time: 1 hr 30 min 49 sec) 
Heartbeat CPU 3 instructions: 530000000 cycles: 332986072 heartbeat IPC: 1.19211 cumulative IPC: 0.920966 (Simulation time: 1 hr 31 min 9 sec) 
Heartbeat CPU 1 instructions: 470000000 cycles: 336439411 heartbeat IPC: 0.726401 cumulative IPC: 0.690875 (Simulation time: 1 hr 31 min 59 sec) 
Heartbeat CPU 3 instructions: 540000000 cycles: 340175186 heartbeat IPC: 1.39099 cumulative IPC: 0.93706 (Simulation time: 1 hr 32 min 48 sec) 
Heartbeat CPU 2 instructions: 460000000 cycles: 340811881 heartbeat IPC: 1.07012 cumulative IPC: 1.00254 (Simulation time: 1 hr 32 min 56 sec) 
Heartbeat CPU 0 instructions: 320000000 cycles: 343553092 heartbeat IPC: 0.756125 cumulative IPC: 0.562488 (Simulation time: 1 hr 33 min 32 sec) 
Heartbeat CPU 3 instructions: 550000001 cycles: 347227452 heartbeat IPC: 1.41798 cumulative IPC: 0.952689 (Simulation time: 1 hr 34 min 25 sec) 
Heartbeat CPU 2 instructions: 470000000 cycles: 350191065 heartbeat IPC: 1.06619 cumulative IPC: 1.00525 (Simulation time: 1 hr 35 min 7 sec) 
Heartbeat CPU 1 instructions: 480000000 cycles: 352054846 heartbeat IPC: 0.640392 cumulative IPC: 0.687322 (Simulation time: 1 hr 35 min 33 sec) 
Heartbeat CPU 3 instructions: 560000000 cycles: 354518072 heartbeat IPC: 1.37163 cumulative IPC: 0.966306 (Simulation time: 1 hr 36 min 9 sec) 
Heartbeat CPU 0 instructions: 330000002 cycles: 356763338 heartbeat IPC: 0.756988 cumulative IPC: 0.57383 (Simulation time: 1 hr 36 min 41 sec) 
Heartbeat CPU 2 instructions: 480000000 cycles: 359574187 heartbeat IPC: 1.06574 cumulative IPC: 1.00773 (Simulation time: 1 hr 37 min 22 sec) 
Heartbeat CPU 3 instructions: 570000003 cycles: 362477655 heartbeat IPC: 1.25635 cumulative IPC: 0.976245 (Simulation time: 1 hr 38 min 2 sec) 
Heartbeat CPU 0 instructions: 340000000 cycles: 365494855 heartbeat IPC: 1.14528 cumulative IPC: 0.595037 (Simulation time: 1 hr 38 min 48 sec) 
Heartbeat CPU 1 instructions: 490000000 cycles: 366455580 heartbeat IPC: 0.694409 cumulative IPC: 0.687754 (Simulation time: 1 hr 39 min 3 sec) 
Heartbeat CPU 2 instructions: 490000000 cycles: 369061174 heartbeat IPC: 1.05408 cumulative IPC: 1.00957 (Simulation time: 1 hr 39 min 41 sec) 
Heartbeat CPU 3 instructions: 580000000 cycles: 370682535 heartbeat IPC: 1.21879 cumulative IPC: 0.984521 (Simulation time: 1 hr 40 min 4 sec) 
Heartbeat CPU 0 instructions: 350000001 cycles: 374114673 heartbeat IPC: 1.16012 cumulative IPC: 0.615008 (Simulation time: 1 hr 40 min 52 sec) 
Heartbeat CPU 2 instructions: 500000000 cycles: 378544038 heartbeat IPC: 1.05453 cumulative IPC: 1.01128 (Simulation time: 1 hr 41 min 58 sec) 
Heartbeat CPU 3 instructions: 590000000 cycles: 378920868 heartbeat IPC: 1.21384 cumulative IPC: 0.992117 (Simulation time: 1 hr 42 min 4 sec) 
Heartbeat CPU 0 instructions: 360000000 cycles: 382778984 heartbeat IPC: 1.15416 cumulative IPC: 0.633503 (Simulation time: 1 hr 42 min 57 sec) 
Heartbeat CPU 1 instructions: 500000000 cycles: 384427641 heartbeat IPC: 0.556419 cumulative IPC: 0.678469 (Simulation time: 1 hr 43 min 20 sec) 
Heartbeat CPU 2 instructions: 510000001 cycles: 388066873 heartbeat IPC: 1.05011 cumulative IPC: 1.01272 (Simulation time: 1 hr 44 min 6 sec) 
Heartbeat CPU 3 instructions: 600000000 cycles: 388728268 heartbeat IPC: 1.01964 cumulative IPC: 0.993161 (Simulation time: 1 hr 44 min 15 sec) 
Heartbeat CPU 0 instructions: 370000000 cycles: 391497885 heartbeat IPC: 1.14693 cumulative IPC: 0.650636 (Simulation time: 1 hr 44 min 48 sec) 
Heartbeat CPU 2 instructions: 520000000 cycles: 397623827 heartbeat IPC: 1.04636 cumulative IPC: 1.01392 (Simulation time: 1 hr 46 min 4 sec) 
Heartbeat CPU 0 instructions: 380000000 cycles: 400183699 heartbeat IPC: 1.1513 cumulative IPC: 0.666745 (Simulation time: 1 hr 46 min 39 sec) 
Heartbeat CPU 3 instructions: 610000000 cycles: 400325179 heartbeat IPC: 0.862299 cumulative IPC: 0.987543 (Simulation time: 1 hr 46 min 40 sec) 
Heartbeat CPU 1 instructions: 510000000 cycles: 400970401 heartbeat IPC: 0.604494 cumulative IPC: 0.673949 (Simulation time: 1 hr 46 min 49 sec) 
Heartbeat CPU 2 instructions: 530000001 cycles: 407218096 heartbeat IPC: 1.04229 cumulative IPC: 1.0149 (Simulation time: 1 hr 48 min 3 sec) 
Heartbeat CPU 0 instructions: 390000002 cycles: 408878489 heartbeat IPC: 1.15011 cumulative IPC: 0.681827 (Simulation time: 1 hr 48 min 29 sec) 
Heartbeat CPU 3 instructions: 620000000 cycles: 412098569 heartbeat IPC: 0.849373 cumulative IPC: 0.981772 (Simulation time: 1 hr 49 min 11 sec) 
Heartbeat CPU 2 instructions: 540000000 cycles: 416827492 heartbeat IPC: 1.04065 cumulative IPC: 1.01577 (Simulation time: 1 hr 50 min 12 sec) 
Heartbeat CPU 0 instructions: 400000000 cycles: 417620042 heartbeat IPC: 1.14396 cumulative IPC: 0.695883 (Simulation time: 1 hr 50 min 22 sec) 
Heartbeat CPU 1 instructions: 520000000 cycles: 419238552 heartbeat IPC: 0.547401 cumulative IPC: 0.66595 (Simulation time: 1 hr 50 min 43 sec) 
Heartbeat CPU 3 instructions: 630000000 cycles: 424733016 heartbeat IPC: 0.791487 cumulative IPC: 0.973609 (Simulation time: 1 hr 51 min 56 sec) 
Heartbeat CPU 0 instructions: 410000000 cycles: 426382708 heartbeat IPC: 1.14121 cumulative IPC: 0.709058 (Simulation time: 1 hr 52 min 19 sec) 
Heartbeat CPU 2 instructions: 550000000 cycles: 426425357 heartbeat IPC: 1.0419 cumulative IPC: 1.01661 (Simulation time: 1 hr 52 min 20 sec) 
Heartbeat CPU 0 instructions: 420000000 cycles: 435282131 heartbeat IPC: 1.12367 cumulative IPC: 0.721153 (Simulation time: 1 hr 54 min 9 sec) 
Heartbeat CPU 1 instructions: 530000000 cycles: 435994100 heartbeat IPC: 0.596817 cumulative IPC: 0.662162 (Simulation time: 1 hr 54 min 17 sec) 
Heartbeat CPU 3 instructions: 640000000 cycles: 437104244 heartbeat IPC: 0.808327 cumulative IPC: 0.966946 (Simulation time: 1 hr 54 min 28 sec) 
Heartbeat CPU 2 instructions: 560000000 cycles: 438328616 heartbeat IPC: 0.840106 cumulative IPC: 1.00979 (Simulation time: 1 hr 54 min 43 sec) 
Heartbeat CPU 0 instructions: 430000003 cycles: 444148444 heartbeat IPC: 1.12786 cumulative IPC: 0.73264 (Simulation time: 1 hr 55 min 59 sec) 
Heartbeat CPU 3 instructions: 650000002 cycles: 448253135 heartbeat IPC: 0.89695 cumulative IPC: 0.964492 (Simulation time: 1 hr 56 min 47 sec) 
Heartbeat CPU 2 instructions: 570000002 cycles: 450665110 heartbeat IPC: 0.810603 cumulative IPC: 1.00213 (Simulation time: 1 hr 57 min 13 sec) 
Heartbeat CPU 0 instructions: 440000000 cycles: 453102470 heartbeat IPC: 1.11682 cumulative IPC: 0.743294 (Simulation time: 1 hr 57 min 47 sec) 
Heartbeat CPU 1 instructions: 540000000 cycles: 453558050 heartbeat IPC: 0.569348 cumulative IPC: 0.65712 (Simulation time: 1 hr 57 min 52 sec) 
Heartbeat CPU 3 instructions: 660000000 cycles: 461113615 heartbeat IPC: 0.777576 cumulative IPC: 0.957228 (Simulation time: 1 hr 59 min 19 sec) 
Heartbeat CPU 0 instructions: 450000001 cycles: 461996867 heartbeat IPC: 1.1243 cumulative IPC: 0.753508 (Simulation time: 1 hr 59 min 31 sec) 
Heartbeat CPU 2 instructions: 580000000 cycles: 463034818 heartbeat IPC: 0.808426 cumulative IPC: 0.994926 (Simulation time: 1 hr 59 min 43 sec) 
Heartbeat CPU 0 instructions: 460000000 cycles: 470900635 heartbeat IPC: 1.12312 cumulative IPC: 0.763167 (Simulation time: 2 hr 1 min 23 sec) 
Heartbeat CPU 3 instructions: 670000003 cycles: 471515894 heartbeat IPC: 0.961328 cumulative IPC: 0.957353 (Simulation time: 2 hr 1 min 31 sec) 
Heartbeat CPU 1 instructions: 550000002 cycles: 473786798 heartbeat IPC: 0.494346 cumulative IPC: 0.647537 (Simulation time: 2 hr 2 min 0 sec) 
Heartbeat CPU 2 instructions: 590000000 cycles: 475292817 heartbeat IPC: 0.815794 cumulative IPC: 0.988563 (Simulation time: 2 hr 2 min 23 sec) 
Heartbeat CPU 0 instructions: 470000002 cycles: 479781998 heartbeat IPC: 1.12595 cumulative IPC: 0.772385 (Simulation time: 2 hr 3 min 20 sec) 
Heartbeat CPU 3 instructions: 680000000 cycles: 480536302 heartbeat IPC: 1.1086 cumulative IPC: 0.961247 (Simulation time: 2 hr 3 min 30 sec) 
Heartbeat CPU 0 instructions: 480000000 cycles: 488927943 heartbeat IPC: 1.09338 cumulative IPC: 0.780569 (Simulation time: 2 hr 5 min 13 sec) 
Heartbeat CPU 3 instructions: 690000000 cycles: 489992676 heartbeat IPC: 1.05749 cumulative IPC: 0.963777 (Simulation time: 2 hr 5 min 25 sec) 
Heartbeat CPU 1 instructions: 560000000 cycles: 490111816 heartbeat IPC: 0.612557 cumulative IPC: 0.64595 (Simulation time: 2 hr 5 min 27 sec) 
Heartbeat CPU 2 instructions: 600000000 cycles: 491514760 heartbeat IPC: 0.616449 cumulative IPC: 0.971855 (Simulation time: 2 hr 5 min 46 sec) 
Heartbeat CPU 0 instructions: 490000000 cycles: 497983755 heartbeat IPC: 1.10426 cumulative IPC: 0.788539 (Simulation time: 2 hr 7 min 21 sec) 
Heartbeat CPU 3 instructions: 700000000 cycles: 499865923 heartbeat IPC: 1.01284 cumulative IPC: 0.965087 (Simulation time: 2 hr 7 min 47 sec) 
Heartbeat CPU 2 instructions: 610000000 cycles: 500482157 heartbeat IPC: 1.11515 cumulative IPC: 0.975326 (Simulation time: 2 hr 7 min 57 sec) 
Heartbeat CPU 1 instructions: 570000000 cycles: 503254306 heartbeat IPC: 0.760891 cumulative IPC: 0.649999 (Simulation time: 2 hr 8 min 35 sec) 
Heartbeat CPU 0 instructions: 500000000 cycles: 506889818 heartbeat IPC: 1.12283 cumulative IPC: 0.796443 (Simulation time: 2 hr 9 min 22 sec) 
Heartbeat CPU 2 instructions: 620000000 cycles: 509890716 heartbeat IPC: 1.06286 cumulative IPC: 0.977495 (Simulation time: 2 hr 10 min 4 sec) 
Heartbeat CPU 3 instructions: 710000003 cycles: 511266154 heartbeat IPC: 0.877175 cumulative IPC: 0.962457 (Simulation time: 2 hr 10 min 19 sec) 
Heartbeat CPU 0 instructions: 510000003 cycles: 515599214 heartbeat IPC: 1.14819 cumulative IPC: 0.804393 (Simulation time: 2 hr 11 min 16 sec) 
Heartbeat CPU 1 instructions: 580000000 cycles: 518871361 heartbeat IPC: 0.640326 cumulative IPC: 0.649611 (Simulation time: 2 hr 11 min 55 sec) 
Heartbeat CPU 2 instructions: 630000001 cycles: 519335646 heartbeat IPC: 1.05877 cumulative IPC: 0.979468 (Simulation time: 2 hr 12 min 1 sec) 
Heartbeat CPU 3 instructions: 720000000 cycles: 523397434 heartbeat IPC: 0.824315 cumulative IPC: 0.958195 (Simulation time: 2 hr 12 min 54 sec) 
Heartbeat CPU 0 instructions: 520000000 cycles: 524359375 heartbeat IPC: 1.14153 cumulative IPC: 0.811886 (Simulation time: 2 hr 13 min 4 sec) 
Heartbeat CPU 2 instructions: 640000000 cycles: 528786597 heartbeat IPC: 1.05809 cumulative IPC: 0.981332 (Simulation time: 2 hr 14 min 0 sec) 
Heartbeat CPU 0 instructions: 530000002 cycles: 533098105 heartbeat IPC: 1.14433 cumulative IPC: 0.819097 (Simulation time: 2 hr 14 min 52 sec) 
Heartbeat CPU 1 instructions: 590000003 cycles: 534078785 heartbeat IPC: 0.657574 cumulative IPC: 0.649911 (Simulation time: 2 hr 15 min 3 sec) 
Heartbeat CPU 3 instructions: 730000001 cycles: 536199565 heartbeat IPC: 0.78112 cumulative IPC: 0.952611 (Simulation time: 2 hr 15 min 34 sec) 
Heartbeat CPU 2 instructions: 650000000 cycles: 538249802 heartbeat IPC: 1.05672 cumulative IPC: 0.983081 (Simulation time: 2 hr 15 min 59 sec) 
Heartbeat CPU 0 instructions: 540000000 cycles: 541853858 heartbeat IPC: 1.14211 cumulative IPC: 0.825967 (Simulation time: 2 hr 16 min 42 sec) 
Heartbeat CPU 2 instructions: 660000000 cycles: 547721147 heartbeat IPC: 1.05582 cumulative IPC: 0.984731 (Simulation time: 2 hr 17 min 55 sec) 
Heartbeat CPU 1 instructions: 600000000 cycles: 548828664 heartbeat IPC: 0.677971 cumulative IPC: 0.650899 (Simulation time: 2 hr 18 min 8 sec) 
Heartbeat CPU 3 instructions: 740000000 cycles: 549156182 heartbeat IPC: 0.771806 cumulative IPC: 0.947019 (Simulation time: 2 hr 18 min 12 sec) 
Heartbeat CPU 0 instructions: 550000003 cycles: 550598935 heartbeat IPC: 1.1435 cumulative IPC: 0.832573 (Simulation time: 2 hr 18 min 30 sec) 
Heartbeat CPU 2 instructions: 670000002 cycles: 557203330 heartbeat IPC: 1.05461 cumulative IPC: 0.986282 (Simulation time: 2 hr 19 min 52 sec) 
Heartbeat CPU 0 instructions: 560000000 cycles: 559339847 heartbeat IPC: 1.14404 cumulative IPC: 0.838917 (Simulation time: 2 hr 20 min 22 sec) 
Heartbeat CPU 3 instructions: 750000001 cycles: 562497625 heartbeat IPC: 0.749544 cumulative IPC: 0.940925 (Simulation time: 2 hr 21 min 2 sec) 
Heartbeat CPU 1 instructions: 610000001 cycles: 563248001 heartbeat IPC: 0.693513 cumulative IPC: 0.652318 (Simulation time: 2 hr 21 min 12 sec) 
Heartbeat CPU 2 instructions: 680000000 cycles: 566662059 heartbeat IPC: 1.05722 cumulative IPC: 0.98782 (Simulation time: 2 hr 21 min 56 sec) 
Heartbeat CPU 0 instructions: 570000000 cycles: 568075581 heartbeat IPC: 1.14472 cumulative IPC: 0.845018 (Simulation time: 2 hr 22 min 15 sec) 
Heartbeat CPU 2 instructions: 690000000 cycles: 576292232 heartbeat IPC: 1.0384 cumulative IPC: 0.988912 (Simulation time: 2 hr 23 min 59 sec) 
Heartbeat CPU 3 instructions: 760000000 cycles: 576774421 heartbeat IPC: 0.700437 cumulative IPC: 0.933236 (Simulation time: 2 hr 24 min 4 sec) 
Heartbeat CPU 0 instructions: 580000000 cycles: 576913083 heartbeat IPC: 1.13154 cumulative IPC: 0.850687 (Simulation time: 2 hr 24 min 6 sec) 
Heartbeat CPU 1 instructions: 620000000 cycles: 578798653 heartbeat IPC: 0.64306 cumulative IPC: 0.651997 (Simulation time: 2 hr 24 min 28 sec) 
Heartbeat CPU 0 instructions: 590000000 cycles: 585759934 heartbeat IPC: 1.13035 cumulative IPC: 0.856118 (Simulation time: 2 hr 25 min 56 sec) 
Heartbeat CPU 2 instructions: 700000000 cycles: 586052248 heartbeat IPC: 1.02459 cumulative IPC: 0.989676 (Simulation time: 2 hr 26 min 1 sec) 
Heartbeat CPU 3 instructions: 770000000 cycles: 592289450 heartbeat IPC: 0.644536 cumulative IPC: 0.923542 (Simulation time: 2 hr 27 min 18 sec) 
Heartbeat CPU 1 instructions: 630000002 cycles: 593434868 heartbeat IPC: 0.683237 cumulative IPC: 0.652984 (Simulation time: 2 hr 27 min 35 sec) 
Heartbeat CPU 0 instructions: 600000000 cycles: 594656486 heartbeat IPC: 1.12403 cumulative IPC: 0.86125 (Simulation time: 2 hr 27 min 52 sec) 
Heartbeat CPU 2 instructions: 710000000 cycles: 595907236 heartbeat IPC: 1.01471 cumulative IPC: 0.990206 (Simulation time: 2 hr 28 min 6 sec) 
Heartbeat CPU 0 instructions: 610000001 cycles: 603455707 heartbeat IPC: 1.13646 cumulative IPC: 0.866367 (Simulation time: 2 hr 29 min 38 sec) 
Heartbeat CPU 3 instructions: 780000000 cycles: 606997019 heartbeat IPC: 0.679922 cumulative IPC: 0.916027 (Simulation time: 2 hr 30 min 24 sec) 
Heartbeat CPU 1 instructions: 640000000 cycles: 607364182 heartbeat IPC: 0.71791 cumulative IPC: 0.65488 (Simulation time: 2 hr 30 min 30 sec) 
Heartbeat CPU 2 instructions: 720000000 cycles: 608042777 heartbeat IPC: 0.824026 cumulative IPC: 0.985985 (Simulation time: 2 hr 30 min 40 sec) 
Heartbeat CPU 0 instructions: 620000000 cycles: 612172215 heartbeat IPC: 1.14725 cumulative IPC: 0.871447 (Simulation time: 2 hr 31 min 28 sec) 
Heartbeat CPU 2 instructions: 730000003 cycles: 620227907 heartbeat IPC: 0.820673 cumulative IPC: 0.981874 (Simulation time: 2 hr 33 min 24 sec) 
Heartbeat CPU 0 instructions: 630000000 cycles: 620904205 heartbeat IPC: 1.14521 cumulative IPC: 0.876319 (Simulation time: 2 hr 33 min 33 sec) 
Heartbeat CPU 3 instructions: 790000000 cycles: 621601522 heartbeat IPC: 0.68472 cumulative IPC: 0.909153 (Simulation time: 2 hr 33 min 43 sec) 
Heartbeat CPU 1 instructions: 650000001 cycles: 622839883 heartbeat IPC: 0.646174 cumulative IPC: 0.654606 (Simulation time: 2 hr 34 min 0 sec) 
Heartbeat CPU 0 instructions: 640000000 cycles: 629643678 heartbeat IPC: 1.14423 cumulative IPC: 0.881007 (Simulation time: 2 hr 35 min 30 sec) 
Heartbeat CPU 2 instructions: 740000000 cycles: 632485872 heartbeat IPC: 0.815796 cumulative IPC: 0.977821 (Simulation time: 2 hr 36 min 6 sec) 
Heartbeat CPU 3 instructions: 800000000 cycles: 636665330 heartbeat IPC: 0.663843 cumulative IPC: 0.901856 (Simulation time: 2 hr 36 min 58 sec) 
Heartbeat CPU 1 instructions: 660000000 cycles: 636825374 heartbeat IPC: 0.715027 cumulative IPC: 0.656274 (Simulation time: 2 hr 37 min 0 sec) 
Heartbeat CPU 0 instructions: 650000002 cycles: 638349247 heartbeat IPC: 1.14869 cumulative IPC: 0.885593 (Simulation time: 2 hr 37 min 19 sec) 
Heartbeat CPU 2 instructions: 750000000 cycles: 643948600 heartbeat IPC: 0.872393 cumulative IPC: 0.975469 (Simulation time: 2 hr 38 min 27 sec) 
Heartbeat CPU 0 instructions: 660000000 cycles: 647065844 heartbeat IPC: 1.14724 cumulative IPC: 0.890006 (Simulation time: 2 hr 39 min 3 sec) 
Heartbeat CPU 1 instructions: 670000002 cycles: 649682499 heartbeat IPC: 0.777779 cumulative IPC: 0.659282 (Simulation time: 2 hr 39 min 39 sec) 
Heartbeat CPU 3 instructions: 810000002 cycles: 652512269 heartbeat IPC: 0.631037 cumulative IPC: 0.893639 (Simulation time: 2 hr 40 min 10 sec) 
Heartbeat CPU 2 instructions: 760000000 cycles: 653311781 heartbeat IPC: 1.06801 cumulative IPC: 0.977125 (Simulation time: 2 hr 40 min 20 sec) 
Heartbeat CPU 0 instructions: 670000002 cycles: 655828067 heartbeat IPC: 1.14126 cumulative IPC: 0.894194 (Simulation time: 2 hr 40 min 56 sec) 
Heartbeat CPU 2 instructions: 770000000 cycles: 662615974 heartbeat IPC: 1.07478 cumulative IPC: 0.978832 (Simulation time: 2 hr 42 min 19 sec) 
Heartbeat CPU 0 instructions: 680000000 cycles: 664567303 heartbeat IPC: 1.14426 cumulative IPC: 0.898284 (Simulation time: 2 hr 42 min 40 sec) 
Heartbeat CPU 1 instructions: 680000000 cycles: 664608780 heartbeat IPC: 0.669959 cumulative IPC: 0.65958 (Simulation time: 2 hr 42 min 41 sec) 
Heartbeat CPU 3 instructions: 820000000 cycles: 666182980 heartbeat IPC: 0.731491 cumulative IPC: 0.889503 (Simulation time: 2 hr 43 min 3 sec) 
Heartbeat CPU 2 instructions: 780000000 cycles: 671944804 heartbeat IPC: 1.07195 cumulative IPC: 0.980435 (Simulation time: 2 hr 44 min 17 sec) 
Heartbeat CPU 0 instructions: 690000003 cycles: 673338204 heartbeat IPC: 1.14013 cumulative IPC: 0.90219 (Simulation time: 2 hr 44 min 39 sec) 
Heartbeat CPU 1 instructions: 690000002 cycles: 679196229 heartbeat IPC: 0.685521 cumulative IPC: 0.660269 (Simulation time: 2 hr 45 min 51 sec) 
Heartbeat CPU 3 instructions: 830000000 cycles: 679976269 heartbeat IPC: 0.72499 cumulative IPC: 0.885376 (Simulation time: 2 hr 46 min 1 sec) 
Heartbeat CPU 2 instructions: 790000003 cycles: 681234111 heartbeat IPC: 1.07651 cumulative IPC: 0.982055 (Simulation time: 2 hr 46 min 17 sec) 
Heartbeat CPU 0 instructions: 700000000 cycles: 682081772 heartbeat IPC: 1.1437 cumulative IPC: 0.906016 (Simulation time: 2 hr 46 min 27 sec) 
Heartbeat CPU 2 instructions: 800000000 cycles: 690528478 heartbeat IPC: 1.07592 cumulative IPC: 0.983612 (Simulation time: 2 hr 48 min 13 sec) 
Heartbeat CPU 0 instructions: 710000001 cycles: 690814446 heartbeat IPC: 1.14512 cumulative IPC: 0.909741 (Simulation time: 2 hr 48 min 17 sec) 
Heartbeat CPU 3 instructions: 840000000 cycles: 693084347 heartbeat IPC: 0.762888 cumulative IPC: 0.882523 (Simulation time: 2 hr 48 min 43 sec) 
Heartbeat CPU 1 instructions: 700000000 cycles: 694737667 heartbeat IPC: 0.643441 cumulative IPC: 0.659806 (Simulation time: 2 hr 49 min 5 sec) 
Heartbeat CPU 0 instructions: 720000000 cycles: 699504453 heartbeat IPC: 1.15075 cumulative IPC: 0.91342 (Simulation time: 2 hr 50 min 5 sec) 
Heartbeat CPU 2 instructions: 810000002 cycles: 699817901 heartbeat IPC: 1.07649 cumulative IPC: 0.985127 (Simulation time: 2 hr 50 min 9 sec) 
Heartbeat CPU 3 instructions: 850000000 cycles: 706185109 heartbeat IPC: 0.763314 cumulative IPC: 0.879812 (Simulation time: 2 hr 51 min 28 sec) 
Heartbeat CPU 0 instructions: 730000003 cycles: 708216400 heartbeat IPC: 1.14785 cumulative IPC: 0.916953 (Simulation time: 2 hr 51 min 51 sec) 
Heartbeat CPU 2 instructions: 820000000 cycles: 709152018 heartbeat IPC: 1.07134 cumulative IPC: 0.986517 (Simulation time: 2 hr 52 min 1 sec) 
Heartbeat CPU 1 instructions: 710000000 cycles: 710620874 heartbeat IPC: 0.629596 cumulative IPC: 0.658979 (Simulation time: 2 hr 52 min 21 sec) 
Heartbeat CPU 0 instructions: 740000000 cycles: 716882452 heartbeat IPC: 1.15393 cumulative IPC: 0.920454 (Simulation time: 2 hr 53 min 39 sec) 
Heartbeat CPU 2 instructions: 830000003 cycles: 718504775 heartbeat IPC: 1.0692 cumulative IPC: 0.987831 (Simulation time: 2 hr 53 min 55 sec) 
Heartbeat CPU 3 instructions: 860000000 cycles: 720285039 heartbeat IPC: 0.709223 cumulative IPC: 0.875736 (Simulation time: 2 hr 54 min 16 sec) 
Heartbeat CPU 1 instructions: 720000000 cycles: 723955140 heartbeat IPC: 0.749948 cumulative IPC: 0.661022 (Simulation time: 2 hr 55 min 0 sec) 
Heartbeat CPU 2 instructions: 840000000 cycles: 727759119 heartbeat IPC: 1.08057 cumulative IPC: 0.989268 (Simulation time: 2 hr 55 min 44 sec) 
Heartbeat CPU 3 instructions: 870000002 cycles: 731001786 heartbeat IPC: 0.933119 cumulative IPC: 0.876759 (Simulation time: 2 hr 56 min 25 sec) 
Heartbeat CPU 0 instructions: 750000003 cycles: 734442591 heartbeat IPC: 0.569472 cumulative IPC: 0.910253 (Simulation time: 2 hr 57 min 5 sec) 
Heartbeat CPU 2 instructions: 850000000 cycles: 736946809 heartbeat IPC: 1.08841 cumulative IPC: 0.990769 (Simulation time: 2 hr 57 min 37 sec) 
Heartbeat CPU 1 instructions: 730000003 cycles: 737525013 heartbeat IPC: 0.736927 cumulative IPC: 0.662718 (Simulation time: 2 hr 57 min 45 sec) 
Heartbeat CPU 3 instructions: 880000000 cycles: 740214318 heartbeat IPC: 1.08548 cumulative IPC: 0.879911 (Simulation time: 2 hr 58 min 17 sec) 
Heartbeat CPU 2 instructions: 860000000 cycles: 746130868 heartbeat IPC: 1.08884 cumulative IPC: 0.992231 (Simulation time: 2 hr 59 min 33 sec) 
Heartbeat CPU 3 instructions: 890000000 cycles: 748209668 heartbeat IPC: 1.25073 cumulative IPC: 0.884709 (Simulation time: 2 hr 59 min 59 sec) 
Heartbeat CPU 0 instructions: 760000000 cycles: 752170585 heartbeat IPC: 0.564079 cumulative IPC: 0.900386 (Simulation time: 3 hr 0 min 44 sec) 
Heartbeat CPU 1 instructions: 740000000 cycles: 752782413 heartbeat IPC: 0.655419 cumulative IPC: 0.662539 (Simulation time: 3 hr 0 min 53 sec) 
Heartbeat CPU 2 instructions: 870000000 cycles: 755320190 heartbeat IPC: 1.08822 cumulative IPC: 0.993643 (Simulation time: 3 hr 1 min 24 sec) 
Heartbeat CPU 3 instructions: 900000000 cycles: 757551290 heartbeat IPC: 1.07048 cumulative IPC: 0.887475 (Simulation time: 3 hr 1 min 51 sec) 
Heartbeat CPU 2 instructions: 880000000 cycles: 764491857 heartbeat IPC: 1.09031 cumulative IPC: 0.99504 (Simulation time: 3 hr 3 min 14 sec) 
Heartbeat CPU 3 instructions: 910000002 cycles: 767202440 heartbeat IPC: 1.03615 cumulative IPC: 0.889728 (Simulation time: 3 hr 3 min 45 sec) 
Heartbeat CPU 1 instructions: 750000000 cycles: 767938190 heartbeat IPC: 0.659814 cumulative IPC: 0.662474 (Simulation time: 3 hr 3 min 54 sec) 
Heartbeat CPU 0 instructions: 770000002 cycles: 770189128 heartbeat IPC: 0.554984 cumulative IPC: 0.890661 (Simulation time: 3 hr 4 min 24 sec) 
Heartbeat CPU 2 instructions: 890000001 cycles: 773667278 heartbeat IPC: 1.08987 cumulative IPC: 0.996393 (Simulation time: 3 hr 5 min 4 sec) 
Heartbeat CPU 3 instructions: 920000000 cycles: 776770864 heartbeat IPC: 1.0451 cumulative IPC: 0.892027 (Simulation time: 3 hr 5 min 46 sec) 
Heartbeat CPU 1 instructions: 760000000 cycles: 781744983 heartbeat IPC: 0.724281 cumulative IPC: 0.663784 (Simulation time: 3 hr 6 min 45 sec) 
Heartbeat CPU 2 instructions: 900000000 cycles: 782998357 heartbeat IPC: 1.07169 cumulative IPC: 0.997469 (Simulation time: 3 hr 7 min 2 sec) 
Heartbeat CPU 3 instructions: 930000000 cycles: 787481844 heartbeat IPC: 0.933621 cumulative IPC: 0.892705 (Simulation time: 3 hr 7 min 57 sec) 
Heartbeat CPU 0 instructions: 780000000 cycles: 788282347 heartbeat IPC: 0.552693 cumulative IPC: 0.881369 (Simulation time: 3 hr 8 min 9 sec) 
Heartbeat CPU 2 instructions: 910000000 cycles: 792798423 heartbeat IPC: 1.0204 cumulative IPC: 0.997808 (Simulation time: 3 hr 9 min 6 sec) 
Heartbeat CPU 1 instructions: 770000003 cycles: 793290688 heartbeat IPC: 0.866123 cumulative IPC: 0.667307 (Simulation time: 3 hr 9 min 13 sec) 
Heartbeat CPU 3 instructions: 940000000 cycles: 797925749 heartbeat IPC: 0.957496 cumulative IPC: 0.893718 (Simulation time: 3 hr 10 min 10 sec) 
Heartbeat CPU 2 instructions: 920000000 cycles: 802620102 heartbeat IPC: 1.01816 cumulative IPC: 0.998105 (Simulation time: 3 hr 11 min 8 sec) 
Heartbeat CPU 1 instructions: 780000000 cycles: 805124796 heartbeat IPC: 0.845015 cumulative IPC: 0.670423 (Simulation time: 3 hr 11 min 40 sec) 
Heartbeat CPU 0 instructions: 790000002 cycles: 806298697 heartbeat IPC: 0.555052 cumulative IPC: 0.872673 (Simulation time: 3 hr 11 min 56 sec) 
Heartbeat CPU 3 instructions: 950000003 cycles: 809169371 heartbeat IPC: 0.889393 cumulative IPC: 0.893647 (Simulation time: 3 hr 12 min 31 sec) 
Heartbeat CPU 2 instructions: 930000003 cycles: 812418185 heartbeat IPC: 1.02061 cumulative IPC: 0.998429 (Simulation time: 3 hr 13 min 11 sec) 
Heartbeat CPU 1 instructions: 790000003 cycles: 815584072 heartbeat IPC: 0.956089 cumulative IPC: 0.674783 (Simulation time: 3 hr 13 min 53 sec) 
Heartbeat CPU 3 instructions: 960000000 cycles: 820444307 heartbeat IPC: 0.886923 cumulative IPC: 0.893537 (Simulation time: 3 hr 14 min 54 sec) 
Heartbeat CPU 2 instructions: 940000000 cycles: 822200702 heartbeat IPC: 1.02223 cumulative IPC: 0.998765 (Simulation time: 3 hr 15 min 19 sec) 
Heartbeat CPU 0 instructions: 800000000 cycles: 824364118 heartbeat IPC: 0.553544 cumulative IPC: 0.864368 (Simulation time: 3 hr 15 min 49 sec) 
Heartbeat CPU 1 instructions: 800000000 cycles: 826961829 heartbeat IPC: 0.878908 cumulative IPC: 0.678116 (Simulation time: 3 hr 16 min 21 sec) 
Heartbeat CPU 3 instructions: 970000001 cycles: 829926118 heartbeat IPC: 1.05465 cumulative IPC: 0.89572 (Simulation time: 3 hr 16 min 57 sec) 
Heartbeat CPU 2 instructions: 950000000 cycles: 832009660 heartbeat IPC: 1.01948 cumulative IPC: 0.999054 (Simulation time: 3 hr 17 min 27 sec) 
Heartbeat CPU 1 instructions: 810000002 cycles: 838720109 heartbeat IPC: 0.850465 cumulative IPC: 0.680977 (Simulation time: 3 hr 18 min 50 sec) 
Heartbeat CPU 3 instructions: 980000000 cycles: 839632699 heartbeat IPC: 1.03023 cumulative IPC: 0.897561 (Simulation time: 3 hr 19 min 2 sec) 
Heartbeat CPU 2 instructions: 960000000 cycles: 841646250 heartbeat IPC: 1.03771 cumulative IPC: 0.999578 (Simulation time: 3 hr 19 min 25 sec) 
Heartbeat CPU 0 instructions: 810000000 cycles: 842379713 heartbeat IPC: 0.555075 cumulative IPC: 0.856544 (Simulation time: 3 hr 19 min 36 sec) 
Heartbeat CPU 2 instructions: 970000002 cycles: 850986412 heartbeat IPC: 1.07065 cumulative IPC: 1.0005 (Simulation time: 3 hr 21 min 23 sec) 
Heartbeat CPU 3 instructions: 990000000 cycles: 851511324 heartbeat IPC: 0.841848 cumulative IPC: 0.896643 (Simulation time: 3 hr 21 min 31 sec) 
Heartbeat CPU 1 instructions: 820000000 cycles: 853017948 heartbeat IPC: 0.699406 cumulative IPC: 0.681341 (Simulation time: 3 hr 21 min 53 sec) 
Heartbeat CPU 2 instructions: 980000000 cycles: 860285824 heartbeat IPC: 1.07534 cumulative IPC: 1.00145 (Simulation time: 3 hr 23 min 21 sec) 
Heartbeat CPU 0 instructions: 820000000 cycles: 860647290 heartbeat IPC: 0.547418 cumulative IPC: 0.848813 (Simulation time: 3 hr 23 min 27 sec) 
Heartbeat CPU 3 instructions: 1000000000 cycles: 863510743 heartbeat IPC: 0.833374 cumulative IPC: 0.895608 (Simulation time: 3 hr 24 min 2 sec) 
Heartbeat CPU 1 instructions: 830000000 cycles: 866704680 heartbeat IPC: 0.730635 cumulative IPC: 0.682257 (Simulation time: 3 hr 24 min 41 sec) 
Heartbeat CPU 2 instructions: 990000001 cycles: 871108689 heartbeat IPC: 0.92397 cumulative IPC: 1.00032 (Simulation time: 3 hr 25 min 36 sec) 
Heartbeat CPU 3 instructions: 1010000001 cycles: 874722474 heartbeat IPC: 0.891923 cumulative IPC: 0.895552 (Simulation time: 3 hr 26 min 18 sec) 
Heartbeat CPU 0 instructions: 830000001 cycles: 878659826 heartbeat IPC: 0.555169 cumulative IPC: 0.841746 (Simulation time: 3 hr 27 min 3 sec) 
Heartbeat CPU 1 instructions: 840000000 cycles: 879993535 heartbeat IPC: 0.75251 cumulative IPC: 0.683502 (Simulation time: 3 hr 27 min 20 sec) 
Heartbeat CPU 2 instructions: 1000000000 cycles: 882496099 heartbeat IPC: 0.878163 cumulative IPC: 0.998471 (Simulation time: 3 hr 27 min 51 sec) 
Heartbeat CPU 3 instructions: 1020000000 cycles: 886347160 heartbeat IPC: 0.860238 cumulative IPC: 0.895009 (Simulation time: 3 hr 28 min 35 sec) 
Heartbeat CPU 1 instructions: 850000003 cycles: 893653114 heartbeat IPC: 0.732087 cumulative IPC: 0.684372 (Simulation time: 3 hr 30 min 4 sec) 
Heartbeat CPU 2 instructions: 1010000002 cycles: 893864947 heartbeat IPC: 0.879597 cumulative IPC: 0.996702 (Simulation time: 3 hr 30 min 6 sec) 
Heartbeat CPU 3 instructions: 1030000002 cycles: 895919409 heartbeat IPC: 1.04469 cumulative IPC: 0.89688 (Simulation time: 3 hr 30 min 36 sec) 
Heartbeat CPU 0 instructions: 840000000 cycles: 896637709 heartbeat IPC: 0.556239 cumulative IPC: 0.835049 (Simulation time: 3 hr 30 min 43 sec) 
Heartbeat CPU 2 instructions: 1020000000 cycles: 905237373 heartbeat IPC: 0.87932 cumulative IPC: 0.994979 (Simulation time: 3 hr 32 min 26 sec) 
Heartbeat CPU 3 instructions: 1040000000 cycles: 906152843 heartbeat IPC: 0.977189 cumulative IPC: 0.89794 (Simulation time: 3 hr 32 min 38 sec) 
Heartbeat CPU 1 instructions: 860000000 cycles: 907379163 heartbeat IPC: 0.728542 cumulative IPC: 0.685152 (Simulation time: 3 hr 32 min 52 sec) 
Heartbeat CPU 0 instructions: 850000000 cycles: 914644473 heartbeat IPC: 0.555347 cumulative IPC: 0.828628 (Simulation time: 3 hr 34 min 25 sec) 
Heartbeat CPU 2 instructions: 1030000001 cycles: 914703699 heartbeat IPC: 1.05638 cumulative IPC: 0.99572 (Simulation time: 3 hr 34 min 26 sec) 
Heartbeat CPU 3 instructions: 1050000000 cycles: 918074272 heartbeat IPC: 0.838826 cumulative IPC: 0.897045 (Simulation time: 3 hr 35 min 5 sec) 
Heartbeat CPU 1 instructions: 870000001 cycles: 920246638 heartbeat IPC: 0.777153 cumulative IPC: 0.68665 (Simulation time: 3 hr 35 min 33 sec) 
Heartbeat CPU 2 instructions: 1040000000 cycles: 924037841 heartbeat IPC: 1.07134 cumulative IPC: 0.996609 (Simulation time: 3 hr 36 min 20 sec) 
Heartbeat CPU 3 instructions: 1060000000 cycles: 929511372 heartbeat IPC: 0.874348 cumulative IPC: 0.89672 (Simulation time: 3 hr 37 min 29 sec) 
Heartbeat CPU 1 instructions: 880000000 cycles: 932523161 heartbeat IPC: 0.814563 cumulative IPC: 0.688607 (Simulation time: 3 hr 38 min 6 sec) 
Heartbeat CPU 0 instructions: 860000000 cycles: 932845612 heartbeat IPC: 0.549416 cumulative IPC: 0.822296 (Simulation time: 3 hr 38 min 11 sec) 
Heartbeat CPU 2 instructions: 1050000001 cycles: 933329669 heartbeat IPC: 1.07621 cumulative IPC: 0.99753 (Simulation time: 3 hr 38 min 17 sec) 
Heartbeat CPU 3 instructions: 1070000000 cycles: 939366286 heartbeat IPC: 1.01472 cumulative IPC: 0.898158 (Simulation time: 3 hr 39 min 37 sec) 
Heartbeat CPU 2 instructions: 1060000000 cycles: 942554333 heartbeat IPC: 1.08405 cumulative IPC: 0.998513 (Simulation time: 3 hr 40 min 24 sec) 
Heartbeat CPU 1 instructions: 890000000 cycles: 945854032 heartbeat IPC: 0.750139 cumulative IPC: 0.689613 (Simulation time: 3 hr 41 min 12 sec) 
Heartbeat CPU 3 instructions: 1080000000 cycles: 947674223 heartbeat IPC: 1.20367 cumulative IPC: 0.901262 (Simulation time: 3 hr 41 min 40 sec) 
Heartbeat CPU 0 instructions: 870000001 cycles: 950791464 heartbeat IPC: 0.557232 cumulative IPC: 0.816499 (Simulation time: 3 hr 42 min 23 sec) 
Heartbeat CPU 2 instructions: 1070000003 cycles: 951859040 heartbeat IPC: 1.07473 cumulative IPC: 0.999376 (Simulation time: 3 hr 42 min 39 sec) 
Heartbeat CPU 3 instructions: 1090000003 cycles: 957356033 heartbeat IPC: 1.03287 cumulative IPC: 0.902803 (Simulation time: 3 hr 43 min 59 sec) 
Heartbeat CPU 1 instructions: 900000000 cycles: 959216259 heartbeat IPC: 0.748378 cumulative IPC: 0.69056 (Simulation time: 3 hr 44 min 22 sec) 
Heartbeat CPU 2 instructions: 1080000000 cycles: 961173770 heartbeat IPC: 1.07357 cumulative IPC: 1.00021 (Simulation time: 3 hr 44 min 50 sec) 
Heartbeat CPU 3 instructions: 1100000000 cycles: 965289044 heartbeat IPC: 1.26056 cumulative IPC: 0.906201 (Simulation time: 3 hr 45 min 47 sec) 
Heartbeat CPU 0 instructions: 880000000 cycles: 968415072 heartbeat IPC: 0.567421 cumulative IPC: 0.811262 (Simulation time: 3 hr 46 min 31 sec) 
Heartbeat CPU 2 instructions: 1090000001 cycles: 970409515 heartbeat IPC: 1.08275 cumulative IPC: 1.00111 (Simulation time: 3 hr 46 min 58 sec) 
Heartbeat CPU 1 instructions: 910000001 cycles: 972583054 heartbeat IPC: 0.748123 cumulative IPC: 0.691474 (Simulation time: 3 hr 47 min 26 sec) 
Heartbeat CPU 3 instructions: 1110000001 cycles: 972946438 heartbeat IPC: 1.30593 cumulative IPC: 0.909834 (Simulation time: 3 hr 47 min 31 sec) 
Heartbeat CPU 2 instructions: 1100000000 cycles: 979812272 heartbeat IPC: 1.06352 cumulative IPC: 1.00181 (Simulation time: 3 hr 48 min 48 sec) 
Heartbeat CPU 3 instructions: 1120000000 cycles: 983451764 heartbeat IPC: 0.951898 cumulative IPC: 0.910351 (Simulation time: 3 hr 49 min 30 sec) 
Heartbeat CPU 1 instructions: 920000000 cycles: 986534250 heartbeat IPC: 0.716784 cumulative IPC: 0.691886 (Simulation time: 3 hr 49 min 59 sec) 
Heartbeat CPU 2 instructions: 1110000001 cycles: 989266876 heartbeat IPC: 1.05769 cumulative IPC: 1.00242 (Simulation time: 3 hr 50 min 31 sec) 
Heartbeat CPU 3 instructions: 1130000001 cycles: 994713585 heartbeat IPC: 0.887956 cumulative IPC: 0.91006 (Simulation time: 3 hr 51 min 32 sec) 
Heartbeat CPU 0 instructions: 890000000 cycles: 997608469 heartbeat IPC: 0.342543 cumulative IPC: 0.795487 (Simulation time: 3 hr 52 min 4 sec) 
Heartbeat CPU 2 instructions: 1120000000 cycles: 998666746 heartbeat IPC: 1.06384 cumulative IPC: 1.00309 (Simulation time: 3 hr 52 min 16 sec) 
Heartbeat CPU 1 instructions: 930000000 cycles: 999536762 heartbeat IPC: 0.769082 cumulative IPC: 0.693041 (Simulation time: 3 hr 52 min 29 sec) 
Heartbeat CPU 3 instructions: 1140000000 cycles: 1006012224 heartbeat IPC: 0.885062 cumulative IPC: 0.909737 (Simulation time: 3 hr 53 min 48 sec) 
Heartbeat CPU 2 instructions: 1130000000 cycles: 1007933956 heartbeat IPC: 1.07907 cumulative IPC: 1.00389 (Simulation time: 3 hr 54 min 11 sec) 
Heartbeat CPU 1 instructions: 940000000 cycles: 1011418900 heartbeat IPC: 0.841599 cumulative IPC: 0.695044 (Simulation time: 3 hr 54 min 54 sec) 
Heartbeat CPU 0 instructions: 900000000 cycles: 1015193046 heartbeat IPC: 0.56868 cumulative IPC: 0.79098 (Simulation time: 3 hr 55 min 40 sec) 
Heartbeat CPU 3 instructions: 1150000002 cycles: 1016523825 heartbeat IPC: 0.95133 cumulative IPC: 0.910231 (Simulation time: 3 hr 55 min 56 sec) 
Heartbeat CPU 2 instructions: 1140000000 cycles: 1017257334 heartbeat IPC: 1.07257 cumulative IPC: 1.00461 (Simulation time: 3 hr 56 min 3 sec) 
Heartbeat CPU 1 instructions: 950000001 cycles: 1024251434 heartbeat IPC: 0.779269 cumulative IPC: 0.696253 (Simulation time: 3 hr 57 min 27 sec) 
Heartbeat CPU 2 instructions: 1150000000 cycles: 1026559696 heartbeat IPC: 1.075 cumulative IPC: 1.00534 (Simulation time: 3 hr 57 min 53 sec) 
Heartbeat CPU 3 instructions: 1160000000 cycles: 1027979759 heartbeat IPC: 0.87291 cumulative IPC: 0.909754 (Simulation time: 3 hr 58 min 12 sec) 
Heartbeat CPU 0 instructions: 910000001 cycles: 1033072564 heartbeat IPC: 0.559299 cumulative IPC: 0.786392 (Simulation time: 3 hr 59 min 13 sec) 
Heartbeat CPU 2 instructions: 1160000000 cycles: 1035831441 heartbeat IPC: 1.07855 cumulative IPC: 1.00609 (Simulation time: 3 hr 59 min 46 sec) 
Heartbeat CPU 3 instructions: 1170000000 cycles: 1038195518 heartbeat IPC: 0.97888 cumulative IPC: 0.910532 (Simulation time: 4 hr 0 min 12 sec) 
Heartbeat CPU 1 instructions: 960000000 cycles: 1038611170 heartbeat IPC: 0.696392 cumulative IPC: 0.696255 (Simulation time: 4 hr 0 min 16 sec) 
Heartbeat CPU 2 instructions: 1170000000 cycles: 1045431423 heartbeat IPC: 1.04167 cumulative IPC: 1.00646 (Simulation time: 4 hr 1 min 42 sec) 
Heartbeat CPU 3 instructions: 1180000000 cycles: 1048198005 heartbeat IPC: 0.999751 cumulative IPC: 0.911504 (Simulation time: 4 hr 2 min 18 sec) 
Heartbeat CPU 0 instructions: 920000000 cycles: 1051133479 heartbeat IPC: 0.553682 cumulative IPC: 0.781828 (Simulation time: 4 hr 2 min 52 sec) 
Heartbeat CPU 1 instructions: 970000000 cycles: 1052420653 heartbeat IPC: 0.72414 cumulative IPC: 0.696672 (Simulation time: 4 hr 3 min 6 sec) 
Heartbeat CPU 2 instructions: 1180000000 cycles: 1055796789 heartbeat IPC: 0.964751 cumulative IPC: 1.006 (Simulation time: 4 hr 3 min 50 sec) 
Heartbeat CPU 3 instructions: 1190000000 cycles: 1059247390 heartbeat IPC: 0.905028 cumulative IPC: 0.911427 (Simulation time: 4 hr 4 min 28 sec) 
Heartbeat CPU 2 instructions: 1190000001 cycles: 1066179435 heartbeat IPC: 0.963146 cumulative IPC: 1.00552 (Simulation time: 4 hr 5 min 52 sec) 
Heartbeat CPU 1 instructions: 980000000 cycles: 1066823263 heartbeat IPC: 0.694319 cumulative IPC: 0.696636 (Simulation time: 4 hr 6 min 1 sec) 
Heartbeat CPU 0 instructions: 930000000 cycles: 1069042565 heartbeat IPC: 0.558376 cumulative IPC: 0.777566 (Simulation time: 4 hr 6 min 31 sec) 
Heartbeat CPU 3 instructions: 1200000000 cycles: 1069175700 heartbeat IPC: 1.00722 cumulative IPC: 0.91244 (Simulation time: 4 hr 6 min 33 sec) 
Heartbeat CPU 2 instructions: 1200000000 cycles: 1076524649 heartbeat IPC: 0.96663 cumulative IPC: 1.0051 (Simulation time: 4 hr 8 min 6 sec) 
Heartbeat CPU 3 instructions: 1210000000 cycles: 1079178626 heartbeat IPC: 0.999707 cumulative IPC: 0.91336 (Simulation time: 4 hr 8 min 40 sec) 
Heartbeat CPU 1 instructions: 990000001 cycles: 1079736996 heartbeat IPC: 0.774369 cumulative IPC: 0.697694 (Simulation time: 4 hr 8 min 49 sec) 
Heartbeat CPU 2 instructions: 1210000000 cycles: 1086875285 heartbeat IPC: 0.966124 cumulative IPC: 1.00467 (Simulation time: 4 hr 10 min 24 sec) 
Heartbeat CPU 0 instructions: 940000000 cycles: 1086985279 heartbeat IPC: 0.557329 cumulative IPC: 0.773436 (Simulation time: 4 hr 10 min 25 sec) 
Heartbeat CPU 3 instructions: 1220000000 cycles: 1089130818 heartbeat IPC: 1.0048 cumulative IPC: 0.914309 (Simulation time: 4 hr 10 min 54 sec) 
Heartbeat CPU 1 instructions: 1000000000 cycles: 1092046598 heartbeat IPC: 0.812374 cumulative IPC: 0.699161 (Simulation time: 4 hr 11 min 37 sec) 
Heartbeat CPU 2 instructions: 1220000000 cycles: 1097102689 heartbeat IPC: 0.977765 cumulative IPC: 1.00439 (Simulation time: 4 hr 12 min 53 sec) 
Heartbeat CPU 3 instructions: 1230000002 cycles: 1097394529 heartbeat IPC: 1.21011 cumulative IPC: 0.916836 (Simulation time: 4 hr 12 min 57 sec) 
Heartbeat CPU 0 instructions: 950000000 cycles: 1104888400 heartbeat IPC: 0.558562 cumulative IPC: 0.769489 (Simulation time: 4 hr 14 min 45 sec) 
Heartbeat CPU 3 instructions: 1240000000 cycles: 1104970315 heartbeat IPC: 1.31999 cumulative IPC: 0.91997 (Simulation time: 4 hr 14 min 47 sec) 
Heartbeat CPU 1 instructions: 1010000001 cycles: 1105239376 heartbeat IPC: 0.757991 cumulative IPC: 0.699957 (Simulation time: 4 hr 14 min 51 sec) 
Heartbeat CPU 2 instructions: 1230000000 cycles: 1106523226 heartbeat IPC: 1.06151 cumulative IPC: 1.00494 (Simulation time: 4 hr 15 min 11 sec) 
Heartbeat CPU 3 instructions: 1250000000 cycles: 1112542924 heartbeat IPC: 1.32055 cumulative IPC: 0.923058 (Simulation time: 4 hr 16 min 41 sec) 
Heartbeat CPU 2 instructions: 1240000000 cycles: 1115706610 heartbeat IPC: 1.08892 cumulative IPC: 1.00572 (Simulation time: 4 hr 17 min 29 sec) 
Heartbeat CPU 1 instructions: 1020000000 cycles: 1119640092 heartbeat IPC: 0.69441 cumulative IPC: 0.699876 (Simulation time: 4 hr 18 min 27 sec) 
Heartbeat CPU 3 instructions: 1260000000 cycles: 1120104553 heartbeat IPC: 1.32247 cumulative IPC: 0.926109 (Simulation time: 4 hr 18 min 35 sec) 
Heartbeat CPU 0 instructions: 960000000 cycles: 1122884669 heartbeat IPC: 0.555671 cumulative IPC: 0.765612 (Simulation time: 4 hr 19 min 14 sec) 
Finished CPU 2 instructions: 1000000003 cycles: 995329444 cumulative IPC: 1.00469 (Simulation time: 4 hr 19 min 47 sec) 
Heartbeat CPU 2 instructions: 1250000001 cycles: 1126838155 heartbeat IPC: 0.898348 cumulative IPC: 1.00452 (Simulation time: 4 hr 20 min 6 sec) 
Heartbeat CPU 3 instructions: 1270000003 cycles: 1129709087 heartbeat IPC: 1.04118 cumulative IPC: 0.927214 (Simulation time: 4 hr 20 min 42 sec) 
Heartbeat CPU 1 instructions: 1030000003 cycles: 1134827801 heartbeat IPC: 0.658427 cumulative IPC: 0.69925 (Simulation time: 4 hr 21 min 42 sec) 
Heartbeat CPU 2 instructions: 1260000000 cycles: 1138207603 heartbeat IPC: 0.87955 cumulative IPC: 1.00311 (Simulation time: 4 hr 22 min 24 sec) 
Heartbeat CPU 3 instructions: 1280000000 cycles: 1140740985 heartbeat IPC: 0.906462 cumulative IPC: 0.926988 (Simulation time: 4 hr 22 min 50 sec) 
Heartbeat CPU 0 instructions: 970000002 cycles: 1140768748 heartbeat IPC: 0.559157 cumulative IPC: 0.761959 (Simulation time: 4 hr 22 min 51 sec) 
Heartbeat CPU 1 instructions: 1040000000 cycles: 1149092039 heartbeat IPC: 0.701054 cumulative IPC: 0.699275 (Simulation time: 4 hr 24 min 28 sec) 
Heartbeat CPU 2 instructions: 1270000001 cycles: 1149551549 heartbeat IPC: 0.881528 cumulative IPC: 1.00176 (Simulation time: 4 hr 24 min 33 sec) 
Heartbeat CPU 3 instructions: 1290000001 cycles: 1151756524 heartbeat IPC: 0.907809 cumulative IPC: 0.926781 (Simulation time: 4 hr 25 min 0 sec) 
Heartbeat CPU 0 instructions: 980000000 cycles: 1158622347 heartbeat IPC: 0.560111 cumulative IPC: 0.758455 (Simulation time: 4 hr 26 min 19 sec) 
Heartbeat CPU 2 instructions: 1280000000 cycles: 1159716295 heartbeat IPC: 0.983792 cumulative IPC: 1.00158 (Simulation time: 4 hr 26 min 32 sec) 
Heartbeat CPU 1 instructions: 1050000000 cycles: 1163271764 heartbeat IPC: 0.705232 cumulative IPC: 0.699357 (Simulation time: 4 hr 27 min 17 sec) 
Heartbeat CPU 3 instructions: 1300000000 cycles: 1164315121 heartbeat IPC: 0.796267 cumulative IPC: 0.925196 (Simulation time: 4 hr 27 min 28 sec) 
Heartbeat CPU 2 instructions: 1290000002 cycles: 1169145657 heartbeat IPC: 1.06052 cumulative IPC: 1.00212 (Simulation time: 4 hr 28 min 28 sec) 
Heartbeat CPU 3 instructions: 1310000002 cycles: 1176076070 heartbeat IPC: 0.850272 cumulative IPC: 0.924353 (Simulation time: 4 hr 29 min 47 sec) 
Heartbeat CPU 0 instructions: 990000001 cycles: 1176413103 heartbeat IPC: 0.56209 cumulative IPC: 0.755115 (Simulation time: 4 hr 29 min 52 sec) 
Heartbeat CPU 1 instructions: 1060000000 cycles: 1177657802 heartbeat IPC: 0.695118 cumulative IPC: 0.699299 (Simulation time: 4 hr 30 min 7 sec) 
Heartbeat CPU 2 instructions: 1300000000 cycles: 1178559113 heartbeat IPC: 1.06231 cumulative IPC: 1.00266 (Simulation time: 4 hr 30 min 16 sec) 
Heartbeat CPU 3 instructions: 1320000000 cycles: 1187763490 heartbeat IPC: 0.855621 cumulative IPC: 0.923594 (Simulation time: 4 hr 32 min 1 sec) 
Heartbeat CPU 2 instructions: 1310000001 cycles: 1187991013 heartbeat IPC: 1.06023 cumulative IPC: 1.00317 (Simulation time: 4 hr 32 min 4 sec) 
Heartbeat CPU 1 instructions: 1070000000 cycles: 1192640643 heartbeat IPC: 0.66743 cumulative IPC: 0.698849 (Simulation time: 4 hr 32 min 58 sec) 
Heartbeat CPU 0 instructions: 1000000000 cycles: 1194244976 heartbeat IPC: 0.560794 cumulative IPC: 0.751859 (Simulation time: 4 hr 33 min 19 sec) 
Heartbeat CPU 2 instructions: 1320000000 cycles: 1197405458 heartbeat IPC: 1.0622 cumulative IPC: 1.00369 (Simulation time: 4 hr 33 min 57 sec) 
Heartbeat CPU 3 instructions: 1330000000 cycles: 1197619140 heartbeat IPC: 1.01465 cumulative IPC: 0.924435 (Simulation time: 4 hr 34 min 0 sec) 
Heartbeat CPU 2 instructions: 1330000003 cycles: 1206852048 heartbeat IPC: 1.05858 cumulative IPC: 1.00417 (Simulation time: 4 hr 35 min 50 sec) 
Heartbeat CPU 1 instructions: 1080000000 cycles: 1207888071 heartbeat IPC: 0.655848 cumulative IPC: 0.698241 (Simulation time: 4 hr 36 min 3 sec) 
Heartbeat CPU 3 instructions: 1340000000 cycles: 1209779300 heartbeat IPC: 0.822358 cumulative IPC: 0.923285 (Simulation time: 4 hr 36 min 26 sec) 
Heartbeat CPU 0 instructions: 1010000000 cycles: 1212183117 heartbeat IPC: 0.557471 cumulative IPC: 0.748636 (Simulation time: 4 hr 36 min 57 sec) 
Finished CPU 3 instructions: 1000000000 cycles: 1082911498 cumulative IPC: 0.923437 (Simulation time: 4 hr 37 min 8 sec) 
Heartbeat CPU 2 instructions: 1340000000 cycles: 1216280599 heartbeat IPC: 1.06061 cumulative IPC: 1.00466 (Simulation time: 4 hr 37 min 44 sec) 
Heartbeat CPU 3 instructions: 1350000000 cycles: 1219941601 heartbeat IPC: 0.984029 cumulative IPC: 0.923851 (Simulation time: 4 hr 38 min 38 sec) 
Heartbeat CPU 1 instructions: 1090000002 cycles: 1221638226 heartbeat IPC: 0.727265 cumulative IPC: 0.698606 (Simulation time: 4 hr 38 min 57 sec) 
Heartbeat CPU 2 instructions: 1350000001 cycles: 1225692698 heartbeat IPC: 1.06246 cumulative IPC: 1.00516 (Simulation time: 4 hr 39 min 48 sec) 
Heartbeat CPU 0 instructions: 1020000000 cycles: 1229812256 heartbeat IPC: 0.567243 cumulative IPC: 0.745728 (Simulation time: 4 hr 40 min 47 sec) 
Heartbeat CPU 3 instructions: 1360000000 cycles: 1230368256 heartbeat IPC: 0.95908 cumulative IPC: 0.924185 (Simulation time: 4 hr 40 min 58 sec) 
Heartbeat CPU 2 instructions: 1360000000 cycles: 1235097321 heartbeat IPC: 1.06331 cumulative IPC: 1.00566 (Simulation time: 4 hr 42 min 15 sec) 
Heartbeat CPU 1 instructions: 1100000000 cycles: 1235712664 heartbeat IPC: 0.710508 cumulative IPC: 0.698758 (Simulation time: 4 hr 42 min 22 sec) 
Heartbeat CPU 3 instructions: 1370000000 cycles: 1239726257 heartbeat IPC: 1.0686 cumulative IPC: 0.925403 (Simulation time: 4 hr 43 min 15 sec) 
Heartbeat CPU 2 instructions: 1370000000 cycles: 1244477569 heartbeat IPC: 1.06607 cumulative IPC: 1.00616 (Simulation time: 4 hr 44 min 24 sec) 
Heartbeat CPU 0 instructions: 1030000000 cycles: 1247095399 heartbeat IPC: 0.578598 cumulative IPC: 0.743141 (Simulation time: 4 hr 45 min 1 sec) 
Heartbeat CPU 3 instructions: 1380000000 cycles: 1248878026 heartbeat IPC: 1.09268 cumulative IPC: 0.926772 (Simulation time: 4 hr 45 min 23 sec) 
Heartbeat CPU 1 instructions: 1110000001 cycles: 1250330693 heartbeat IPC: 0.684087 cumulative IPC: 0.698567 (Simulation time: 4 hr 45 min 47 sec) 
Heartbeat CPU 2 instructions: 1380000000 cycles: 1253843581 heartbeat IPC: 1.06769 cumulative IPC: 1.00668 (Simulation time: 4 hr 46 min 36 sec) 
Heartbeat CPU 3 instructions: 1390000000 cycles: 1257830457 heartbeat IPC: 1.11702 cumulative IPC: 0.928282 (Simulation time: 4 hr 47 min 29 sec) 
Heartbeat CPU 0 instructions: 1040000000 cycles: 1261337249 heartbeat IPC: 0.702156 cumulative IPC: 0.742625 (Simulation time: 4 hr 48 min 17 sec) 
Heartbeat CPU 2 instructions: 1390000003 cycles: 1263199997 heartbeat IPC: 1.06879 cumulative IPC: 1.00719 (Simulation time: 4 hr 48 min 44 sec) 
Heartbeat CPU 1 instructions: 1120000000 cycles: 1265020523 heartbeat IPC: 0.680743 cumulative IPC: 0.698336 (Simulation time: 4 hr 49 min 12 sec) 
Heartbeat CPU 3 instructions: 1400000000 cycles: 1266932301 heartbeat IPC: 1.09868 cumulative IPC: 0.929647 (Simulation time: 4 hr 49 min 39 sec) 
Heartbeat CPU 2 instructions: 1400000000 cycles: 1272568643 heartbeat IPC: 1.06739 cumulative IPC: 1.00768 (Simulation time: 4 hr 50 min 57 sec) 
Heartbeat CPU 0 instructions: 1050000002 cycles: 1275330666 heartbeat IPC: 0.714622 cumulative IPC: 0.742283 (Simulation time: 4 hr 51 min 43 sec) 
Heartbeat CPU 3 instructions: 1410000000 cycles: 1275942845 heartbeat IPC: 1.10981 cumulative IPC: 0.931063 (Simulation time: 4 hr 51 min 53 sec) 
Heartbeat CPU 1 instructions: 1130000003 cycles: 1279615089 heartbeat IPC: 0.685187 cumulative IPC: 0.698169 (Simulation time: 4 hr 52 min 47 sec) 
Heartbeat CPU 2 instructions: 1410000002 cycles: 1281923203 heartbeat IPC: 1.069 cumulative IPC: 1.00818 (Simulation time: 4 hr 53 min 21 sec) 
Heartbeat CPU 3 instructions: 1420000000 cycles: 1285059263 heartbeat IPC: 1.09692 cumulative IPC: 0.932373 (Simulation time: 4 hr 54 min 5 sec) 
Heartbeat CPU 0 instructions: 1060000000 cycles: 1289366491 heartbeat IPC: 0.712462 cumulative IPC: 0.741922 (Simulation time: 4 hr 55 min 14 sec) 
Heartbeat CPU 2 instructions: 1420000000 cycles: 1291320587 heartbeat IPC: 1.06413 cumulative IPC: 1.00863 (Simulation time: 4 hr 55 min 44 sec) 
Heartbeat CPU 1 instructions: 1140000000 cycles: 1293097157 heartbeat IPC: 0.741726 cumulative IPC: 0.698674 (Simulation time: 4 hr 56 min 7 sec) 
Heartbeat CPU 3 instructions: 1430000001 cycles: 1294065004 heartbeat IPC: 1.1104 cumulative IPC: 0.93375 (Simulation time: 4 hr 56 min 21 sec) 
Heartbeat CPU 2 instructions: 1430000003 cycles: 1301526672 heartbeat IPC: 0.979808 cumulative IPC: 1.00838 (Simulation time: 4 hr 57 min 58 sec) 
Heartbeat CPU 0 instructions: 1070000000 cycles: 1303405013 heartbeat IPC: 0.712326 cumulative IPC: 0.741568 (Simulation time: 4 hr 58 min 17 sec) 
Heartbeat CPU 3 instructions: 1440000000 cycles: 1304270552 heartbeat IPC: 0.979859 cumulative IPC: 0.934151 (Simulation time: 4 hr 58 min 29 sec) 
Heartbeat CPU 1 instructions: 1150000001 cycles: 1306569342 heartbeat IPC: 0.74227 cumulative IPC: 0.699173 (Simulation time: 4 hr 58 min 59 sec) 
Heartbeat CPU 2 instructions: 1440000000 cycles: 1313197229 heartbeat IPC: 0.856857 cumulative IPC: 1.00689 (Simulation time: 5 hr 0 min 13 sec) 
Heartbeat CPU 3 instructions: 1450000000 cycles: 1316719943 heartbeat IPC: 0.803252 cumulative IPC: 0.932778 (Simulation time: 5 hr 0 min 57 sec) 
Heartbeat CPU 0 instructions: 1080000000 cycles: 1317480482 heartbeat IPC: 0.710456 cumulative IPC: 0.741199 (Simulation time: 5 hr 1 min 5 sec) 
Heartbeat CPU 1 instructions: 1160000000 cycles: 1323774407 heartbeat IPC: 0.581224 cumulative IPC: 0.697473 (Simulation time: 5 hr 2 min 15 sec) 
Heartbeat CPU 2 instructions: 1450000001 cycles: 1324905166 heartbeat IPC: 0.854122 cumulative IPC: 1.00539 (Simulation time: 5 hr 2 min 29 sec) 
Heartbeat CPU 3 instructions: 1460000000 cycles: 1331249531 heartbeat IPC: 0.688251 cumulative IPC: 0.92982 (Simulation time: 5 hr 3 min 39 sec) 
Heartbeat CPU 0 instructions: 1090000000 cycles: 1331571798 heartbeat IPC: 0.709657 cumulative IPC: 0.740829 (Simulation time: 5 hr 3 min 42 sec) 
Heartbeat CPU 2 instructions: 1460000000 cycles: 1336669860 heartbeat IPC: 0.850001 cumulative IPC: 1.00388 (Simulation time: 5 hr 4 min 43 sec) 
Heartbeat CPU 1 instructions: 1170000003 cycles: 1338990327 heartbeat IPC: 0.657207 cumulative IPC: 0.696966 (Simulation time: 5 hr 5 min 10 sec) 
Heartbeat CPU 3 instructions: 1470000001 cycles: 1344331317 heartbeat IPC: 0.764422 cumulative IPC: 0.928037 (Simulation time: 5 hr 6 min 11 sec) 
Heartbeat CPU 0 instructions: 1100000000 cycles: 1345640880 heartbeat IPC: 0.710778 cumulative IPC: 0.740481 (Simulation time: 5 hr 6 min 27 sec) 
Heartbeat CPU 2 instructions: 1470000001 cycles: 1348470126 heartbeat IPC: 0.847439 cumulative IPC: 1.00236 (Simulation time: 5 hr 6 min 56 sec) 
Heartbeat CPU 1 instructions: 1180000000 cycles: 1354128300 heartbeat IPC: 0.66059 cumulative IPC: 0.696516 (Simulation time: 5 hr 7 min 58 sec) 
Heartbeat CPU 3 instructions: 1480000000 cycles: 1358034288 heartbeat IPC: 0.729769 cumulative IPC: 0.925825 (Simulation time: 5 hr 8 min 43 sec) 
Heartbeat CPU 0 instructions: 1110000000 cycles: 1359781142 heartbeat IPC: 0.7072 cumulative IPC: 0.740099 (Simulation time: 5 hr 9 min 2 sec) 
Heartbeat CPU 2 instructions: 1480000000 cycles: 1360826235 heartbeat IPC: 0.809316 cumulative IPC: 1.00042 (Simulation time: 5 hr 9 min 13 sec) 
Heartbeat CPU 2 instructions: 1490000001 cycles: 1370211213 heartbeat IPC: 1.06553 cumulative IPC: 1.00092 (Simulation time: 5 hr 11 min 9 sec) 
Heartbeat CPU 1 instructions: 1190000003 cycles: 1371087763 heartbeat IPC: 0.589642 cumulative IPC: 0.695055 (Simulation time: 5 hr 11 min 19 sec) 
Heartbeat CPU 3 instructions: 1490000003 cycles: 1373486882 heartbeat IPC: 0.647141 cumulative IPC: 0.922361 (Simulation time: 5 hr 11 min 48 sec) 
Heartbeat CPU 0 instructions: 1120000000 cycles: 1373872590 heartbeat IPC: 0.70965 cumulative IPC: 0.739754 (Simulation time: 5 hr 11 min 53 sec) 
Heartbeat CPU 2 instructions: 1500000000 cycles: 1379712499 heartbeat IPC: 1.05249 cumulative IPC: 1.00131 (Simulation time: 5 hr 13 min 6 sec) 
Heartbeat CPU 1 instructions: 1200000000 cycles: 1385178101 heartbeat IPC: 0.709706 cumulative IPC: 0.69522 (Simulation time: 5 hr 14 min 6 sec) 
Heartbeat CPU 3 instructions: 1500000000 cycles: 1386631589 heartbeat IPC: 0.760762 cumulative IPC: 0.92067 (Simulation time: 5 hr 14 min 27 sec) 
Heartbeat CPU 0 instructions: 1130000000 cycles: 1387900452 heartbeat IPC: 0.712867 cumulative IPC: 0.739454 (Simulation time: 5 hr 14 min 43 sec) 
Heartbeat CPU 2 instructions: 1510000001 cycles: 1389107741 heartbeat IPC: 1.06437 cumulative IPC: 1.00178 (Simulation time: 5 hr 14 min 57 sec) 
Heartbeat CPU 1 instructions: 1210000000 cycles: 1398431750 heartbeat IPC: 0.754509 cumulative IPC: 0.69584 (Simulation time: 5 hr 16 min 44 sec) 
Heartbeat CPU 2 instructions: 1520000000 cycles: 1398511611 heartbeat IPC: 1.06339 cumulative IPC: 1.00223 (Simulation time: 5 hr 16 min 45 sec) 
Heartbeat CPU 3 instructions: 1510000001 cycles: 1399015084 heartbeat IPC: 0.807527 cumulative IPC: 0.919566 (Simulation time: 5 hr 16 min 53 sec) 
Heartbeat CPU 0 instructions: 1140000000 cycles: 1401942895 heartbeat IPC: 0.712127 cumulative IPC: 0.739152 (Simulation time: 5 hr 17 min 26 sec) 
Heartbeat CPU 2 instructions: 1530000000 cycles: 1407902856 heartbeat IPC: 1.06482 cumulative IPC: 1.00269 (Simulation time: 5 hr 18 min 38 sec) 
Heartbeat CPU 1 instructions: 1220000000 cycles: 1411431731 heartbeat IPC: 0.769232 cumulative IPC: 0.696584 (Simulation time: 5 hr 19 min 20 sec) 
Heartbeat CPU 3 instructions: 1520000000 cycles: 1412074379 heartbeat IPC: 0.765738 cumulative IPC: 0.917999 (Simulation time: 5 hr 19 min 28 sec) 
[...]
Heartbeat CPU 0 instructions: 1160000000 cycles: 1429393311 heartbeat IPC: 0.747311 cumulative IPC: 0.738929 (Simulation time: 5 hr 23 min 1 sec) 
Heartbeat CPU 3 instructions: 1540000000 cycles: 1433923662 heartbeat IPC: 0.957561 cumulative IPC: 0.917955 (Simulation time: 5 hr 23 min 57 sec) 
Heartbeat CPU 1 instructions: 1240000000 cycles: 1435927480 heartbeat IPC: 0.819838 cumulative IPC: 0.698833 (Simulation time: 5 hr 24 min 25 sec) 
Heartbeat CPU 2 instructions: 1560000000 cycles: 1436040121 heartbeat IPC: 1.06695 cumulative IPC: 1.00406 (Simulation time: 5 hr 24 min 26 sec) 
Heartbeat CPU 0 instructions: 1170000001 cycles: 1443402150 heartbeat IPC: 0.713835 cumulative IPC: 0.738661 (Simulation time: 5 hr 25 min 57 sec) 
Heartbeat CPU 3 instructions: 1550000000 cycles: 1444192168 heartbeat IPC: 0.973852 cumulative IPC: 0.918391 (Simulation time: 5 hr 26 min 5 sec) 
Heartbeat CPU 2 instructions: 1570000000 cycles: 1445339375 heartbeat IPC: 1.07536 cumulative IPC: 1.00457 (Simulation time: 5 hr 26 min 18 sec) 
Heartbeat CPU 1 instructions: 1250000003 cycles: 1449680582 heartbeat IPC: 0.727109 cumulative IPC: 0.699128 (Simulation time: 5 hr 27 min 10 sec) 
Heartbeat CPU 2 instructions: 1580000000 cycles: 1454703662 heartbeat IPC: 1.06789 cumulative IPC: 1.00502 (Simulation time: 5 hr 28 min 10 sec) 
Heartbeat CPU 0 instructions: 1180000000 cycles: 1457511104 heartbeat IPC: 0.70877 cumulative IPC: 0.738343 (Simulation time: 5 hr 28 min 43 sec) 
Heartbeat CPU 3 instructions: 1560000000 cycles: 1457803857 heartbeat IPC: 0.734663 cumulative IPC: 0.916508 (Simulation time: 5 hr 28 min 47 sec) 
Heartbeat CPU 1 instructions: 1260000000 cycles: 1462460255 heartbeat IPC: 0.782492 cumulative IPC: 0.699928 (Simulation time: 5 hr 29 min 40 sec) 
Heartbeat CPU 2 instructions: 1590000000 cycles: 1464680049 heartbeat IPC: 1.00237 cumulative IPC: 1.005 (Simulation time: 5 hr 30 min 9 sec) 
Heartbeat CPU 3 instructions: 1570000000 cycles: 1469650185 heartbeat IPC: 0.844143 cumulative IPC: 0.915868 (Simulation time: 5 hr 31 min 9 sec) 
Heartbeat CPU 0 instructions: 1190000001 cycles: 1471645908 heartbeat IPC: 0.707474 cumulative IPC: 0.738018 (Simulation time: 5 hr 31 min 29 sec) 
Heartbeat CPU 1 instructions: 1270000000 cycles: 1474515878 heartbeat IPC: 0.829488 cumulative IPC: 0.70109 (Simulation time: 5 hr 32 min 5 sec) 
Heartbeat CPU 2 instructions: 1600000000 cycles: 1476161027 heartbeat IPC: 0.871006 cumulative IPC: 1.00385 (Simulation time: 5 hr 32 min 23 sec) 
Heartbeat CPU 3 instructions: 1580000000 cycles: 1483712531 heartbeat IPC: 0.711119 cumulative IPC: 0.91374 (Simulation time: 5 hr 33 min 50 sec) 
Heartbeat CPU 0 instructions: 1200000000 cycles: 1485708706 heartbeat IPC: 0.711096 cumulative IPC: 0.737739 (Simulation time: 5 hr 34 min 14 sec) 
Finished CPU 0 instructions: 1000000000 cycles: 1355493509 cumulative IPC: 0.737739 (Simulation time: 5 hr 34 min 14 sec) 
Heartbeat CPU 1 instructions: 1280000000 cycles: 1486900128 heartbeat IPC: 0.807477 cumulative IPC: 0.702061 (Simulation time: 5 hr 34 min 31 sec) 
Heartbeat CPU 2 instructions: 1610000001 cycles: 1487578314 heartbeat IPC: 0.875865 cumulative IPC: 1.00278 (Simulation time: 5 hr 34 min 38 sec) 
Heartbeat CPU 3 instructions: 1590000000 cycles: 1496483489 heartbeat IPC: 0.783027 cumulative IPC: 0.912519 (Simulation time: 5 hr 36 min 21 sec) 
Heartbeat CPU 2 instructions: 1620000000 cycles: 1499009839 heartbeat IPC: 0.874774 cumulative IPC: 1.00171 (Simulation time: 5 hr 36 min 53 sec) 
Heartbeat CPU 0 instructions: 1210000001 cycles: 1499752856 heartbeat IPC: 0.71204 cumulative IPC: 0.737475 (Simulation time: 5 hr 37 min 1 sec) 
Heartbeat CPU 1 instructions: 1290000001 cycles: 1500413042 heartbeat IPC: 0.740033 cumulative IPC: 0.702435 (Simulation time: 5 hr 37 min 8 sec) 
Heartbeat CPU 3 instructions: 1600000000 cycles: 1508159198 heartbeat IPC: 0.856479 cumulative IPC: 0.912044 (Simulation time: 5 hr 38 min 51 sec) 
Heartbeat CPU 2 instructions: 1630000003 cycles: 1509414616 heartbeat IPC: 0.961097 cumulative IPC: 1.0014 (Simulation time: 5 hr 39 min 5 sec) 
Heartbeat CPU 1 instructions: 1300000000 cycles: 1512001598 heartbeat IPC: 0.86292 cumulative IPC: 0.703781 (Simulation time: 5 hr 39 min 41 sec) 
Heartbeat CPU 0 instructions: 1220000000 cycles: 1513820622 heartbeat IPC: 0.710845 cumulative IPC: 0.737204 (Simulation time: 5 hr 40 min 5 sec) 
Heartbeat CPU 2 instructions: 1640000000 cycles: 1518622492 heartbeat IPC: 1.08603 cumulative IPC: 1.00196 (Simulation time: 5 hr 41 min 9 sec) 
Heartbeat CPU 3 instructions: 1610000001 cycles: 1520306402 heartbeat IPC: 0.823235 cumulative IPC: 0.911268 (Simulation time: 5 hr 41 min 28 sec) 
Heartbeat CPU 1 instructions: 1310000002 cycles: 1524552464 heartbeat IPC: 0.796758 cumulative IPC: 0.704618 (Simulation time: 5 hr 42 min 25 sec) 
Heartbeat CPU 2 instructions: 1650000000 cycles: 1527796656 heartbeat IPC: 1.09002 cumulative IPC: 1.00254 (Simulation time: 5 hr 43 min 11 sec) 
Heartbeat CPU 0 instructions: 1230000001 cycles: 1527902549 heartbeat IPC: 0.71013 cumulative IPC: 0.736932 (Simulation time: 5 hr 43 min 12 sec) 
Heartbeat CPU 3 instructions: 1620000000 cycles: 1531927684 heartbeat IPC: 0.86049 cumulative IPC: 0.910847 (Simulation time: 5 hr 44 min 3 sec) 
Heartbeat CPU 1 instructions: 1320000000 cycles: 1536848095 heartbeat IPC: 0.813297 cumulative IPC: 0.705568 (Simulation time: 5 hr 45 min 4 sec) 
Heartbeat CPU 2 instructions: 1660000000 cycles: 1537010818 heartbeat IPC: 1.08529 cumulative IPC: 1.00308 (Simulation time: 5 hr 45 min 6 sec) 
Heartbeat CPU 0 instructions: 1240000000 cycles: 1542020895 heartbeat IPC: 0.708298 cumulative IPC: 0.736645 (Simulation time: 5 hr 46 min 10 sec) 
Heartbeat CPU 3 instructions: 1630000002 cycles: 1544578654 heartbeat IPC: 0.790453 cumulative IPC: 0.90977 (Simulation time: 5 hr 46 min 48 sec) 
Finished CPU 1 instructions: 1000000000 cycles: 1415416403 cumulative IPC: 0.706506 (Simulation time: 5 hr 46 min 59 sec) 

CPU 0 Branch Prediction Accuracy: 99.5785% MPKI: 0.0502396

CPU 1 Branch Prediction Accuracy: 96.9608% MPKI: 2.53247

CPU 2 Branch Prediction Accuracy: 99.1465% MPKI: 0.210001

CPU 3 Branch Prediction Accuracy: 98.0723% MPKI: 1.53144

ChampSim completed all CPUs

Total Simulation Statistics (not including warmup)

CPU 0 cumulative IPC: 0.736577 instructions: 1042563818 cycles: 1415416402
L1D TOTAL     ACCESS:  480613132  HIT:  461902115  MISS:   18711017
L1D LOAD      ACCESS:  413384035  HIT:  394673465  MISS:   18710570
L1D RFO       ACCESS:   67229097  HIT:   67228650  MISS:        447
L1D PREFETCH  ACCESS:          0  HIT:          0  MISS:          0
L1D WRITEBACK ACCESS:          0  HIT:          0  MISS:          0
L1I TOTAL     ACCESS:  250579255  HIT:  250579014  MISS:        241
L1I LOAD      ACCESS:  250579255  HIT:  250579014  MISS:        241
L1I RFO       ACCESS:          0  HIT:          0  MISS:          0
L1I PREFETCH  ACCESS:          0  HIT:          0  MISS:          0
L1I WRITEBACK ACCESS:          0  HIT:          0  MISS:          0
L2C TOTAL     ACCESS:   38486450  HIT:   23563902  MISS:   14922548
L2C LOAD      ACCESS:   18710241  HIT:   11176465  MISS:    7533776
L2C RFO       ACCESS:        397  HIT:        340  MISS:         57
L2C PREFETCH  ACCESS:   13467091  HIT:    6079490  MISS:    7387601
L2C WRITEBACK ACCESS:    6308721  HIT:    6307607  MISS:       1114
LLC TOTAL     ACCESS:   70256150  HIT:   56888338  MISS:   13367812
LLC LOAD      ACCESS:    7443652  HIT:    6036267  MISS:    1407385
LLC RFO       ACCESS:         57  HIT:          4  MISS:         53
LLC PREFETCH  ACCESS:   57026260  HIT:   45074127  MISS:   11952133
LLC WRITEBACK ACCESS:    5786181  HIT:    5777940  MISS:       8241

CPU 1 cumulative IPC: 0.706506 instructions: 1000000000 cycles: 1415416403
L1D TOTAL     ACCESS:  182459469  HIT:  163473368  MISS:   18986101
L1D LOAD      ACCESS:  157632740  HIT:  139692144  MISS:   17940596
L1D RFO       ACCESS:   24826729  HIT:   23781224  MISS:    1045505
L1D PREFETCH  ACCESS:          0  HIT:          0  MISS:          0
L1D WRITEBACK ACCESS:          0  HIT:          0  MISS:          0
L1I TOTAL     ACCESS:  263474932  HIT:  263473138  MISS:       1794
L1I LOAD      ACCESS:  263474932  HIT:  263473138  MISS:       1794
L1I RFO       ACCESS:          0  HIT:          0  MISS:          0
L1I PREFETCH  ACCESS:          0  HIT:          0  MISS:          0
L1I WRITEBACK ACCESS:          0  HIT:          0  MISS:          0
L2C TOTAL     ACCESS:   28561773  HIT:   13964732  MISS:   14597041
L2C LOAD      ACCESS:   17942378  HIT:    8635197  MISS:    9307181
L2C RFO       ACCESS:    1045447  HIT:     196930  MISS:     848517
L2C PREFETCH  ACCESS:    7855961  HIT:    3417205  MISS:    4438756
L2C WRITEBACK ACCESS:    1717987  HIT:    1715400  MISS:       2587
LLC TOTAL     ACCESS:   52315044  HIT:   36200160  MISS:   16114884
LLC LOAD      ACCESS:    8994362  HIT:    5481497  MISS:    3512865
LLC RFO       ACCESS:     848508  HIT:     163300  MISS:     685208
LLC PREFETCH  ACCESS:   41065625  HIT:   29159251  MISS:   11906374
LLC WRITEBACK ACCESS:    1406549  HIT:    1396112  MISS:      10437

CPU 2 cumulative IPC: 1.0036 instructions: 1420515604 cycles: 1415416403
L1D TOTAL     ACCESS:  430848785  HIT:  414927876  MISS:   15920909
L1D LOAD      ACCESS:  393003024  HIT:  381000636  MISS:   12002388
L1D RFO       ACCESS:   37845761  HIT:   33927240  MISS:    3918521
L1D PREFETCH  ACCESS:          0  HIT:          0  MISS:          0
L1D WRITEBACK ACCESS:          0  HIT:          0  MISS:          0
L1I TOTAL     ACCESS:  331400356  HIT:  331398895  MISS:       1461
L1I LOAD      ACCESS:  331400356  HIT:  331398895  MISS:       1461
L1I RFO       ACCESS:          0  HIT:          0  MISS:          0
L1I PREFETCH  ACCESS:          0  HIT:          0  MISS:          0
L1I WRITEBACK ACCESS:          0  HIT:          0  MISS:          0
L2C TOTAL     ACCESS:   33882275  HIT:   22211584  MISS:   11670691
L2C LOAD      ACCESS:   12003767  HIT:    7943269  MISS:    4060498
L2C RFO       ACCESS:    3917163  HIT:    1269279  MISS:    2647884
L2C PREFETCH  ACCESS:   12793718  HIT:    7836514  MISS:    4957204
L2C WRITEBACK ACCESS:    5167627  HIT:    5162522  MISS:       5105
LLC TOTAL     ACCESS:   49961456  HIT:   39943483  MISS:   10017973
LLC LOAD      ACCESS:    3959621  HIT:    3697441  MISS:     262180
LLC RFO       ACCESS:    2647876  HIT:     258290  MISS:    2389586
LLC PREFETCH  ACCESS:   39869719  HIT:   32520813  MISS:    7348906
LLC WRITEBACK ACCESS:    3484240  HIT:    3466939  MISS:      17301

CPU 3 cumulative IPC: 0.909459 instructions: 1287262901 cycles: 1415416403
L1D TOTAL     ACCESS:  223508092  HIT:  203190176  MISS:   20317916
L1D LOAD      ACCESS:  200950547  HIT:  182190286  MISS:   18760261
L1D RFO       ACCESS:   22557545  HIT:   20999890  MISS:    1557655
L1D PREFETCH  ACCESS:          0  HIT:          0  MISS:          0
L1D WRITEBACK ACCESS:          0  HIT:          0  MISS:          0
L1I TOTAL     ACCESS:  349828751  HIT:  349826322  MISS:       2429
L1I LOAD      ACCESS:  349828751  HIT:  349826322  MISS:       2429
L1I RFO       ACCESS:          0  HIT:          0  MISS:          0
L1I PREFETCH  ACCESS:          0  HIT:          0  MISS:          0
L1I WRITEBACK ACCESS:          0  HIT:          0  MISS:          0
L2C TOTAL     ACCESS:   33624121  HIT:   16585036  MISS:   17039085
L2C LOAD      ACCESS:   18762680  HIT:    9507986  MISS:    9254694
L2C RFO       ACCESS:    1557606  HIT:     174145  MISS:    1383461
L2C PREFETCH  ACCESS:   11261502  HIT:    4864602  MISS:    6396900
L2C WRITEBACK ACCESS:    2042333  HIT:    2038303  MISS:       4030
LLC TOTAL     ACCESS:   67415471  HIT:   53877963  MISS:   13537508
LLC LOAD      ACCESS:    8798260  HIT:    6443641  MISS:    2354619
LLC RFO       ACCESS:    1383459  HIT:     569589  MISS:     813870
LLC PREFETCH  ACCESS:   55452908  HIT:   45086797  MISS:   10366111
LLC WRITEBACK ACCESS:    1780844  HIT:    1777936  MISS:       2908

Region of Interest Statistics

CPU 0 cumulative IPC: 0.737739 instructions: 1000000000 cycles: 1355493509
L1D TOTAL     ACCESS:  455718529  HIT:  437372515  MISS:   18346014
L1D LOAD      ACCESS:  391008678  HIT:  372663040  MISS:   18345638
L1D RFO       ACCESS:   64709851  HIT:   64709475  MISS:        376
L1D PREFETCH  ACCESS:          0  HIT:          0  MISS:          0
L1D WRITEBACK ACCESS:          0  HIT:          0  MISS:          0
L1D PREFETCH  REQUESTED:          0  ISSUED:          0  USEFUL:          0  USELESS:          0
L1I TOTAL     ACCESS:  238795747  HIT:  238795506  MISS:        241
L1I LOAD      ACCESS:  238795747  HIT:  238795506  MISS:        241
L1I RFO       ACCESS:          0  HIT:          0  MISS:          0
L1I PREFETCH  ACCESS:          0  HIT:          0  MISS:          0
L1I WRITEBACK ACCESS:          0  HIT:          0  MISS:          0
L1I PREFETCH  REQUESTED:          0  ISSUED:          0  USEFUL:          0  USELESS:          0
L2C TOTAL     ACCESS:   37491368  HIT:   22828523  MISS:   14662845
L2C LOAD      ACCESS:   18345384  HIT:   10936183  MISS:    7409201
L2C RFO       ACCESS:        332  HIT:        275  MISS:         57
L2C PREFETCH  ACCESS:   12996955  HIT:    5744480  MISS:    7252475
L2C WRITEBACK ACCESS:    6148697  HIT:    6147585  MISS:       1112
L2C PREFETCH  REQUESTED:   78087304  ISSUED:   77654900  USEFUL:    7274446  USELESS:     401300
LLC TOTAL     ACCESS:   68835390  HIT:   55726369  MISS:   13109021
LLC LOAD      ACCESS:    7319077  HIT:    5919520  MISS:    1399557
LLC RFO       ACCESS:         57  HIT:          4  MISS:         53
LLC PREFETCH  ACCESS:   55888627  HIT:   44187446  MISS:   11701181
LLC WRITEBACK ACCESS:    5627629  HIT:    5619399  MISS:       8230
LLC PREFETCH  REQUESTED:          0  ISSUED:          0  USEFUL:   20403375  USELESS:   29453834
Major fault: 0 Minor fault: 175049

CPU 1 cumulative IPC: 0.706506 instructions: 1000000000 cycles: 1415416403
L1D TOTAL     ACCESS:  182459469  HIT:  163473368  MISS:   18986101
L1D LOAD      ACCESS:  157632740  HIT:  139692144  MISS:   17940596
L1D RFO       ACCESS:   24826729  HIT:   23781224  MISS:    1045505
L1D PREFETCH  ACCESS:          0  HIT:          0  MISS:          0
L1D WRITEBACK ACCESS:          0  HIT:          0  MISS:          0
L1D PREFETCH  REQUESTED:          0  ISSUED:          0  USEFUL:          0  USELESS:          0
L1I TOTAL     ACCESS:  263474932  HIT:  263473138  MISS:       1794
L1I LOAD      ACCESS:  263474932  HIT:  263473138  MISS:       1794
L1I RFO       ACCESS:          0  HIT:          0  MISS:          0
L1I PREFETCH  ACCESS:          0  HIT:          0  MISS:          0
L1I WRITEBACK ACCESS:          0  HIT:          0  MISS:          0
L1I PREFETCH  REQUESTED:          0  ISSUED:          0  USEFUL:          0  USELESS:          0
L2C TOTAL     ACCESS:   28561773  HIT:   13964732  MISS:   14597041
L2C LOAD      ACCESS:   17942378  HIT:    8635197  MISS:    9307181
L2C RFO       ACCESS:    1045447  HIT:     196930  MISS:     848517
L2C PREFETCH  ACCESS:    7855961  HIT:    3417205  MISS:    4438756
L2C WRITEBACK ACCESS:    1717987  HIT:    1715400  MISS:       2587
L2C PREFETCH  REQUESTED:   68468959  ISSUED:   68468361  USEFUL:    5733575  USELESS:     317823
LLC TOTAL     ACCESS:   52315044  HIT:   36200160  MISS:   16114884
LLC LOAD      ACCESS:    8994362  HIT:    5481497  MISS:    3512865
LLC RFO       ACCESS:     848508  HIT:     163300  MISS:     685208
LLC PREFETCH  ACCESS:   41065625  HIT:   29159251  MISS:   11906374
LLC WRITEBACK ACCESS:    1406549  HIT:    1396112  MISS:      10437
LLC PREFETCH  REQUESTED:          0  ISSUED:          0  USEFUL:   20403375  USELESS:   29453834
Major fault: 0 Minor fault: 4657

CPU 2 cumulative IPC: 1.00469 instructions: 1000000003 cycles: 995329444
L1D TOTAL     ACCESS:  303452664  HIT:  292355423  MISS:   11097241
L1D LOAD      ACCESS:  278353609  HIT:  269998535  MISS:    8355074
L1D RFO       ACCESS:   25099055  HIT:   22356888  MISS:    2742167
L1D PREFETCH  ACCESS:          0  HIT:          0  MISS:          0
L1D WRITEBACK ACCESS:          0  HIT:          0  MISS:          0
L1D PREFETCH  REQUESTED:          0  ISSUED:          0  USEFUL:          0  USELESS:          0
L1I TOTAL     ACCESS:  235231142  HIT:  235230458  MISS:        684
L1I LOAD      ACCESS:  235231142  HIT:  235230458  MISS:        684
L1I RFO       ACCESS:          0  HIT:          0  MISS:          0
L1I PREFETCH  ACCESS:          0  HIT:          0  MISS:          0
L1I WRITEBACK ACCESS:          0  HIT:          0  MISS:          0
L1I PREFETCH  REQUESTED:          0  ISSUED:          0  USEFUL:          0  USELESS:          0
L2C TOTAL     ACCESS:   23665125  HIT:   15453185  MISS:    8211940
L2C LOAD      ACCESS:    8355696  HIT:    5562379  MISS:    2793317
L2C RFO       ACCESS:    2741549  HIT:     863419  MISS:    1878130
L2C PREFETCH  ACCESS:    8999998  HIT:    5462088  MISS:    3537910
L2C WRITEBACK ACCESS:    3567882  HIT:    3565299  MISS:       2583
L2C PREFETCH  REQUESTED:   58647306  ISSUED:   58586751  USEFUL:    5720246  USELESS:      50828
LLC TOTAL     ACCESS:   35875761  HIT:   28778029  MISS:    7097732
LLC LOAD      ACCESS:    2728416  HIT:    2545333  MISS:     183083
LLC RFO       ACCESS:    1878126  HIT:     155297  MISS:    1722829
LLC PREFETCH  ACCESS:   28881272  HIT:   23702172  MISS:    5179100
LLC WRITEBACK ACCESS:    2387947  HIT:    2375227  MISS:      12720
LLC PREFETCH  REQUESTED:          0  ISSUED:          0  USEFUL:   20403375  USELESS:   29453834
Major fault: 0 Minor fault: 19885

CPU 3 cumulative IPC: 0.923437 instructions: 1000000000 cycles: 1082911498
L1D TOTAL     ACCESS:  172683016  HIT:  157150222  MISS:   15532794
L1D LOAD      ACCESS:  155905599  HIT:  141588656  MISS:   14316943
L1D RFO       ACCESS:   16777417  HIT:   15561566  MISS:    1215851
L1D PREFETCH  ACCESS:          0  HIT:          0  MISS:          0
L1D WRITEBACK ACCESS:          0  HIT:          0  MISS:          0
L1D PREFETCH  REQUESTED:          0  ISSUED:          0  USEFUL:          0  USELESS:          0
L1I TOTAL     ACCESS:  272406845  HIT:  272404816  MISS:       2029
L1I LOAD      ACCESS:  272406845  HIT:  272404816  MISS:       2029
L1I RFO       ACCESS:          0  HIT:          0  MISS:          0
L1I PREFETCH  ACCESS:          0  HIT:          0  MISS:          0
L1I WRITEBACK ACCESS:          0  HIT:          0  MISS:          0
L1I PREFETCH  REQUESTED:          0  ISSUED:          0  USEFUL:          0  USELESS:          0
L2C TOTAL     ACCESS:   25915859  HIT:   12785438  MISS:   13130421
L2C LOAD      ACCESS:   14318966  HIT:    7259955  MISS:    7059011
L2C RFO       ACCESS:    1215817  HIT:     127025  MISS:    1088792
L2C PREFETCH  ACCESS:    8834549  HIT:    3854976  MISS:    4979573
L2C WRITEBACK ACCESS:    1546527  HIT:    1543482  MISS:       3045
L2C PREFETCH  REQUESTED:   87677767  ISSUED:   87676871  USEFUL:    8129062  USELESS:     166696
LLC TOTAL     ACCESS:   52365791  HIT:   42022423  MISS:   10343368
LLC LOAD      ACCESS:    6686122  HIT:    4947008  MISS:    1739114
LLC RFO       ACCESS:    1088790  HIT:     451439  MISS:     637351
LLC PREFETCH  ACCESS:   43229829  HIT:   35265527  MISS:    7964302
LLC WRITEBACK ACCESS:    1361050  HIT:    1358449  MISS:       2601
LLC PREFETCH  REQUESTED:          0  ISSUED:          0  USEFUL:   20403375  USELESS:   29453834
Major fault: 0 Minor fault: 3941

DRAM Statistics
 CHANNEL 0
 RQ ROW_BUFFER_HIT:   11154540  ROW_BUFFER_MISS:   15299653
 DBUS_CONGESTED:   34829735
 WQ ROW_BUFFER_HIT:     467211  ROW_BUFFER_MISS:    5126124  FULL:          0

 CHANNEL 1
 RQ ROW_BUFFER_HIT:   11172364  ROW_BUFFER_MISS:   15368366
 DBUS_CONGESTED:   34829735
 WQ ROW_BUFFER_HIT:     467229  ROW_BUFFER_MISS:    5130639  FULL:          0

 AVG_CONGESTED_CYCLE: 13
