Initialize SIGNATURE TABLE
ST_SET: 1
ST_WAY: 256
ST_TAG_BIT: 16
ST_TAG_MASK: ffff

Initialize PATTERN TABLE
PT_SET: 512
PT_WAY: 4
SIG_DELTA_BIT: 7
C_SIG_BIT: 4
C_DELTA_BIT: 4

Initialize PREFETCH FILTER
FILTER_SET: 1024

*** ChampSim Multicore Out-of-Order Simulator ***

Warmup Instructions: 200000000
Simulation Instructions: 1000000000
Number of CPUs: 4
LLC sets: 8192
LLC ways: 16
Off-chip DRAM Size: 8192 MB Channels: 2 Width: 64-bit Data Rate: 1600 MT/s

CPU 0 runs /scratch/user/djimenez/champsim-traces/speccpu2006/xz//410.bwaves-1963B.champsimtrace.xz
CPU 1 runs /scratch/user/djimenez/champsim-traces/speccpu2006/xz//482.sphinx3-417B.champsimtrace.xz
CPU 2 runs /scratch/user/djimenez/champsim-traces/speccpu2006/xz//459.GemsFDTD-1491B.champsimtrace.xz
CPU 3 runs /scratch/user/djimenez/champsim-traces/speccpu2006/xz//433.milc-127B.champsimtrace.xz
Heartbeat CPU 3 instructions: 10000000 cycles: 3729854 heartbeat IPC: 2.68107 cumulative IPC: 2.68107 (Simulation time: 0 hr 1 min 36 sec) 
Heartbeat CPU 1 instructions: 10000000 cycles: 4016138 heartbeat IPC: 2.48995 cumulative IPC: 2.48995 (Simulation time: 0 hr 1 min 43 sec) 
Heartbeat CPU 2 instructions: 10000003 cycles: 4433827 heartbeat IPC: 2.25539 cumulative IPC: 2.25539 (Simulation time: 0 hr 1 min 53 sec) 
Heartbeat CPU 0 instructions: 10000002 cycles: 6650982 heartbeat IPC: 1.50354 cumulative IPC: 1.50354 (Simulation time: 0 hr 2 min 50 sec) 
Heartbeat CPU 3 instructions: 20000000 cycles: 7584948 heartbeat IPC: 2.59397 cumulative IPC: 2.6368 (Simulation time: 0 hr 3 min 14 sec) 
Heartbeat CPU 1 instructions: 20000000 cycles: 7969090 heartbeat IPC: 2.52975 cumulative IPC: 2.5097 (Simulation time: 0 hr 3 min 23 sec) 
Heartbeat CPU 2 instructions: 20000000 cycles: 8867503 heartbeat IPC: 2.25546 cumulative IPC: 2.25543 (Simulation time: 0 hr 3 min 46 sec) 
Heartbeat CPU 1 instructions: 30000001 cycles: 11813915 heartbeat IPC: 2.6009 cumulative IPC: 2.53938 (Simulation time: 0 hr 4 min 58 sec) 
Heartbeat CPU 3 instructions: 30000003 cycles: 13142071 heartbeat IPC: 1.79949 cumulative IPC: 2.28275 (Simulation time: 0 hr 5 min 31 sec) 
Heartbeat CPU 0 instructions: 20000000 cycles: 13296894 heartbeat IPC: 1.50468 cumulative IPC: 1.50411 (Simulation time: 0 hr 5 min 35 sec) 
Heartbeat CPU 2 instructions: 30000002 cycles: 13301323 heartbeat IPC: 2.25539 cumulative IPC: 2.25541 (Simulation time: 0 hr 5 min 35 sec) 
Heartbeat CPU 1 instructions: 40000000 cycles: 15671708 heartbeat IPC: 2.59216 cumulative IPC: 2.55237 (Simulation time: 0 hr 6 min 34 sec) 
Heartbeat CPU 2 instructions: 40000000 cycles: 17735046 heartbeat IPC: 2.25544 cumulative IPC: 2.25542 (Simulation time: 0 hr 7 min 28 sec) 
Heartbeat CPU 3 instructions: 40000000 cycles: 18014738 heartbeat IPC: 2.05226 cumulative IPC: 2.2204 (Simulation time: 0 hr 7 min 36 sec) 
Heartbeat CPU 1 instructions: 50000002 cycles: 19465204 heartbeat IPC: 2.63609 cumulative IPC: 2.56869 (Simulation time: 0 hr 8 min 14 sec) 
Heartbeat CPU 0 instructions: 30000001 cycles: 19931177 heartbeat IPC: 1.50732 cumulative IPC: 1.50518 (Simulation time: 0 hr 8 min 26 sec) 
Heartbeat CPU 2 instructions: 50000003 cycles: 22168273 heartbeat IPC: 2.25569 cumulative IPC: 2.25548 (Simulation time: 0 hr 9 min 24 sec) 
Heartbeat CPU 3 instructions: 50000002 cycles: 22887095 heartbeat IPC: 2.0524 cumulative IPC: 2.18464 (Simulation time: 0 hr 9 min 44 sec) 
Heartbeat CPU 1 instructions: 60000000 cycles: 23391029 heartbeat IPC: 2.54723 cumulative IPC: 2.56509 (Simulation time: 0 hr 9 min 57 sec) 
Heartbeat CPU 0 instructions: 40000000 cycles: 26563273 heartbeat IPC: 1.50782 cumulative IPC: 1.50584 (Simulation time: 0 hr 11 min 19 sec) 
Heartbeat CPU 2 instructions: 60000000 cycles: 26601131 heartbeat IPC: 2.25588 cumulative IPC: 2.25554 (Simulation time: 0 hr 11 min 20 sec) 
Heartbeat CPU 1 instructions: 70000002 cycles: 27432060 heartbeat IPC: 2.47462 cumulative IPC: 2.55176 (Simulation time: 0 hr 11 min 42 sec) 
Heartbeat CPU 3 instructions: 60000000 cycles: 27759735 heartbeat IPC: 2.05228 cumulative IPC: 2.1614 (Simulation time: 0 hr 11 min 50 sec) 
Heartbeat CPU 2 instructions: 70000003 cycles: 31033074 heartbeat IPC: 2.25635 cumulative IPC: 2.25566 (Simulation time: 0 hr 13 min 16 sec) 
Heartbeat CPU 1 instructions: 80000000 cycles: 31440685 heartbeat IPC: 2.49462 cumulative IPC: 2.54447 (Simulation time: 0 hr 13 min 27 sec) 
Heartbeat CPU 3 instructions: 70000002 cycles: 32646310 heartbeat IPC: 2.04642 cumulative IPC: 2.14419 (Simulation time: 0 hr 14 min 15 sec) 
Heartbeat CPU 0 instructions: 50000001 cycles: 33193593 heartbeat IPC: 1.50822 cumulative IPC: 1.50631 (Simulation time: 0 hr 14 min 44 sec) 
Heartbeat CPU 2 instructions: 80000000 cycles: 35465916 heartbeat IPC: 2.25589 cumulative IPC: 2.25569 (Simulation time: 0 hr 15 min 57 sec) 
Heartbeat CPU 1 instructions: 90000001 cycles: 35565543 heartbeat IPC: 2.42433 cumulative IPC: 2.53054 (Simulation time: 0 hr 15 min 59 sec) 
Heartbeat CPU 3 instructions: 80000000 cycles: 37532230 heartbeat IPC: 2.0467 cumulative IPC: 2.1315 (Simulation time: 0 hr 16 min 54 sec) 
Heartbeat CPU 1 instructions: 100000000 cycles: 39516384 heartbeat IPC: 2.53111 cumulative IPC: 2.5306 (Simulation time: 0 hr 17 min 46 sec) 
Heartbeat CPU 0 instructions: 60000000 cycles: 39824507 heartbeat IPC: 1.50809 cumulative IPC: 1.50661 (Simulation time: 0 hr 17 min 54 sec) 
Heartbeat CPU 2 instructions: 90000000 cycles: 39898999 heartbeat IPC: 2.25577 cumulative IPC: 2.2557 (Simulation time: 0 hr 17 min 56 sec) 
Heartbeat CPU 3 instructions: 90000003 cycles: 42418579 heartbeat IPC: 2.04652 cumulative IPC: 2.12171 (Simulation time: 0 hr 19 min 0 sec) 
Heartbeat CPU 1 instructions: 110000002 cycles: 43561743 heartbeat IPC: 2.47197 cumulative IPC: 2.52515 (Simulation time: 0 hr 19 min 30 sec) 
Heartbeat CPU 2 instructions: 100000000 cycles: 44330750 heartbeat IPC: 2.25644 cumulative IPC: 2.25577 (Simulation time: 0 hr 19 min 50 sec) 
Heartbeat CPU 0 instructions: 70000003 cycles: 46470814 heartbeat IPC: 1.5046 cumulative IPC: 1.50632 (Simulation time: 0 hr 20 min 49 sec) 
Heartbeat CPU 3 instructions: 100000000 cycles: 47450036 heartbeat IPC: 1.9875 cumulative IPC: 2.10748 (Simulation time: 0 hr 21 min 19 sec) 
Heartbeat CPU 1 instructions: 120000000 cycles: 47686603 heartbeat IPC: 2.42432 cumulative IPC: 2.51643 (Simulation time: 0 hr 21 min 26 sec) 
Heartbeat CPU 2 instructions: 110000003 cycles: 48765216 heartbeat IPC: 2.25506 cumulative IPC: 2.25571 (Simulation time: 0 hr 21 min 56 sec) 
Heartbeat CPU 3 instructions: 110000001 cycles: 51531432 heartbeat IPC: 2.45014 cumulative IPC: 2.13462 (Simulation time: 0 hr 23 min 25 sec) 
Heartbeat CPU 1 instructions: 130000001 cycles: 51891318 heartbeat IPC: 2.37828 cumulative IPC: 2.50524 (Simulation time: 0 hr 23 min 38 sec) 
Heartbeat CPU 0 instructions: 80000000 cycles: 53124969 heartbeat IPC: 1.50282 cumulative IPC: 1.50588 (Simulation time: 0 hr 24 min 20 sec) 
Heartbeat CPU 2 instructions: 120000000 cycles: 53199192 heartbeat IPC: 2.25531 cumulative IPC: 2.25567 (Simulation time: 0 hr 24 min 22 sec) 
Heartbeat CPU 3 instructions: 120000000 cycles: 55201312 heartbeat IPC: 2.72488 cumulative IPC: 2.17386 (Simulation time: 0 hr 25 min 17 sec) 
Heartbeat CPU 1 instructions: 140000000 cycles: 55950975 heartbeat IPC: 2.46326 cumulative IPC: 2.50219 (Simulation time: 0 hr 25 min 36 sec) 
Heartbeat CPU 2 instructions: 130000000 cycles: 57632621 heartbeat IPC: 2.25559 cumulative IPC: 2.25567 (Simulation time: 0 hr 26 min 23 sec) 
Heartbeat CPU 3 instructions: 130000002 cycles: 59093149 heartbeat IPC: 2.56948 cumulative IPC: 2.19992 (Simulation time: 0 hr 27 min 2 sec) 
Heartbeat CPU 0 instructions: 90000003 cycles: 59772092 heartbeat IPC: 1.50441 cumulative IPC: 1.50572 (Simulation time: 0 hr 27 min 20 sec) 
Heartbeat CPU 1 instructions: 150000001 cycles: 59969919 heartbeat IPC: 2.48822 cumulative IPC: 2.50125 (Simulation time: 0 hr 27 min 26 sec) 
Heartbeat CPU 2 instructions: 140000000 cycles: 62066463 heartbeat IPC: 2.25538 cumulative IPC: 2.25565 (Simulation time: 0 hr 28 min 23 sec) 
Heartbeat CPU 3 instructions: 140000000 cycles: 62751883 heartbeat IPC: 2.73319 cumulative IPC: 2.23101 (Simulation time: 0 hr 28 min 42 sec) 
Heartbeat CPU 1 instructions: 160000000 cycles: 64036353 heartbeat IPC: 2.45916 cumulative IPC: 2.49858 (Simulation time: 0 hr 29 min 17 sec) 
Heartbeat CPU 3 instructions: 150000002 cycles: 66400555 heartbeat IPC: 2.74072 cumulative IPC: 2.25902 (Simulation time: 0 hr 30 min 22 sec) 
Heartbeat CPU 0 instructions: 100000000 cycles: 66422741 heartbeat IPC: 1.50361 cumulative IPC: 1.50551 (Simulation time: 0 hr 30 min 23 sec) 
Heartbeat CPU 2 instructions: 150000000 cycles: 66500373 heartbeat IPC: 2.25535 cumulative IPC: 2.25563 (Simulation time: 0 hr 30 min 25 sec) 
Heartbeat CPU 1 instructions: 170000001 cycles: 68079824 heartbeat IPC: 2.47312 cumulative IPC: 2.49707 (Simulation time: 0 hr 31 min 7 sec) 
Heartbeat CPU 2 instructions: 160000000 cycles: 70932954 heartbeat IPC: 2.25602 cumulative IPC: 2.25565 (Simulation time: 0 hr 32 min 22 sec) 
Heartbeat CPU 3 instructions: 160000000 cycles: 71039999 heartbeat IPC: 2.15543 cumulative IPC: 2.25225 (Simulation time: 0 hr 32 min 25 sec) 
Heartbeat CPU 1 instructions: 180000000 cycles: 72079644 heartbeat IPC: 2.50011 cumulative IPC: 2.49724 (Simulation time: 0 hr 32 min 51 sec) 
Heartbeat CPU 0 instructions: 110000001 cycles: 73058260 heartbeat IPC: 1.50704 cumulative IPC: 1.50565 (Simulation time: 0 hr 33 min 17 sec) 
Heartbeat CPU 2 instructions: 170000001 cycles: 75365580 heartbeat IPC: 2.256 cumulative IPC: 2.25567 (Simulation time: 0 hr 34 min 58 sec) 
Heartbeat CPU 3 instructions: 170000000 cycles: 75914393 heartbeat IPC: 2.05154 cumulative IPC: 2.23936 (Simulation time: 0 hr 35 min 27 sec) 
Heartbeat CPU 1 instructions: 190000000 cycles: 76072334 heartbeat IPC: 2.50458 cumulative IPC: 2.49762 (Simulation time: 0 hr 35 min 35 sec) 
Heartbeat CPU 0 instructions: 120000000 cycles: 79689827 heartbeat IPC: 1.50794 cumulative IPC: 1.50584 (Simulation time: 0 hr 37 min 3 sec) 
Heartbeat CPU 2 instructions: 180000000 cycles: 79797948 heartbeat IPC: 2.25613 cumulative IPC: 2.2557 (Simulation time: 0 hr 37 min 6 sec) 
Heartbeat CPU 1 instructions: 200000000 cycles: 80132199 heartbeat IPC: 2.46314 cumulative IPC: 2.49588 (Simulation time: 0 hr 37 min 13 sec) 
Heartbeat CPU 3 instructions: 180000000 cycles: 80788674 heartbeat IPC: 2.05158 cumulative IPC: 2.22803 (Simulation time: 0 hr 37 min 28 sec) 
Heartbeat CPU 1 instructions: 210000000 cycles: 84126588 heartbeat IPC: 2.50351 cumulative IPC: 0.118868 (Simulation time: 0 hr 38 min 48 sec) 
Heartbeat CPU 2 instructions: 190000000 cycles: 84230487 heartbeat IPC: 2.25604 cumulative IPC: 2.25572 (Simulation time: 0 hr 38 min 51 sec) 
Heartbeat CPU 3 instructions: 190000001 cycles: 85670258 heartbeat IPC: 2.04852 cumulative IPC: 2.21781 (Simulation time: 0 hr 39 min 26 sec) 
Heartbeat CPU 0 instructions: 130000001 cycles: 86321120 heartbeat IPC: 1.508 cumulative IPC: 1.506 (Simulation time: 0 hr 39 min 41 sec) 
Heartbeat CPU 1 instructions: 220000000 cycles: 88011191 heartbeat IPC: 2.57427 cumulative IPC: 0.227244 (Simulation time: 0 hr 40 min 22 sec) 
Heartbeat CPU 2 instructions: 200000000 cycles: 88663198 heartbeat IPC: 2.25596 cumulative IPC: 2.25573 (Simulation time: 0 hr 40 min 38 sec) 
Heartbeat CPU 3 instructions: 200000000 cycles: 90563163 heartbeat IPC: 2.04378 cumulative IPC: 2.2084 (Simulation time: 0 hr 41 min 23 sec) 
Heartbeat CPU 1 instructions: 230000002 cycles: 91844839 heartbeat IPC: 2.60848 cumulative IPC: 0.326638 (Simulation time: 0 hr 41 min 54 sec) 
Heartbeat CPU 0 instructions: 140000000 cycles: 92954933 heartbeat IPC: 1.50743 cumulative IPC: 1.50611 (Simulation time: 0 hr 42 min 21 sec) 
Heartbeat CPU 2 instructions: 210000001 cycles: 93096223 heartbeat IPC: 2.2558 cumulative IPC: 0.107416 (Simulation time: 0 hr 42 min 24 sec) 
Heartbeat CPU 3 instructions: 210000002 cycles: 95455315 heartbeat IPC: 2.04409 cumulative IPC: 0.104761 (Simulation time: 0 hr 43 min 20 sec) 
Heartbeat CPU 1 instructions: 240000000 cycles: 95775748 heartbeat IPC: 2.54394 cumulative IPC: 0.417642 (Simulation time: 0 hr 43 min 27 sec) 
Heartbeat CPU 2 instructions: 220000000 cycles: 97528711 heartbeat IPC: 2.25607 cumulative IPC: 0.205068 (Simulation time: 0 hr 44 min 12 sec) 
Heartbeat CPU 0 instructions: 150000003 cycles: 99586718 heartbeat IPC: 1.50789 cumulative IPC: 1.50622 (Simulation time: 0 hr 45 min 4 sec) 
Heartbeat CPU 1 instructions: 250000003 cycles: 99817287 heartbeat IPC: 2.47431 cumulative IPC: 0.500915 (Simulation time: 0 hr 45 min 9 sec) 
Heartbeat CPU 3 instructions: 220000000 cycles: 100348087 heartbeat IPC: 2.04383 cumulative IPC: 0.199306 (Simulation time: 0 hr 45 min 23 sec) 
Heartbeat CPU 2 instructions: 230000003 cycles: 101962199 heartbeat IPC: 2.25556 cumulative IPC: 0.294227 (Simulation time: 0 hr 46 min 1 sec) 
Heartbeat CPU 1 instructions: 260000000 cycles: 103780812 heartbeat IPC: 2.52301 cumulative IPC: 0.578142 (Simulation time: 0 hr 46 min 45 sec) 
Heartbeat CPU 3 instructions: 230000003 cycles: 105706551 heartbeat IPC: 1.86621 cumulative IPC: 0.283805 (Simulation time: 0 hr 47 min 36 sec) 
Heartbeat CPU 0 instructions: 160000000 cycles: 106228632 heartbeat IPC: 1.50559 cumulative IPC: 1.50619 (Simulation time: 0 hr 47 min 50 sec) 
Heartbeat CPU 2 instructions: 240000000 cycles: 106395158 heartbeat IPC: 2.25583 cumulative IPC: 0.375957 (Simulation time: 0 hr 47 min 54 sec) 
Heartbeat CPU 1 instructions: 270000000 cycles: 107655754 heartbeat IPC: 2.58068 cumulative IPC: 0.650221 (Simulation time: 0 hr 48 min 27 sec) 
Heartbeat CPU 3 instructions: 240000000 cycles: 109452790 heartbeat IPC: 2.66934 cumulative IPC: 0.365454 (Simulation time: 0 hr 49 min 15 sec) 
Heartbeat CPU 2 instructions: 250000002 cycles: 110828965 heartbeat IPC: 2.2554 cumulative IPC: 0.451146 (Simulation time: 0 hr 49 min 51 sec) 
Heartbeat CPU 1 instructions: 280000000 cycles: 111604473 heartbeat IPC: 2.53247 cumulative IPC: 0.716817 (Simulation time: 0 hr 50 min 12 sec) 
Heartbeat CPU 0 instructions: 170000000 cycles: 112881133 heartbeat IPC: 1.50319 cumulative IPC: 1.50601 (Simulation time: 0 hr 50 min 44 sec) 
Heartbeat CPU 3 instructions: 250000000 cycles: 114203208 heartbeat IPC: 2.10508 cumulative IPC: 0.437816 (Simulation time: 0 hr 51 min 16 sec) 
Heartbeat CPU 2 instructions: 260000000 cycles: 115262913 heartbeat IPC: 2.25533 cumulative IPC: 0.520549 (Simulation time: 0 hr 51 min 41 sec) 
Heartbeat CPU 1 instructions: 290000001 cycles: 115525952 heartbeat IPC: 2.55006 cumulative IPC: 0.779046 (Simulation time: 0 hr 51 min 47 sec) 
Heartbeat CPU 3 instructions: 260000000 cycles: 118322358 heartbeat IPC: 2.42769 cumulative IPC: 0.507089 (Simulation time: 0 hr 52 min 57 sec) 
Heartbeat CPU 1 instructions: 300000000 cycles: 119389151 heartbeat IPC: 2.58853 cumulative IPC: 0.837597 (Simulation time: 0 hr 53 min 24 sec) 
Heartbeat CPU 0 instructions: 180000000 cycles: 119532332 heartbeat IPC: 1.50349 cumulative IPC: 1.50587 (Simulation time: 0 hr 53 min 28 sec) 
Heartbeat CPU 2 instructions: 270000003 cycles: 119696295 heartbeat IPC: 2.25561 cumulative IPC: 0.584813 (Simulation time: 0 hr 53 min 32 sec) 
Heartbeat CPU 3 instructions: 270000000 cycles: 121957283 heartbeat IPC: 2.75109 cumulative IPC: 0.573971 (Simulation time: 0 hr 54 min 28 sec) 
Heartbeat CPU 1 instructions: 310000003 cycles: 123413597 heartbeat IPC: 2.48481 cumulative IPC: 0.891312 (Simulation time: 0 hr 55 min 4 sec) 
Heartbeat CPU 2 instructions: 280000000 cycles: 124129954 heartbeat IPC: 2.25547 cumulative IPC: 0.644486 (Simulation time: 0 hr 55 min 22 sec) 
Heartbeat CPU 3 instructions: 280000000 cycles: 126087867 heartbeat IPC: 2.42097 cumulative IPC: 0.634478 (Simulation time: 0 hr 56 min 9 sec) 
Heartbeat CPU 0 instructions: 190000001 cycles: 126179341 heartbeat IPC: 1.50444 cumulative IPC: 1.50579 (Simulation time: 0 hr 56 min 11 sec) 
Heartbeat CPU 1 instructions: 320000000 cycles: 127363794 heartbeat IPC: 2.53152 cumulative IPC: 0.942183 (Simulation time: 0 hr 56 min 38 sec) 
Heartbeat CPU 2 instructions: 290000002 cycles: 128563028 heartbeat IPC: 2.25577 cumulative IPC: 0.700046 (Simulation time: 0 hr 57 min 7 sec) 
Heartbeat CPU 3 instructions: 290000001 cycles: 130963523 heartbeat IPC: 2.05101 cumulative IPC: 0.687214 (Simulation time: 0 hr 58 min 3 sec) 
Heartbeat CPU 1 instructions: 330000001 cycles: 131306551 heartbeat IPC: 2.5363 cumulative IPC: 0.99005 (Simulation time: 0 hr 58 min 12 sec) 
Heartbeat CPU 0 instructions: 200000000 cycles: 132810566 heartbeat IPC: 1.50802 cumulative IPC: 1.5059 (Simulation time: 0 hr 58 min 46 sec) 

Warmup complete CPU 0 instructions: 200000003 cycles: 132810577 (Simulation time: 0 hr 58 min 46 sec) 
Warmup complete CPU 1 instructions: 333778019 cycles: 132810576 (Simulation time: 0 hr 58 min 46 sec) 
Warmup complete CPU 2 instructions: 299002886 cycles: 132810576 (Simulation time: 0 hr 58 min 46 sec) 
Warmup complete CPU 3 instructions: 293787479 cycles: 132810576 (Simulation time: 0 hr 58 min 46 sec) 

Heartbeat CPU 2 instructions: 300000000 cycles: 134480355 heartbeat IPC: 1.68995 cumulative IPC: 0.597153 (Simulation time: 0 hr 59 min 9 sec) 
Heartbeat CPU 1 instructions: 340000000 cycles: 140727570 heartbeat IPC: 1.06146 cumulative IPC: 0.785902 (Simulation time: 1 hr 0 min 24 sec) 
Heartbeat CPU 3 instructions: 300000000 cycles: 140968859 heartbeat IPC: 0.999467 cumulative IPC: 0.761499 (Simulation time: 1 hr 0 min 27 sec) 
Heartbeat CPU 0 instructions: 210000001 cycles: 142369110 heartbeat IPC: 1.04618 cumulative IPC: 1.04619 (Simulation time: 1 hr 0 min 43 sec) 
Heartbeat CPU 2 instructions: 310000002 cycles: 151271360 heartbeat IPC: 0.595557 cumulative IPC: 0.595701 (Simulation time: 1 hr 2 min 29 sec) 
Heartbeat CPU 0 instructions: 220000000 cycles: 151886858 heartbeat IPC: 1.05067 cumulative IPC: 1.04842 (Simulation time: 1 hr 2 min 37 sec) 
Heartbeat CPU 3 instructions: 310000003 cycles: 154040799 heartbeat IPC: 0.764998 cumulative IPC: 0.763653 (Simulation time: 1 hr 3 min 6 sec) 
Heartbeat CPU 1 instructions: 350000003 cycles: 155177825 heartbeat IPC: 0.69203 cumulative IPC: 0.725256 (Simulation time: 1 hr 3 min 20 sec) 
Heartbeat CPU 0 instructions: 230000002 cycles: 161419592 heartbeat IPC: 1.04902 cumulative IPC: 1.04862 (Simulation time: 1 hr 4 min 40 sec) 
Heartbeat CPU 3 instructions: 320000000 cycles: 167072470 heartbeat IPC: 0.767361 cumulative IPC: 0.765063 (Simulation time: 1 hr 5 min 52 sec) 
Heartbeat CPU 2 instructions: 320000000 cycles: 167934557 heartbeat IPC: 0.600125 cumulative IPC: 0.5978 (Simulation time: 1 hr 6 min 2 sec) 
Heartbeat CPU 1 instructions: 360000000 cycles: 170239023 heartbeat IPC: 0.663958 cumulative IPC: 0.70059 (Simulation time: 1 hr 6 min 30 sec) 
Heartbeat CPU 0 instructions: 240000000 cycles: 170956085 heartbeat IPC: 1.0486 cumulative IPC: 1.04862 (Simulation time: 1 hr 6 min 38 sec) 
Heartbeat CPU 3 instructions: 330000003 cycles: 180080012 heartbeat IPC: 0.768785 cumulative IPC: 0.766087 (Simulation time: 1 hr 8 min 33 sec) 
Heartbeat CPU 0 instructions: 250000001 cycles: 180489343 heartbeat IPC: 1.04896 cumulative IPC: 1.04868 (Simulation time: 1 hr 8 min 38 sec) 
Heartbeat CPU 1 instructions: 370000003 cycles: 184380261 heartbeat IPC: 0.707152 cumulative IPC: 0.702389 (Simulation time: 1 hr 9 min 29 sec) 
Heartbeat CPU 2 instructions: 330000003 cycles: 184677916 heartbeat IPC: 0.597252 cumulative IPC: 0.597623 (Simulation time: 1 hr 9 min 33 sec) 
Heartbeat CPU 0 instructions: 260000000 cycles: 190032055 heartbeat IPC: 1.04792 cumulative IPC: 1.04856 (Simulation time: 1 hr 10 min 38 sec) 
Heartbeat CPU 3 instructions: 340000000 cycles: 193164425 heartbeat IPC: 0.764268 cumulative IPC: 0.765693 (Simulation time: 1 hr 11 min 19 sec) 
Heartbeat CPU 0 instructions: 270000001 cycles: 199550650 heartbeat IPC: 1.05058 cumulative IPC: 1.04885 (Simulation time: 1 hr 12 min 36 sec) 
Heartbeat CPU 1 instructions: 380000000 cycles: 200348018 heartbeat IPC: 0.626262 cumulative IPC: 0.68439 (Simulation time: 1 hr 12 min 48 sec) 
Heartbeat CPU 2 instructions: 340000000 cycles: 201623749 heartbeat IPC: 0.590115 cumulative IPC: 0.595774 (Simulation time: 1 hr 13 min 5 sec) 
Heartbeat CPU 3 instructions: 350000000 cycles: 208353281 heartbeat IPC: 0.658377 cumulative IPC: 0.744116 (Simulation time: 1 hr 14 min 21 sec) 
Heartbeat CPU 0 instructions: 280000000 cycles: 209038008 heartbeat IPC: 1.05403 cumulative IPC: 1.04949 (Simulation time: 1 hr 14 min 30 sec) 
Heartbeat CPU 1 instructions: 390000003 cycles: 217552700 heartbeat IPC: 0.581237 cumulative IPC: 0.663448 (Simulation time: 1 hr 16 min 6 sec) 
Heartbeat CPU 0 instructions: 290000001 cycles: 218573453 heartbeat IPC: 1.04872 cumulative IPC: 1.04941 (Simulation time: 1 hr 16 min 19 sec) 
Heartbeat CPU 2 instructions: 350000003 cycles: 218717677 heartbeat IPC: 0.585003 cumulative IPC: 0.593631 (Simulation time: 1 hr 16 min 21 sec) 
Heartbeat CPU 3 instructions: 360000000 cycles: 226925460 heartbeat IPC: 0.53844 cumulative IPC: 0.703529 (Simulation time: 1 hr 17 min 54 sec) 
Heartbeat CPU 0 instructions: 300000000 cycles: 228098157 heartbeat IPC: 1.0499 cumulative IPC: 1.04945 (Simulation time: 1 hr 18 min 8 sec) 
Heartbeat CPU 1 instructions: 400000000 cycles: 232247597 heartbeat IPC: 0.680508 cumulative IPC: 0.665969 (Simulation time: 1 hr 18 min 57 sec) 
Heartbeat CPU 2 instructions: 360000000 cycles: 235676268 heartbeat IPC: 0.589671 cumulative IPC: 0.592978 (Simulation time: 1 hr 19 min 35 sec) 
Heartbeat CPU 0 instructions: 310000000 cycles: 237638316 heartbeat IPC: 1.0482 cumulative IPC: 1.04934 (Simulation time: 1 hr 19 min 58 sec) 
Heartbeat CPU 3 instructions: 370000001 cycles: 245455028 heartbeat IPC: 0.539678 cumulative IPC: 0.676576 (Simulation time: 1 hr 21 min 40 sec) 
Heartbeat CPU 0 instructions: 320000000 cycles: 247172805 heartbeat IPC: 1.04882 cumulative IPC: 1.0493 (Simulation time: 1 hr 22 min 3 sec) 
Heartbeat CPU 1 instructions: 410000002 cycles: 247615802 heartbeat IPC: 0.650694 cumulative IPC: 0.663924 (Simulation time: 1 hr 22 min 11 sec) 
Heartbeat CPU 2 instructions: 370000000 cycles: 252668999 heartbeat IPC: 0.588487 cumulative IPC: 0.592341 (Simulation time: 1 hr 23 min 20 sec) 
Heartbeat CPU 0 instructions: 330000000 cycles: 256677379 heartbeat IPC: 1.05212 cumulative IPC: 1.04951 (Simulation time: 1 hr 24 min 15 sec) 
Heartbeat CPU 3 instructions: 380000000 cycles: 259287481 heartbeat IPC: 0.722938 cumulative IPC: 0.681646 (Simulation time: 1 hr 24 min 49 sec) 
Heartbeat CPU 1 instructions: 420000000 cycles: 265366337 heartbeat IPC: 0.563363 cumulative IPC: 0.650458 (Simulation time: 1 hr 26 min 4 sec) 
Heartbeat CPU 0 instructions: 340000000 cycles: 266211106 heartbeat IPC: 1.04891 cumulative IPC: 1.04947 (Simulation time: 1 hr 26 min 16 sec) 
Heartbeat CPU 2 instructions: 380000000 cycles: 269583147 heartbeat IPC: 0.591221 cumulative IPC: 0.592203 (Simulation time: 1 hr 27 min 10 sec) 
Heartbeat CPU 3 instructions: 390000000 cycles: 272377950 heartbeat IPC: 0.763915 cumulative IPC: 0.689363 (Simulation time: 1 hr 27 min 44 sec) 
Heartbeat CPU 0 instructions: 350000000 cycles: 276076089 heartbeat IPC: 1.01369 cumulative IPC: 1.04701 (Simulation time: 1 hr 28 min 28 sec) 
Heartbeat CPU 1 instructions: 430000002 cycles: 280256503 heartbeat IPC: 0.671584 cumulative IPC: 0.652592 (Simulation time: 1 hr 29 min 25 sec) 
Heartbeat CPU 3 instructions: 400000000 cycles: 285291273 heartbeat IPC: 0.774394 cumulative IPC: 0.696564 (Simulation time: 1 hr 30 min 26 sec) 
Heartbeat CPU 0 instructions: 360000000 cycles: 286057519 heartbeat IPC: 1.00186 cumulative IPC: 1.04407 (Simulation time: 1 hr 30 min 35 sec) 
Heartbeat CPU 2 instructions: 390000002 cycles: 286809926 heartbeat IPC: 0.580492 cumulative IPC: 0.590893 (Simulation time: 1 hr 30 min 43 sec) 
Heartbeat CPU 0 instructions: 370000002 cycles: 296009434 heartbeat IPC: 1.00483 cumulative IPC: 1.04167 (Simulation time: 1 hr 32 min 31 sec) 
Heartbeat CPU 3 instructions: 410000000 cycles: 299269084 heartbeat IPC: 0.71542 cumulative IPC: 0.698147 (Simulation time: 1 hr 33 min 11 sec) 
Heartbeat CPU 1 instructions: 440000000 cycles: 299453491 heartbeat IPC: 0.520915 cumulative IPC: 0.637423 (Simulation time: 1 hr 33 min 15 sec) 
Heartbeat CPU 2 instructions: 400000000 cycles: 304797883 heartbeat IPC: 0.555927 cumulative IPC: 0.587236 (Simulation time: 1 hr 34 min 28 sec) 
Heartbeat CPU 0 instructions: 380000000 cycles: 305730868 heartbeat IPC: 1.02865 cumulative IPC: 1.04094 (Simulation time: 1 hr 34 min 41 sec) 
Heartbeat CPU 3 instructions: 420000000 cycles: 312774338 heartbeat IPC: 0.740453 cumulative IPC: 0.701322 (Simulation time: 1 hr 36 min 20 sec) 
Heartbeat CPU 1 instructions: 450000002 cycles: 313826804 heartbeat IPC: 0.695734 cumulative IPC: 0.642053 (Simulation time: 1 hr 36 min 36 sec) 
Heartbeat CPU 0 instructions: 390000000 cycles: 315264901 heartbeat IPC: 1.04887 cumulative IPC: 1.04136 (Simulation time: 1 hr 36 min 58 sec) 
Heartbeat CPU 2 instructions: 410000001 cycles: 321847242 heartbeat IPC: 0.586532 cumulative IPC: 0.587172 (Simulation time: 1 hr 38 min 20 sec) 
Heartbeat CPU 0 instructions: 400000000 cycles: 324766805 heartbeat IPC: 1.05242 cumulative IPC: 1.0419 (Simulation time: 1 hr 39 min 5 sec) 
Heartbeat CPU 3 instructions: 430000002 cycles: 325860237 heartbeat IPC: 0.764181 cumulative IPC: 0.705583 (Simulation time: 1 hr 39 min 19 sec) 
Heartbeat CPU 1 instructions: 460000000 cycles: 331388784 heartbeat IPC: 0.569412 cumulative IPC: 0.635629 (Simulation time: 1 hr 40 min 43 sec) 
Heartbeat CPU 0 instructions: 410000001 cycles: 334235515 heartbeat IPC: 1.05611 cumulative IPC: 1.04257 (Simulation time: 1 hr 41 min 20 sec) 
Heartbeat CPU 2 instructions: 420000000 cycles: 338903305 heartbeat IPC: 0.586302 cumulative IPC: 0.5871 (Simulation time: 1 hr 42 min 31 sec) 
Heartbeat CPU 3 instructions: 440000000 cycles: 338935904 heartbeat IPC: 0.764779 cumulative IPC: 0.709338 (Simulation time: 1 hr 42 min 31 sec) 
Heartbeat CPU 0 instructions: 420000000 cycles: 343831085 heartbeat IPC: 1.04215 cumulative IPC: 1.04255 (Simulation time: 1 hr 43 min 33 sec) 
Heartbeat CPU 1 instructions: 470000000 cycles: 347464766 heartbeat IPC: 0.622046 cumulative IPC: 0.634611 (Simulation time: 1 hr 44 min 28 sec) 
Heartbeat CPU 0 instructions: 430000002 cycles: 353676092 heartbeat IPC: 1.01574 cumulative IPC: 1.04136 (Simulation time: 1 hr 45 min 55 sec) 
Heartbeat CPU 3 instructions: 450000000 cycles: 355166121 heartbeat IPC: 0.616135 cumulative IPC: 0.702535 (Simulation time: 1 hr 46 min 13 sec) 
Heartbeat CPU 2 instructions: 430000003 cycles: 359335377 heartbeat IPC: 0.489427 cumulative IPC: 0.57829 (Simulation time: 1 hr 46 min 58 sec) 
Heartbeat CPU 0 instructions: 440000000 cycles: 363302336 heartbeat IPC: 1.03883 cumulative IPC: 1.04125 (Simulation time: 1 hr 47 min 40 sec) 
Heartbeat CPU 1 instructions: 480000000 cycles: 366555730 heartbeat IPC: 0.523808 cumulative IPC: 0.625562 (Simulation time: 1 hr 48 min 11 sec) 
Heartbeat CPU 0 instructions: 450000001 cycles: 372886616 heartbeat IPC: 1.04338 cumulative IPC: 1.04134 (Simulation time: 1 hr 49 min 16 sec) 
Heartbeat CPU 3 instructions: 460000000 cycles: 375750983 heartbeat IPC: 0.485794 cumulative IPC: 0.68417 (Simulation time: 1 hr 49 min 47 sec) 
Heartbeat CPU 1 instructions: 490000000 cycles: 382361659 heartbeat IPC: 0.632674 cumulative IPC: 0.626012 (Simulation time: 1 hr 50 min 58 sec) 
Heartbeat CPU 0 instructions: 460000000 cycles: 382461667 heartbeat IPC: 1.04438 cumulative IPC: 1.04145 (Simulation time: 1 hr 51 min 0 sec) 
Heartbeat CPU 0 instructions: 470000000 cycles: 391996486 heartbeat IPC: 1.04879 cumulative IPC: 1.04172 (Simulation time: 1 hr 52 min 44 sec) 
Heartbeat CPU 3 instructions: 470000002 cycles: 395867751 heartbeat IPC: 0.497098 cumulative IPC: 0.669864 (Simulation time: 1 hr 53 min 28 sec) 
Heartbeat CPU 1 instructions: 500000000 cycles: 400388012 heartbeat IPC: 0.554743 cumulative IPC: 0.621211 (Simulation time: 1 hr 54 min 15 sec) 
Heartbeat CPU 0 instructions: 480000000 cycles: 401587899 heartbeat IPC: 1.0426 cumulative IPC: 1.04175 (Simulation time: 1 hr 54 min 25 sec) 
Heartbeat CPU 2 instructions: 440000000 cycles: 411027871 heartbeat IPC: 0.193452 cumulative IPC: 0.506788 (Simulation time: 1 hr 56 min 7 sec) 
Heartbeat CPU 0 instructions: 490000001 cycles: 411235987 heartbeat IPC: 1.03647 cumulative IPC: 1.04157 (Simulation time: 1 hr 56 min 9 sec) 
Heartbeat CPU 3 instructions: 480000000 cycles: 414990510 heartbeat IPC: 0.522937 cumulative IPC: 0.659907 (Simulation time: 1 hr 56 min 58 sec) 
Heartbeat CPU 1 instructions: 510000000 cycles: 416347566 heartbeat IPC: 0.626584 cumulative IPC: 0.621513 (Simulation time: 1 hr 57 min 13 sec) 
Heartbeat CPU 0 instructions: 500000000 cycles: 420734831 heartbeat IPC: 1.05276 cumulative IPC: 1.04194 (Simulation time: 1 hr 58 min 3 sec) 
Heartbeat CPU 2 instructions: 450000000 cycles: 427669249 heartbeat IPC: 0.600912 cumulative IPC: 0.5121 (Simulation time: 1 hr 59 min 26 sec) 
Heartbeat CPU 0 instructions: 510000001 cycles: 430219352 heartbeat IPC: 1.05435 cumulative IPC: 1.04234 (Simulation time: 1 hr 59 min 55 sec) 
Heartbeat CPU 3 instructions: 490000000 cycles: 433308365 heartbeat IPC: 0.545915 cumulative IPC: 0.652958 (Simulation time: 2 hr 0 min 30 sec) 
Heartbeat CPU 1 instructions: 520000000 cycles: 433383496 heartbeat IPC: 0.586995 cumulative IPC: 0.619557 (Simulation time: 2 hr 0 min 31 sec) 
Heartbeat CPU 0 instructions: 520000000 cycles: 439711153 heartbeat IPC: 1.05354 cumulative IPC: 1.04268 (Simulation time: 2 hr 1 min 46 sec) 
Heartbeat CPU 2 instructions: 460000000 cycles: 444278330 heartbeat IPC: 0.60208 cumulative IPC: 0.516898 (Simulation time: 2 hr 2 min 41 sec) 
Heartbeat CPU 1 instructions: 530000000 cycles: 448600097 heartbeat IPC: 0.657177 cumulative IPC: 0.62137 (Simulation time: 2 hr 3 min 30 sec) 
Heartbeat CPU 0 instructions: 530000001 cycles: 449211333 heartbeat IPC: 1.05261 cumulative IPC: 1.04298 (Simulation time: 2 hr 3 min 37 sec) 
Heartbeat CPU 3 instructions: 500000000 cycles: 451439240 heartbeat IPC: 0.551545 cumulative IPC: 0.647188 (Simulation time: 2 hr 4 min 3 sec) 
Heartbeat CPU 0 instructions: 540000000 cycles: 458513243 heartbeat IPC: 1.07505 cumulative IPC: 1.0439 (Simulation time: 2 hr 5 min 35 sec) 
Heartbeat CPU 2 instructions: 470000002 cycles: 460911216 heartbeat IPC: 0.601219 cumulative IPC: 0.521173 (Simulation time: 2 hr 6 min 4 sec) 
Heartbeat CPU 1 instructions: 540000000 cycles: 464143590 heartbeat IPC: 0.643356 cumulative IPC: 0.622401 (Simulation time: 2 hr 6 min 47 sec) 
Heartbeat CPU 3 instructions: 510000002 cycles: 464692783 heartbeat IPC: 0.754515 cumulative IPC: 0.651474 (Simulation time: 2 hr 6 min 54 sec) 
Heartbeat CPU 0 instructions: 550000002 cycles: 467773851 heartbeat IPC: 1.07984 cumulative IPC: 1.04489 (Simulation time: 2 hr 7 min 32 sec) 
Heartbeat CPU 0 instructions: 560000000 cycles: 477067669 heartbeat IPC: 1.07598 cumulative IPC: 1.04573 (Simulation time: 2 hr 9 min 28 sec) 
Heartbeat CPU 2 instructions: 480000000 cycles: 477437217 heartbeat IPC: 0.605107 cumulative IPC: 0.525198 (Simulation time: 2 hr 9 min 33 sec) 
Heartbeat CPU 3 instructions: 520000000 cycles: 477889246 heartbeat IPC: 0.757779 cumulative IPC: 0.655539 (Simulation time: 2 hr 9 min 39 sec) 
Heartbeat CPU 1 instructions: 550000001 cycles: 482032270 heartbeat IPC: 0.559013 cumulative IPC: 0.619154 (Simulation time: 2 hr 10 min 30 sec) 
Heartbeat CPU 0 instructions: 570000000 cycles: 486356504 heartbeat IPC: 1.07656 cumulative IPC: 1.04654 (Simulation time: 2 hr 11 min 26 sec) 
Heartbeat CPU 3 instructions: 530000001 cycles: 491003323 heartbeat IPC: 0.762539 cumulative IPC: 0.659456 (Simulation time: 2 hr 12 min 22 sec) 
Heartbeat CPU 2 instructions: 490000000 cycles: 493987476 heartbeat IPC: 0.60422 cumulative IPC: 0.528819 (Simulation time: 2 hr 13 min 3 sec) 
Heartbeat CPU 0 instructions: 580000000 cycles: 495838081 heartbeat IPC: 1.05468 cumulative IPC: 1.04675 (Simulation time: 2 hr 13 min 26 sec) 
Heartbeat CPU 1 instructions: 560000000 cycles: 496463363 heartbeat IPC: 0.692948 cumulative IPC: 0.622082 (Simulation time: 2 hr 13 min 34 sec) 
Heartbeat CPU 3 instructions: 540000000 cycles: 504184866 heartbeat IPC: 0.758636 cumulative IPC: 0.662977 (Simulation time: 2 hr 15 min 18 sec) 
Heartbeat CPU 0 instructions: 590000000 cycles: 505399754 heartbeat IPC: 1.04584 cumulative IPC: 1.04673 (Simulation time: 2 hr 15 min 36 sec) 
Heartbeat CPU 1 instructions: 570000000 cycles: 507607706 heartbeat IPC: 0.897316 cumulative IPC: 0.630266 (Simulation time: 2 hr 16 min 3 sec) 
Heartbeat CPU 2 instructions: 500000000 cycles: 510513363 heartbeat IPC: 0.605111 cumulative IPC: 0.532157 (Simulation time: 2 hr 16 min 39 sec) 
Heartbeat CPU 0 instructions: 600000000 cycles: 514689826 heartbeat IPC: 1.07642 cumulative IPC: 1.04745 (Simulation time: 2 hr 17 min 34 sec) 
Heartbeat CPU 3 instructions: 550000003 cycles: 517239979 heartbeat IPC: 0.765984 cumulative IPC: 0.666475 (Simulation time: 2 hr 18 min 6 sec) 
Heartbeat CPU 1 instructions: 580000000 cycles: 522068428 heartbeat IPC: 0.691528 cumulative IPC: 0.632542 (Simulation time: 2 hr 19 min 8 sec) 
Heartbeat CPU 0 instructions: 610000000 cycles: 524217663 heartbeat IPC: 1.04956 cumulative IPC: 1.0475 (Simulation time: 2 hr 19 min 36 sec) 
Heartbeat CPU 2 instructions: 510000001 cycles: 527102857 heartbeat IPC: 0.602791 cumulative IPC: 0.535129 (Simulation time: 2 hr 20 min 13 sec) 
Heartbeat CPU 3 instructions: 560000000 cycles: 530313753 heartbeat IPC: 0.76489 cumulative IPC: 0.669712 (Simulation time: 2 hr 20 min 53 sec) 
Heartbeat CPU 0 instructions: 620000000 cycles: 533591168 heartbeat IPC: 1.06684 cumulative IPC: 1.04795 (Simulation time: 2 hr 21 min 37 sec) 
Heartbeat CPU 1 instructions: 590000003 cycles: 536297352 heartbeat IPC: 0.702794 cumulative IPC: 0.63502 (Simulation time: 2 hr 22 min 10 sec) 
Heartbeat CPU 0 instructions: 630000002 cycles: 542933771 heartbeat IPC: 1.07037 cumulative IPC: 1.04847 (Simulation time: 2 hr 23 min 35 sec) 
Heartbeat CPU 2 instructions: 520000000 cycles: 543607916 heartbeat IPC: 0.605875 cumulative IPC: 0.537971 (Simulation time: 2 hr 23 min 44 sec) 
Heartbeat CPU 3 instructions: 570000003 cycles: 544808073 heartbeat IPC: 0.689926 cumulative IPC: 0.670423 (Simulation time: 2 hr 23 min 59 sec) 
Heartbeat CPU 1 instructions: 600000000 cycles: 551124640 heartbeat IPC: 0.674432 cumulative IPC: 0.636416 (Simulation time: 2 hr 25 min 9 sec) 
Heartbeat CPU 0 instructions: 640000000 cycles: 552874006 heartbeat IPC: 1.00601 cumulative IPC: 1.04746 (Simulation time: 2 hr 25 min 31 sec) 
Heartbeat CPU 2 instructions: 530000003 cycles: 560435886 heartbeat IPC: 0.594249 cumulative IPC: 0.540186 (Simulation time: 2 hr 27 min 2 sec) 
Heartbeat CPU 0 instructions: 650000000 cycles: 562435141 heartbeat IPC: 1.0459 cumulative IPC: 1.04743 (Simulation time: 2 hr 27 min 24 sec) 
Heartbeat CPU 1 instructions: 610000001 cycles: 564320353 heartbeat IPC: 0.757822 cumulative IPC: 0.640129 (Simulation time: 2 hr 27 min 45 sec) 
Heartbeat CPU 3 instructions: 580000000 cycles: 565303624 heartbeat IPC: 0.487911 cumulative IPC: 0.661774 (Simulation time: 2 hr 27 min 57 sec) 
Heartbeat CPU 0 instructions: 660000000 cycles: 571969742 heartbeat IPC: 1.04881 cumulative IPC: 1.04746 (Simulation time: 2 hr 29 min 15 sec) 
Heartbeat CPU 2 instructions: 540000000 cycles: 577125757 heartbeat IPC: 0.599166 cumulative IPC: 0.542401 (Simulation time: 2 hr 30 min 16 sec) 
Heartbeat CPU 1 instructions: 620000000 cycles: 578187692 heartbeat IPC: 0.721119 cumulative IPC: 0.642651 (Simulation time: 2 hr 30 min 28 sec) 
Heartbeat CPU 0 instructions: 670000003 cycles: 581545398 heartbeat IPC: 1.04432 cumulative IPC: 1.04739 (Simulation time: 2 hr 31 min 9 sec) 
Heartbeat CPU 3 instructions: 590000003 cycles: 584355389 heartbeat IPC: 0.524886 cumulative IPC: 0.655998 (Simulation time: 2 hr 31 min 41 sec) 
Heartbeat CPU 0 instructions: 680000000 cycles: 591079827 heartbeat IPC: 1.04883 cumulative IPC: 1.04742 (Simulation time: 2 hr 33 min 3 sec) 
Heartbeat CPU 1 instructions: 630000003 cycles: 591150384 heartbeat IPC: 0.771445 cumulative IPC: 0.646293 (Simulation time: 2 hr 33 min 4 sec) 
Heartbeat CPU 2 instructions: 550000001 cycles: 593578901 heartbeat IPC: 0.607787 cumulative IPC: 0.544736 (Simulation time: 2 hr 33 min 36 sec) 
Heartbeat CPU 0 instructions: 690000003 cycles: 601117110 heartbeat IPC: 0.996286 cumulative IPC: 1.04632 (Simulation time: 2 hr 35 min 3 sec) 
Heartbeat CPU 3 instructions: 600000000 cycles: 604919489 heartbeat IPC: 0.486284 cumulative IPC: 0.648606 (Simulation time: 2 hr 35 min 50 sec) 
Heartbeat CPU 1 instructions: 640000000 cycles: 605434104 heartbeat IPC: 0.700098 cumulative IPC: 0.647919 (Simulation time: 2 hr 35 min 58 sec) 
Heartbeat CPU 2 instructions: 560000000 cycles: 610513290 heartbeat IPC: 0.590514 cumulative IPC: 0.546359 (Simulation time: 2 hr 37 min 1 sec) 
Heartbeat CPU 0 instructions: 700000000 cycles: 610752897 heartbeat IPC: 1.0378 cumulative IPC: 1.04615 (Simulation time: 2 hr 37 min 5 sec) 
Heartbeat CPU 3 instructions: 610000000 cycles: 618097484 heartbeat IPC: 0.758841 cumulative IPC: 0.651599 (Simulation time: 2 hr 38 min 40 sec) 
Heartbeat CPU 1 instructions: 650000001 cycles: 619831803 heartbeat IPC: 0.694556 cumulative IPC: 0.649298 (Simulation time: 2 hr 39 min 1 sec) 
Heartbeat CPU 0 instructions: 710000001 cycles: 620317048 heartbeat IPC: 1.04557 cumulative IPC: 1.04614 (Simulation time: 2 hr 39 min 7 sec) 
Heartbeat CPU 2 instructions: 570000003 cycles: 627064073 heartbeat IPC: 0.604201 cumulative IPC: 0.548296 (Simulation time: 2 hr 40 min 34 sec) 
Heartbeat CPU 0 instructions: 720000000 cycles: 629895554 heartbeat IPC: 1.044 cumulative IPC: 1.0461 (Simulation time: 2 hr 41 min 10 sec) 
Heartbeat CPU 3 instructions: 620000000 cycles: 631174909 heartbeat IPC: 0.764677 cumulative IPC: 0.654566 (Simulation time: 2 hr 41 min 24 sec) 
Heartbeat CPU 1 instructions: 660000000 cycles: 632831256 heartbeat IPC: 0.769263 cumulative IPC: 0.652417 (Simulation time: 2 hr 41 min 46 sec) 
Heartbeat CPU 0 instructions: 730000001 cycles: 639453701 heartbeat IPC: 1.04623 cumulative IPC: 1.0461 (Simulation time: 2 hr 43 min 9 sec) 
Heartbeat CPU 2 instructions: 580000000 cycles: 643671654 heartbeat IPC: 0.602134 cumulative IPC: 0.550046 (Simulation time: 2 hr 43 min 59 sec) 
Heartbeat CPU 3 instructions: 630000002 cycles: 644244353 heartbeat IPC: 0.765144 cumulative IPC: 0.657392 (Simulation time: 2 hr 44 min 7 sec) 
Heartbeat CPU 1 instructions: 670000002 cycles: 644950041 heartbeat IPC: 0.825165 cumulative IPC: 0.656505 (Simulation time: 2 hr 44 min 16 sec) 
Heartbeat CPU 0 instructions: 740000000 cycles: 648682997 heartbeat IPC: 1.08351 cumulative IPC: 1.04677 (Simulation time: 2 hr 44 min 56 sec) 
Heartbeat CPU 3 instructions: 640000000 cycles: 657098586 heartbeat IPC: 0.777954 cumulative IPC: 0.660348 (Simulation time: 2 hr 46 min 38 sec) 
Heartbeat CPU 0 instructions: 750000003 cycles: 657661768 heartbeat IPC: 1.11374 cumulative IPC: 1.04792 (Simulation time: 2 hr 46 min 44 sec) 
Heartbeat CPU 2 instructions: 590000001 cycles: 658457451 heartbeat IPC: 0.676325 cumulative IPC: 0.553598 (Simulation time: 2 hr 46 min 53 sec) 
Heartbeat CPU 1 instructions: 680000000 cycles: 659081731 heartbeat IPC: 0.707629 cumulative IPC: 0.657878 (Simulation time: 2 hr 47 min 0 sec) 
Heartbeat CPU 0 instructions: 760000000 cycles: 667146058 heartbeat IPC: 1.05437 cumulative IPC: 1.04803 (Simulation time: 2 hr 48 min 36 sec) 
Heartbeat CPU 3 instructions: 650000000 cycles: 670771288 heartbeat IPC: 0.731384 cumulative IPC: 0.662153 (Simulation time: 2 hr 49 min 18 sec) 
Heartbeat CPU 2 instructions: 600000000 cycles: 672448467 heartbeat IPC: 0.714744 cumulative IPC: 0.557776 (Simulation time: 2 hr 49 min 36 sec) 
Heartbeat CPU 1 instructions: 690000002 cycles: 673750057 heartbeat IPC: 0.681741 cumulative IPC: 0.658525 (Simulation time: 2 hr 49 min 52 sec) 
Heartbeat CPU 0 instructions: 770000003 cycles: 677196785 heartbeat IPC: 0.994953 cumulative IPC: 1.04705 (Simulation time: 2 hr 50 min 33 sec) 
Heartbeat CPU 3 instructions: 660000000 cycles: 685256638 heartbeat IPC: 0.690353 cumulative IPC: 0.662893 (Simulation time: 2 hr 52 min 6 sec) 
Heartbeat CPU 2 instructions: 610000001 cycles: 686480308 heartbeat IPC: 0.712665 cumulative IPC: 0.561701 (Simulation time: 2 hr 52 min 19 sec) 
Heartbeat CPU 0 instructions: 780000000 cycles: 687299466 heartbeat IPC: 0.989836 cumulative IPC: 1.04601 (Simulation time: 2 hr 52 min 28 sec) 
Heartbeat CPU 1 instructions: 700000000 cycles: 689929626 heartbeat IPC: 0.618063 cumulative IPC: 0.65735 (Simulation time: 2 hr 52 min 57 sec) 
Heartbeat CPU 0 instructions: 790000000 cycles: 696733055 heartbeat IPC: 1.06004 cumulative IPC: 1.04624 (Simulation time: 2 hr 54 min 15 sec) 
Heartbeat CPU 3 instructions: 670000000 cycles: 699621299 heartbeat IPC: 0.696153 cumulative IPC: 0.663736 (Simulation time: 2 hr 54 min 52 sec) 
Heartbeat CPU 2 instructions: 620000000 cycles: 700491940 heartbeat IPC: 0.713693 cumulative IPC: 0.565453 (Simulation time: 2 hr 55 min 1 sec) 
Heartbeat CPU 0 instructions: 800000000 cycles: 705456001 heartbeat IPC: 1.1464 cumulative IPC: 1.04777 (Simulation time: 2 hr 55 min 56 sec) 
Heartbeat CPU 1 instructions: 710000000 cycles: 705714788 heartbeat IPC: 0.633506 cumulative IPC: 0.656693 (Simulation time: 2 hr 55 min 58 sec) 
Heartbeat CPU 2 instructions: 630000001 cycles: 714509892 heartbeat IPC: 0.713371 cumulative IPC: 0.569018 (Simulation time: 2 hr 57 min 33 sec) 
Heartbeat CPU 0 instructions: 810000000 cycles: 717150154 heartbeat IPC: 0.855128 cumulative IPC: 1.04391 (Simulation time: 2 hr 58 min 1 sec) 
Heartbeat CPU 3 instructions: 680000000 cycles: 719546222 heartbeat IPC: 0.501884 cumulative IPC: 0.658239 (Simulation time: 2 hr 58 min 29 sec) 
Heartbeat CPU 1 instructions: 720000000 cycles: 720232734 heartbeat IPC: 0.688803 cumulative IPC: 0.657486 (Simulation time: 2 hr 58 min 36 sec) 
Heartbeat CPU 0 instructions: 820000000 cycles: 727168871 heartbeat IPC: 0.998132 cumulative IPC: 1.04314 (Simulation time: 2 hr 59 min 50 sec) 
Heartbeat CPU 2 instructions: 640000000 cycles: 728452126 heartbeat IPC: 0.717245 cumulative IPC: 0.572487 (Simulation time: 3 hr 0 min 3 sec) 
Heartbeat CPU 1 instructions: 730000001 cycles: 735473472 heartbeat IPC: 0.656136 cumulative IPC: 0.657452 (Simulation time: 3 hr 1 min 17 sec) 
Heartbeat CPU 0 instructions: 830000001 cycles: 737469180 heartbeat IPC: 0.970845 cumulative IPC: 1.04191 (Simulation time: 3 hr 1 min 37 sec) 
Heartbeat CPU 3 instructions: 690000002 cycles: 741291144 heartbeat IPC: 0.459878 cumulative IPC: 0.651151 (Simulation time: 3 hr 2 min 15 sec) 
Heartbeat CPU 2 instructions: 650000000 cycles: 742454637 heartbeat IPC: 0.714158 cumulative IPC: 0.575741 (Simulation time: 3 hr 2 min 27 sec) 
Heartbeat CPU 0 instructions: 840000000 cycles: 747355944 heartbeat IPC: 1.01145 cumulative IPC: 1.04142 (Simulation time: 3 hr 3 min 25 sec) 
Heartbeat CPU 1 instructions: 740000000 cycles: 752271926 heartbeat IPC: 0.595293 cumulative IPC: 0.655766 (Simulation time: 3 hr 4 min 21 sec) 
Heartbeat CPU 2 instructions: 660000000 cycles: 756433283 heartbeat IPC: 0.715377 cumulative IPC: 0.578871 (Simulation time: 3 hr 5 min 10 sec) 
Heartbeat CPU 0 instructions: 850000002 cycles: 756823803 heartbeat IPC: 1.05621 cumulative IPC: 1.04164 (Simulation time: 3 hr 5 min 14 sec) 
Heartbeat CPU 3 instructions: 700000000 cycles: 760284144 heartbeat IPC: 0.52651 cumulative IPC: 0.647378 (Simulation time: 3 hr 5 min 54 sec) 
Heartbeat CPU 0 instructions: 860000000 cycles: 766447975 heartbeat IPC: 1.03905 cumulative IPC: 1.04161 (Simulation time: 3 hr 7 min 9 sec) 
Heartbeat CPU 1 instructions: 750000000 cycles: 769079775 heartbeat IPC: 0.59496 cumulative IPC: 0.65416 (Simulation time: 3 hr 7 min 38 sec) 
Heartbeat CPU 2 instructions: 670000000 cycles: 770396486 heartbeat IPC: 0.716168 cumulative IPC: 0.581878 (Simulation time: 3 hr 7 min 55 sec) 
Heartbeat CPU 0 instructions: 870000000 cycles: 776103501 heartbeat IPC: 1.03568 cumulative IPC: 1.04152 (Simulation time: 3 hr 9 min 5 sec) 
Heartbeat CPU 3 instructions: 710000003 cycles: 778595576 heartbeat IPC: 0.546107 cumulative IPC: 0.644506 (Simulation time: 3 hr 9 min 38 sec) 
Heartbeat CPU 1 instructions: 760000000 cycles: 784137580 heartbeat IPC: 0.664107 cumulative IPC: 0.65439 (Simulation time: 3 hr 10 min 47 sec) 
Heartbeat CPU 2 instructions: 680000000 cycles: 784405739 heartbeat IPC: 0.713814 cumulative IPC: 0.584714 (Simulation time: 3 hr 10 min 50 sec) 
Heartbeat CPU 0 instructions: 880000000 cycles: 785601281 heartbeat IPC: 1.05288 cumulative IPC: 1.04168 (Simulation time: 3 hr 11 min 7 sec) 
Heartbeat CPU 3 instructions: 720000000 cycles: 791584081 heartbeat IPC: 0.769911 cumulative IPC: 0.646979 (Simulation time: 3 hr 12 min 24 sec) 
Heartbeat CPU 0 instructions: 890000002 cycles: 795059969 heartbeat IPC: 1.05723 cumulative IPC: 1.0419 (Simulation time: 3 hr 13 min 9 sec) 
Heartbeat CPU 1 instructions: 770000003 cycles: 796395794 heartbeat IPC: 0.81578 cumulative IPC: 0.657371 (Simulation time: 3 hr 13 min 28 sec) 
Heartbeat CPU 2 instructions: 690000003 cycles: 798383086 heartbeat IPC: 0.715444 cumulative IPC: 0.58746 (Simulation time: 3 hr 13 min 54 sec) 
Heartbeat CPU 3 instructions: 730000001 cycles: 804550274 heartbeat IPC: 0.771236 cumulative IPC: 0.649377 (Simulation time: 3 hr 15 min 20 sec) 
Heartbeat CPU 0 instructions: 900000000 cycles: 804566732 heartbeat IPC: 1.05188 cumulative IPC: 1.04204 (Simulation time: 3 hr 15 min 21 sec) 
Heartbeat CPU 1 instructions: 780000000 cycles: 808906803 heartbeat IPC: 0.799296 cumulative IPC: 0.659998 (Simulation time: 3 hr 16 min 25 sec) 
Heartbeat CPU 2 instructions: 700000000 cycles: 811023919 heartbeat IPC: 0.791087 cumulative IPC: 0.591255 (Simulation time: 3 hr 16 min 58 sec) 
Heartbeat CPU 0 instructions: 910000001 cycles: 814169279 heartbeat IPC: 1.04139 cumulative IPC: 1.04204 (Simulation time: 3 hr 17 min 42 sec) 
Heartbeat CPU 3 instructions: 740000000 cycles: 817569314 heartbeat IPC: 0.768106 cumulative IPC: 0.651635 (Simulation time: 3 hr 18 min 34 sec) 
Heartbeat CPU 1 instructions: 790000003 cycles: 820067456 heartbeat IPC: 0.896005 cumulative IPC: 0.66383 (Simulation time: 3 hr 19 min 11 sec) 
Heartbeat CPU 0 instructions: 920000000 cycles: 823654602 heartbeat IPC: 1.05426 cumulative IPC: 1.0422 (Simulation time: 3 hr 20 min 1 sec) 
Heartbeat CPU 2 instructions: 710000001 cycles: 824485376 heartbeat IPC: 0.742862 cumulative IPC: 0.594206 (Simulation time: 3 hr 20 min 13 sec) 
Heartbeat CPU 3 instructions: 750000002 cycles: 830407407 heartbeat IPC: 0.778932 cumulative IPC: 0.653977 (Simulation time: 3 hr 21 min 34 sec) 
Heartbeat CPU 1 instructions: 800000000 cycles: 832335519 heartbeat IPC: 0.815124 cumulative IPC: 0.666484 (Simulation time: 3 hr 22 min 1 sec) 
Heartbeat CPU 0 instructions: 930000000 cycles: 833165152 heartbeat IPC: 1.05146 cumulative IPC: 1.04233 (Simulation time: 3 hr 22 min 14 sec) 
Heartbeat CPU 2 instructions: 720000000 cycles: 838461128 heartbeat IPC: 0.715525 cumulative IPC: 0.596609 (Simulation time: 3 hr 23 min 27 sec) 
Heartbeat CPU 0 instructions: 940000000 cycles: 842652105 heartbeat IPC: 1.05408 cumulative IPC: 1.04249 (Simulation time: 3 hr 24 min 23 sec) 
Heartbeat CPU 3 instructions: 760000000 cycles: 843235312 heartbeat IPC: 0.77955 cumulative IPC: 0.656245 (Simulation time: 3 hr 24 min 32 sec) 
Heartbeat CPU 1 instructions: 810000002 cycles: 844977396 heartbeat IPC: 0.791022 cumulative IPC: 0.668694 (Simulation time: 3 hr 24 min 55 sec) 
Heartbeat CPU 0 instructions: 950000001 cycles: 852131348 heartbeat IPC: 1.05494 cumulative IPC: 1.04265 (Simulation time: 3 hr 26 min 31 sec) 
Heartbeat CPU 2 instructions: 730000000 cycles: 852466941 heartbeat IPC: 0.713989 cumulative IPC: 0.598893 (Simulation time: 3 hr 26 min 35 sec) 
Heartbeat CPU 3 instructions: 770000000 cycles: 856113430 heartbeat IPC: 0.776511 cumulative IPC: 0.658386 (Simulation time: 3 hr 27 min 24 sec) 
Heartbeat CPU 1 instructions: 820000000 cycles: 859504867 heartbeat IPC: 0.688351 cumulative IPC: 0.669087 (Simulation time: 3 hr 28 min 5 sec) 
Heartbeat CPU 0 instructions: 960000000 cycles: 861620148 heartbeat IPC: 1.05387 cumulative IPC: 1.0428 (Simulation time: 3 hr 28 min 35 sec) 
Heartbeat CPU 2 instructions: 740000000 cycles: 866449235 heartbeat IPC: 0.71519 cumulative IPC: 0.601109 (Simulation time: 3 hr 29 min 35 sec) 
Heartbeat CPU 0 instructions: 970000003 cycles: 871332800 heartbeat IPC: 1.02959 cumulative IPC: 1.04262 (Simulation time: 3 hr 30 min 40 sec) 
Heartbeat CPU 3 instructions: 780000000 cycles: 871898009 heartbeat IPC: 0.63353 cumulative IPC: 0.657855 (Simulation time: 3 hr 30 min 47 sec) 
Heartbeat CPU 1 instructions: 830000000 cycles: 873684823 heartbeat IPC: 0.705221 cumulative IPC: 0.669779 (Simulation time: 3 hr 31 min 10 sec) 
Heartbeat CPU 2 instructions: 750000003 cycles: 880483297 heartbeat IPC: 0.712552 cumulative IPC: 0.603201 (Simulation time: 3 hr 32 min 35 sec) 
Heartbeat CPU 0 instructions: 980000000 cycles: 881201860 heartbeat IPC: 1.01327 cumulative IPC: 1.04224 (Simulation time: 3 hr 32 min 43 sec) 
Heartbeat CPU 1 instructions: 840000000 cycles: 888644164 heartbeat IPC: 0.668479 cumulative IPC: 0.669753 (Simulation time: 3 hr 34 min 14 sec) 
Heartbeat CPU 0 instructions: 990000001 cycles: 890735617 heartbeat IPC: 1.0489 cumulative IPC: 1.04232 (Simulation time: 3 hr 34 min 43 sec) 
Heartbeat CPU 3 instructions: 790000001 cycles: 892864809 heartbeat IPC: 0.476945 cumulative IPC: 0.652865 (Simulation time: 3 hr 35 min 9 sec) 
Heartbeat CPU 2 instructions: 760000000 cycles: 894431208 heartbeat IPC: 0.716953 cumulative IPC: 0.605284 (Simulation time: 3 hr 35 min 27 sec) 
Heartbeat CPU 0 instructions: 1000000000 cycles: 900177344 heartbeat IPC: 1.05913 cumulative IPC: 1.04253 (Simulation time: 3 hr 36 min 39 sec) 
Heartbeat CPU 1 instructions: 850000003 cycles: 902634873 heartbeat IPC: 0.71476 cumulative IPC: 0.670571 (Simulation time: 3 hr 37 min 8 sec) 
Heartbeat CPU 2 instructions: 770000003 cycles: 908383948 heartbeat IPC: 0.716705 cumulative IPC: 0.607289 (Simulation time: 3 hr 38 min 21 sec) 
Heartbeat CPU 0 instructions: 1010000002 cycles: 909626684 heartbeat IPC: 1.05828 cumulative IPC: 1.04272 (Simulation time: 3 hr 38 min 35 sec) 
Heartbeat CPU 3 instructions: 800000000 cycles: 911331817 heartbeat IPC: 0.541506 cumulative IPC: 0.650223 (Simulation time: 3 hr 38 min 59 sec) 
Heartbeat CPU 1 instructions: 860000000 cycles: 916831111 heartbeat IPC: 0.704412 cumulative IPC: 0.671184 (Simulation time: 3 hr 40 min 5 sec) 
Heartbeat CPU 0 instructions: 1020000000 cycles: 919136164 heartbeat IPC: 1.05158 cumulative IPC: 1.04282 (Simulation time: 3 hr 40 min 36 sec) 
Heartbeat CPU 2 instructions: 780000000 cycles: 922340533 heartbeat IPC: 0.716507 cumulative IPC: 0.60922 (Simulation time: 3 hr 41 min 14 sec) 
Heartbeat CPU 0 instructions: 1030000000 cycles: 928697238 heartbeat IPC: 1.04591 cumulative IPC: 1.04286 (Simulation time: 3 hr 42 min 37 sec) 
Heartbeat CPU 1 instructions: 870000001 cycles: 930753284 heartbeat IPC: 0.718279 cumulative IPC: 0.672006 (Simulation time: 3 hr 43 min 2 sec) 
Heartbeat CPU 3 instructions: 810000000 cycles: 932339388 heartbeat IPC: 0.476019 cumulative IPC: 0.645646 (Simulation time: 3 hr 43 min 22 sec) 
Heartbeat CPU 2 instructions: 790000003 cycles: 936341972 heartbeat IPC: 0.714213 cumulative IPC: 0.611049 (Simulation time: 3 hr 44 min 13 sec) 
Heartbeat CPU 0 instructions: 1040000000 cycles: 938459098 heartbeat IPC: 1.02439 cumulative IPC: 1.04264 (Simulation time: 3 hr 44 min 40 sec) 
Heartbeat CPU 1 instructions: 880000000 cycles: 943923294 heartbeat IPC: 0.759301 cumulative IPC: 0.673423 (Simulation time: 3 hr 45 min 50 sec) 
Heartbeat CPU 0 instructions: 1050000003 cycles: 947890283 heartbeat IPC: 1.06031 cumulative IPC: 1.04284 (Simulation time: 3 hr 46 min 41 sec) 
Heartbeat CPU 2 instructions: 800000000 cycles: 950279058 heartbeat IPC: 0.71751 cumulative IPC: 0.612864 (Simulation time: 3 hr 47 min 10 sec) 
Heartbeat CPU 3 instructions: 820000000 cycles: 951177999 heartbeat IPC: 0.530825 cumulative IPC: 0.643003 (Simulation time: 3 hr 47 min 21 sec) 
Heartbeat CPU 0 instructions: 1060000000 cycles: 957295673 heartbeat IPC: 1.06322 cumulative IPC: 1.04308 (Simulation time: 3 hr 48 min 37 sec) 
Heartbeat CPU 1 instructions: 890000000 cycles: 957678733 heartbeat IPC: 0.726985 cumulative IPC: 0.674316 (Simulation time: 3 hr 48 min 43 sec) 
Heartbeat CPU 2 instructions: 810000003 cycles: 964205800 heartbeat IPC: 0.718043 cumulative IPC: 0.614626 (Simulation time: 3 hr 50 min 5 sec) 
Heartbeat CPU 0 instructions: 1070000000 cycles: 966715639 heartbeat IPC: 1.06157 cumulative IPC: 1.04328 (Simulation time: 3 hr 50 min 38 sec) 
Heartbeat CPU 3 instructions: 830000003 cycles: 969371205 heartbeat IPC: 0.549656 cumulative IPC: 0.640973 (Simulation time: 3 hr 51 min 11 sec) 
Heartbeat CPU 1 instructions: 900000000 cycles: 971374016 heartbeat IPC: 0.730178 cumulative IPC: 0.675229 (Simulation time: 3 hr 51 min 35 sec) 
Heartbeat CPU 0 instructions: 1080000000 cycles: 976153901 heartbeat IPC: 1.05952 cumulative IPC: 1.04347 (Simulation time: 3 hr 52 min 36 sec) 
Heartbeat CPU 2 instructions: 820000000 cycles: 978150054 heartbeat IPC: 0.717141 cumulative IPC: 0.616317 (Simulation time: 3 hr 53 min 0 sec) 
Heartbeat CPU 3 instructions: 840000000 cycles: 985399542 heartbeat IPC: 0.623895 cumulative IPC: 0.640652 (Simulation time: 3 hr 54 min 35 sec) 
Heartbeat CPU 0 instructions: 1090000001 cycles: 985435723 heartbeat IPC: 1.07737 cumulative IPC: 1.04384 (Simulation time: 3 hr 54 min 36 sec) 
Heartbeat CPU 1 instructions: 910000000 cycles: 985595643 heartbeat IPC: 0.703154 cumulative IPC: 0.675694 (Simulation time: 3 hr 54 min 38 sec) 
Heartbeat CPU 2 instructions: 830000000 cycles: 992238072 heartbeat IPC: 0.709823 cumulative IPC: 0.61785 (Simulation time: 3 hr 56 min 7 sec) 
Heartbeat CPU 0 instructions: 1100000000 cycles: 994904806 heartbeat IPC: 1.05607 cumulative IPC: 1.04397 (Simulation time: 3 hr 56 min 44 sec) 
Heartbeat CPU 3 instructions: 850000002 cycles: 998336258 heartbeat IPC: 0.772994 cumulative IPC: 0.64263 (Simulation time: 3 hr 57 min 29 sec) 
Heartbeat CPU 1 instructions: 920000000 cycles: 999589917 heartbeat IPC: 0.714578 cumulative IPC: 0.676322 (Simulation time: 3 hr 57 min 45 sec) 
Heartbeat CPU 0 instructions: 1110000000 cycles: 1004358164 heartbeat IPC: 1.05783 cumulative IPC: 1.04412 (Simulation time: 3 hr 58 min 50 sec) 
Heartbeat CPU 2 instructions: 840000000 cycles: 1006471696 heartbeat IPC: 0.702562 cumulative IPC: 0.61923 (Simulation time: 3 hr 59 min 18 sec) 
Heartbeat CPU 3 instructions: 860000000 cycles: 1011282451 heartbeat IPC: 0.772428 cumulative IPC: 0.644543 (Simulation time: 4 hr 0 min 23 sec) 
Heartbeat CPU 1 instructions: 930000000 cycles: 1012761162 heartbeat IPC: 0.75923 cumulative IPC: 0.677563 (Simulation time: 4 hr 0 min 43 sec) 
Heartbeat CPU 0 instructions: 1120000000 cycles: 1013815691 heartbeat IPC: 1.05736 cumulative IPC: 1.04426 (Simulation time: 4 hr 0 min 59 sec) 
Heartbeat CPU 2 instructions: 850000000 cycles: 1020697229 heartbeat IPC: 0.702961 cumulative IPC: 0.620571 (Simulation time: 4 hr 2 min 31 sec) 
Heartbeat CPU 0 instructions: 1130000003 cycles: 1023287430 heartbeat IPC: 1.05577 cumulative IPC: 1.04438 (Simulation time: 4 hr 3 min 6 sec) 
Heartbeat CPU 3 instructions: 870000000 cycles: 1024243746 heartbeat IPC: 0.771528 cumulative IPC: 0.646389 (Simulation time: 4 hr 3 min 21 sec) 
Heartbeat CPU 1 instructions: 940000000 cycles: 1025238250 heartbeat IPC: 0.801469 cumulative IPC: 0.679295 (Simulation time: 4 hr 3 min 33 sec) 
Heartbeat CPU 0 instructions: 1140000000 cycles: 1032736888 heartbeat IPC: 1.05826 cumulative IPC: 1.04453 (Simulation time: 4 hr 5 min 13 sec) 
Heartbeat CPU 2 instructions: 860000000 cycles: 1034915701 heartbeat IPC: 0.70331 cumulative IPC: 0.621876 (Simulation time: 4 hr 5 min 44 sec) 
Heartbeat CPU 3 instructions: 880000000 cycles: 1037130727 heartbeat IPC: 0.775977 cumulative IPC: 0.648236 (Simulation time: 4 hr 6 min 15 sec) 
Heartbeat CPU 1 instructions: 950000001 cycles: 1038714570 heartbeat IPC: 0.742042 cumulative IPC: 0.680229 (Simulation time: 4 hr 6 min 35 sec) 
Heartbeat CPU 0 instructions: 1150000000 cycles: 1042241556 heartbeat IPC: 1.05211 cumulative IPC: 1.04461 (Simulation time: 4 hr 7 min 24 sec) 
Heartbeat CPU 2 instructions: 870000002 cycles: 1049130760 heartbeat IPC: 0.703479 cumulative IPC: 0.623141 (Simulation time: 4 hr 8 min 56 sec) 
Heartbeat CPU 3 instructions: 890000001 cycles: 1050056141 heartbeat IPC: 0.77367 cumulative IPC: 0.650003 (Simulation time: 4 hr 9 min 8 sec) 
Heartbeat CPU 0 instructions: 1160000000 cycles: 1051694488 heartbeat IPC: 1.05787 cumulative IPC: 1.04475 (Simulation time: 4 hr 9 min 29 sec) 
Heartbeat CPU 1 instructions: 960000000 cycles: 1053725717 heartbeat IPC: 0.666172 cumulative IPC: 0.68 (Simulation time: 4 hr 9 min 54 sec) 
Heartbeat CPU 0 instructions: 1170000003 cycles: 1061165185 heartbeat IPC: 1.05589 cumulative IPC: 1.04486 (Simulation time: 4 hr 11 min 34 sec) 
Heartbeat CPU 3 instructions: 900000000 cycles: 1062943996 heartbeat IPC: 0.775924 cumulative IPC: 0.651748 (Simulation time: 4 hr 12 min 0 sec) 
Heartbeat CPU 2 instructions: 880000000 cycles: 1063407552 heartbeat IPC: 0.700437 cumulative IPC: 0.624327 (Simulation time: 4 hr 12 min 6 sec) 
Heartbeat CPU 1 instructions: 970000000 cycles: 1068200568 heartbeat IPC: 0.690853 cumulative IPC: 0.680168 (Simulation time: 4 hr 13 min 7 sec) 
Heartbeat CPU 0 instructions: 1180000000 cycles: 1070610223 heartbeat IPC: 1.05876 cumulative IPC: 1.045 (Simulation time: 4 hr 13 min 42 sec) 
Heartbeat CPU 2 instructions: 890000000 cycles: 1077568562 heartbeat IPC: 0.706164 cumulative IPC: 0.625554 (Simulation time: 4 hr 15 min 10 sec) 
Heartbeat CPU 3 instructions: 910000002 cycles: 1078430624 heartbeat IPC: 0.645719 cumulative IPC: 0.651649 (Simulation time: 4 hr 15 min 21 sec) 
Heartbeat CPU 0 instructions: 1190000002 cycles: 1080029970 heartbeat IPC: 1.0616 cumulative IPC: 1.04516 (Simulation time: 4 hr 15 min 39 sec) 
Heartbeat CPU 1 instructions: 980000000 cycles: 1083068095 heartbeat IPC: 0.672607 cumulative IPC: 0.680049 (Simulation time: 4 hr 16 min 29 sec) 
Heartbeat CPU 0 instructions: 1200000000 cycles: 1089656756 heartbeat IPC: 1.03877 cumulative IPC: 1.0451 (Simulation time: 4 hr 17 min 56 sec) 
Finished CPU 0 instructions: 1000000002 cycles: 956846193 cumulative IPC: 1.0451 (Simulation time: 4 hr 17 min 56 sec) 
Heartbeat CPU 2 instructions: 900000000 cycles: 1091693785 heartbeat IPC: 0.707953 cumulative IPC: 0.626768 (Simulation time: 4 hr 18 min 23 sec) 
Heartbeat CPU 1 instructions: 990000001 cycles: 1096394214 heartbeat IPC: 0.750406 cumulative IPC: 0.681022 (Simulation time: 4 hr 19 min 25 sec) 
Heartbeat CPU 3 instructions: 920000000 cycles: 1097474448 heartbeat IPC: 0.525105 cumulative IPC: 0.649151 (Simulation time: 4 hr 19 min 40 sec) 
Heartbeat CPU 0 instructions: 1210000003 cycles: 1099182654 heartbeat IPC: 1.04977 cumulative IPC: 1.04515 (Simulation time: 4 hr 19 min 59 sec) 
Heartbeat CPU 2 instructions: 910000002 cycles: 1105890415 heartbeat IPC: 0.704393 cumulative IPC: 0.6279 (Simulation time: 4 hr 21 min 15 sec) 
Heartbeat CPU 0 instructions: 1220000000 cycles: 1108660643 heartbeat IPC: 1.05508 cumulative IPC: 1.04524 (Simulation time: 4 hr 21 min 47 sec) 
Heartbeat CPU 1 instructions: 1000000000 cycles: 1109934797 heartbeat IPC: 0.738521 cumulative IPC: 0.681819 (Simulation time: 4 hr 22 min 2 sec) 
Heartbeat CPU 0 instructions: 1230000001 cycles: 1118373389 heartbeat IPC: 1.02958 cumulative IPC: 1.04509 (Simulation time: 4 hr 23 min 40 sec) 
Heartbeat CPU 3 instructions: 930000001 cycles: 1119141226 heartbeat IPC: 0.461536 cumulative IPC: 0.64503 (Simulation time: 4 hr 23 min 50 sec) 
Heartbeat CPU 2 instructions: 920000000 cycles: 1120044434 heartbeat IPC: 0.706513 cumulative IPC: 0.629027 (Simulation time: 4 hr 24 min 1 sec) 
Heartbeat CPU 1 instructions: 1010000001 cycles: 1124333345 heartbeat IPC: 0.694515 cumulative IPC: 0.682003 (Simulation time: 4 hr 25 min 1 sec) 
Heartbeat CPU 0 instructions: 1240000000 cycles: 1127711731 heartbeat IPC: 1.07085 cumulative IPC: 1.04533 (Simulation time: 4 hr 25 min 46 sec) 
Heartbeat CPU 2 instructions: 930000002 cycles: 1131866856 heartbeat IPC: 0.845851 cumulative IPC: 0.631593 (Simulation time: 4 hr 26 min 45 sec) 
Heartbeat CPU 3 instructions: 940000000 cycles: 1132877581 heartbeat IPC: 0.727995 cumulative IPC: 0.646169 (Simulation time: 4 hr 26 min 59 sec) 
Heartbeat CPU 0 instructions: 1250000001 cycles: 1137167664 heartbeat IPC: 1.05754 cumulative IPC: 1.04544 (Simulation time: 4 hr 27 min 54 sec) 
Heartbeat CPU 1 instructions: 1020000000 cycles: 1139449141 heartbeat IPC: 0.66156 cumulative IPC: 0.681696 (Simulation time: 4 hr 28 min 26 sec) 
Heartbeat CPU 2 instructions: 940000000 cycles: 1145873372 heartbeat IPC: 0.713953 cumulative IPC: 0.632732 (Simulation time: 4 hr 29 min 49 sec) 
Heartbeat CPU 3 instructions: 950000000 cycles: 1145889337 heartbeat IPC: 0.768536 cumulative IPC: 0.647741 (Simulation time: 4 hr 29 min 49 sec) 
Heartbeat CPU 0 instructions: 1260000000 cycles: 1146624159 heartbeat IPC: 1.05747 cumulative IPC: 1.04556 (Simulation time: 4 hr 29 min 59 sec) 
Heartbeat CPU 1 instructions: 1030000003 cycles: 1155642438 heartbeat IPC: 0.61754 cumulative IPC: 0.680681 (Simulation time: 4 hr 32 min 0 sec) 
Heartbeat CPU 0 instructions: 1270000000 cycles: 1156063379 heartbeat IPC: 1.05941 cumulative IPC: 1.04568 (Simulation time: 4 hr 32 min 6 sec) 
Heartbeat CPU 3 instructions: 960000000 cycles: 1158913463 heartbeat IPC: 0.767806 cumulative IPC: 0.649265 (Simulation time: 4 hr 32 min 46 sec) 
Heartbeat CPU 2 instructions: 950000000 cycles: 1160018266 heartbeat IPC: 0.706969 cumulative IPC: 0.633754 (Simulation time: 4 hr 33 min 0 sec) 
Heartbeat CPU 0 instructions: 1280000000 cycles: 1165508657 heartbeat IPC: 1.05873 cumulative IPC: 1.0458 (Simulation time: 4 hr 34 min 14 sec) 
Heartbeat CPU 1 instructions: 1040000000 cycles: 1170738745 heartbeat IPC: 0.662413 cumulative IPC: 0.680415 (Simulation time: 4 hr 35 min 22 sec) 
Heartbeat CPU 3 instructions: 970000001 cycles: 1171872363 heartbeat IPC: 0.771671 cumulative IPC: 0.650791 (Simulation time: 4 hr 35 min 36 sec) 
Heartbeat CPU 2 instructions: 960000000 cycles: 1174203311 heartbeat IPC: 0.704968 cumulative IPC: 0.634724 (Simulation time: 4 hr 36 min 9 sec) 
Heartbeat CPU 0 instructions: 1290000000 cycles: 1174956320 heartbeat IPC: 1.05846 cumulative IPC: 1.04592 (Simulation time: 4 hr 36 min 20 sec) 
Heartbeat CPU 0 instructions: 1300000000 cycles: 1184409920 heartbeat IPC: 1.0578 cumulative IPC: 1.04603 (Simulation time: 4 hr 38 min 23 sec) 
Heartbeat CPU 3 instructions: 980000000 cycles: 1184858475 heartbeat IPC: 0.770053 cumulative IPC: 0.652264 (Simulation time: 4 hr 38 min 28 sec) 
Heartbeat CPU 1 instructions: 1050000000 cycles: 1185951468 heartbeat IPC: 0.657345 cumulative IPC: 0.680082 (Simulation time: 4 hr 38 min 42 sec) 
Heartbeat CPU 2 instructions: 970000003 cycles: 1188445050 heartbeat IPC: 0.702162 cumulative IPC: 0.635634 (Simulation time: 4 hr 39 min 12 sec) 
Heartbeat CPU 0 instructions: 1310000000 cycles: 1193863743 heartbeat IPC: 1.05777 cumulative IPC: 1.04613 (Simulation time: 4 hr 40 min 22 sec) 
Heartbeat CPU 3 instructions: 990000003 cycles: 1197747312 heartbeat IPC: 0.775865 cumulative IPC: 0.65376 (Simulation time: 4 hr 41 min 9 sec) 
Heartbeat CPU 1 instructions: 1060000000 cycles: 1201388569 heartbeat IPC: 0.64779 cumulative IPC: 0.679615 (Simulation time: 4 hr 41 min 58 sec) 
Heartbeat CPU 2 instructions: 980000000 cycles: 1202571334 heartbeat IPC: 0.7079 cumulative IPC: 0.636588 (Simulation time: 4 hr 42 min 12 sec) 
Heartbeat CPU 0 instructions: 1320000000 cycles: 1203302317 heartbeat IPC: 1.05948 cumulative IPC: 1.04625 (Simulation time: 4 hr 42 min 21 sec) 
Heartbeat CPU 3 instructions: 1000000000 cycles: 1210692096 heartbeat IPC: 0.772512 cumulative IPC: 0.655186 (Simulation time: 4 hr 43 min 55 sec) 
Heartbeat CPU 0 instructions: 1330000002 cycles: 1212769359 heartbeat IPC: 1.0563 cumulative IPC: 1.04634 (Simulation time: 4 hr 44 min 20 sec) 
Heartbeat CPU 2 instructions: 990000003 cycles: 1216743689 heartbeat IPC: 0.705599 cumulative IPC: 0.637491 (Simulation time: 4 hr 45 min 9 sec) 
Heartbeat CPU 1 instructions: 1070000000 cycles: 1217390763 heartbeat IPC: 0.624914 cumulative IPC: 0.678808 (Simulation time: 4 hr 45 min 18 sec) 
Heartbeat CPU 0 instructions: 1340000000 cycles: 1222505742 heartbeat IPC: 1.02708 cumulative IPC: 1.04616 (Simulation time: 4 hr 46 min 20 sec) 
Heartbeat CPU 3 instructions: 1010000002 cycles: 1227908060 heartbeat IPC: 0.580856 cumulative IPC: 0.654017 (Simulation time: 4 hr 47 min 31 sec) 
Heartbeat CPU 2 instructions: 1000000000 cycles: 1230868119 heartbeat IPC: 0.707993 cumulative IPC: 0.638397 (Simulation time: 4 hr 48 min 4 sec) 
Heartbeat CPU 0 instructions: 1350000002 cycles: 1232057587 heartbeat IPC: 1.04692 cumulative IPC: 1.04617 (Simulation time: 4 hr 48 min 18 sec) 
Heartbeat CPU 1 instructions: 1080000000 cycles: 1234036600 heartbeat IPC: 0.600751 cumulative IPC: 0.677628 (Simulation time: 4 hr 48 min 40 sec) 
Heartbeat CPU 0 instructions: 1360000000 cycles: 1241433182 heartbeat IPC: 1.0666 cumulative IPC: 1.04634 (Simulation time: 4 hr 50 min 8 sec) 
Heartbeat CPU 2 instructions: 1010000002 cycles: 1244936451 heartbeat IPC: 0.710816 cumulative IPC: 0.639314 (Simulation time: 4 hr 50 min 51 sec) 
Heartbeat CPU 3 instructions: 1020000000 cycles: 1246618863 heartbeat IPC: 0.53445 cumulative IPC: 0.652009 (Simulation time: 4 hr 51 min 11 sec) 
Heartbeat CPU 1 instructions: 1090000002 cycles: 1248390784 heartbeat IPC: 0.696661 cumulative IPC: 0.677873 (Simulation time: 4 hr 51 min 31 sec) 
Heartbeat CPU 0 instructions: 1370000001 cycles: 1250867982 heartbeat IPC: 1.05991 cumulative IPC: 1.04646 (Simulation time: 4 hr 51 min 59 sec) 
Heartbeat CPU 2 instructions: 1020000000 cycles: 1259046469 heartbeat IPC: 0.708716 cumulative IPC: 0.640183 (Simulation time: 4 hr 53 min 39 sec) 
Heartbeat CPU 0 instructions: 1380000000 cycles: 1260290162 heartbeat IPC: 1.06133 cumulative IPC: 1.04658 (Simulation time: 4 hr 53 min 54 sec) 
Heartbeat CPU 1 instructions: 1100000000 cycles: 1263178524 heartbeat IPC: 0.676236 cumulative IPC: 0.677852 (Simulation time: 4 hr 54 min 32 sec) 
Heartbeat CPU 3 instructions: 1030000003 cycles: 1264999677 heartbeat IPC: 0.544046 cumulative IPC: 0.650256 (Simulation time: 4 hr 54 min 54 sec) 
Heartbeat CPU 0 instructions: 1390000001 cycles: 1269710065 heartbeat IPC: 1.06158 cumulative IPC: 1.04671 (Simulation time: 4 hr 55 min 51 sec) 
Heartbeat CPU 2 instructions: 1030000000 cycles: 1273159387 heartbeat IPC: 0.708571 cumulative IPC: 0.641029 (Simulation time: 4 hr 56 min 36 sec) 
Heartbeat CPU 1 instructions: 1110000001 cycles: 1278912907 heartbeat IPC: 0.635551 cumulative IPC: 0.677271 (Simulation time: 4 hr 57 min 48 sec) 
Heartbeat CPU 0 instructions: 1400000000 cycles: 1279169338 heartbeat IPC: 1.05716 cumulative IPC: 1.04679 (Simulation time: 4 hr 57 min 52 sec) 
Heartbeat CPU 3 instructions: 1040000000 cycles: 1279946840 heartbeat IPC: 0.669023 cumulative IPC: 0.6505 (Simulation time: 4 hr 58 min 2 sec) 
Heartbeat CPU 2 instructions: 1040000000 cycles: 1287243106 heartbeat IPC: 0.71004 cumulative IPC: 0.641871 (Simulation time: 4 hr 59 min 35 sec) 
Heartbeat CPU 0 instructions: 1410000002 cycles: 1288646923 heartbeat IPC: 1.05512 cumulative IPC: 1.04686 (Simulation time: 4 hr 59 min 53 sec) 
Heartbeat CPU 3 instructions: 1050000000 cycles: 1292938369 heartbeat IPC: 0.769732 cumulative IPC: 0.651836 (Simulation time: 5 hr 0 min 46 sec) 
Heartbeat CPU 1 instructions: 1120000000 cycles: 1295280432 heartbeat IPC: 0.610966 cumulative IPC: 0.676338 (Simulation time: 5 hr 1 min 9 sec) 
Heartbeat CPU 0 instructions: 1420000000 cycles: 1298358259 heartbeat IPC: 1.02972 cumulative IPC: 1.04672 (Simulation time: 5 hr 1 min 45 sec) 
Heartbeat CPU 3 instructions: 1060000000 cycles: 1306587022 heartbeat IPC: 0.732673 cumulative IPC: 0.652776 (Simulation time: 5 hr 3 min 20 sec) 
Heartbeat CPU 0 instructions: 1430000000 cycles: 1308055269 heartbeat IPC: 1.03125 cumulative IPC: 1.04659 (Simulation time: 5 hr 3 min 38 sec) 
Heartbeat CPU 2 instructions: 1050000001 cycles: 1308108135 heartbeat IPC: 0.479271 cumulative IPC: 0.638985 (Simulation time: 5 hr 3 min 38 sec) 
Heartbeat CPU 1 instructions: 1130000003 cycles: 1311926752 heartbeat IPC: 0.600734 cumulative IPC: 0.67527 (Simulation time: 5 hr 4 min 24 sec) 
Heartbeat CPU 0 instructions: 1440000000 cycles: 1317717159 heartbeat IPC: 1.03499 cumulative IPC: 1.0465 (Simulation time: 5 hr 5 min 30 sec) 
Heartbeat CPU 3 instructions: 1070000000 cycles: 1319992589 heartbeat IPC: 0.745959 cumulative IPC: 0.653828 (Simulation time: 5 hr 5 min 56 sec) 
Heartbeat CPU 0 instructions: 1450000000 cycles: 1327365288 heartbeat IPC: 1.03647 cumulative IPC: 1.04641 (Simulation time: 5 hr 7 min 22 sec) 
Heartbeat CPU 1 instructions: 1140000000 cycles: 1327438724 heartbeat IPC: 0.644663 cumulative IPC: 0.674873 (Simulation time: 5 hr 7 min 22 sec) 
Heartbeat CPU 2 instructions: 1060000000 cycles: 1328797524 heartbeat IPC: 0.483339 cumulative IPC: 0.636292 (Simulation time: 5 hr 7 min 38 sec) 
Heartbeat CPU 3 instructions: 1080000000 cycles: 1333223328 heartbeat IPC: 0.755816 cumulative IPC: 0.654952 (Simulation time: 5 hr 8 min 36 sec) 
Heartbeat CPU 0 instructions: 1460000000 cycles: 1336950235 heartbeat IPC: 1.0433 cumulative IPC: 1.04639 (Simulation time: 5 hr 9 min 21 sec) 
Heartbeat CPU 1 instructions: 1150000001 cycles: 1341596824 heartbeat IPC: 0.70631 cumulative IPC: 0.675241 (Simulation time: 5 hr 10 min 23 sec) 
Heartbeat CPU 2 instructions: 1070000000 cycles: 1343841592 heartbeat IPC: 0.664714 cumulative IPC: 0.636645 (Simulation time: 5 hr 10 min 50 sec) 
Heartbeat CPU 3 instructions: 1090000000 cycles: 1346063026 heartbeat IPC: 0.778835 cumulative IPC: 0.656263 (Simulation time: 5 hr 11 min 17 sec) 
Heartbeat CPU 0 instructions: 1470000003 cycles: 1346515173 heartbeat IPC: 1.04549 cumulative IPC: 1.04638 (Simulation time: 5 hr 11 min 23 sec) 
Heartbeat CPU 0 instructions: 1480000000 cycles: 1356047333 heartbeat IPC: 1.04908 cumulative IPC: 1.0464 (Simulation time: 5 hr 13 min 23 sec) 
Heartbeat CPU 1 instructions: 1160000000 cycles: 1358777959 heartbeat IPC: 0.582034 cumulative IPC: 0.673935 (Simulation time: 5 hr 13 min 56 sec) 
Heartbeat CPU 3 instructions: 1100000000 cycles: 1358812405 heartbeat IPC: 0.784352 cumulative IPC: 0.657595 (Simulation time: 5 hr 13 min 57 sec) 
Heartbeat CPU 2 instructions: 1080000000 cycles: 1358841074 heartbeat IPC: 0.66669 cumulative IPC: 0.637013 (Simulation time: 5 hr 13 min 57 sec) 
Heartbeat CPU 0 instructions: 1490000002 cycles: 1365561125 heartbeat IPC: 1.05111 cumulative IPC: 1.04644 (Simulation time: 5 hr 15 min 21 sec) 
Heartbeat CPU 1 instructions: 1170000003 cycles: 1373724252 heartbeat IPC: 0.669062 cumulative IPC: 0.673876 (Simulation time: 5 hr 16 min 52 sec) 
Heartbeat CPU 2 instructions: 1090000001 cycles: 1374383531 heartbeat IPC: 0.643399 cumulative IPC: 0.637093 (Simulation time: 5 hr 16 min 59 sec) 
Heartbeat CPU 0 instructions: 1500000000 cycles: 1375115437 heartbeat IPC: 1.04665 cumulative IPC: 1.04644 (Simulation time: 5 hr 17 min 7 sec) 
Heartbeat CPU 3 instructions: 1110000001 cycles: 1375589013 heartbeat IPC: 0.596068 cumulative IPC: 0.656764 (Simulation time: 5 hr 17 min 12 sec) 
Heartbeat CPU 0 instructions: 1510000000 cycles: 1384617536 heartbeat IPC: 1.0524 cumulative IPC: 1.04649 (Simulation time: 5 hr 18 min 53 sec) 
Heartbeat CPU 1 instructions: 1180000000 cycles: 1388451688 heartbeat IPC: 0.679005 cumulative IPC: 0.673936 (Simulation time: 5 hr 19 min 34 sec) 
Heartbeat CPU 2 instructions: 1100000000 cycles: 1391347715 heartbeat IPC: 0.589477 cumulative IPC: 0.636451 (Simulation time: 5 hr 20 min 2 sec) 
Heartbeat CPU 0 instructions: 1520000000 cycles: 1394089904 heartbeat IPC: 1.0557 cumulative IPC: 1.04656 (Simulation time: 5 hr 20 min 29 sec) 
Heartbeat CPU 3 instructions: 1120000000 cycles: 1394306559 heartbeat IPC: 0.534258 cumulative IPC: 0.654947 (Simulation time: 5 hr 20 min 31 sec) 
Heartbeat CPU 0 instructions: 1530000000 cycles: 1403447644 heartbeat IPC: 1.06863 cumulative IPC: 1.04672 (Simulation time: 5 hr 22 min 4 sec) 
Heartbeat CPU 1 instructions: 1190000003 cycles: 1404115582 heartbeat IPC: 0.638411 cumulative IPC: 0.673498 (Simulation time: 5 hr 22 min 12 sec) 
Heartbeat CPU 3 instructions: 1130000003 cycles: 1411853535 heartbeat IPC: 0.569899 cumulative IPC: 0.65378 (Simulation time: 5 hr 23 min 33 sec) 
Heartbeat CPU 0 instructions: 1540000000 cycles: 1412836626 heartbeat IPC: 1.06508 cumulative IPC: 1.04685 (Simulation time: 5 hr 23 min 46 sec) 
Heartbeat CPU 1 instructions: 1200000000 cycles: 1418706536 heartbeat IPC: 0.685356 cumulative IPC: 0.673633 (Simulation time: 5 hr 24 min 48 sec) 
Heartbeat CPU 0 instructions: 1550000000 cycles: 1422159136 heartbeat IPC: 1.07267 cumulative IPC: 1.04704 (Simulation time: 5 hr 25 min 28 sec) 
Heartbeat CPU 2 instructions: 1110000002 cycles: 1422549640 heartbeat IPC: 0.320493 cumulative IPC: 0.628807 (Simulation time: 5 hr 25 min 32 sec) 
Heartbeat CPU 3 instructions: 1140000000 cycles: 1424908235 heartbeat IPC: 0.766007 cumulative IPC: 0.654914 (Simulation time: 5 hr 25 min 57 sec) 
Heartbeat CPU 0 instructions: 1560000000 cycles: 1431504113 heartbeat IPC: 1.07009 cumulative IPC: 1.04721 (Simulation time: 5 hr 27 min 10 sec) 
Heartbeat CPU 1 instructions: 1210000000 cycles: 1432567180 heartbeat IPC: 0.721467 cumulative IPC: 0.674143 (Simulation time: 5 hr 27 min 23 sec) 
Heartbeat CPU 3 instructions: 1150000003 cycles: 1437746744 heartbeat IPC: 0.778907 cumulative IPC: 0.656134 (Simulation time: 5 hr 28 min 22 sec) 
Heartbeat CPU 0 instructions: 1570000003 cycles: 1440993697 heartbeat IPC: 1.05379 cumulative IPC: 1.04725 (Simulation time: 5 hr 29 min 3 sec) 
Heartbeat CPU 1 instructions: 1220000000 cycles: 1446042609 heartbeat IPC: 0.742091 cumulative IPC: 0.67484 (Simulation time: 5 hr 30 min 0 sec) 
Heartbeat CPU 0 instructions: 1580000000 cycles: 1450412216 heartbeat IPC: 1.06174 cumulative IPC: 1.04736 (Simulation time: 5 hr 30 min 53 sec) 
Heartbeat CPU 3 instructions: 1160000000 cycles: 1450517120 heartbeat IPC: 0.783062 cumulative IPC: 0.657364 (Simulation time: 5 hr 30 min 54 sec) 
Heartbeat CPU 2 instructions: 1120000000 cycles: 1454632236 heartbeat IPC: 0.311695 cumulative IPC: 0.62111 (Simulation time: 5 hr 31 min 44 sec) 
Heartbeat CPU 1 instructions: 1230000000 cycles: 1458974746 heartbeat IPC: 0.773267 cumulative IPC: 0.6758 (Simulation time: 5 hr 32 min 29 sec) 
Heartbeat CPU 0 instructions: 1590000000 cycles: 1459545141 heartbeat IPC: 1.09494 cumulative IPC: 1.04769 (Simulation time: 5 hr 32 min 35 sec) 
Heartbeat CPU 3 instructions: 1170000002 cycles: 1463155543 heartbeat IPC: 0.791238 cumulative IPC: 0.658636 (Simulation time: 5 hr 33 min 11 sec) 
Heartbeat CPU 0 instructions: 1600000000 cycles: 1468334230 heartbeat IPC: 1.13777 cumulative IPC: 1.04828 (Simulation time: 5 hr 34 min 10 sec) 
Heartbeat CPU 1 instructions: 1240000000 cycles: 1471876241 heartbeat IPC: 0.775104 cumulative IPC: 0.676757 (Simulation time: 5 hr 34 min 52 sec) 
Heartbeat CPU 3 instructions: 1180000000 cycles: 1475857272 heartbeat IPC: 0.787294 cumulative IPC: 0.659852 (Simulation time: 5 hr 35 min 34 sec) 
Heartbeat CPU 2 instructions: 1130000001 cycles: 1476302870 heartbeat IPC: 0.461454 cumulative IPC: 0.618535 (Simulation time: 5 hr 35 min 40 sec) 
Heartbeat CPU 0 instructions: 1610000000 cycles: 1477705242 heartbeat IPC: 1.06712 cumulative IPC: 1.04841 (Simulation time: 5 hr 35 min 57 sec) 
Heartbeat CPU 1 instructions: 1250000003 cycles: 1487276260 heartbeat IPC: 0.64935 cumulative IPC: 0.676445 (Simulation time: 5 hr 37 min 39 sec) 
Heartbeat CPU 0 instructions: 1620000000 cycles: 1487705564 heartbeat IPC: 0.999968 cumulative IPC: 1.04805 (Simulation time: 5 hr 37 min 43 sec) 
Heartbeat CPU 3 instructions: 1190000003 cycles: 1490379280 heartbeat IPC: 0.68861 cumulative IPC: 0.66016 (Simulation time: 5 hr 38 min 15 sec) 
Heartbeat CPU 2 instructions: 1140000000 cycles: 1495816798 heartbeat IPC: 0.512454 cumulative IPC: 0.617016 (Simulation time: 5 hr 39 min 13 sec) 
Heartbeat CPU 0 instructions: 1630000000 cycles: 1497635951 heartbeat IPC: 1.00701 cumulative IPC: 1.04775 (Simulation time: 5 hr 39 min 32 sec) 
Heartbeat CPU 1 instructions: 1260000000 cycles: 1501433034 heartbeat IPC: 0.706375 cumulative IPC: 0.676755 (Simulation time: 5 hr 40 min 12 sec) 
Heartbeat CPU 3 instructions: 1200000000 cycles: 1507525688 heartbeat IPC: 0.583212 cumulative IPC: 0.6592 (Simulation time: 5 hr 41 min 10 sec) 
Heartbeat CPU 0 instructions: 1640000000 cycles: 1507989569 heartbeat IPC: 0.965846 cumulative IPC: 1.04714 (Simulation time: 5 hr 41 min 15 sec) 
Heartbeat CPU 2 instructions: 1150000000 cycles: 1514262992 heartbeat IPC: 0.542117 cumulative IPC: 0.616016 (Simulation time: 5 hr 42 min 20 sec) 
Heartbeat CPU 1 instructions: 1270000000 cycles: 1515066218 heartbeat IPC: 0.733504 cumulative IPC: 0.677315 (Simulation time: 5 hr 42 min 30 sec) 
Heartbeat CPU 0 instructions: 1650000000 cycles: 1516476717 heartbeat IPC: 1.17825 cumulative IPC: 1.04794 (Simulation time: 5 hr 42 min 44 sec) 
Heartbeat CPU 0 instructions: 1660000000 cycles: 1525835908 heartbeat IPC: 1.06847 cumulative IPC: 1.04808 (Simulation time: 5 hr 44 min 26 sec) 
Heartbeat CPU 3 instructions: 1210000002 cycles: 1526360891 heartbeat IPC: 0.530921 cumulative IPC: 0.657466 (Simulation time: 5 hr 44 min 32 sec) 
Heartbeat CPU 1 instructions: 1280000000 cycles: 1527705118 heartbeat IPC: 0.791208 cumulative IPC: 0.678347 (Simulation time: 5 hr 44 min 49 sec) 
Heartbeat CPU 2 instructions: 1160000000 cycles: 1528074847 heartbeat IPC: 0.724016 cumulative IPC: 0.617085 (Simulation time: 5 hr 44 min 53 sec) 
Heartbeat CPU 0 instructions: 1670000001 cycles: 1535797413 heartbeat IPC: 1.00386 cumulative IPC: 1.04776 (Simulation time: 5 hr 46 min 14 sec) 
Heartbeat CPU 1 instructions: 1290000001 cycles: 1542561089 heartbeat IPC: 0.67313 cumulative IPC: 0.678292 (Simulation time: 5 hr 47 min 24 sec) 
Heartbeat CPU 2 instructions: 1170000001 cycles: 1542657701 heartbeat IPC: 0.685737 cumulative IPC: 0.617795 (Simulation time: 5 hr 47 min 25 sec) 
Heartbeat CPU 0 instructions: 1680000000 cycles: 1546094197 heartbeat IPC: 0.971177 cumulative IPC: 1.04721 (Simulation time: 5 hr 48 min 2 sec) 
Heartbeat CPU 3 instructions: 1220000000 cycles: 1546894138 heartbeat IPC: 0.487015 cumulative IPC: 0.654991 (Simulation time: 5 hr 48 min 10 sec) 
Heartbeat CPU 1 instructions: 1300000000 cycles: 1555416585 heartbeat IPC: 0.777877 cumulative IPC: 0.679192 (Simulation time: 5 hr 49 min 44 sec) 
Heartbeat CPU 0 instructions: 1690000003 cycles: 1555939468 heartbeat IPC: 1.01572 cumulative IPC: 1.04699 (Simulation time: 5 hr 49 min 50 sec) 
Heartbeat CPU 2 instructions: 1180000000 cycles: 1562601207 heartbeat IPC: 0.501416 cumulative IPC: 0.616172 (Simulation time: 5 hr 50 min 55 sec) 
Heartbeat CPU 0 instructions: 1700000000 cycles: 1565840016 heartbeat IPC: 1.01004 cumulative IPC: 1.04673 (Simulation time: 5 hr 51 min 27 sec) 
Heartbeat CPU 3 instructions: 1230000000 cycles: 1568502645 heartbeat IPC: 0.462781 cumulative IPC: 0.652098 (Simulation time: 5 hr 51 min 56 sec) 
Heartbeat CPU 1 instructions: 1310000002 cycles: 1570177672 heartbeat IPC: 0.677457 cumulative IPC: 0.679174 (Simulation time: 5 hr 52 min 12 sec) 
[...]
Heartbeat CPU 1 instructions: 1390000000 cycles: 1673535130 heartbeat IPC: 0.786223 cumulative IPC: 0.685536 (Simulation time: 6 hr 11 min 47 sec) 
Heartbeat CPU 0 instructions: 1820000000 cycles: 1678535237 heartbeat IPC: 1.05226 cumulative IPC: 1.04805 (Simulation time: 6 hr 12 min 51 sec) 
Heartbeat CPU 3 instructions: 1310000003 cycles: 1681946953 heartbeat IPC: 0.786302 cumulative IPC: 0.655986 (Simulation time: 6 hr 13 min 34 sec) 
Heartbeat CPU 2 instructions: 1240000000 cycles: 1685243155 heartbeat IPC: 0.821617 cumulative IPC: 0.606144 (Simulation time: 6 hr 14 min 19 sec) 
Heartbeat CPU 1 instructions: 1400000000 cycles: 1686407338 heartbeat IPC: 0.776868 cumulative IPC: 0.686293 (Simulation time: 6 hr 14 min 33 sec) 
Heartbeat CPU 0 instructions: 1830000003 cycles: 1688049012 heartbeat IPC: 1.05111 cumulative IPC: 1.04807 (Simulation time: 6 hr 14 min 55 sec) 
Heartbeat CPU 3 instructions: 1320000000 cycles: 1694591117 heartbeat IPC: 0.790878 cumulative IPC: 0.657079 (Simulation time: 6 hr 16 min 20 sec) 
Heartbeat CPU 0 instructions: 1840000000 cycles: 1697489482 heartbeat IPC: 1.05927 cumulative IPC: 1.04814 (Simulation time: 6 hr 16 min 59 sec) 
Heartbeat CPU 1 instructions: 1410000001 cycles: 1697610546 heartbeat IPC: 0.892602 cumulative IPC: 0.68777 (Simulation time: 6 hr 17 min 0 sec) 
Heartbeat CPU 2 instructions: 1250000002 cycles: 1697884178 heartbeat IPC: 0.791075 cumulative IPC: 0.607637 (Simulation time: 6 hr 17 min 4 sec) 
Heartbeat CPU 0 instructions: 1850000002 cycles: 1707373007 heartbeat IPC: 1.01178 cumulative IPC: 1.04791 (Simulation time: 6 hr 18 min 51 sec) 
Heartbeat CPU 1 instructions: 1420000000 cycles: 1711998147 heartbeat IPC: 0.695043 cumulative IPC: 0.687836 (Simulation time: 6 hr 19 min 38 sec) 
Heartbeat CPU 3 instructions: 1330000000 cycles: 1713607391 heartbeat IPC: 0.525865 cumulative IPC: 0.6555 (Simulation time: 6 hr 19 min 55 sec) 
Heartbeat CPU 2 instructions: 1260000000 cycles: 1716708233 heartbeat IPC: 0.531235 cumulative IPC: 0.606729 (Simulation time: 6 hr 20 min 26 sec) 
Heartbeat CPU 0 instructions: 1860000000 cycles: 1716832974 heartbeat IPC: 1.05709 cumulative IPC: 1.04796 (Simulation time: 6 hr 20 min 27 sec) 
Heartbeat CPU 1 instructions: 1430000003 cycles: 1725053429 heartbeat IPC: 0.765974 cumulative IPC: 0.688477 (Simulation time: 6 hr 21 min 50 sec) 
Heartbeat CPU 0 instructions: 1870000001 cycles: 1726286255 heartbeat IPC: 1.05783 cumulative IPC: 1.04802 (Simulation time: 6 hr 22 min 3 sec) 
Heartbeat CPU 3 instructions: 1340000000 cycles: 1732124984 heartbeat IPC: 0.540027 cumulative IPC: 0.654163 (Simulation time: 6 hr 23 min 4 sec) 
Heartbeat CPU 0 instructions: 1880000000 cycles: 1735732749 heartbeat IPC: 1.05859 cumulative IPC: 1.04809 (Simulation time: 6 hr 23 min 39 sec) 
Heartbeat CPU 1 instructions: 1440000000 cycles: 1736447845 heartbeat IPC: 0.877623 cumulative IPC: 0.689821 (Simulation time: 6 hr 23 min 47 sec) 
Heartbeat CPU 0 instructions: 1890000003 cycles: 1745208323 heartbeat IPC: 1.05535 cumulative IPC: 1.04813 (Simulation time: 6 hr 25 min 18 sec) 
Heartbeat CPU 2 instructions: 1270000001 cycles: 1747666298 heartbeat IPC: 0.323018 cumulative IPC: 0.60129 (Simulation time: 6 hr 25 min 44 sec) 
Heartbeat CPU 1 instructions: 1450000001 cycles: 1748464256 heartbeat IPC: 0.832195 cumulative IPC: 0.690879 (Simulation time: 6 hr 25 min 53 sec) 
Heartbeat CPU 3 instructions: 1350000003 cycles: 1751905246 heartbeat IPC: 0.505555 cumulative IPC: 0.652348 (Simulation time: 6 hr 26 min 26 sec) 
Heartbeat CPU 0 instructions: 1900000000 cycles: 1755052949 heartbeat IPC: 1.01578 cumulative IPC: 1.04793 (Simulation time: 6 hr 26 min 59 sec) 
Heartbeat CPU 1 instructions: 1460000000 cycles: 1762549088 heartbeat IPC: 0.709984 cumulative IPC: 0.691045 (Simulation time: 6 hr 28 min 15 sec) 
Heartbeat CPU 0 instructions: 1910000002 cycles: 1764606103 heartbeat IPC: 1.04677 cumulative IPC: 1.04793 (Simulation time: 6 hr 28 min 37 sec) 
Heartbeat CPU 3 instructions: 1360000000 cycles: 1771855049 heartbeat IPC: 0.501258 cumulative IPC: 0.650509 (Simulation time: 6 hr 29 min 53 sec) 
Heartbeat CPU 1 instructions: 1470000000 cycles: 1773157440 heartbeat IPC: 0.942653 cumulative IPC: 0.692672 (Simulation time: 6 hr 30 min 8 sec) 
Heartbeat CPU 0 instructions: 1920000000 cycles: 1774043150 heartbeat IPC: 1.05965 cumulative IPC: 1.04799 (Simulation time: 6 hr 30 min 16 sec) 
Heartbeat CPU 2 instructions: 1280000000 cycles: 1780440195 heartbeat IPC: 0.305121 cumulative IPC: 0.595399 (Simulation time: 6 hr 31 min 27 sec) 
Heartbeat CPU 1 instructions: 1480000000 cycles: 1782467740 heartbeat IPC: 1.07408 cumulative IPC: 0.694824 (Simulation time: 6 hr 31 min 50 sec) 
Heartbeat CPU 0 instructions: 1930000000 cycles: 1783471703 heartbeat IPC: 1.06061 cumulative IPC: 1.04806 (Simulation time: 6 hr 32 min 0 sec) 
Heartbeat CPU 3 instructions: 1370000001 cycles: 1789768705 heartbeat IPC: 0.558233 cumulative IPC: 0.649511 (Simulation time: 6 hr 33 min 20 sec) 
Heartbeat CPU 1 instructions: 1490000003 cycles: 1791903808 heartbeat IPC: 1.05976 cumulative IPC: 0.6969 (Simulation time: 6 hr 33 min 47 sec) 
Heartbeat CPU 0 instructions: 1940000000 cycles: 1792860537 heartbeat IPC: 1.06509 cumulative IPC: 1.04816 (Simulation time: 6 hr 33 min 58 sec) 
Heartbeat CPU 2 instructions: 1290000001 cycles: 1795088815 heartbeat IPC: 0.682658 cumulative IPC: 0.596168 (Simulation time: 6 hr 34 min 26 sec) 
Heartbeat CPU 0 instructions: 1950000002 cycles: 1802235488 heartbeat IPC: 1.06667 cumulative IPC: 1.04827 (Simulation time: 6 hr 35 min 53 sec) 
Heartbeat CPU 1 instructions: 1500000000 cycles: 1802660678 heartbeat IPC: 0.929638 cumulative IPC: 0.698399 (Simulation time: 6 hr 35 min 59 sec) 
Heartbeat CPU 3 instructions: 1380000000 cycles: 1805884122 heartbeat IPC: 0.620524 cumulative IPC: 0.649232 (Simulation time: 6 hr 36 min 41 sec) 
Finished CPU 2 instructions: 1000000000 cycles: 1674102336 cumulative IPC: 0.597335 (Simulation time: 6 hr 36 min 55 sec) 

CPU 0 Branch Prediction Accuracy: 98.3329% MPKI: 0.684046

CPU 1 Branch Prediction Accuracy: 97.0948% MPKI: 2.43248

CPU 2 Branch Prediction Accuracy: 99.7877% MPKI: 0.0233721

CPU 3 Branch Prediction Accuracy: 99.9996% MPKI: 0.000198168

ChampSim completed all CPUs

Total Simulation Statistics (not including warmup)

CPU 0 cumulative IPC: 1.04833 instructions: 1755008511 cycles: 1674102335
L1D TOTAL     ACCESS:  779278563  HIT:  743453248  MISS:   35825315
L1D LOAD      ACCESS:  657852295  HIT:  622857949  MISS:   34994346
L1D RFO       ACCESS:  121426268  HIT:  120595299  MISS:     830969
L1D PREFETCH  ACCESS:          0  HIT:          0  MISS:          0
L1D WRITEBACK ACCESS:          0  HIT:          0  MISS:          0
L1I TOTAL     ACCESS:  408841245  HIT:  408841157  MISS:         88
L1I LOAD      ACCESS:  408841245  HIT:  408841157  MISS:         88
L1I RFO       ACCESS:          0  HIT:          0  MISS:          0
L1I PREFETCH  ACCESS:          0  HIT:          0  MISS:          0
L1I WRITEBACK ACCESS:          0  HIT:          0  MISS:          0
L2C TOTAL     ACCESS:   55090175  HIT:   22281266  MISS:   32808909
L2C LOAD      ACCESS:   34984597  HIT:   13750582  MISS:   21234015
L2C RFO       ACCESS:     820552  HIT:     118192  MISS:     702360
L2C PREFETCH  ACCESS:   16955720  HIT:    6089933  MISS:   10865787
L2C WRITEBACK ACCESS:    2329306  HIT:    2322559  MISS:       6747
LLC TOTAL     ACCESS:  126227117  HIT:   93442496  MISS:   32784621
LLC LOAD      ACCESS:   19147582  HIT:   17568711  MISS:    1578871
LLC RFO       ACCESS:     702360  HIT:          8  MISS:     702352
LLC PREFETCH  ACCESS:  104315358  HIT:   73813282  MISS:   30502076
LLC WRITEBACK ACCESS:    2061817  HIT:    2060495  MISS:       1322

CPU 1 cumulative IPC: 0.699076 instructions: 1170324394 cycles: 1674102336
L1D TOTAL     ACCESS:  211968457  HIT:  190154371  MISS:   21814086
L1D LOAD      ACCESS:  184041541  HIT:  163468387  MISS:   20573154
L1D RFO       ACCESS:   27926916  HIT:   26685984  MISS:    1240932
L1D PREFETCH  ACCESS:          0  HIT:          0  MISS:          0
L1D WRITEBACK ACCESS:          0  HIT:          0  MISS:          0
L1I TOTAL     ACCESS:  309290912  HIT:  309288905  MISS:       2007
L1I LOAD      ACCESS:  309290912  HIT:  309288905  MISS:       2007
L1I RFO       ACCESS:          0  HIT:          0  MISS:          0
L1I PREFETCH  ACCESS:          0  HIT:          0  MISS:          0
L1I WRITEBACK ACCESS:          0  HIT:          0  MISS:          0
L2C TOTAL     ACCESS:   33302210  HIT:   16350186  MISS:   16952024
L2C LOAD      ACCESS:   20575150  HIT:    9805619  MISS:   10769531
L2C RFO       ACCESS:    1240882  HIT:     215293  MISS:    1025589
L2C PREFETCH  ACCESS:    9512265  HIT:    4358547  MISS:    5153718
L2C WRITEBACK ACCESS:    1973913  HIT:    1970727  MISS:       3186
LLC TOTAL     ACCESS:   63988132  HIT:   44409203  MISS:   19578929
LLC LOAD      ACCESS:   10307887  HIT:    6447049  MISS:    3860838
LLC RFO       ACCESS:    1025570  HIT:     150958  MISS:     874612
LLC PREFETCH  ACCESS:   51022582  HIT:   36199844  MISS:   14822738
LLC WRITEBACK ACCESS:    1632093  HIT:    1611352  MISS:      20741

CPU 2 cumulative IPC: 0.597335 instructions: 1000000000 cycles: 1674102336
L1D TOTAL     ACCESS:  546146519  HIT:  531153909  MISS:   14992610
L1D LOAD      ACCESS:  485685224  HIT:  470868706  MISS:   14816518
L1D RFO       ACCESS:   60461295  HIT:   60285203  MISS:     176092
L1D PREFETCH  ACCESS:          0  HIT:          0  MISS:          0
L1D WRITEBACK ACCESS:          0  HIT:          0  MISS:          0
L1I TOTAL     ACCESS:  274981543  HIT:  274980578  MISS:        965
L1I LOAD      ACCESS:  274981543  HIT:  274980578  MISS:        965
L1I RFO       ACCESS:          0  HIT:          0  MISS:          0
L1I PREFETCH  ACCESS:          0  HIT:          0  MISS:          0
L1I WRITEBACK ACCESS:          0  HIT:          0  MISS:          0
L2C TOTAL     ACCESS:   34817474  HIT:   26022456  MISS:    8795018
L2C LOAD      ACCESS:   14816542  HIT:    8901969  MISS:    5914573
L2C RFO       ACCESS:     175991  HIT:       1354  MISS:     174637
L2C PREFETCH  ACCESS:   14992813  HIT:   12287552  MISS:    2705261
L2C WRITEBACK ACCESS:    4832128  HIT:    4831581  MISS:        547
LLC TOTAL     ACCESS:   39336045  HIT:   29166622  MISS:   10169423
LLC LOAD      ACCESS:    5876022  HIT:    3793671  MISS:    2082351
LLC RFO       ACCESS:     174637  HIT:      84669  MISS:      89968
LLC PREFETCH  ACCESS:   29475300  HIT:   21562335  MISS:    7912965
LLC WRITEBACK ACCESS:    3810086  HIT:    3725947  MISS:      84139

CPU 3 cumulative IPC: 0.649319 instructions: 1087025989 cycles: 1674102336
L1D TOTAL     ACCESS:  237166985  HIT:  216569152  MISS:   20597833
L1D LOAD      ACCESS:  116903940  HIT:   99466211  MISS:   17437729
L1D RFO       ACCESS:  120263045  HIT:  117102941  MISS:    3160104
L1D PREFETCH  ACCESS:          0  HIT:          0  MISS:          0
L1D WRITEBACK ACCESS:          0  HIT:          0  MISS:          0
L1I TOTAL     ACCESS:  278647321  HIT:  278647307  MISS:         14
L1I LOAD      ACCESS:  278647321  HIT:  278647307  MISS:         14
L1I RFO       ACCESS:          0  HIT:          0  MISS:          0
L1I PREFETCH  ACCESS:          0  HIT:          0  MISS:          0
L1I WRITEBACK ACCESS:          0  HIT:          0  MISS:          0
L2C TOTAL     ACCESS:   32245412  HIT:   11399606  MISS:   20845806
L2C LOAD      ACCESS:   17437743  HIT:    4507568  MISS:   12930175
L2C RFO       ACCESS:    3160104  HIT:          0  MISS:    3160104
L2C PREFETCH  ACCESS:    4871049  HIT:     115734  MISS:    4755315
L2C WRITEBACK ACCESS:    6776516  HIT:    6776304  MISS:        212
LLC TOTAL     ACCESS:   61661400  HIT:   38118972  MISS:   23542428
LLC LOAD      ACCESS:   11662465  HIT:    5982489  MISS:    5679976
LLC RFO       ACCESS:    3160104  HIT:       1712  MISS:    3158392
LLC PREFETCH  ACCESS:   40062315  HIT:   25358852  MISS:   14703463
LLC WRITEBACK ACCESS:    6776516  HIT:    6775919  MISS:        597

Region of Interest Statistics

CPU 0 cumulative IPC: 1.0451 instructions: 1000000002 cycles: 956846193
L1D TOTAL     ACCESS:  447936362  HIT:  427519621  MISS:   20416741
L1D LOAD      ACCESS:  378604557  HIT:  358662040  MISS:   19942517
L1D RFO       ACCESS:   69331805  HIT:   68857581  MISS:     474224
L1D PREFETCH  ACCESS:          0  HIT:          0  MISS:          0
L1D WRITEBACK ACCESS:          0  HIT:          0  MISS:          0
L1D PREFETCH  REQUESTED:          0  ISSUED:          0  USEFUL:          0  USELESS:          0
L1I TOTAL     ACCESS:  232902542  HIT:  232902454  MISS:         88
L1I LOAD      ACCESS:  232902542  HIT:  232902454  MISS:         88
L1I RFO       ACCESS:          0  HIT:          0  MISS:          0
L1I PREFETCH  ACCESS:          0  HIT:          0  MISS:          0
L1I WRITEBACK ACCESS:          0  HIT:          0  MISS:          0
L1I PREFETCH  REQUESTED:          0  ISSUED:          0  USEFUL:          0  USELESS:          0
L2C TOTAL     ACCESS:   31237021  HIT:   12553806  MISS:   18683215
L2C LOAD      ACCESS:   19936967  HIT:    7775303  MISS:   12161664
L2C RFO       ACCESS:     468613  HIT:      62772  MISS:     405841
L2C PREFETCH  ACCESS:    9595204  HIT:    3483392  MISS:    6111812
L2C WRITEBACK ACCESS:    1236237  HIT:    1232339  MISS:       3898
L2C PREFETCH  REQUESTED:  204440613  ISSUED:  156655471  USEFUL:   12719880  USELESS:        789
LLC TOTAL     ACCESS:   71204585  HIT:   52533713  MISS:   18670872
LLC LOAD      ACCESS:   10978351  HIT:   10075111  MISS:     903240
LLC RFO       ACCESS:     405841  HIT:          5  MISS:     405836
LLC PREFETCH  ACCESS:   58734129  HIT:   41373096  MISS:   17361033
LLC WRITEBACK ACCESS:    1086264  HIT:    1085501  MISS:        763
LLC PREFETCH  REQUESTED:          0  ISSUED:          0  USEFUL:   39127995  USELESS:   47706789
Major fault: 0 Minor fault: 108280

CPU 1 cumulative IPC: 0.681469 instructions: 1000000000 cycles: 1467417452
L1D TOTAL     ACCESS:  182160242  HIT:  163186330  MISS:   18973912
L1D LOAD      ACCESS:  157441971  HIT:  139513421  MISS:   17928550
L1D RFO       ACCESS:   24718271  HIT:   23672909  MISS:    1045362
L1D PREFETCH  ACCESS:          0  HIT:          0  MISS:          0
L1D WRITEBACK ACCESS:          0  HIT:          0  MISS:          0
L1D PREFETCH  REQUESTED:          0  ISSUED:          0  USEFUL:          0  USELESS:          0
L1I TOTAL     ACCESS:  263369198  HIT:  263367383  MISS:       1815
L1I LOAD      ACCESS:  263369198  HIT:  263367383  MISS:       1815
L1I RFO       ACCESS:          0  HIT:          0  MISS:          0
L1I PREFETCH  ACCESS:          0  HIT:          0  MISS:          0
L1I WRITEBACK ACCESS:          0  HIT:          0  MISS:          0
L1I PREFETCH  REQUESTED:          0  ISSUED:          0  USEFUL:          0  USELESS:          0
L2C TOTAL     ACCESS:   28641037  HIT:   14003425  MISS:   14637612
L2C LOAD      ACCESS:   17930354  HIT:    8493266  MISS:    9437088
L2C RFO       ACCESS:    1045315  HIT:     192562  MISS:     852753
L2C PREFETCH  ACCESS:    7949920  HIT:    3604815  MISS:    4345105
L2C WRITEBACK ACCESS:    1715448  HIT:    1712782  MISS:       2666
L2C PREFETCH  REQUESTED:   82625731  ISSUED:   82625355  USEFUL:    6343028  USELESS:     373772
LLC TOTAL     ACCESS:   54843601  HIT:   37781448  MISS:   17062153
LLC LOAD      ACCESS:    9052687  HIT:    5616983  MISS:    3435704
LLC RFO       ACCESS:     852734  HIT:     117641  MISS:     735093
LLC PREFETCH  ACCESS:   43529226  HIT:   30656547  MISS:   12872679
LLC WRITEBACK ACCESS:    1408954  HIT:    1390277  MISS:      18677
LLC PREFETCH  REQUESTED:          0  ISSUED:          0  USEFUL:   39127995  USELESS:   47706789
Major fault: 0 Minor fault: 4660

CPU 2 cumulative IPC: 0.597335 instructions: 1000000000 cycles: 1674102336
L1D TOTAL     ACCESS:  546146519  HIT:  531153909  MISS:   14992610
L1D LOAD      ACCESS:  485685224  HIT:  470868706  MISS:   14816518
L1D RFO       ACCESS:   60461295  HIT:   60285203  MISS:     176092
L1D PREFETCH  ACCESS:          0  HIT:          0  MISS:          0
L1D WRITEBACK ACCESS:          0  HIT:          0  MISS:          0
L1D PREFETCH  REQUESTED:          0  ISSUED:          0  USEFUL:          0  USELESS:          0
L1I TOTAL     ACCESS:  274981543  HIT:  274980578  MISS:        965
L1I LOAD      ACCESS:  274981543  HIT:  274980578  MISS:        965
L1I RFO       ACCESS:          0  HIT:          0  MISS:          0
L1I PREFETCH  ACCESS:          0  HIT:          0  MISS:          0
L1I WRITEBACK ACCESS:          0  HIT:          0  MISS:          0
L1I PREFETCH  REQUESTED:          0  ISSUED:          0  USEFUL:          0  USELESS:          0
L2C TOTAL     ACCESS:   34817474  HIT:   26022456  MISS:    8795018
L2C LOAD      ACCESS:   14816542  HIT:    8901969  MISS:    5914573
L2C RFO       ACCESS:     175991  HIT:       1354  MISS:     174637
L2C PREFETCH  ACCESS:   14992813  HIT:   12287552  MISS:    2705261
L2C WRITEBACK ACCESS:    4832128  HIT:    4831581  MISS:        547
L2C PREFETCH  REQUESTED:   78782241  ISSUED:   78759935  USEFUL:    6831800  USELESS:     383779
LLC TOTAL     ACCESS:   39336045  HIT:   29166622  MISS:   10169423
LLC LOAD      ACCESS:    5876022  HIT:    3793671  MISS:    2082351
LLC RFO       ACCESS:     174637  HIT:      84669  MISS:      89968
LLC PREFETCH  ACCESS:   29475300  HIT:   21562335  MISS:    7912965
LLC WRITEBACK ACCESS:    3810086  HIT:    3725947  MISS:      84139
LLC PREFETCH  REQUESTED:          0  ISSUED:          0  USEFUL:   39127995  USELESS:   47706789
Major fault: 0 Minor fault: 179890

CPU 3 cumulative IPC: 0.65421 instructions: 1000000000 cycles: 1528562166
L1D TOTAL     ACCESS:  221079666  HIT:  202717723  MISS:   18361943
L1D LOAD      ACCESS:  107279809  HIT:   91557956  MISS:   15721853
L1D RFO       ACCESS:  113799857  HIT:  111159767  MISS:    2640090
L1D PREFETCH  ACCESS:          0  HIT:          0  MISS:          0
L1D WRITEBACK ACCESS:          0  HIT:          0  MISS:          0
L1D PREFETCH  REQUESTED:          0  ISSUED:          0  USEFUL:          0  USELESS:          0
L1I TOTAL     ACCESS:  255931355  HIT:  255931341  MISS:         14
L1I LOAD      ACCESS:  255931355  HIT:  255931341  MISS:         14
L1I RFO       ACCESS:          0  HIT:          0  MISS:          0
L1I PREFETCH  ACCESS:          0  HIT:          0  MISS:          0
L1I WRITEBACK ACCESS:          0  HIT:          0  MISS:          0
L1I PREFETCH  REQUESTED:          0  ISSUED:          0  USEFUL:          0  USELESS:          0
L2C TOTAL     ACCESS:   28879424  HIT:   10281581  MISS:   18597843
L2C LOAD      ACCESS:   15721867  HIT:    4101036  MISS:   11620831
L2C RFO       ACCESS:    2640090  HIT:          0  MISS:    2640090
L2C PREFETCH  ACCESS:    4410231  HIT:      73500  MISS:    4336731
L2C WRITEBACK ACCESS:    6107236  HIT:    6107045  MISS:        191
L2C PREFETCH  REQUESTED:   78738391  ISSUED:   78738391  USEFUL:    6617140  USELESS:     305381
LLC TOTAL     ACCESS:   55886469  HIT:   34803755  MISS:   21082714
LLC LOAD      ACCESS:   10524629  HIT:    5439178  MISS:    5085451
LLC RFO       ACCESS:    2640090  HIT:       1074  MISS:    2639016
LLC PREFETCH  ACCESS:   36614517  HIT:   23256734  MISS:   13357783
LLC WRITEBACK ACCESS:    6107233  HIT:    6106769  MISS:        464
LLC PREFETCH  REQUESTED:          0  ISSUED:          0  USEFUL:   39127995  USELESS:   47706789
Major fault: 0 Minor fault: 98309

DRAM Statistics
 CHANNEL 0
 RQ ROW_BUFFER_HIT:   25452302  ROW_BUFFER_MISS:   19178879
 DBUS_CONGESTED:   60624736
 WQ ROW_BUFFER_HIT:     945884  ROW_BUFFER_MISS:    5993022  FULL:          0

 CHANNEL 1
 RQ ROW_BUFFER_HIT:   22558101  ROW_BUFFER_MISS:   18777972
 DBUS_CONGESTED:   60624736
 WQ ROW_BUFFER_HIT:     942265  ROW_BUFFER_MISS:    5992634  FULL:          0

 AVG_CONGESTED_CYCLE: 13
